
     RDKit          3D

 72 76  0  0  0  0  0  0  0  0999 V2000
   10.2834   43.7662   33.8257 C   0  0  0  0  0  0  0  0  0  0  0  0
   11.4102   43.5930   34.3752 O   0  0  0  0  0  0  0  0  0  0  0  0
    9.3637   42.7255   33.7349 O   0  0  0  0  0  0  0  0  0  0  0  0
    9.8905   41.2266   34.2934 P   0  0  0  0  0  0  0  0  0  0  0  0
   10.3744   41.4557   35.8827 O   0  0  0  0  0  0  0  0  0  0  0  0
    9.9546   45.0696   33.2037 C   0  0  1  0  0  0  0  0  0  0  0  0
   11.0273   46.0323   33.4757 N   0  0  0  0  0  0  0  0  0  0  0  0
    9.7465   44.8481   31.6878 C   0  0  0  0  0  0  0  0  0  0  0  0
    8.7923   45.8410   31.0847 C   0  0  0  0  0  0  0  0  0  0  0  0
    7.4056   45.6012   31.0984 C   0  0  0  0  0  0  0  0  0  0  0  0
    9.2823   46.9874   30.4418 C   0  0  0  0  0  0  0  0  0  0  0  0
    6.5268   46.5026   30.4828 C   0  0  0  0  0  0  0  0  0  0  0  0
    8.4033   47.8892   29.8306 C   0  0  0  0  0  0  0  0  0  0  0  0
    7.0140   47.6544   29.8499 C   0  0  0  0  0  0  0  0  0  0  0  0
    6.0884   48.5285   29.2580 O   0  0  0  0  0  0  0  0  0  0  0  0
    6.3956   49.8128   28.7136 C   0  0  0  0  0  0  0  0  0  0  0  0
    6.7883   50.7842   29.8040 C   0  0  0  0  0  0  0  0  0  0  0  0
    5.9902   50.9857   30.9622 C   0  0  0  0  0  0  0  0  0  0  0  0
    8.0050   51.4802   29.6796 C   0  0  0  0  0  0  0  0  0  0  0  0
    4.7237   50.3247   31.1363 N   0  0  0  0  0  0  0  0  0  0  0  0
    6.4572   51.8443   31.9745 C   0  0  0  0  0  0  0  0  0  0  0  0
    8.4416   52.3390   30.6887 C   0  0  0  0  0  0  0  0  0  0  0  0
    3.8522   50.1888   30.0810 O   0  0  0  0  0  0  0  0  0  0  0  0
    4.3331   50.0123   32.2803 O   0  0  0  0  0  0  0  0  0  0  0  0
    7.6722   52.5162   31.8364 C   0  0  0  0  0  0  0  0  0  0  0  0
    8.8122   40.1851   34.2128 O   0  0  0  0  0  0  0  0  0  0  0  0
   11.2403   40.7946   33.3668 O   0  0  0  0  0  0  0  0  0  0  0  0
   10.9126   40.6859   31.9954 C   0  0  0  0  0  0  0  0  0  0  0  0
   11.5175   39.3787   31.4405 C   0  0  0  0  0  0  0  0  0  0  0  0
   12.7490   39.0864   32.0752 O   0  0  0  0  0  0  0  0  0  0  0  0
   10.6061   38.1868   31.6656 C   0  0  0  0  0  0  0  0  0  0  0  0
   12.9356   37.6796   32.0292 C   0  0  0  0  0  0  0  0  0  0  0  0
    9.6399   38.0903   30.6471 O   0  0  0  0  0  0  0  0  0  0  0  0
   11.5765   37.0145   31.7044 C   0  0  0  0  0  0  0  0  0  0  0  0
   13.4858   37.2125   33.3244 N   0  0  0  0  0  0  0  0  0  0  0  0
   11.6101   36.3397   30.4673 O   0  0  0  0  0  0  0  0  0  0  0  0
   14.4805   36.3319   33.5729 C   0  0  0  0  0  0  0  0  0  0  0  0
   13.1143   37.6276   34.5694 C   0  0  0  0  0  0  0  0  0  0  0  0
   15.2076   35.6153   32.6741 N   0  0  0  0  0  0  0  0  0  0  0  0
   14.6760   36.2304   34.9184 C   0  0  0  0  0  0  0  0  0  0  0  0
   13.8219   37.0449   35.5786 N   0  0  0  0  0  0  0  0  0  0  0  0
   16.1641   34.7600   33.1548 C   0  0  0  0  0  0  0  0  0  0  0  0
   15.6528   35.3505   35.4132 C   0  0  0  0  0  0  0  0  0  0  0  0
   16.3795   34.6314   34.5043 N   0  0  0  0  0  0  0  0  0  0  0  0
   15.9002   35.1931   36.8091 N   0  0  0  0  0  0  0  0  0  0  0  0
    9.0120   45.4318   33.6716 H   0  0  0  0  0  0  0  0  0  0  0  0
   10.7258   46.9689   33.1214 H   0  0  0  0  0  0  0  0  0  0  0  0
   11.8905   45.7660   32.9469 H   0  0  0  0  0  0  0  0  0  0  0  0
   10.7228   44.8814   31.1558 H   0  0  0  0  0  0  0  0  0  0  0  0
    9.3413   43.8330   31.4764 H   0  0  0  0  0  0  0  0  0  0  0  0
    7.0083   44.7163   31.5803 H   0  0  0  0  0  0  0  0  0  0  0  0
   10.3471   47.1831   30.4087 H   0  0  0  0  0  0  0  0  0  0  0  0
    5.4621   46.3075   30.5022 H   0  0  0  0  0  0  0  0  0  0  0  0
    8.8174   48.7567   29.3385 H   0  0  0  0  0  0  0  0  0  0  0  0
    7.1855   49.7104   27.9382 H   0  0  0  0  0  0  0  0  0  0  0  0
    5.4997   50.2040   28.1900 H   0  0  0  0  0  0  0  0  0  0  0  0
    8.6274   51.3488   28.8030 H   0  0  0  0  0  0  0  0  0  0  0  0
    5.8686   52.0072   32.8685 H   0  0  0  0  0  0  0  0  0  0  0  0
    9.3825   52.8635   30.5828 H   0  0  0  0  0  0  0  0  0  0  0  0
    8.0152   53.1798   32.6197 H   0  0  0  0  0  0  0  0  0  0  0  0
    9.8215   40.7200   31.7636 H   0  0  0  0  0  0  0  0  0  0  0  0
   11.3803   41.5437   31.4663 H   0  0  0  0  0  0  0  0  0  0  0  0
   11.6998   39.5041   30.3482 H   0  0  0  0  0  0  0  0  0  0  0  0
   10.1085   38.2767   32.6603 H   0  0  0  0  0  0  0  0  0  0  0  0
   13.6680   37.4520   31.2229 H   0  0  0  0  0  0  0  0  0  0  0  0
    9.0016   37.3868   30.9349 H   0  0  0  0  0  0  0  0  0  0  0  0
   11.2666   36.3062   32.5083 H   0  0  0  0  0  0  0  0  0  0  0  0
   12.1389   35.5126   30.6150 H   0  0  0  0  0  0  0  0  0  0  0  0
   12.3300   38.3529   34.7449 H   0  0  0  0  0  0  0  0  0  0  0  0
   16.7560   34.1779   32.4621 H   0  0  0  0  0  0  0  0  0  0  0  0
   15.3534   35.7359   37.5140 H   0  0  0  0  0  0  0  0  0  0  0  0
   16.6347   34.5298   37.1416 H   0  0  0  0  0  0  0  0  0  0  0  0
  1  2  2  0
  1  3  1  0
  3  4  1  0
  4  5  1  0
  6  1  1  0
  7  6  1  0
  6  8  1  0
  8  9  1  0
  9 10  2  0
 11  9  1  0
 10 12  1  0
 13 11  2  0
 12 14  2  0
 14 13  1  0
 14 15  1  0
 15 16  1  0
 16 17  1  0
 17 18  2  0
 19 17  1  0
 18 20  1  0
 18 21  1  0
 22 19  2  0
 20 23  1  0
 20 24  2  0
 21 25  2  0
 25 22  1  0
  4 26  2  0
  4 27  1  0
 28 27  1  0
 28 29  1  0
 29 30  1  0
 29 31  1  0
 30 32  1  0
 31 33  1  0
 31 34  1  0
 34 32  1  0
 32 35  1  0
 34 36  1  0
 37 35  1  0
 38 35  1  0
 39 37  2  0
 37 40  1  0
 41 38  2  0
 42 39  1  0
 40 43  2  0
 40 41  1  0
 44 42  2  0
 44 43  1  0
 43 45  1  0
  6 46  1  1
  7 47  1  0
  7 48  1  0
  8 49  1  0
  8 50  1  0
 10 51  1  0
 11 52  1  0
 12 53  1  0
 13 54  1  0
 16 55  1  0
 16 56  1  0
 19 57  1  0
 21 58  1  0
 22 59  1  0
 25 60  1  0
 28 61  1  0
 28 62  1  0
 29 63  1  0
 31 64  1  0
 32 65  1  0
 33 66  1  0
 34 67  1  0
 36 68  1  0
 38 69  1  0
 42 70  1  0
 45 71  1  0
 45 72  1  0
M  CHG  3   5  -1  20   1  23  -1
M  END
>  <EmbedRMS>  (1) 
0.0823981474633

$$$$

     RDKit          3D

 72 76  0  0  0  0  0  0  0  0999 V2000
   10.2804   43.7664   33.8249 C   0  0  0  0  0  0  0  0  0  0  0  0
   11.4111   43.5918   34.3666 O   0  0  0  0  0  0  0  0  0  0  0  0
    9.3619   42.7249   33.7344 O   0  0  0  0  0  0  0  0  0  0  0  0
    9.8899   41.2266   34.2940 P   0  0  0  0  0  0  0  0  0  0  0  0
   10.3734   41.4567   35.8833 O   0  0  0  0  0  0  0  0  0  0  0  0
    9.9460   45.0736   33.2111 C   0  0  1  0  0  0  0  0  0  0  0  0
   11.0267   46.0292   33.4708 N   0  0  0  0  0  0  0  0  0  0  0  0
    9.7540   44.8541   31.6948 C   0  0  0  0  0  0  0  0  0  0  0  0
    8.7957   45.8412   31.0848 C   0  0  0  0  0  0  0  0  0  0  0  0
    7.4089   45.6001   31.1012 C   0  0  0  0  0  0  0  0  0  0  0  0
    9.2824   46.9881   30.4399 C   0  0  0  0  0  0  0  0  0  0  0  0
    6.5263   46.4994   30.4867 C   0  0  0  0  0  0  0  0  0  0  0  0
    8.3994   47.8875   29.8313 C   0  0  0  0  0  0  0  0  0  0  0  0
    7.0181   47.6539   29.8456 C   0  0  0  0  0  0  0  0  0  0  0  0
    6.1800   48.5859   29.2126 O   0  0  0  0  0  0  0  0  0  0  0  0
    4.7585   48.4840   29.1019 C   0  0  0  0  0  0  0  0  0  0  0  0
    4.3510   47.3565   28.1771 C   0  0  0  0  0  0  0  0  0  0  0  0
    3.1902   46.5723   28.4063 C   0  0  0  0  0  0  0  0  0  0  0  0
    5.0856   47.1566   26.9925 C   0  0  0  0  0  0  0  0  0  0  0  0
    2.3660   46.7631   29.5651 N   0  0  0  0  0  0  0  0  0  0  0  0
    2.8136   45.6037   27.4605 C   0  0  0  0  0  0  0  0  0  0  0  0
    4.7051   46.1784   26.0727 C   0  0  0  0  0  0  0  0  0  0  0  0
    2.8917   46.5730   30.8216 O   0  0  0  0  0  0  0  0  0  0  0  0
    1.1265   46.8348   29.4363 O   0  0  0  0  0  0  0  0  0  0  0  0
    3.5718   45.4024   26.3068 C   0  0  0  0  0  0  0  0  0  0  0  0
    8.8123   40.1844   34.2133 O   0  0  0  0  0  0  0  0  0  0  0  0
   11.2405   40.7942   33.3692 O   0  0  0  0  0  0  0  0  0  0  0  0
   10.9150   40.6905   31.9972 C   0  0  0  0  0  0  0  0  0  0  0  0
   11.5252   39.3886   31.4375 C   0  0  0  0  0  0  0  0  0  0  0  0
   12.7499   39.0874   32.0799 O   0  0  0  0  0  0  0  0  0  0  0  0
   10.6092   38.1926   31.6470 C   0  0  0  0  0  0  0  0  0  0  0  0
   12.9332   37.6793   32.0294 C   0  0  0  0  0  0  0  0  0  0  0  0
    9.6121   38.0894   30.6542 O   0  0  0  0  0  0  0  0  0  0  0  0
   11.5743   37.0145   31.7024 C   0  0  0  0  0  0  0  0  0  0  0  0
   13.4844   37.2108   33.3241 N   0  0  0  0  0  0  0  0  0  0  0  0
   11.6297   36.3239   30.4740 O   0  0  0  0  0  0  0  0  0  0  0  0
   14.4802   36.3313   33.5727 C   0  0  0  0  0  0  0  0  0  0  0  0
   13.1138   37.6266   34.5692 C   0  0  0  0  0  0  0  0  0  0  0  0
   15.2075   35.6149   32.6739 N   0  0  0  0  0  0  0  0  0  0  0  0
   14.6761   36.2303   34.9181 C   0  0  0  0  0  0  0  0  0  0  0  0
   13.8220   37.0447   35.5785 N   0  0  0  0  0  0  0  0  0  0  0  0
   16.1643   34.7600   33.1547 C   0  0  0  0  0  0  0  0  0  0  0  0
   15.6529   35.3505   35.4130 C   0  0  0  0  0  0  0  0  0  0  0  0
   16.3798   34.6315   34.5042 N   0  0  0  0  0  0  0  0  0  0  0  0
   15.9003   35.1932   36.8090 N   0  0  0  0  0  0  0  0  0  0  0  0
    8.9996   45.4381   33.6721 H   0  0  0  0  0  0  0  0  0  0  0  0
   10.7765   46.9369   33.0159 H   0  0  0  0  0  0  0  0  0  0  0  0
   11.0502   46.2277   34.4982 H   0  0  0  0  0  0  0  0  0  0  0  0
    9.3645   43.8354   31.4710 H   0  0  0  0  0  0  0  0  0  0  0  0
   10.7411   44.9079   31.1835 H   0  0  0  0  0  0  0  0  0  0  0  0
    7.0146   44.7153   31.5856 H   0  0  0  0  0  0  0  0  0  0  0  0
   10.3462   47.1880   30.4055 H   0  0  0  0  0  0  0  0  0  0  0  0
    5.4696   46.2848   30.5163 H   0  0  0  0  0  0  0  0  0  0  0  0
    8.7915   48.7688   29.3395 H   0  0  0  0  0  0  0  0  0  0  0  0
    4.3176   48.4030   30.1135 H   0  0  0  0  0  0  0  0  0  0  0  0
    4.3819   49.4318   28.6643 H   0  0  0  0  0  0  0  0  0  0  0  0
    5.9549   47.7648   26.7751 H   0  0  0  0  0  0  0  0  0  0  0  0
    1.9309   44.9981   27.6238 H   0  0  0  0  0  0  0  0  0  0  0  0
    5.2846   46.0298   25.1706 H   0  0  0  0  0  0  0  0  0  0  0  0
    3.2747   44.6488   25.5888 H   0  0  0  0  0  0  0  0  0  0  0  0
   11.3800   41.5528   31.4730 H   0  0  0  0  0  0  0  0  0  0  0  0
    9.8241   40.7215   31.7641 H   0  0  0  0  0  0  0  0  0  0  0  0
   11.7266   39.5310   30.3513 H   0  0  0  0  0  0  0  0  0  0  0  0
   10.1110   38.2747   32.6387 H   0  0  0  0  0  0  0  0  0  0  0  0
   13.6652   37.4520   31.2226 H   0  0  0  0  0  0  0  0  0  0  0  0
   10.0511   38.1143   29.7645 H   0  0  0  0  0  0  0  0  0  0  0  0
   11.2762   36.3141   32.5189 H   0  0  0  0  0  0  0  0  0  0  0  0
   10.8593   35.6978   30.4640 H   0  0  0  0  0  0  0  0  0  0  0  0
   12.3295   38.3518   34.7450 H   0  0  0  0  0  0  0  0  0  0  0  0
   16.7564   34.1780   32.4620 H   0  0  0  0  0  0  0  0  0  0  0  0
   15.3534   35.7359   37.5138 H   0  0  0  0  0  0  0  0  0  0  0  0
   16.6349   34.5300   37.1415 H   0  0  0  0  0  0  0  0  0  0  0  0
  1  2  2  0
  1  3  1  0
  3  4  1  0
  4  5  1  0
  6  1  1  0
  7  6  1  0
  6  8  1  0
  8  9  1  0
  9 10  2  0
 11  9  1  0
 10 12  1  0
 13 11  2  0
 12 14  2  0
 14 13  1  0
 14 15  1  0
 15 16  1  0
 16 17  1  0
 17 18  2  0
 19 17  1  0
 18 20  1  0
 18 21  1  0
 22 19  2  0
 20 23  1  0
 20 24  2  0
 21 25  2  0
 25 22  1  0
  4 26  2  0
  4 27  1  0
 28 27  1  0
 28 29  1  0
 29 30  1  0
 29 31  1  0
 30 32  1  0
 31 33  1  0
 31 34  1  0
 34 32  1  0
 32 35  1  0
 34 36  1  0
 37 35  1  0
 38 35  1  0
 39 37  2  0
 37 40  1  0
 41 38  2  0
 42 39  1  0
 40 43  2  0
 40 41  1  0
 44 42  2  0
 44 43  1  0
 43 45  1  0
  6 46  1  1
  7 47  1  0
  7 48  1  0
  8 49  1  0
  8 50  1  0
 10 51  1  0
 11 52  1  0
 12 53  1  0
 13 54  1  0
 16 55  1  0
 16 56  1  0
 19 57  1  0
 21 58  1  0
 22 59  1  0
 25 60  1  0
 28 61  1  0
 28 62  1  0
 29 63  1  0
 31 64  1  0
 32 65  1  0
 33 66  1  0
 34 67  1  0
 36 68  1  0
 38 69  1  0
 42 70  1  0
 45 71  1  0
 45 72  1  0
M  CHG  3   5  -1  20   1  23  -1
M  END
>  <EmbedRMS>  (2) 
0.0816347923924

$$$$

     RDKit          3D

 72 76  0  0  0  0  0  0  0  0999 V2000
   10.2839   43.7626   33.8276 C   0  0  0  0  0  0  0  0  0  0  0  0
   11.4103   43.5863   34.3767 O   0  0  0  0  0  0  0  0  0  0  0  0
    9.3631   42.7236   33.7354 O   0  0  0  0  0  0  0  0  0  0  0  0
    9.8895   41.2249   34.2944 P   0  0  0  0  0  0  0  0  0  0  0  0
   10.3727   41.4546   35.8839 O   0  0  0  0  0  0  0  0  0  0  0  0
    9.9548   45.0699   33.2064 C   0  0  1  0  0  0  0  0  0  0  0  0
   11.0198   46.0480   33.4569 N   0  0  0  0  0  0  0  0  0  0  0  0
    9.7500   44.8508   31.6924 C   0  0  0  0  0  0  0  0  0  0  0  0
    8.7942   45.8419   31.0870 C   0  0  0  0  0  0  0  0  0  0  0  0
    7.4073   45.6010   31.1000 C   0  0  0  0  0  0  0  0  0  0  0  0
    9.2834   46.9892   30.4447 C   0  0  0  0  0  0  0  0  0  0  0  0
    6.5276   46.5018   30.4840 C   0  0  0  0  0  0  0  0  0  0  0  0
    8.4037   47.8901   29.8322 C   0  0  0  0  0  0  0  0  0  0  0  0
    7.0149   47.6516   29.8478 C   0  0  0  0  0  0  0  0  0  0  0  0
    6.0936   48.5230   29.2494 O   0  0  0  0  0  0  0  0  0  0  0  0
    6.4422   49.7361   28.5864 C   0  0  0  0  0  0  0  0  0  0  0  0
    5.1898   50.4347   28.1179 C   0  0  0  0  0  0  0  0  0  0  0  0
    4.1424   50.7942   29.0116 C   0  0  0  0  0  0  0  0  0  0  0  0
    5.0401   50.7002   26.7437 C   0  0  0  0  0  0  0  0  0  0  0  0
    4.2269   50.5556   30.4294 N   0  0  0  0  0  0  0  0  0  0  0  0
    2.9740   51.3817   28.4936 C   0  0  0  0  0  0  0  0  0  0  0  0
    3.8781   51.2982   26.2551 C   0  0  0  0  0  0  0  0  0  0  0  0
    3.0802   50.3369   31.1579 O   0  0  0  0  0  0  0  0  0  0  0  0
    5.3048   50.7013   31.0407 O   0  0  0  0  0  0  0  0  0  0  0  0
    2.8459   51.6348   27.1276 C   0  0  0  0  0  0  0  0  0  0  0  0
    8.8114   40.1833   34.2129 O   0  0  0  0  0  0  0  0  0  0  0  0
   11.2402   40.7930   33.3696 O   0  0  0  0  0  0  0  0  0  0  0  0
   10.9151   40.6903   31.9975 C   0  0  0  0  0  0  0  0  0  0  0  0
   11.5252   39.3885   31.4375 C   0  0  0  0  0  0  0  0  0  0  0  0
   12.7500   39.0873   32.0798 O   0  0  0  0  0  0  0  0  0  0  0  0
   10.6092   38.1925   31.6469 C   0  0  0  0  0  0  0  0  0  0  0  0
   12.9332   37.6792   32.0294 C   0  0  0  0  0  0  0  0  0  0  0  0
    9.6122   38.0894   30.6542 O   0  0  0  0  0  0  0  0  0  0  0  0
   11.5743   37.0144   31.7024 C   0  0  0  0  0  0  0  0  0  0  0  0
   13.4844   37.2107   33.3241 N   0  0  0  0  0  0  0  0  0  0  0  0
   11.6298   36.3238   30.4740 O   0  0  0  0  0  0  0  0  0  0  0  0
   14.4802   36.3313   33.5726 C   0  0  0  0  0  0  0  0  0  0  0  0
   13.1138   37.6266   34.5692 C   0  0  0  0  0  0  0  0  0  0  0  0
   15.2075   35.6149   32.6739 N   0  0  0  0  0  0  0  0  0  0  0  0
   14.6761   36.2303   34.9181 C   0  0  0  0  0  0  0  0  0  0  0  0
   13.8220   37.0447   35.5784 N   0  0  0  0  0  0  0  0  0  0  0  0
   16.1643   34.7600   33.1547 C   0  0  0  0  0  0  0  0  0  0  0  0
   15.6529   35.3505   35.4130 C   0  0  0  0  0  0  0  0  0  0  0  0
   16.3798   34.6315   34.5042 N   0  0  0  0  0  0  0  0  0  0  0  0
   15.9003   35.1932   36.8090 N   0  0  0  0  0  0  0  0  0  0  0  0
    9.0099   45.4349   33.6672 H   0  0  0  0  0  0  0  0  0  0  0  0
   11.1135   46.1992   34.4881 H   0  0  0  0  0  0  0  0  0  0  0  0
   11.9348   45.6932   33.0924 H   0  0  0  0  0  0  0  0  0  0  0  0
    9.3507   43.8344   31.4763 H   0  0  0  0  0  0  0  0  0  0  0  0
   10.7303   44.8921   31.1675 H   0  0  0  0  0  0  0  0  0  0  0  0
    7.0107   44.7159   31.5821 H   0  0  0  0  0  0  0  0  0  0  0  0
   10.3478   47.1879   30.4158 H   0  0  0  0  0  0  0  0  0  0  0  0
    5.4631   46.3053   30.5019 H   0  0  0  0  0  0  0  0  0  0  0  0
    8.8143   48.7651   29.3475 H   0  0  0  0  0  0  0  0  0  0  0  0
    7.1092   49.4987   27.7288 H   0  0  0  0  0  0  0  0  0  0  0  0
    7.0047   50.4047   29.2712 H   0  0  0  0  0  0  0  0  0  0  0  0
    5.8222   50.4366   26.0422 H   0  0  0  0  0  0  0  0  0  0  0  0
    2.1622   51.6602   29.1536 H   0  0  0  0  0  0  0  0  0  0  0  0
    3.7757   51.4953   25.1957 H   0  0  0  0  0  0  0  0  0  0  0  0
    1.9438   52.0949   26.7451 H   0  0  0  0  0  0  0  0  0  0  0  0
   11.3805   41.5528   31.4740 H   0  0  0  0  0  0  0  0  0  0  0  0
    9.8243   40.7216   31.7641 H   0  0  0  0  0  0  0  0  0  0  0  0
   11.7265   39.5311   30.3512 H   0  0  0  0  0  0  0  0  0  0  0  0
   10.1110   38.2746   32.6387 H   0  0  0  0  0  0  0  0  0  0  0  0
   13.6652   37.4518   31.2226 H   0  0  0  0  0  0  0  0  0  0  0  0
   10.0511   38.1142   29.7645 H   0  0  0  0  0  0  0  0  0  0  0  0
   11.2762   36.3141   32.5189 H   0  0  0  0  0  0  0  0  0  0  0  0
   10.8593   35.6977   30.4640 H   0  0  0  0  0  0  0  0  0  0  0  0
   12.3294   38.3518   34.7449 H   0  0  0  0  0  0  0  0  0  0  0  0
   16.7564   34.1779   32.4620 H   0  0  0  0  0  0  0  0  0  0  0  0
   15.3534   35.7359   37.5138 H   0  0  0  0  0  0  0  0  0  0  0  0
   16.6349   34.5300   37.1415 H   0  0  0  0  0  0  0  0  0  0  0  0
  1  2  2  0
  1  3  1  0
  3  4  1  0
  4  5  1  0
  6  1  1  0
  7  6  1  0
  6  8  1  0
  8  9  1  0
  9 10  2  0
 11  9  1  0
 10 12  1  0
 13 11  2  0
 12 14  2  0
 14 13  1  0
 14 15  1  0
 15 16  1  0
 16 17  1  0
 17 18  2  0
 19 17  1  0
 18 20  1  0
 18 21  1  0
 22 19  2  0
 20 23  1  0
 20 24  2  0
 21 25  2  0
 25 22  1  0
  4 26  2  0
  4 27  1  0
 28 27  1  0
 28 29  1  0
 29 30  1  0
 29 31  1  0
 30 32  1  0
 31 33  1  0
 31 34  1  0
 34 32  1  0
 32 35  1  0
 34 36  1  0
 37 35  1  0
 38 35  1  0
 39 37  2  0
 37 40  1  0
 41 38  2  0
 42 39  1  0
 40 43  2  0
 40 41  1  0
 44 42  2  0
 44 43  1  0
 43 45  1  0
  6 46  1  1
  7 47  1  0
  7 48  1  0
  8 49  1  0
  8 50  1  0
 10 51  1  0
 11 52  1  0
 12 53  1  0
 13 54  1  0
 16 55  1  0
 16 56  1  0
 19 57  1  0
 21 58  1  0
 22 59  1  0
 25 60  1  0
 28 61  1  0
 28 62  1  0
 29 63  1  0
 31 64  1  0
 32 65  1  0
 33 66  1  0
 34 67  1  0
 36 68  1  0
 38 69  1  0
 42 70  1  0
 45 71  1  0
 45 72  1  0
M  CHG  3   5  -1  20   1  23  -1
M  END
>  <EmbedRMS>  (3) 
0.0827207939126

$$$$

     RDKit          3D

 72 76  0  0  0  0  0  0  0  0999 V2000
   10.2834   43.7663   33.8258 C   0  0  0  0  0  0  0  0  0  0  0  0
   11.4102   43.5930   34.3752 O   0  0  0  0  0  0  0  0  0  0  0  0
    9.3635   42.7257   33.7353 O   0  0  0  0  0  0  0  0  0  0  0  0
    9.8900   41.2270   34.2948 P   0  0  0  0  0  0  0  0  0  0  0  0
   10.3732   41.4562   35.8841 O   0  0  0  0  0  0  0  0  0  0  0  0
    9.9546   45.0695   33.2036 C   0  0  1  0  0  0  0  0  0  0  0  0
   11.0273   46.0323   33.4756 N   0  0  0  0  0  0  0  0  0  0  0  0
    9.7466   44.8480   31.6877 C   0  0  0  0  0  0  0  0  0  0  0  0
    8.7923   45.8407   31.0844 C   0  0  0  0  0  0  0  0  0  0  0  0
    7.4056   45.6013   31.0987 C   0  0  0  0  0  0  0  0  0  0  0  0
    9.2822   46.9876   30.4422 C   0  0  0  0  0  0  0  0  0  0  0  0
    6.5269   46.5032   30.4835 C   0  0  0  0  0  0  0  0  0  0  0  0
    8.4028   47.8893   29.8315 C   0  0  0  0  0  0  0  0  0  0  0  0
    7.0143   47.6538   29.8483 C   0  0  0  0  0  0  0  0  0  0  0  0
    6.0889   48.5273   29.2547 O   0  0  0  0  0  0  0  0  0  0  0  0
    6.4078   49.7631   28.6110 C   0  0  0  0  0  0  0  0  0  0  0  0
    6.8871   50.7999   29.6054 C   0  0  0  0  0  0  0  0  0  0  0  0
    7.9064   51.7394   29.2944 C   0  0  0  0  0  0  0  0  0  0  0  0
    6.2179   50.9050   30.8399 C   0  0  0  0  0  0  0  0  0  0  0  0
    8.5918   51.7293   28.0339 N   0  0  0  0  0  0  0  0  0  0  0  0
    8.2328   52.7370   30.2278 C   0  0  0  0  0  0  0  0  0  0  0  0
    6.5695   51.8920   31.7617 C   0  0  0  0  0  0  0  0  0  0  0  0
    8.8002   52.9152   27.3686 O   0  0  0  0  0  0  0  0  0  0  0  0
    9.2356   50.7210   27.6794 O   0  0  0  0  0  0  0  0  0  0  0  0
    7.5758   52.8060   31.4566 C   0  0  0  0  0  0  0  0  0  0  0  0
    8.8121   40.1850   34.2133 O   0  0  0  0  0  0  0  0  0  0  0  0
   11.2403   40.7947   33.3700 O   0  0  0  0  0  0  0  0  0  0  0  0
   10.9145   40.6914   31.9982 C   0  0  0  0  0  0  0  0  0  0  0  0
   11.5270   39.3912   31.4385 C   0  0  0  0  0  0  0  0  0  0  0  0
   12.7520   39.0911   32.0836 O   0  0  0  0  0  0  0  0  0  0  0  0
   10.6113   38.1932   31.6451 C   0  0  0  0  0  0  0  0  0  0  0  0
   12.9413   37.6838   32.0297 C   0  0  0  0  0  0  0  0  0  0  0  0
    9.6064   38.0878   30.6599 O   0  0  0  0  0  0  0  0  0  0  0  0
   11.5822   37.0197   31.6877 C   0  0  0  0  0  0  0  0  0  0  0  0
   13.4840   37.2104   33.3254 N   0  0  0  0  0  0  0  0  0  0  0  0
   11.6179   36.3072   30.4690 O   0  0  0  0  0  0  0  0  0  0  0  0
   14.4797   36.3309   33.5738 C   0  0  0  0  0  0  0  0  0  0  0  0
   13.1136   37.6269   34.5702 C   0  0  0  0  0  0  0  0  0  0  0  0
   15.2074   35.6152   32.6747 N   0  0  0  0  0  0  0  0  0  0  0  0
   14.6756   36.2298   34.9190 C   0  0  0  0  0  0  0  0  0  0  0  0
   13.8217   37.0445   35.5793 N   0  0  0  0  0  0  0  0  0  0  0  0
   16.1643   34.7603   33.1551 C   0  0  0  0  0  0  0  0  0  0  0  0
   15.6528   35.3503   35.4136 C   0  0  0  0  0  0  0  0  0  0  0  0
   16.3798   34.6316   34.5046 N   0  0  0  0  0  0  0  0  0  0  0  0
   15.9004   35.1930   36.8094 N   0  0  0  0  0  0  0  0  0  0  0  0
    9.0120   45.4319   33.6714 H   0  0  0  0  0  0  0  0  0  0  0  0
   11.8905   45.7659   32.9469 H   0  0  0  0  0  0  0  0  0  0  0  0
   10.7259   46.9688   33.1213 H   0  0  0  0  0  0  0  0  0  0  0  0
   10.7230   44.8814   31.1557 H   0  0  0  0  0  0  0  0  0  0  0  0
    9.3415   43.8329   31.4764 H   0  0  0  0  0  0  0  0  0  0  0  0
    7.0082   44.7166   31.5808 H   0  0  0  0  0  0  0  0  0  0  0  0
   10.3468   47.1847   30.4111 H   0  0  0  0  0  0  0  0  0  0  0  0
    5.4622   46.3078   30.5026 H   0  0  0  0  0  0  0  0  0  0  0  0
    8.8144   48.7617   29.3488 H   0  0  0  0  0  0  0  0  0  0  0  0
    5.4801   50.1511   28.1413 H   0  0  0  0  0  0  0  0  0  0  0  0
    7.1236   49.5735   27.7892 H   0  0  0  0  0  0  0  0  0  0  0  0
    5.4139   50.2234   31.0893 H   0  0  0  0  0  0  0  0  0  0  0  0
    9.0070   53.4600   30.0032 H   0  0  0  0  0  0  0  0  0  0  0  0
    6.0519   51.9551   32.7102 H   0  0  0  0  0  0  0  0  0  0  0  0
    7.8418   53.5753   32.1700 H   0  0  0  0  0  0  0  0  0  0  0  0
    9.8235   40.7202   31.7654 H   0  0  0  0  0  0  0  0  0  0  0  0
   11.3777   41.5549   31.4744 H   0  0  0  0  0  0  0  0  0  0  0  0
   11.7312   39.5363   30.3532 H   0  0  0  0  0  0  0  0  0  0  0  0
   10.1202   38.2696   32.6410 H   0  0  0  0  0  0  0  0  0  0  0  0
   13.6850   37.4639   31.2321 H   0  0  0  0  0  0  0  0  0  0  0  0
   10.0251   38.1793   29.7654 H   0  0  0  0  0  0  0  0  0  0  0  0
   11.2757   36.3135   32.4907 H   0  0  0  0  0  0  0  0  0  0  0  0
   11.9839   36.9111   29.7708 H   0  0  0  0  0  0  0  0  0  0  0  0
   12.3307   38.3536   34.7458 H   0  0  0  0  0  0  0  0  0  0  0  0
   16.7566   34.1787   32.4623 H   0  0  0  0  0  0  0  0  0  0  0  0
   16.6353   34.5301   37.1419 H   0  0  0  0  0  0  0  0  0  0  0  0
   15.3535   35.7355   37.5144 H   0  0  0  0  0  0  0  0  0  0  0  0
  1  2  2  0
  1  3  1  0
  3  4  1  0
  4  5  1  0
  6  1  1  0
  7  6  1  0
  6  8  1  0
  8  9  1  0
  9 10  2  0
 11  9  1  0
 10 12  1  0
 13 11  2  0
 12 14  2  0
 14 13  1  0
 14 15  1  0
 15 16  1  0
 16 17  1  0
 17 18  2  0
 19 17  1  0
 18 20  1  0
 18 21  1  0
 22 19  2  0
 20 23  1  0
 20 24  2  0
 21 25  2  0
 25 22  1  0
  4 26  2  0
  4 27  1  0
 28 27  1  0
 28 29  1  0
 29 30  1  0
 29 31  1  0
 30 32  1  0
 31 33  1  0
 31 34  1  0
 34 32  1  0
 32 35  1  0
 34 36  1  0
 37 35  1  0
 38 35  1  0
 39 37  2  0
 37 40  1  0
 41 38  2  0
 42 39  1  0
 40 43  2  0
 40 41  1  0
 44 42  2  0
 44 43  1  0
 43 45  1  0
  6 46  1  1
  7 47  1  0
  7 48  1  0
  8 49  1  0
  8 50  1  0
 10 51  1  0
 11 52  1  0
 12 53  1  0
 13 54  1  0
 16 55  1  0
 16 56  1  0
 19 57  1  0
 21 58  1  0
 22 59  1  0
 25 60  1  0
 28 61  1  0
 28 62  1  0
 29 63  1  0
 31 64  1  0
 32 65  1  0
 33 66  1  0
 34 67  1  0
 36 68  1  0
 38 69  1  0
 42 70  1  0
 45 71  1  0
 45 72  1  0
M  CHG  3   5  -1  20   1  23  -1
M  END
>  <EmbedRMS>  (4) 
0.0808360892387

$$$$

     RDKit          3D

 72 76  0  0  0  0  0  0  0  0999 V2000
   10.2804   43.7664   33.8249 C   0  0  0  0  0  0  0  0  0  0  0  0
   11.4111   43.5919   34.3666 O   0  0  0  0  0  0  0  0  0  0  0  0
    9.3619   42.7249   33.7344 O   0  0  0  0  0  0  0  0  0  0  0  0
    9.8899   41.2266   34.2940 P   0  0  0  0  0  0  0  0  0  0  0  0
   10.3734   41.4567   35.8833 O   0  0  0  0  0  0  0  0  0  0  0  0
    9.9460   45.0736   33.2110 C   0  0  1  0  0  0  0  0  0  0  0  0
   11.0267   46.0292   33.4707 N   0  0  0  0  0  0  0  0  0  0  0  0
    9.7541   44.8541   31.6947 C   0  0  0  0  0  0  0  0  0  0  0  0
    8.7958   45.8409   31.0844 C   0  0  0  0  0  0  0  0  0  0  0  0
    7.4089   45.6003   31.1016 C   0  0  0  0  0  0  0  0  0  0  0  0
    9.2824   46.9883   30.4401 C   0  0  0  0  0  0  0  0  0  0  0  0
    6.5259   46.4996   30.4876 C   0  0  0  0  0  0  0  0  0  0  0  0
    8.3995   47.8880   29.8321 C   0  0  0  0  0  0  0  0  0  0  0  0
    7.0185   47.6531   29.8441 C   0  0  0  0  0  0  0  0  0  0  0  0
    6.1811   48.5848   29.2103 O   0  0  0  0  0  0  0  0  0  0  0  0
    4.7779   48.4246   28.9965 C   0  0  0  0  0  0  0  0  0  0  0  0
    4.5051   47.3326   27.9862 C   0  0  0  0  0  0  0  0  0  0  0  0
    5.1281   47.3085   26.7080 C   0  0  0  0  0  0  0  0  0  0  0  0
    3.6316   46.2886   28.3430 C   0  0  0  0  0  0  0  0  0  0  0  0
    6.0103   48.3567   26.2669 N   0  0  0  0  0  0  0  0  0  0  0  0
    4.8899   46.2189   25.8515 C   0  0  0  0  0  0  0  0  0  0  0  0
    3.3971   45.2256   27.4705 C   0  0  0  0  0  0  0  0  0  0  0  0
    7.0322   48.0707   25.3909 O   0  0  0  0  0  0  0  0  0  0  0  0
    5.7651   49.5511   26.5321 O   0  0  0  0  0  0  0  0  0  0  0  0
    4.0295   45.1876   26.2299 C   0  0  0  0  0  0  0  0  0  0  0  0
    8.8123   40.1844   34.2133 O   0  0  0  0  0  0  0  0  0  0  0  0
   11.2405   40.7942   33.3691 O   0  0  0  0  0  0  0  0  0  0  0  0
   10.9150   40.6905   31.9972 C   0  0  0  0  0  0  0  0  0  0  0  0
   11.5252   39.3886   31.4375 C   0  0  0  0  0  0  0  0  0  0  0  0
   12.7499   39.0874   32.0799 O   0  0  0  0  0  0  0  0  0  0  0  0
   10.6092   38.1926   31.6470 C   0  0  0  0  0  0  0  0  0  0  0  0
   12.9332   37.6793   32.0294 C   0  0  0  0  0  0  0  0  0  0  0  0
    9.6121   38.0894   30.6542 O   0  0  0  0  0  0  0  0  0  0  0  0
   11.5743   37.0145   31.7024 C   0  0  0  0  0  0  0  0  0  0  0  0
   13.4844   37.2108   33.3241 N   0  0  0  0  0  0  0  0  0  0  0  0
   11.6297   36.3239   30.4740 O   0  0  0  0  0  0  0  0  0  0  0  0
   14.4802   36.3313   33.5727 C   0  0  0  0  0  0  0  0  0  0  0  0
   13.1139   37.6267   34.5692 C   0  0  0  0  0  0  0  0  0  0  0  0
   15.2075   35.6149   32.6739 N   0  0  0  0  0  0  0  0  0  0  0  0
   14.6761   36.2303   34.9181 C   0  0  0  0  0  0  0  0  0  0  0  0
   13.8220   37.0447   35.5785 N   0  0  0  0  0  0  0  0  0  0  0  0
   16.1643   34.7600   33.1547 C   0  0  0  0  0  0  0  0  0  0  0  0
   15.6529   35.3505   35.4130 C   0  0  0  0  0  0  0  0  0  0  0  0
   16.3798   34.6315   34.5042 N   0  0  0  0  0  0  0  0  0  0  0  0
   15.9003   35.1932   36.8090 N   0  0  0  0  0  0  0  0  0  0  0  0
    8.9995   45.4381   33.6719 H   0  0  0  0  0  0  0  0  0  0  0  0
   10.7765   46.9368   33.0158 H   0  0  0  0  0  0  0  0  0  0  0  0
   11.0501   46.2277   34.4981 H   0  0  0  0  0  0  0  0  0  0  0  0
    9.3646   43.8353   31.4709 H   0  0  0  0  0  0  0  0  0  0  0  0
   10.7412   44.9078   31.1834 H   0  0  0  0  0  0  0  0  0  0  0  0
    7.0146   44.7169   31.5887 H   0  0  0  0  0  0  0  0  0  0  0  0
   10.3462   47.1883   30.4060 H   0  0  0  0  0  0  0  0  0  0  0  0
    5.4675   46.2899   30.5288 H   0  0  0  0  0  0  0  0  0  0  0  0
    8.7915   48.7693   29.3402 H   0  0  0  0  0  0  0  0  0  0  0  0
    4.2711   48.2349   29.9675 H   0  0  0  0  0  0  0  0  0  0  0  0
    4.3625   49.3792   28.6139 H   0  0  0  0  0  0  0  0  0  0  0  0
    3.1382   46.2886   29.3071 H   0  0  0  0  0  0  0  0  0  0  0  0
    5.3591   46.1759   24.8768 H   0  0  0  0  0  0  0  0  0  0  0  0
    2.7277   44.4258   27.7603 H   0  0  0  0  0  0  0  0  0  0  0  0
    3.8491   44.3595   25.5567 H   0  0  0  0  0  0  0  0  0  0  0  0
   11.3800   41.5528   31.4730 H   0  0  0  0  0  0  0  0  0  0  0  0
    9.8241   40.7215   31.7641 H   0  0  0  0  0  0  0  0  0  0  0  0
   11.7266   39.5310   30.3513 H   0  0  0  0  0  0  0  0  0  0  0  0
   10.1110   38.2747   32.6387 H   0  0  0  0  0  0  0  0  0  0  0  0
   13.6652   37.4520   31.2226 H   0  0  0  0  0  0  0  0  0  0  0  0
   10.0511   38.1143   29.7645 H   0  0  0  0  0  0  0  0  0  0  0  0
   11.2762   36.3141   32.5189 H   0  0  0  0  0  0  0  0  0  0  0  0
   10.8593   35.6978   30.4640 H   0  0  0  0  0  0  0  0  0  0  0  0
   12.3295   38.3518   34.7449 H   0  0  0  0  0  0  0  0  0  0  0  0
   16.7564   34.1780   32.4620 H   0  0  0  0  0  0  0  0  0  0  0  0
   16.6349   34.5300   37.1415 H   0  0  0  0  0  0  0  0  0  0  0  0
   15.3534   35.7359   37.5138 H   0  0  0  0  0  0  0  0  0  0  0  0
  1  2  2  0
  1  3  1  0
  3  4  1  0
  4  5  1  0
  6  1  1  0
  7  6  1  0
  6  8  1  0
  8  9  1  0
  9 10  2  0
 11  9  1  0
 10 12  1  0
 13 11  2  0
 12 14  2  0
 14 13  1  0
 14 15  1  0
 15 16  1  0
 16 17  1  0
 17 18  2  0
 19 17  1  0
 18 20  1  0
 18 21  1  0
 22 19  2  0
 20 23  1  0
 20 24  2  0
 21 25  2  0
 25 22  1  0
  4 26  2  0
  4 27  1  0
 28 27  1  0
 28 29  1  0
 29 30  1  0
 29 31  1  0
 30 32  1  0
 31 33  1  0
 31 34  1  0
 34 32  1  0
 32 35  1  0
 34 36  1  0
 37 35  1  0
 38 35  1  0
 39 37  2  0
 37 40  1  0
 41 38  2  0
 42 39  1  0
 40 43  2  0
 40 41  1  0
 44 42  2  0
 44 43  1  0
 43 45  1  0
  6 46  1  1
  7 47  1  0
  7 48  1  0
  8 49  1  0
  8 50  1  0
 10 51  1  0
 11 52  1  0
 12 53  1  0
 13 54  1  0
 16 55  1  0
 16 56  1  0
 19 57  1  0
 21 58  1  0
 22 59  1  0
 25 60  1  0
 28 61  1  0
 28 62  1  0
 29 63  1  0
 31 64  1  0
 32 65  1  0
 33 66  1  0
 34 67  1  0
 36 68  1  0
 38 69  1  0
 42 70  1  0
 45 71  1  0
 45 72  1  0
M  CHG  3   5  -1  20   1  23  -1
M  END
>  <EmbedRMS>  (5) 
0.0816440869484

$$$$

     RDKit          3D

 72 76  0  0  0  0  0  0  0  0999 V2000
   10.2834   43.7663   33.8257 C   0  0  0  0  0  0  0  0  0  0  0  0
   11.4102   43.5930   34.3752 O   0  0  0  0  0  0  0  0  0  0  0  0
    9.3635   42.7257   33.7352 O   0  0  0  0  0  0  0  0  0  0  0  0
    9.8899   41.2270   34.2947 P   0  0  0  0  0  0  0  0  0  0  0  0
   10.3732   41.4563   35.8841 O   0  0  0  0  0  0  0  0  0  0  0  0
    9.9547   45.0696   33.2036 C   0  0  1  0  0  0  0  0  0  0  0  0
   11.0273   46.0323   33.4760 N   0  0  0  0  0  0  0  0  0  0  0  0
    9.7471   44.8485   31.6877 C   0  0  0  0  0  0  0  0  0  0  0  0
    8.7925   45.8411   31.0847 C   0  0  0  0  0  0  0  0  0  0  0  0
    7.4058   45.6007   31.0989 C   0  0  0  0  0  0  0  0  0  0  0  0
    9.2818   46.9876   30.4414 C   0  0  0  0  0  0  0  0  0  0  0  0
    6.5246   46.5005   30.4839 C   0  0  0  0  0  0  0  0  0  0  0  0
    8.4005   47.8876   29.8313 C   0  0  0  0  0  0  0  0  0  0  0  0
    7.0185   47.6577   29.8482 C   0  0  0  0  0  0  0  0  0  0  0  0
    6.1815   48.5970   29.2253 O   0  0  0  0  0  0  0  0  0  0  0  0
    4.7543   48.5984   29.2825 C   0  0  0  0  0  0  0  0  0  0  0  0
    4.2676   48.9212   30.6774 C   0  0  0  0  0  0  0  0  0  0  0  0
    4.7300   50.0559   31.3971 C   0  0  0  0  0  0  0  0  0  0  0  0
    3.3555   48.0436   31.2923 C   0  0  0  0  0  0  0  0  0  0  0  0
    5.6417   51.0050   30.8147 N   0  0  0  0  0  0  0  0  0  0  0  0
    4.2959   50.2500   32.7214 C   0  0  0  0  0  0  0  0  0  0  0  0
    2.9261   48.2638   32.6013 C   0  0  0  0  0  0  0  0  0  0  0  0
    5.4971   51.4052   29.5068 O   0  0  0  0  0  0  0  0  0  0  0  0
    6.4726   51.5969   31.5343 O   0  0  0  0  0  0  0  0  0  0  0  0
    3.3998   49.3614   33.3165 C   0  0  0  0  0  0  0  0  0  0  0  0
    8.8120   40.1851   34.2133 O   0  0  0  0  0  0  0  0  0  0  0  0
   11.2403   40.7947   33.3700 O   0  0  0  0  0  0  0  0  0  0  0  0
   10.9144   40.6914   31.9982 C   0  0  0  0  0  0  0  0  0  0  0  0
   11.5270   39.3912   31.4385 C   0  0  0  0  0  0  0  0  0  0  0  0
   12.7520   39.0911   32.0836 O   0  0  0  0  0  0  0  0  0  0  0  0
   10.6113   38.1932   31.6451 C   0  0  0  0  0  0  0  0  0  0  0  0
   12.9413   37.6838   32.0297 C   0  0  0  0  0  0  0  0  0  0  0  0
    9.6064   38.0878   30.6599 O   0  0  0  0  0  0  0  0  0  0  0  0
   11.5822   37.0197   31.6877 C   0  0  0  0  0  0  0  0  0  0  0  0
   13.4840   37.2104   33.3254 N   0  0  0  0  0  0  0  0  0  0  0  0
   11.6179   36.3072   30.4690 O   0  0  0  0  0  0  0  0  0  0  0  0
   14.4797   36.3309   33.5738 C   0  0  0  0  0  0  0  0  0  0  0  0
   13.1136   37.6269   34.5702 C   0  0  0  0  0  0  0  0  0  0  0  0
   15.2074   35.6152   32.6747 N   0  0  0  0  0  0  0  0  0  0  0  0
   14.6756   36.2298   34.9190 C   0  0  0  0  0  0  0  0  0  0  0  0
   13.8217   37.0445   35.5793 N   0  0  0  0  0  0  0  0  0  0  0  0
   16.1643   34.7603   33.1551 C   0  0  0  0  0  0  0  0  0  0  0  0
   15.6528   35.3503   35.4136 C   0  0  0  0  0  0  0  0  0  0  0  0
   16.3798   34.6316   34.5046 N   0  0  0  0  0  0  0  0  0  0  0  0
   15.9004   35.1930   36.8094 N   0  0  0  0  0  0  0  0  0  0  0  0
    9.0120   45.4319   33.6713 H   0  0  0  0  0  0  0  0  0  0  0  0
   11.8907   45.7660   32.9476 H   0  0  0  0  0  0  0  0  0  0  0  0
   10.7260   46.9689   33.1216 H   0  0  0  0  0  0  0  0  0  0  0  0
    9.3425   43.8332   31.4759 H   0  0  0  0  0  0  0  0  0  0  0  0
   10.7235   44.8826   31.1559 H   0  0  0  0  0  0  0  0  0  0  0  0
    7.0103   44.7141   31.5791 H   0  0  0  0  0  0  0  0  0  0  0  0
   10.3460   47.1859   30.4095 H   0  0  0  0  0  0  0  0  0  0  0  0
    5.4677   46.2801   30.5039 H   0  0  0  0  0  0  0  0  0  0  0  0
    8.7935   48.7704   29.3430 H   0  0  0  0  0  0  0  0  0  0  0  0
    4.3680   49.3658   28.5812 H   0  0  0  0  0  0  0  0  0  0  0  0
    4.3650   47.6234   28.9173 H   0  0  0  0  0  0  0  0  0  0  0  0
    2.9832   47.1759   30.7617 H   0  0  0  0  0  0  0  0  0  0  0  0
    4.6407   51.1040   33.2907 H   0  0  0  0  0  0  0  0  0  0  0  0
    2.2289   47.5774   33.0643 H   0  0  0  0  0  0  0  0  0  0  0  0
    3.0683   49.5275   34.3334 H   0  0  0  0  0  0  0  0  0  0  0  0
   11.3776   41.5549   31.4744 H   0  0  0  0  0  0  0  0  0  0  0  0
    9.8234   40.7201   31.7654 H   0  0  0  0  0  0  0  0  0  0  0  0
   11.7311   39.5362   30.3532 H   0  0  0  0  0  0  0  0  0  0  0  0
   10.1203   38.2696   32.6410 H   0  0  0  0  0  0  0  0  0  0  0  0
   13.6850   37.4639   31.2321 H   0  0  0  0  0  0  0  0  0  0  0  0
   10.0250   38.1793   29.7654 H   0  0  0  0  0  0  0  0  0  0  0  0
   11.2757   36.3135   32.4907 H   0  0  0  0  0  0  0  0  0  0  0  0
   11.9838   36.9111   29.7708 H   0  0  0  0  0  0  0  0  0  0  0  0
   12.3307   38.3536   34.7458 H   0  0  0  0  0  0  0  0  0  0  0  0
   16.7566   34.1787   32.4623 H   0  0  0  0  0  0  0  0  0  0  0  0
   15.3535   35.7355   37.5144 H   0  0  0  0  0  0  0  0  0  0  0  0
   16.6353   34.5301   37.1419 H   0  0  0  0  0  0  0  0  0  0  0  0
  1  2  2  0
  1  3  1  0
  3  4  1  0
  4  5  1  0
  6  1  1  0
  7  6  1  0
  6  8  1  0
  8  9  1  0
  9 10  2  0
 11  9  1  0
 10 12  1  0
 13 11  2  0
 12 14  2  0
 14 13  1  0
 14 15  1  0
 15 16  1  0
 16 17  1  0
 17 18  2  0
 19 17  1  0
 18 20  1  0
 18 21  1  0
 22 19  2  0
 20 23  1  0
 20 24  2  0
 21 25  2  0
 25 22  1  0
  4 26  2  0
  4 27  1  0
 28 27  1  0
 28 29  1  0
 29 30  1  0
 29 31  1  0
 30 32  1  0
 31 33  1  0
 31 34  1  0
 34 32  1  0
 32 35  1  0
 34 36  1  0
 37 35  1  0
 38 35  1  0
 39 37  2  0
 37 40  1  0
 41 38  2  0
 42 39  1  0
 40 43  2  0
 40 41  1  0
 44 42  2  0
 44 43  1  0
 43 45  1  0
  6 46  1  1
  7 47  1  0
  7 48  1  0
  8 49  1  0
  8 50  1  0
 10 51  1  0
 11 52  1  0
 12 53  1  0
 13 54  1  0
 16 55  1  0
 16 56  1  0
 19 57  1  0
 21 58  1  0
 22 59  1  0
 25 60  1  0
 28 61  1  0
 28 62  1  0
 29 63  1  0
 31 64  1  0
 32 65  1  0
 33 66  1  0
 34 67  1  0
 36 68  1  0
 38 69  1  0
 42 70  1  0
 45 71  1  0
 45 72  1  0
M  CHG  3   5  -1  20   1  23  -1
M  END
>  <EmbedRMS>  (6) 
0.0808182660096

$$$$

     RDKit          3D

 72 76  0  0  0  0  0  0  0  0999 V2000
   10.2803   43.7665   33.8251 C   0  0  0  0  0  0  0  0  0  0  0  0
   11.4110   43.5919   34.3666 O   0  0  0  0  0  0  0  0  0  0  0  0
    9.3616   42.7252   33.7348 O   0  0  0  0  0  0  0  0  0  0  0  0
    9.8898   41.2268   34.2939 P   0  0  0  0  0  0  0  0  0  0  0  0
   10.3738   41.4566   35.8831 O   0  0  0  0  0  0  0  0  0  0  0  0
    9.9459   45.0737   33.2113 C   0  0  1  0  0  0  0  0  0  0  0  0
   11.0266   46.0293   33.4709 N   0  0  0  0  0  0  0  0  0  0  0  0
    9.7540   44.8543   31.6950 C   0  0  0  0  0  0  0  0  0  0  0  0
    8.7957   45.8413   31.0850 C   0  0  0  0  0  0  0  0  0  0  0  0
    7.4090   45.5998   31.1009 C   0  0  0  0  0  0  0  0  0  0  0  0
    9.2824   46.9877   30.4391 C   0  0  0  0  0  0  0  0  0  0  0  0
    6.5261   46.4983   30.4857 C   0  0  0  0  0  0  0  0  0  0  0  0
    8.3997   47.8871   29.8302 C   0  0  0  0  0  0  0  0  0  0  0  0
    7.0181   47.6556   29.8480 C   0  0  0  0  0  0  0  0  0  0  0  0
    6.1785   48.5933   29.2251 O   0  0  0  0  0  0  0  0  0  0  0  0
    4.7504   48.5563   29.2396 C   0  0  0  0  0  0  0  0  0  0  0  0
    4.2185   48.8558   30.6240 C   0  0  0  0  0  0  0  0  0  0  0  0
    3.2345   48.0499   31.2528 C   0  0  0  0  0  0  0  0  0  0  0  0
    4.7511   49.9553   31.3218 C   0  0  0  0  0  0  0  0  0  0  0  0
    2.5816   46.9774   30.5561 N   0  0  0  0  0  0  0  0  0  0  0  0
    2.8668   48.3247   32.5817 C   0  0  0  0  0  0  0  0  0  0  0  0
    4.3593   50.2243   32.6340 C   0  0  0  0  0  0  0  0  0  0  0  0
    2.0432   47.1953   29.3089 O   0  0  0  0  0  0  0  0  0  0  0  0
    2.2975   45.9223   31.1598 O   0  0  0  0  0  0  0  0  0  0  0  0
    3.4270   49.4039   33.2666 C   0  0  0  0  0  0  0  0  0  0  0  0
    8.8122   40.1845   34.2134 O   0  0  0  0  0  0  0  0  0  0  0  0
   11.2400   40.7954   33.3680 O   0  0  0  0  0  0  0  0  0  0  0  0
   10.9124   40.6877   31.9967 C   0  0  0  0  0  0  0  0  0  0  0  0
   11.5169   39.3811   31.4420 C   0  0  0  0  0  0  0  0  0  0  0  0
   12.7500   39.0881   32.0760 O   0  0  0  0  0  0  0  0  0  0  0  0
   10.6042   38.1893   31.6659 C   0  0  0  0  0  0  0  0  0  0  0  0
   12.9395   37.6814   32.0280 C   0  0  0  0  0  0  0  0  0  0  0  0
    9.6353   38.0951   30.6499 O   0  0  0  0  0  0  0  0  0  0  0  0
   11.5804   37.0191   31.6934 C   0  0  0  0  0  0  0  0  0  0  0  0
   13.4851   37.2119   33.3244 N   0  0  0  0  0  0  0  0  0  0  0  0
   11.6118   36.3189   30.4673 O   0  0  0  0  0  0  0  0  0  0  0  0
   14.4801   36.3316   33.5732 C   0  0  0  0  0  0  0  0  0  0  0  0
   13.1139   37.6277   34.5692 C   0  0  0  0  0  0  0  0  0  0  0  0
   15.2076   35.6154   32.6744 N   0  0  0  0  0  0  0  0  0  0  0  0
   14.6756   36.2303   34.9186 C   0  0  0  0  0  0  0  0  0  0  0  0
   13.8215   37.0451   35.5786 N   0  0  0  0  0  0  0  0  0  0  0  0
   16.1642   34.7602   33.1551 C   0  0  0  0  0  0  0  0  0  0  0  0
   15.6526   35.3505   35.4134 C   0  0  0  0  0  0  0  0  0  0  0  0
   16.3796   34.6316   34.5045 N   0  0  0  0  0  0  0  0  0  0  0  0
   15.9001   35.1933   36.8093 N   0  0  0  0  0  0  0  0  0  0  0  0
    8.9994   45.4383   33.6722 H   0  0  0  0  0  0  0  0  0  0  0  0
   10.7764   46.9370   33.0160 H   0  0  0  0  0  0  0  0  0  0  0  0
   11.0501   46.2278   34.4983 H   0  0  0  0  0  0  0  0  0  0  0  0
   10.7412   44.9081   31.1837 H   0  0  0  0  0  0  0  0  0  0  0  0
    9.3646   43.8355   31.4712 H   0  0  0  0  0  0  0  0  0  0  0  0
    7.0149   44.7142   31.5842 H   0  0  0  0  0  0  0  0  0  0  0  0
   10.3463   47.1874   30.4046 H   0  0  0  0  0  0  0  0  0  0  0  0
    5.4687   46.2791   30.5111 H   0  0  0  0  0  0  0  0  0  0  0  0
    8.7917   48.7695   29.3405 H   0  0  0  0  0  0  0  0  0  0  0  0
    4.3761   49.3398   28.5481 H   0  0  0  0  0  0  0  0  0  0  0  0
    4.4133   47.5779   28.8437 H   0  0  0  0  0  0  0  0  0  0  0  0
    5.4900   50.5948   30.8543 H   0  0  0  0  0  0  0  0  0  0  0  0
    2.1229   47.7155   33.0797 H   0  0  0  0  0  0  0  0  0  0  0  0
    4.7859   51.0661   33.1639 H   0  0  0  0  0  0  0  0  0  0  0  0
    3.1279   49.6117   34.2859 H   0  0  0  0  0  0  0  0  0  0  0  0
   11.3807   41.5456   31.4683 H   0  0  0  0  0  0  0  0  0  0  0  0
    9.8214   40.7221   31.7644 H   0  0  0  0  0  0  0  0  0  0  0  0
   11.6986   39.5088   30.3499 H   0  0  0  0  0  0  0  0  0  0  0  0
   10.1109   38.2737   32.6630 H   0  0  0  0  0  0  0  0  0  0  0  0
   13.6783   37.4562   31.2271 H   0  0  0  0  0  0  0  0  0  0  0  0
    9.0020   37.3860   30.9348 H   0  0  0  0  0  0  0  0  0  0  0  0
   11.2807   36.3052   32.4921 H   0  0  0  0  0  0  0  0  0  0  0  0
   11.8818   36.9600   29.7584 H   0  0  0  0  0  0  0  0  0  0  0  0
   12.3303   38.3538   34.7446 H   0  0  0  0  0  0  0  0  0  0  0  0
   16.7563   34.1783   32.4623 H   0  0  0  0  0  0  0  0  0  0  0  0
   16.6348   34.5301   37.1418 H   0  0  0  0  0  0  0  0  0  0  0  0
   15.3532   35.7359   37.5142 H   0  0  0  0  0  0  0  0  0  0  0  0
  1  2  2  0
  1  3  1  0
  3  4  1  0
  4  5  1  0
  6  1  1  0
  7  6  1  0
  6  8  1  0
  8  9  1  0
  9 10  2  0
 11  9  1  0
 10 12  1  0
 13 11  2  0
 12 14  2  0
 14 13  1  0
 14 15  1  0
 15 16  1  0
 16 17  1  0
 17 18  2  0
 19 17  1  0
 18 20  1  0
 18 21  1  0
 22 19  2  0
 20 23  1  0
 20 24  2  0
 21 25  2  0
 25 22  1  0
  4 26  2  0
  4 27  1  0
 28 27  1  0
 28 29  1  0
 29 30  1  0
 29 31  1  0
 30 32  1  0
 31 33  1  0
 31 34  1  0
 34 32  1  0
 32 35  1  0
 34 36  1  0
 37 35  1  0
 38 35  1  0
 39 37  2  0
 37 40  1  0
 41 38  2  0
 42 39  1  0
 40 43  2  0
 40 41  1  0
 44 42  2  0
 44 43  1  0
 43 45  1  0
  6 46  1  1
  7 47  1  0
  7 48  1  0
  8 49  1  0
  8 50  1  0
 10 51  1  0
 11 52  1  0
 12 53  1  0
 13 54  1  0
 16 55  1  0
 16 56  1  0
 19 57  1  0
 21 58  1  0
 22 59  1  0
 25 60  1  0
 28 61  1  0
 28 62  1  0
 29 63  1  0
 31 64  1  0
 32 65  1  0
 33 66  1  0
 34 67  1  0
 36 68  1  0
 38 69  1  0
 42 70  1  0
 45 71  1  0
 45 72  1  0
M  CHG  3   5  -1  20   1  23  -1
M  END
>  <EmbedRMS>  (7) 
0.0813781315755

$$$$

     RDKit          3D

 72 76  0  0  0  0  0  0  0  0999 V2000
   10.2834   43.7663   33.8258 C   0  0  0  0  0  0  0  0  0  0  0  0
   11.4102   43.5930   34.3752 O   0  0  0  0  0  0  0  0  0  0  0  0
    9.3635   42.7257   33.7353 O   0  0  0  0  0  0  0  0  0  0  0  0
    9.8900   41.2270   34.2948 P   0  0  0  0  0  0  0  0  0  0  0  0
   10.3732   41.4562   35.8841 O   0  0  0  0  0  0  0  0  0  0  0  0
    9.9546   45.0696   33.2036 C   0  0  1  0  0  0  0  0  0  0  0  0
   11.0273   46.0323   33.4756 N   0  0  0  0  0  0  0  0  0  0  0  0
    9.7465   44.8481   31.6878 C   0  0  0  0  0  0  0  0  0  0  0  0
    8.7923   45.8409   31.0846 C   0  0  0  0  0  0  0  0  0  0  0  0
    7.4055   45.6012   31.0985 C   0  0  0  0  0  0  0  0  0  0  0  0
    9.2824   46.9875   30.4420 C   0  0  0  0  0  0  0  0  0  0  0  0
    6.5267   46.5028   30.4831 C   0  0  0  0  0  0  0  0  0  0  0  0
    8.4034   47.8893   29.8310 C   0  0  0  0  0  0  0  0  0  0  0  0
    7.0139   47.6541   29.8492 C   0  0  0  0  0  0  0  0  0  0  0  0
    6.0888   48.5286   29.2561 O   0  0  0  0  0  0  0  0  0  0  0  0
    6.4105   49.7874   28.6620 C   0  0  0  0  0  0  0  0  0  0  0  0
    6.8280   50.7889   29.7165 C   0  0  0  0  0  0  0  0  0  0  0  0
    8.0005   51.5787   29.5952 C   0  0  0  0  0  0  0  0  0  0  0  0
    6.0382   50.9092   30.8746 C   0  0  0  0  0  0  0  0  0  0  0  0
    8.7907   51.5746   28.3963 N   0  0  0  0  0  0  0  0  0  0  0  0
    8.3841   52.4089   30.6631 C   0  0  0  0  0  0  0  0  0  0  0  0
    6.4249   51.7537   31.9163 C   0  0  0  0  0  0  0  0  0  0  0  0
    8.1841   51.7430   27.1729 O   0  0  0  0  0  0  0  0  0  0  0  0
   10.0347   51.6502   28.4682 O   0  0  0  0  0  0  0  0  0  0  0  0
    7.6015   52.4938   31.8154 C   0  0  0  0  0  0  0  0  0  0  0  0
    8.8120   40.1851   34.2133 O   0  0  0  0  0  0  0  0  0  0  0  0
   11.2403   40.7947   33.3700 O   0  0  0  0  0  0  0  0  0  0  0  0
   10.9144   40.6914   31.9982 C   0  0  0  0  0  0  0  0  0  0  0  0
   11.5270   39.3912   31.4385 C   0  0  0  0  0  0  0  0  0  0  0  0
   12.7520   39.0911   32.0836 O   0  0  0  0  0  0  0  0  0  0  0  0
   10.6113   38.1932   31.6451 C   0  0  0  0  0  0  0  0  0  0  0  0
   12.9413   37.6838   32.0297 C   0  0  0  0  0  0  0  0  0  0  0  0
    9.6064   38.0878   30.6599 O   0  0  0  0  0  0  0  0  0  0  0  0
   11.5822   37.0197   31.6877 C   0  0  0  0  0  0  0  0  0  0  0  0
   13.4840   37.2104   33.3254 N   0  0  0  0  0  0  0  0  0  0  0  0
   11.6179   36.3072   30.4690 O   0  0  0  0  0  0  0  0  0  0  0  0
   14.4797   36.3309   33.5738 C   0  0  0  0  0  0  0  0  0  0  0  0
   13.1136   37.6269   34.5702 C   0  0  0  0  0  0  0  0  0  0  0  0
   15.2074   35.6152   32.6747 N   0  0  0  0  0  0  0  0  0  0  0  0
   14.6756   36.2298   34.9190 C   0  0  0  0  0  0  0  0  0  0  0  0
   13.8217   37.0445   35.5793 N   0  0  0  0  0  0  0  0  0  0  0  0
   16.1643   34.7603   33.1551 C   0  0  0  0  0  0  0  0  0  0  0  0
   15.6528   35.3503   35.4136 C   0  0  0  0  0  0  0  0  0  0  0  0
   16.3798   34.6316   34.5046 N   0  0  0  0  0  0  0  0  0  0  0  0
   15.9004   35.1930   36.8094 N   0  0  0  0  0  0  0  0  0  0  0  0
    9.0121   45.4319   33.6715 H   0  0  0  0  0  0  0  0  0  0  0  0
   11.8905   45.7660   32.9469 H   0  0  0  0  0  0  0  0  0  0  0  0
   10.7259   46.9689   33.1213 H   0  0  0  0  0  0  0  0  0  0  0  0
   10.7229   44.8813   31.1558 H   0  0  0  0  0  0  0  0  0  0  0  0
    9.3413   43.8330   31.4765 H   0  0  0  0  0  0  0  0  0  0  0  0
    7.0083   44.7164   31.5804 H   0  0  0  0  0  0  0  0  0  0  0  0
   10.3471   47.1837   30.4099 H   0  0  0  0  0  0  0  0  0  0  0  0
    5.4620   46.3073   30.5022 H   0  0  0  0  0  0  0  0  0  0  0  0
    8.8175   48.7593   29.3427 H   0  0  0  0  0  0  0  0  0  0  0  0
    5.5013   50.1752   28.1572 H   0  0  0  0  0  0  0  0  0  0  0  0
    7.1798   49.6287   27.8806 H   0  0  0  0  0  0  0  0  0  0  0  0
    5.1294   50.3294   30.9803 H   0  0  0  0  0  0  0  0  0  0  0  0
    9.2799   53.0129   30.5908 H   0  0  0  0  0  0  0  0  0  0  0  0
    5.8146   51.8277   32.8072 H   0  0  0  0  0  0  0  0  0  0  0  0
    7.9017   53.1447   32.6265 H   0  0  0  0  0  0  0  0  0  0  0  0
   11.3776   41.5549   31.4744 H   0  0  0  0  0  0  0  0  0  0  0  0
    9.8234   40.7201   31.7654 H   0  0  0  0  0  0  0  0  0  0  0  0
   11.7312   39.5363   30.3532 H   0  0  0  0  0  0  0  0  0  0  0  0
   10.1203   38.2696   32.6410 H   0  0  0  0  0  0  0  0  0  0  0  0
   13.6850   37.4639   31.2321 H   0  0  0  0  0  0  0  0  0  0  0  0
   10.0251   38.1793   29.7654 H   0  0  0  0  0  0  0  0  0  0  0  0
   11.2757   36.3135   32.4907 H   0  0  0  0  0  0  0  0  0  0  0  0
   11.9838   36.9111   29.7708 H   0  0  0  0  0  0  0  0  0  0  0  0
   12.3307   38.3536   34.7458 H   0  0  0  0  0  0  0  0  0  0  0  0
   16.7566   34.1787   32.4623 H   0  0  0  0  0  0  0  0  0  0  0  0
   15.3535   35.7355   37.5144 H   0  0  0  0  0  0  0  0  0  0  0  0
   16.6353   34.5301   37.1419 H   0  0  0  0  0  0  0  0  0  0  0  0
  1  2  2  0
  1  3  1  0
  3  4  1  0
  4  5  1  0
  6  1  1  0
  7  6  1  0
  6  8  1  0
  8  9  1  0
  9 10  2  0
 11  9  1  0
 10 12  1  0
 13 11  2  0
 12 14  2  0
 14 13  1  0
 14 15  1  0
 15 16  1  0
 16 17  1  0
 17 18  2  0
 19 17  1  0
 18 20  1  0
 18 21  1  0
 22 19  2  0
 20 23  1  0
 20 24  2  0
 21 25  2  0
 25 22  1  0
  4 26  2  0
  4 27  1  0
 28 27  1  0
 28 29  1  0
 29 30  1  0
 29 31  1  0
 30 32  1  0
 31 33  1  0
 31 34  1  0
 34 32  1  0
 32 35  1  0
 34 36  1  0
 37 35  1  0
 38 35  1  0
 39 37  2  0
 37 40  1  0
 41 38  2  0
 42 39  1  0
 40 43  2  0
 40 41  1  0
 44 42  2  0
 44 43  1  0
 43 45  1  0
  6 46  1  1
  7 47  1  0
  7 48  1  0
  8 49  1  0
  8 50  1  0
 10 51  1  0
 11 52  1  0
 12 53  1  0
 13 54  1  0
 16 55  1  0
 16 56  1  0
 19 57  1  0
 21 58  1  0
 22 59  1  0
 25 60  1  0
 28 61  1  0
 28 62  1  0
 29 63  1  0
 31 64  1  0
 32 65  1  0
 33 66  1  0
 34 67  1  0
 36 68  1  0
 38 69  1  0
 42 70  1  0
 45 71  1  0
 45 72  1  0
M  CHG  3   5  -1  20   1  23  -1
M  END
>  <EmbedRMS>  (8) 
0.0808295749244

$$$$

     RDKit          3D

 72 76  0  0  0  0  0  0  0  0999 V2000
   10.2805   43.7664   33.8249 C   0  0  0  0  0  0  0  0  0  0  0  0
   11.4111   43.5919   34.3667 O   0  0  0  0  0  0  0  0  0  0  0  0
    9.3622   42.7247   33.7342 O   0  0  0  0  0  0  0  0  0  0  0  0
    9.8904   41.2264   34.2936 P   0  0  0  0  0  0  0  0  0  0  0  0
   10.3731   41.4565   35.8832 O   0  0  0  0  0  0  0  0  0  0  0  0
    9.9459   45.0736   33.2112 C   0  0  1  0  0  0  0  0  0  0  0  0
   11.0266   46.0292   33.4710 N   0  0  0  0  0  0  0  0  0  0  0  0
    9.7540   44.8542   31.6949 C   0  0  0  0  0  0  0  0  0  0  0  0
    8.7957   45.8413   31.0850 C   0  0  0  0  0  0  0  0  0  0  0  0
    7.4090   45.5997   31.1009 C   0  0  0  0  0  0  0  0  0  0  0  0
    9.2824   46.9877   30.4391 C   0  0  0  0  0  0  0  0  0  0  0  0
    6.5261   46.4983   30.4857 C   0  0  0  0  0  0  0  0  0  0  0  0
    8.3997   47.8871   29.8302 C   0  0  0  0  0  0  0  0  0  0  0  0
    7.0181   47.6556   29.8481 C   0  0  0  0  0  0  0  0  0  0  0  0
    6.1784   48.5933   29.2253 O   0  0  0  0  0  0  0  0  0  0  0  0
    4.7503   48.5569   29.2411 C   0  0  0  0  0  0  0  0  0  0  0  0
    4.2201   48.8581   30.6261 C   0  0  0  0  0  0  0  0  0  0  0  0
    3.2394   48.0514   31.2616 C   0  0  0  0  0  0  0  0  0  0  0  0
    4.7513   49.9616   31.3186 C   0  0  0  0  0  0  0  0  0  0  0  0
    2.5877   46.9700   30.5781 N   0  0  0  0  0  0  0  0  0  0  0  0
    2.8772   48.3287   32.5907 C   0  0  0  0  0  0  0  0  0  0  0  0
    4.3631   50.2338   32.6311 C   0  0  0  0  0  0  0  0  0  0  0  0
    2.2661   45.8224   31.2654 O   0  0  0  0  0  0  0  0  0  0  0  0
    2.0968   47.1511   29.4449 O   0  0  0  0  0  0  0  0  0  0  0  0
    3.4362   49.4122   33.2699 C   0  0  0  0  0  0  0  0  0  0  0  0
    8.8128   40.1841   34.2124 O   0  0  0  0  0  0  0  0  0  0  0  0
   11.2419   40.7944   33.3695 O   0  0  0  0  0  0  0  0  0  0  0  0
   10.9185   40.6911   31.9969 C   0  0  0  0  0  0  0  0  0  0  0  0
   11.5172   39.3814   31.4407 C   0  0  0  0  0  0  0  0  0  0  0  0
   12.7492   39.0856   32.0729 O   0  0  0  0  0  0  0  0  0  0  0  0
   10.6023   38.1908   31.6665 C   0  0  0  0  0  0  0  0  0  0  0  0
   12.9319   37.6781   32.0281 C   0  0  0  0  0  0  0  0  0  0  0  0
    9.6392   38.0797   30.6452 O   0  0  0  0  0  0  0  0  0  0  0  0
   11.5715   37.0165   31.7056 C   0  0  0  0  0  0  0  0  0  0  0  0
   13.4846   37.2121   33.3235 N   0  0  0  0  0  0  0  0  0  0  0  0
   11.6187   36.3384   30.4695 O   0  0  0  0  0  0  0  0  0  0  0  0
   14.4801   36.3321   33.5724 C   0  0  0  0  0  0  0  0  0  0  0  0
   13.1137   37.6276   34.5688 C   0  0  0  0  0  0  0  0  0  0  0  0
   15.2073   35.6153   32.6738 N   0  0  0  0  0  0  0  0  0  0  0  0
   14.6759   36.2308   34.9179 C   0  0  0  0  0  0  0  0  0  0  0  0
   13.8216   37.0452   35.5781 N   0  0  0  0  0  0  0  0  0  0  0  0
   16.1640   34.7602   33.1546 C   0  0  0  0  0  0  0  0  0  0  0  0
   15.6526   35.3508   35.4129 C   0  0  0  0  0  0  0  0  0  0  0  0
   16.3794   34.6317   34.5041 N   0  0  0  0  0  0  0  0  0  0  0  0
   15.8999   35.1935   36.8088 N   0  0  0  0  0  0  0  0  0  0  0  0
    8.9994   45.4380   33.6722 H   0  0  0  0  0  0  0  0  0  0  0  0
   11.0500   46.2277   34.4984 H   0  0  0  0  0  0  0  0  0  0  0  0
   10.7762   46.9369   33.0161 H   0  0  0  0  0  0  0  0  0  0  0  0
    9.3646   43.8355   31.4710 H   0  0  0  0  0  0  0  0  0  0  0  0
   10.7412   44.9081   31.1837 H   0  0  0  0  0  0  0  0  0  0  0  0
    7.0149   44.7142   31.5842 H   0  0  0  0  0  0  0  0  0  0  0  0
   10.3463   47.1874   30.4046 H   0  0  0  0  0  0  0  0  0  0  0  0
    5.4687   46.2790   30.5111 H   0  0  0  0  0  0  0  0  0  0  0  0
    8.7917   48.7695   29.3405 H   0  0  0  0  0  0  0  0  0  0  0  0
    4.4129   47.5790   28.8446 H   0  0  0  0  0  0  0  0  0  0  0  0
    4.3759   49.3403   28.5496 H   0  0  0  0  0  0  0  0  0  0  0  0
    5.4866   50.6020   30.8467 H   0  0  0  0  0  0  0  0  0  0  0  0
    2.1380   47.7183   33.0938 H   0  0  0  0  0  0  0  0  0  0  0  0
    4.7888   51.0787   33.1568 H   0  0  0  0  0  0  0  0  0  0  0  0
    3.1404   49.6221   34.2897 H   0  0  0  0  0  0  0  0  0  0  0  0
    9.8298   40.7409   31.7611 H   0  0  0  0  0  0  0  0  0  0  0  0
   11.3967   41.5459   31.4725 H   0  0  0  0  0  0  0  0  0  0  0  0
   11.6975   39.5066   30.3481 H   0  0  0  0  0  0  0  0  0  0  0  0
   10.1077   38.2647   32.6646 H   0  0  0  0  0  0  0  0  0  0  0  0
   13.6621   37.4468   31.2209 H   0  0  0  0  0  0  0  0  0  0  0  0
    8.8973   38.6941   30.8832 H   0  0  0  0  0  0  0  0  0  0  0  0
   11.2806   36.3073   32.5170 H   0  0  0  0  0  0  0  0  0  0  0  0
   10.8493   35.7110   30.4585 H   0  0  0  0  0  0  0  0  0  0  0  0
   12.3291   38.3524   34.7444 H   0  0  0  0  0  0  0  0  0  0  0  0
   16.7559   34.1780   32.4619 H   0  0  0  0  0  0  0  0  0  0  0  0
   15.3531   35.7362   37.5137 H   0  0  0  0  0  0  0  0  0  0  0  0
   16.6344   34.5301   37.1414 H   0  0  0  0  0  0  0  0  0  0  0  0
  1  2  2  0
  1  3  1  0
  3  4  1  0
  4  5  1  0
  6  1  1  0
  7  6  1  0
  6  8  1  0
  8  9  1  0
  9 10  2  0
 11  9  1  0
 10 12  1  0
 13 11  2  0
 12 14  2  0
 14 13  1  0
 14 15  1  0
 15 16  1  0
 16 17  1  0
 17 18  2  0
 19 17  1  0
 18 20  1  0
 18 21  1  0
 22 19  2  0
 20 23  1  0
 20 24  2  0
 21 25  2  0
 25 22  1  0
  4 26  2  0
  4 27  1  0
 28 27  1  0
 28 29  1  0
 29 30  1  0
 29 31  1  0
 30 32  1  0
 31 33  1  0
 31 34  1  0
 34 32  1  0
 32 35  1  0
 34 36  1  0
 37 35  1  0
 38 35  1  0
 39 37  2  0
 37 40  1  0
 41 38  2  0
 42 39  1  0
 40 43  2  0
 40 41  1  0
 44 42  2  0
 44 43  1  0
 43 45  1  0
  6 46  1  1
  7 47  1  0
  7 48  1  0
  8 49  1  0
  8 50  1  0
 10 51  1  0
 11 52  1  0
 12 53  1  0
 13 54  1  0
 16 55  1  0
 16 56  1  0
 19 57  1  0
 21 58  1  0
 22 59  1  0
 25 60  1  0
 28 61  1  0
 28 62  1  0
 29 63  1  0
 31 64  1  0
 32 65  1  0
 33 66  1  0
 34 67  1  0
 36 68  1  0
 38 69  1  0
 42 70  1  0
 45 71  1  0
 45 72  1  0
M  CHG  3   5  -1  20   1  23  -1
M  END
>  <EmbedRMS>  (9) 
0.0827567459273

$$$$

     RDKit          3D

 72 76  0  0  0  0  0  0  0  0999 V2000
   10.2834   43.7662   33.8256 C   0  0  0  0  0  0  0  0  0  0  0  0
   11.4101   43.5930   34.3752 O   0  0  0  0  0  0  0  0  0  0  0  0
    9.3635   42.7257   33.7352 O   0  0  0  0  0  0  0  0  0  0  0  0
    9.8902   41.2269   34.2941 P   0  0  0  0  0  0  0  0  0  0  0  0
   10.3739   41.4560   35.8835 O   0  0  0  0  0  0  0  0  0  0  0  0
    9.9547   45.0695   33.2034 C   0  0  1  0  0  0  0  0  0  0  0  0
   11.0274   46.0322   33.4758 N   0  0  0  0  0  0  0  0  0  0  0  0
    9.7471   44.8483   31.6874 C   0  0  0  0  0  0  0  0  0  0  0  0
    8.7925   45.8407   31.0841 C   0  0  0  0  0  0  0  0  0  0  0  0
    7.4058   45.6011   31.0997 C   0  0  0  0  0  0  0  0  0  0  0  0
    9.2817   46.9882   30.4425 C   0  0  0  0  0  0  0  0  0  0  0  0
    6.5245   46.5015   30.4859 C   0  0  0  0  0  0  0  0  0  0  0  0
    8.4004   47.8887   29.8330 C   0  0  0  0  0  0  0  0  0  0  0  0
    7.0188   47.6555   29.8441 C   0  0  0  0  0  0  0  0  0  0  0  0
    6.1817   48.5879   29.2101 O   0  0  0  0  0  0  0  0  0  0  0  0
    4.7688   48.4499   29.0501 C   0  0  0  0  0  0  0  0  0  0  0  0
    4.4444   47.3497   28.0630 C   0  0  0  0  0  0  0  0  0  0  0  0
    3.4925   46.3324   28.3374 C   0  0  0  0  0  0  0  0  0  0  0  0
    5.1434   47.3209   26.8422 C   0  0  0  0  0  0  0  0  0  0  0  0
    2.6771   46.3553   29.5189 N   0  0  0  0  0  0  0  0  0  0  0  0
    3.3245   45.2822   27.4191 C   0  0  0  0  0  0  0  0  0  0  0  0
    4.9471   46.2807   25.9328 C   0  0  0  0  0  0  0  0  0  0  0  0
    2.3570   45.1761   30.1512 O   0  0  0  0  0  0  0  0  0  0  0  0
    2.0618   47.3944   29.8348 O   0  0  0  0  0  0  0  0  0  0  0  0
    4.0476   45.2573   26.2257 C   0  0  0  0  0  0  0  0  0  0  0  0
    8.8120   40.1851   34.2131 O   0  0  0  0  0  0  0  0  0  0  0  0
   11.2402   40.7951   33.3681 O   0  0  0  0  0  0  0  0  0  0  0  0
   10.9126   40.6877   31.9968 C   0  0  0  0  0  0  0  0  0  0  0  0
   11.5169   39.3811   31.4420 C   0  0  0  0  0  0  0  0  0  0  0  0
   12.7500   39.0881   32.0759 O   0  0  0  0  0  0  0  0  0  0  0  0
   10.6043   38.1893   31.6659 C   0  0  0  0  0  0  0  0  0  0  0  0
   12.9395   37.6814   32.0280 C   0  0  0  0  0  0  0  0  0  0  0  0
    9.6353   38.0951   30.6499 O   0  0  0  0  0  0  0  0  0  0  0  0
   11.5803   37.0191   31.6934 C   0  0  0  0  0  0  0  0  0  0  0  0
   13.4851   37.2119   33.3244 N   0  0  0  0  0  0  0  0  0  0  0  0
   11.6118   36.3189   30.4674 O   0  0  0  0  0  0  0  0  0  0  0  0
   14.4801   36.3316   33.5732 C   0  0  0  0  0  0  0  0  0  0  0  0
   13.1139   37.6277   34.5692 C   0  0  0  0  0  0  0  0  0  0  0  0
   15.2076   35.6154   32.6744 N   0  0  0  0  0  0  0  0  0  0  0  0
   14.6756   36.2303   34.9186 C   0  0  0  0  0  0  0  0  0  0  0  0
   13.8215   37.0451   35.5786 N   0  0  0  0  0  0  0  0  0  0  0  0
   16.1642   34.7602   33.1551 C   0  0  0  0  0  0  0  0  0  0  0  0
   15.6526   35.3505   35.4134 C   0  0  0  0  0  0  0  0  0  0  0  0
   16.3796   34.6316   34.5045 N   0  0  0  0  0  0  0  0  0  0  0  0
   15.9001   35.1933   36.8093 N   0  0  0  0  0  0  0  0  0  0  0  0
    9.0120   45.4318   33.6711 H   0  0  0  0  0  0  0  0  0  0  0  0
   11.8908   45.7658   32.9474 H   0  0  0  0  0  0  0  0  0  0  0  0
   10.7261   46.9688   33.1213 H   0  0  0  0  0  0  0  0  0  0  0  0
    9.3425   43.8330   31.4758 H   0  0  0  0  0  0  0  0  0  0  0  0
   10.7236   44.8823   31.1556 H   0  0  0  0  0  0  0  0  0  0  0  0
    7.0099   44.7167   31.5837 H   0  0  0  0  0  0  0  0  0  0  0  0
   10.3459   47.1867   30.4109 H   0  0  0  0  0  0  0  0  0  0  0  0
    5.4658   46.2899   30.5215 H   0  0  0  0  0  0  0  0  0  0  0  0
    8.7938   48.7701   29.3425 H   0  0  0  0  0  0  0  0  0  0  0  0
    4.3708   49.4044   28.6469 H   0  0  0  0  0  0  0  0  0  0  0  0
    4.3092   48.2960   30.0463 H   0  0  0  0  0  0  0  0  0  0  0  0
    5.8603   48.0970   26.6033 H   0  0  0  0  0  0  0  0  0  0  0  0
    2.6098   44.4932   27.6166 H   0  0  0  0  0  0  0  0  0  0  0  0
    5.5004   46.2641   25.0026 H   0  0  0  0  0  0  0  0  0  0  0  0
    3.9008   44.4488   25.5212 H   0  0  0  0  0  0  0  0  0  0  0  0
    9.8216   40.7223   31.7646 H   0  0  0  0  0  0  0  0  0  0  0  0
   11.3809   41.5456   31.4686 H   0  0  0  0  0  0  0  0  0  0  0  0
   11.6986   39.5089   30.3499 H   0  0  0  0  0  0  0  0  0  0  0  0
   10.1109   38.2737   32.6630 H   0  0  0  0  0  0  0  0  0  0  0  0
   13.6783   37.4562   31.2271 H   0  0  0  0  0  0  0  0  0  0  0  0
    9.0020   37.3860   30.9348 H   0  0  0  0  0  0  0  0  0  0  0  0
   11.2807   36.3053   32.4921 H   0  0  0  0  0  0  0  0  0  0  0  0
   11.8819   36.9600   29.7584 H   0  0  0  0  0  0  0  0  0  0  0  0
   12.3304   38.3538   34.7445 H   0  0  0  0  0  0  0  0  0  0  0  0
   16.7563   34.1783   32.4623 H   0  0  0  0  0  0  0  0  0  0  0  0
   16.6348   34.5302   37.1418 H   0  0  0  0  0  0  0  0  0  0  0  0
   15.3532   35.7359   37.5142 H   0  0  0  0  0  0  0  0  0  0  0  0
  1  2  2  0
  1  3  1  0
  3  4  1  0
  4  5  1  0
  6  1  1  0
  7  6  1  0
  6  8  1  0
  8  9  1  0
  9 10  2  0
 11  9  1  0
 10 12  1  0
 13 11  2  0
 12 14  2  0
 14 13  1  0
 14 15  1  0
 15 16  1  0
 16 17  1  0
 17 18  2  0
 19 17  1  0
 18 20  1  0
 18 21  1  0
 22 19  2  0
 20 23  1  0
 20 24  2  0
 21 25  2  0
 25 22  1  0
  4 26  2  0
  4 27  1  0
 28 27  1  0
 28 29  1  0
 29 30  1  0
 29 31  1  0
 30 32  1  0
 31 33  1  0
 31 34  1  0
 34 32  1  0
 32 35  1  0
 34 36  1  0
 37 35  1  0
 38 35  1  0
 39 37  2  0
 37 40  1  0
 41 38  2  0
 42 39  1  0
 40 43  2  0
 40 41  1  0
 44 42  2  0
 44 43  1  0
 43 45  1  0
  6 46  1  1
  7 47  1  0
  7 48  1  0
  8 49  1  0
  8 50  1  0
 10 51  1  0
 11 52  1  0
 12 53  1  0
 13 54  1  0
 16 55  1  0
 16 56  1  0
 19 57  1  0
 21 58  1  0
 22 59  1  0
 25 60  1  0
 28 61  1  0
 28 62  1  0
 29 63  1  0
 31 64  1  0
 32 65  1  0
 33 66  1  0
 34 67  1  0
 36 68  1  0
 38 69  1  0
 42 70  1  0
 45 71  1  0
 45 72  1  0
M  CHG  3   5  -1  20   1  23  -1
M  END
>  <EmbedRMS>  (10) 
0.0815641691943

$$$$

     RDKit          3D

 72 76  0  0  0  0  0  0  0  0999 V2000
   10.2803   43.7664   33.8249 C   0  0  0  0  0  0  0  0  0  0  0  0
   11.4110   43.5918   34.3666 O   0  0  0  0  0  0  0  0  0  0  0  0
    9.3618   42.7250   33.7344 O   0  0  0  0  0  0  0  0  0  0  0  0
    9.8901   41.2265   34.2931 P   0  0  0  0  0  0  0  0  0  0  0  0
   10.3742   41.4563   35.8823 O   0  0  0  0  0  0  0  0  0  0  0  0
    9.9459   45.0736   33.2111 C   0  0  1  0  0  0  0  0  0  0  0  0
   11.0267   46.0292   33.4708 N   0  0  0  0  0  0  0  0  0  0  0  0
    9.7540   44.8541   31.6947 C   0  0  0  0  0  0  0  0  0  0  0  0
    8.7957   45.8410   31.0845 C   0  0  0  0  0  0  0  0  0  0  0  0
    7.4089   45.6001   31.1015 C   0  0  0  0  0  0  0  0  0  0  0  0
    9.2823   46.9882   30.4400 C   0  0  0  0  0  0  0  0  0  0  0  0
    6.5259   46.4993   30.4874 C   0  0  0  0  0  0  0  0  0  0  0  0
    8.3996   47.8879   29.8316 C   0  0  0  0  0  0  0  0  0  0  0  0
    7.0184   47.6536   29.8446 C   0  0  0  0  0  0  0  0  0  0  0  0
    6.1797   48.5851   29.2113 O   0  0  0  0  0  0  0  0  0  0  0  0
    4.7666   48.4462   29.0537 C   0  0  0  0  0  0  0  0  0  0  0  0
    4.4407   47.3451   28.0686 C   0  0  0  0  0  0  0  0  0  0  0  0
    3.4865   46.3323   28.3464 C   0  0  0  0  0  0  0  0  0  0  0  0
    5.1400   47.3106   26.8483 C   0  0  0  0  0  0  0  0  0  0  0  0
    2.6704   46.3699   29.5273 N   0  0  0  0  0  0  0  0  0  0  0  0
    3.3134   45.2803   27.4299 C   0  0  0  0  0  0  0  0  0  0  0  0
    4.9404   46.2686   25.9416 C   0  0  0  0  0  0  0  0  0  0  0  0
    1.9951   47.5217   29.8595 O   0  0  0  0  0  0  0  0  0  0  0  0
    2.3863   45.3108   30.1238 O   0  0  0  0  0  0  0  0  0  0  0  0
    4.0368   45.2494   26.2369 C   0  0  0  0  0  0  0  0  0  0  0  0
    8.8123   40.1844   34.2130 O   0  0  0  0  0  0  0  0  0  0  0  0
   11.2401   40.7949   33.3666 O   0  0  0  0  0  0  0  0  0  0  0  0
   10.9124   40.6859   31.9952 C   0  0  0  0  0  0  0  0  0  0  0  0
   11.5175   39.3786   31.4405 C   0  0  0  0  0  0  0  0  0  0  0  0
   12.7490   39.0864   32.0753 O   0  0  0  0  0  0  0  0  0  0  0  0
   10.6060   38.1868   31.6656 C   0  0  0  0  0  0  0  0  0  0  0  0
   12.9355   37.6796   32.0292 C   0  0  0  0  0  0  0  0  0  0  0  0
    9.6399   38.0903   30.6471 O   0  0  0  0  0  0  0  0  0  0  0  0
   11.5765   37.0145   31.7044 C   0  0  0  0  0  0  0  0  0  0  0  0
   13.4858   37.2125   33.3244 N   0  0  0  0  0  0  0  0  0  0  0  0
   11.6101   36.3397   30.4673 O   0  0  0  0  0  0  0  0  0  0  0  0
   14.4805   36.3319   33.5729 C   0  0  0  0  0  0  0  0  0  0  0  0
   13.1143   37.6276   34.5694 C   0  0  0  0  0  0  0  0  0  0  0  0
   15.2076   35.6153   32.6741 N   0  0  0  0  0  0  0  0  0  0  0  0
   14.6760   36.2304   34.9184 C   0  0  0  0  0  0  0  0  0  0  0  0
   13.8219   37.0449   35.5786 N   0  0  0  0  0  0  0  0  0  0  0  0
   16.1641   34.7600   33.1548 C   0  0  0  0  0  0  0  0  0  0  0  0
   15.6528   35.3505   35.4132 C   0  0  0  0  0  0  0  0  0  0  0  0
   16.3795   34.6314   34.5043 N   0  0  0  0  0  0  0  0  0  0  0  0
   15.9002   35.1931   36.8091 N   0  0  0  0  0  0  0  0  0  0  0  0
    8.9995   45.4382   33.6720 H   0  0  0  0  0  0  0  0  0  0  0  0
   11.0501   46.2277   34.4982 H   0  0  0  0  0  0  0  0  0  0  0  0
   10.7765   46.9369   33.0158 H   0  0  0  0  0  0  0  0  0  0  0  0
   10.7412   44.9079   31.1834 H   0  0  0  0  0  0  0  0  0  0  0  0
    9.3646   43.8354   31.4709 H   0  0  0  0  0  0  0  0  0  0  0  0
    7.0146   44.7161   31.5875 H   0  0  0  0  0  0  0  0  0  0  0  0
   10.3462   47.1882   30.4059 H   0  0  0  0  0  0  0  0  0  0  0  0
    5.4675   46.2868   30.5243 H   0  0  0  0  0  0  0  0  0  0  0  0
    8.7917   48.7693   29.3401 H   0  0  0  0  0  0  0  0  0  0  0  0
    4.3672   49.4002   28.6506 H   0  0  0  0  0  0  0  0  0  0  0  0
    4.3083   48.2912   30.0504 H   0  0  0  0  0  0  0  0  0  0  0  0
    5.8596   48.0837   26.6074 H   0  0  0  0  0  0  0  0  0  0  0  0
    2.5950   44.4950   27.6291 H   0  0  0  0  0  0  0  0  0  0  0  0
    5.4939   46.2474   25.0117 H   0  0  0  0  0  0  0  0  0  0  0  0
    3.8869   44.4398   25.5342 H   0  0  0  0  0  0  0  0  0  0  0  0
   11.3802   41.5436   31.4660 H   0  0  0  0  0  0  0  0  0  0  0  0
    9.8214   40.7199   31.7634 H   0  0  0  0  0  0  0  0  0  0  0  0
   11.6999   39.5040   30.3482 H   0  0  0  0  0  0  0  0  0  0  0  0
   10.1085   38.2766   32.6603 H   0  0  0  0  0  0  0  0  0  0  0  0
   13.6679   37.4521   31.2229 H   0  0  0  0  0  0  0  0  0  0  0  0
    9.0016   37.3868   30.9349 H   0  0  0  0  0  0  0  0  0  0  0  0
   11.2666   36.3062   32.5083 H   0  0  0  0  0  0  0  0  0  0  0  0
   12.1389   35.5126   30.6150 H   0  0  0  0  0  0  0  0  0  0  0  0
   12.3300   38.3529   34.7450 H   0  0  0  0  0  0  0  0  0  0  0  0
   16.7560   34.1779   32.4621 H   0  0  0  0  0  0  0  0  0  0  0  0
   15.3534   35.7359   37.5140 H   0  0  0  0  0  0  0  0  0  0  0  0
   16.6347   34.5298   37.1416 H   0  0  0  0  0  0  0  0  0  0  0  0
  1  2  2  0
  1  3  1  0
  3  4  1  0
  4  5  1  0
  6  1  1  0
  7  6  1  0
  6  8  1  0
  8  9  1  0
  9 10  2  0
 11  9  1  0
 10 12  1  0
 13 11  2  0
 12 14  2  0
 14 13  1  0
 14 15  1  0
 15 16  1  0
 16 17  1  0
 17 18  2  0
 19 17  1  0
 18 20  1  0
 18 21  1  0
 22 19  2  0
 20 23  1  0
 20 24  2  0
 21 25  2  0
 25 22  1  0
  4 26  2  0
  4 27  1  0
 28 27  1  0
 28 29  1  0
 29 30  1  0
 29 31  1  0
 30 32  1  0
 31 33  1  0
 31 34  1  0
 34 32  1  0
 32 35  1  0
 34 36  1  0
 37 35  1  0
 38 35  1  0
 39 37  2  0
 37 40  1  0
 41 38  2  0
 42 39  1  0
 40 43  2  0
 40 41  1  0
 44 42  2  0
 44 43  1  0
 43 45  1  0
  6 46  1  1
  7 47  1  0
  7 48  1  0
  8 49  1  0
  8 50  1  0
 10 51  1  0
 11 52  1  0
 12 53  1  0
 13 54  1  0
 16 55  1  0
 16 56  1  0
 19 57  1  0
 21 58  1  0
 22 59  1  0
 25 60  1  0
 28 61  1  0
 28 62  1  0
 29 63  1  0
 31 64  1  0
 32 65  1  0
 33 66  1  0
 34 67  1  0
 36 68  1  0
 38 69  1  0
 42 70  1  0
 45 71  1  0
 45 72  1  0
M  CHG  3   5  -1  20   1  23  -1
M  END
>  <EmbedRMS>  (11) 
0.0822175633511

$$$$

     RDKit          3D

 72 76  0  0  0  0  0  0  0  0999 V2000
   10.2834   43.7662   33.8256 C   0  0  0  0  0  0  0  0  0  0  0  0
   11.4102   43.5930   34.3752 O   0  0  0  0  0  0  0  0  0  0  0  0
    9.3637   42.7255   33.7349 O   0  0  0  0  0  0  0  0  0  0  0  0
    9.8902   41.2267   34.2942 P   0  0  0  0  0  0  0  0  0  0  0  0
   10.3736   41.4561   35.8836 O   0  0  0  0  0  0  0  0  0  0  0  0
    9.9547   45.0695   33.2034 C   0  0  1  0  0  0  0  0  0  0  0  0
   11.0274   46.0322   33.4758 N   0  0  0  0  0  0  0  0  0  0  0  0
    9.7471   44.8483   31.6874 C   0  0  0  0  0  0  0  0  0  0  0  0
    8.7925   45.8407   31.0841 C   0  0  0  0  0  0  0  0  0  0  0  0
    7.4058   45.6011   31.0997 C   0  0  0  0  0  0  0  0  0  0  0  0
    9.2817   46.9882   30.4425 C   0  0  0  0  0  0  0  0  0  0  0  0
    6.5245   46.5014   30.4859 C   0  0  0  0  0  0  0  0  0  0  0  0
    8.4004   47.8888   29.8330 C   0  0  0  0  0  0  0  0  0  0  0  0
    7.0189   47.6555   29.8441 C   0  0  0  0  0  0  0  0  0  0  0  0
    6.1818   48.5879   29.2100 O   0  0  0  0  0  0  0  0  0  0  0  0
    4.7691   48.4492   29.0487 C   0  0  0  0  0  0  0  0  0  0  0  0
    4.4462   47.3493   28.0607 C   0  0  0  0  0  0  0  0  0  0  0  0
    3.4952   46.3309   28.3340 C   0  0  0  0  0  0  0  0  0  0  0  0
    5.1459   47.3219   26.8404 C   0  0  0  0  0  0  0  0  0  0  0  0
    2.6792   46.3522   29.5151 N   0  0  0  0  0  0  0  0  0  0  0  0
    3.3287   45.2812   27.4149 C   0  0  0  0  0  0  0  0  0  0  0  0
    4.9512   46.2821   25.9302 C   0  0  0  0  0  0  0  0  0  0  0  0
    2.3601   45.1722   30.1466 O   0  0  0  0  0  0  0  0  0  0  0  0
    2.0625   47.3905   29.8312 O   0  0  0  0  0  0  0  0  0  0  0  0
    4.0525   45.2577   26.2219 C   0  0  0  0  0  0  0  0  0  0  0  0
    8.8121   40.1850   34.2131 O   0  0  0  0  0  0  0  0  0  0  0  0
   11.2404   40.7941   33.3690 O   0  0  0  0  0  0  0  0  0  0  0  0
   10.9143   40.6898   31.9972 C   0  0  0  0  0  0  0  0  0  0  0  0
   11.5261   39.3885   31.4376 C   0  0  0  0  0  0  0  0  0  0  0  0
   12.7504   39.0888   32.0816 O   0  0  0  0  0  0  0  0  0  0  0  0
   10.6114   38.1910   31.6460 C   0  0  0  0  0  0  0  0  0  0  0  0
   12.9357   37.6812   32.0303 C   0  0  0  0  0  0  0  0  0  0  0  0
    9.6145   38.0859   30.6534 O   0  0  0  0  0  0  0  0  0  0  0  0
   11.5769   37.0148   31.7012 C   0  0  0  0  0  0  0  0  0  0  0  0
   13.4849   37.2112   33.3247 N   0  0  0  0  0  0  0  0  0  0  0  0
   11.6192   36.3261   30.4724 O   0  0  0  0  0  0  0  0  0  0  0  0
   14.4802   36.3313   33.5730 C   0  0  0  0  0  0  0  0  0  0  0  0
   13.1141   37.6268   34.5698 C   0  0  0  0  0  0  0  0  0  0  0  0
   15.2075   35.6151   32.6741 N   0  0  0  0  0  0  0  0  0  0  0  0
   14.6761   36.2300   34.9184 C   0  0  0  0  0  0  0  0  0  0  0  0
   13.8220   37.0445   35.5789 N   0  0  0  0  0  0  0  0  0  0  0  0
   16.1642   34.7600   33.1547 C   0  0  0  0  0  0  0  0  0  0  0  0
   15.6529   35.3503   35.4131 C   0  0  0  0  0  0  0  0  0  0  0  0
   16.3798   34.6314   34.5042 N   0  0  0  0  0  0  0  0  0  0  0  0
   15.9004   35.1930   36.8090 N   0  0  0  0  0  0  0  0  0  0  0  0
    9.0121   45.4317   33.6711 H   0  0  0  0  0  0  0  0  0  0  0  0
   10.7261   46.9688   33.1214 H   0  0  0  0  0  0  0  0  0  0  0  0
   11.8908   45.7658   32.9474 H   0  0  0  0  0  0  0  0  0  0  0  0
    9.3425   43.8330   31.4757 H   0  0  0  0  0  0  0  0  0  0  0  0
   10.7236   44.8823   31.1556 H   0  0  0  0  0  0  0  0  0  0  0  0
    7.0099   44.7166   31.5836 H   0  0  0  0  0  0  0  0  0  0  0  0
   10.3459   47.1867   30.4110 H   0  0  0  0  0  0  0  0  0  0  0  0
    5.4658   46.2899   30.5213 H   0  0  0  0  0  0  0  0  0  0  0  0
    8.7938   48.7702   29.3426 H   0  0  0  0  0  0  0  0  0  0  0  0
    4.3709   49.4036   28.6456 H   0  0  0  0  0  0  0  0  0  0  0  0
    4.3086   48.2946   30.0443 H   0  0  0  0  0  0  0  0  0  0  0  0
    5.8622   48.0989   26.6023 H   0  0  0  0  0  0  0  0  0  0  0  0
    2.6147   44.4913   27.6115 H   0  0  0  0  0  0  0  0  0  0  0  0
    5.5050   46.2666   25.0003 H   0  0  0  0  0  0  0  0  0  0  0  0
    3.9069   44.4495   25.5168 H   0  0  0  0  0  0  0  0  0  0  0  0
   11.3779   41.5526   31.4726 H   0  0  0  0  0  0  0  0  0  0  0  0
    9.8233   40.7191   31.7647 H   0  0  0  0  0  0  0  0  0  0  0  0
   11.7283   39.5312   30.3515 H   0  0  0  0  0  0  0  0  0  0  0  0
   10.1127   38.2734   32.6376 H   0  0  0  0  0  0  0  0  0  0  0  0
   13.6692   37.4566   31.2242 H   0  0  0  0  0  0  0  0  0  0  0  0
   10.0533   38.1118   29.7636 H   0  0  0  0  0  0  0  0  0  0  0  0
   11.2607   36.3148   32.5102 H   0  0  0  0  0  0  0  0  0  0  0  0
   12.1496   35.5023   30.6324 H   0  0  0  0  0  0  0  0  0  0  0  0
   12.3301   38.3524   34.7455 H   0  0  0  0  0  0  0  0  0  0  0  0
   16.7562   34.1781   32.4619 H   0  0  0  0  0  0  0  0  0  0  0  0
   15.3536   35.7357   37.5139 H   0  0  0  0  0  0  0  0  0  0  0  0
   16.6351   34.5298   37.1415 H   0  0  0  0  0  0  0  0  0  0  0  0
  1  2  2  0
  1  3  1  0
  3  4  1  0
  4  5  1  0
  6  1  1  0
  7  6  1  0
  6  8  1  0
  8  9  1  0
  9 10  2  0
 11  9  1  0
 10 12  1  0
 13 11  2  0
 12 14  2  0
 14 13  1  0
 14 15  1  0
 15 16  1  0
 16 17  1  0
 17 18  2  0
 19 17  1  0
 18 20  1  0
 18 21  1  0
 22 19  2  0
 20 23  1  0
 20 24  2  0
 21 25  2  0
 25 22  1  0
  4 26  2  0
  4 27  1  0
 28 27  1  0
 28 29  1  0
 29 30  1  0
 29 31  1  0
 30 32  1  0
 31 33  1  0
 31 34  1  0
 34 32  1  0
 32 35  1  0
 34 36  1  0
 37 35  1  0
 38 35  1  0
 39 37  2  0
 37 40  1  0
 41 38  2  0
 42 39  1  0
 40 43  2  0
 40 41  1  0
 44 42  2  0
 44 43  1  0
 43 45  1  0
  6 46  1  1
  7 47  1  0
  7 48  1  0
  8 49  1  0
  8 50  1  0
 10 51  1  0
 11 52  1  0
 12 53  1  0
 13 54  1  0
 16 55  1  0
 16 56  1  0
 19 57  1  0
 21 58  1  0
 22 59  1  0
 25 60  1  0
 28 61  1  0
 28 62  1  0
 29 63  1  0
 31 64  1  0
 32 65  1  0
 33 66  1  0
 34 67  1  0
 36 68  1  0
 38 69  1  0
 42 70  1  0
 45 71  1  0
 45 72  1  0
M  CHG  3   5  -1  20   1  23  -1
M  END
>  <EmbedRMS>  (12) 
0.0816176476663

$$$$

     RDKit          3D

 72 76  0  0  0  0  0  0  0  0999 V2000
   10.2836   43.7661   33.8257 C   0  0  0  0  0  0  0  0  0  0  0  0
   11.4103   43.5929   34.3753 O   0  0  0  0  0  0  0  0  0  0  0  0
    9.3639   42.7254   33.7349 O   0  0  0  0  0  0  0  0  0  0  0  0
    9.8903   41.2266   34.2943 P   0  0  0  0  0  0  0  0  0  0  0  0
   10.3734   41.4563   35.8837 O   0  0  0  0  0  0  0  0  0  0  0  0
    9.9548   45.0695   33.2039 C   0  0  1  0  0  0  0  0  0  0  0  0
   11.0276   46.0322   33.4757 N   0  0  0  0  0  0  0  0  0  0  0  0
    9.7463   44.8482   31.6881 C   0  0  0  0  0  0  0  0  0  0  0  0
    8.7921   45.8412   31.0855 C   0  0  0  0  0  0  0  0  0  0  0  0
    7.4056   45.6009   31.0980 C   0  0  0  0  0  0  0  0  0  0  0  0
    9.2820   46.9869   30.4414 C   0  0  0  0  0  0  0  0  0  0  0  0
    6.5273   46.5019   30.4814 C   0  0  0  0  0  0  0  0  0  0  0  0
    8.4029   47.8884   29.8296 C   0  0  0  0  0  0  0  0  0  0  0  0
    7.0140   47.6560   29.8520 C   0  0  0  0  0  0  0  0  0  0  0  0
    6.0870   48.5274   29.2591 O   0  0  0  0  0  0  0  0  0  0  0  0
    6.3399   49.8788   28.8713 C   0  0  0  0  0  0  0  0  0  0  0  0
    6.4938   50.7675   30.0848 C   0  0  0  0  0  0  0  0  0  0  0  0
    5.3848   51.1547   30.8874 C   0  0  0  0  0  0  0  0  0  0  0  0
    7.7710   51.2735   30.3928 C   0  0  0  0  0  0  0  0  0  0  0  0
    4.0402   50.7315   30.5915 N   0  0  0  0  0  0  0  0  0  0  0  0
    5.5990   52.0181   31.9784 C   0  0  0  0  0  0  0  0  0  0  0  0
    7.9608   52.1178   31.4869 C   0  0  0  0  0  0  0  0  0  0  0  0
    3.7744   49.4417   30.1990 O   0  0  0  0  0  0  0  0  0  0  0  0
    3.0794   51.4866   30.8480 O   0  0  0  0  0  0  0  0  0  0  0  0
    6.8776   52.4871   32.2799 C   0  0  0  0  0  0  0  0  0  0  0  0
    8.8121   40.1850   34.2132 O   0  0  0  0  0  0  0  0  0  0  0  0
   11.2407   40.7938   33.3694 O   0  0  0  0  0  0  0  0  0  0  0  0
   10.9153   40.6905   31.9974 C   0  0  0  0  0  0  0  0  0  0  0  0
   11.5253   39.3887   31.4375 C   0  0  0  0  0  0  0  0  0  0  0  0
   12.7501   39.0874   32.0798 O   0  0  0  0  0  0  0  0  0  0  0  0
   10.6092   38.1926   31.6469 C   0  0  0  0  0  0  0  0  0  0  0  0
   12.9333   37.6793   32.0294 C   0  0  0  0  0  0  0  0  0  0  0  0
    9.6121   38.0895   30.6543 O   0  0  0  0  0  0  0  0  0  0  0  0
   11.5743   37.0145   31.7024 C   0  0  0  0  0  0  0  0  0  0  0  0
   13.4845   37.2109   33.3241 N   0  0  0  0  0  0  0  0  0  0  0  0
   11.6298   36.3238   30.4740 O   0  0  0  0  0  0  0  0  0  0  0  0
   14.4802   36.3314   33.5727 C   0  0  0  0  0  0  0  0  0  0  0  0
   13.1138   37.6267   34.5693 C   0  0  0  0  0  0  0  0  0  0  0  0
   15.2074   35.6150   32.6739 N   0  0  0  0  0  0  0  0  0  0  0  0
   14.6760   36.2303   34.9182 C   0  0  0  0  0  0  0  0  0  0  0  0
   13.8218   37.0446   35.5785 N   0  0  0  0  0  0  0  0  0  0  0  0
   16.1642   34.7600   33.1547 C   0  0  0  0  0  0  0  0  0  0  0  0
   15.6529   35.3506   35.4130 C   0  0  0  0  0  0  0  0  0  0  0  0
   16.3797   34.6315   34.5042 N   0  0  0  0  0  0  0  0  0  0  0  0
   15.9003   35.1932   36.8089 N   0  0  0  0  0  0  0  0  0  0  0  0
    9.0125   45.4318   33.6722 H   0  0  0  0  0  0  0  0  0  0  0  0
   10.7263   46.9689   33.1213 H   0  0  0  0  0  0  0  0  0  0  0  0
   11.8907   45.7659   32.9468 H   0  0  0  0  0  0  0  0  0  0  0  0
    9.3409   43.8332   31.4767 H   0  0  0  0  0  0  0  0  0  0  0  0
   10.7225   44.8812   31.1557 H   0  0  0  0  0  0  0  0  0  0  0  0
    7.0081   44.7157   31.5792 H   0  0  0  0  0  0  0  0  0  0  0  0
   10.3472   47.1800   30.4041 H   0  0  0  0  0  0  0  0  0  0  0  0
    5.4627   46.3060   30.4998 H   0  0  0  0  0  0  0  0  0  0  0  0
    8.8192   48.7441   29.3223 H   0  0  0  0  0  0  0  0  0  0  0  0
    7.2276   49.9241   28.2051 H   0  0  0  0  0  0  0  0  0  0  0  0
    5.4862   50.2442   28.2629 H   0  0  0  0  0  0  0  0  0  0  0  0
    8.6269   51.0254   29.7790 H   0  0  0  0  0  0  0  0  0  0  0  0
    4.7701   52.3244   32.6040 H   0  0  0  0  0  0  0  0  0  0  0  0
    8.9501   52.4934   31.7148 H   0  0  0  0  0  0  0  0  0  0  0  0
    7.0269   53.1459   33.1257 H   0  0  0  0  0  0  0  0  0  0  0  0
    9.8244   40.7218   31.7643 H   0  0  0  0  0  0  0  0  0  0  0  0
   11.3803   41.5529   31.4735 H   0  0  0  0  0  0  0  0  0  0  0  0
   11.7267   39.5314   30.3512 H   0  0  0  0  0  0  0  0  0  0  0  0
   10.1109   38.2749   32.6386 H   0  0  0  0  0  0  0  0  0  0  0  0
   13.6654   37.4520   31.2227 H   0  0  0  0  0  0  0  0  0  0  0  0
   10.0509   38.1141   29.7644 H   0  0  0  0  0  0  0  0  0  0  0  0
   11.2763   36.3143   32.5191 H   0  0  0  0  0  0  0  0  0  0  0  0
   10.8593   35.6977   30.4638 H   0  0  0  0  0  0  0  0  0  0  0  0
   12.3292   38.3517   34.7450 H   0  0  0  0  0  0  0  0  0  0  0  0
   16.7562   34.1781   32.4619 H   0  0  0  0  0  0  0  0  0  0  0  0
   15.3536   35.7358   37.5140 H   0  0  0  0  0  0  0  0  0  0  0  0
   16.6349   34.5300   37.1412 H   0  0  0  0  0  0  0  0  0  0  0  0
  1  2  2  0
  1  3  1  0
  3  4  1  0
  4  5  1  0
  6  1  1  0
  7  6  1  0
  6  8  1  0
  8  9  1  0
  9 10  2  0
 11  9  1  0
 10 12  1  0
 13 11  2  0
 12 14  2  0
 14 13  1  0
 14 15  1  0
 15 16  1  0
 16 17  1  0
 17 18  2  0
 19 17  1  0
 18 20  1  0
 18 21  1  0
 22 19  2  0
 20 23  1  0
 20 24  2  0
 21 25  2  0
 25 22  1  0
  4 26  2  0
  4 27  1  0
 28 27  1  0
 28 29  1  0
 29 30  1  0
 29 31  1  0
 30 32  1  0
 31 33  1  0
 31 34  1  0
 34 32  1  0
 32 35  1  0
 34 36  1  0
 37 35  1  0
 38 35  1  0
 39 37  2  0
 37 40  1  0
 41 38  2  0
 42 39  1  0
 40 43  2  0
 40 41  1  0
 44 42  2  0
 44 43  1  0
 43 45  1  0
  6 46  1  1
  7 47  1  0
  7 48  1  0
  8 49  1  0
  8 50  1  0
 10 51  1  0
 11 52  1  0
 12 53  1  0
 13 54  1  0
 16 55  1  0
 16 56  1  0
 19 57  1  0
 21 58  1  0
 22 59  1  0
 25 60  1  0
 28 61  1  0
 28 62  1  0
 29 63  1  0
 31 64  1  0
 32 65  1  0
 33 66  1  0
 34 67  1  0
 36 68  1  0
 38 69  1  0
 42 70  1  0
 45 71  1  0
 45 72  1  0
M  CHG  3   5  -1  20   1  23  -1
M  END
>  <EmbedRMS>  (13) 
0.0818072354213

$$$$

     RDKit          3D

 72 76  0  0  0  0  0  0  0  0999 V2000
   10.2834   43.7662   33.8257 C   0  0  0  0  0  0  0  0  0  0  0  0
   11.4102   43.5930   34.3752 O   0  0  0  0  0  0  0  0  0  0  0  0
    9.3637   42.7255   33.7349 O   0  0  0  0  0  0  0  0  0  0  0  0
    9.8905   41.2266   34.2934 P   0  0  0  0  0  0  0  0  0  0  0  0
   10.3743   41.4557   35.8827 O   0  0  0  0  0  0  0  0  0  0  0  0
    9.9547   45.0695   33.2035 C   0  0  1  0  0  0  0  0  0  0  0  0
   11.0274   46.0321   33.4756 N   0  0  0  0  0  0  0  0  0  0  0  0
    9.7466   44.8480   31.6876 C   0  0  0  0  0  0  0  0  0  0  0  0
    8.7923   45.8407   31.0844 C   0  0  0  0  0  0  0  0  0  0  0  0
    7.4055   45.6017   31.0992 C   0  0  0  0  0  0  0  0  0  0  0  0
    9.2821   46.9878   30.4424 C   0  0  0  0  0  0  0  0  0  0  0  0
    6.5268   46.5035   30.4839 C   0  0  0  0  0  0  0  0  0  0  0  0
    8.4028   47.8898   29.8322 C   0  0  0  0  0  0  0  0  0  0  0  0
    7.0144   47.6528   29.8465 C   0  0  0  0  0  0  0  0  0  0  0  0
    6.0898   48.5209   29.2438 O   0  0  0  0  0  0  0  0  0  0  0  0
    6.4155   49.7135   28.5262 C   0  0  0  0  0  0  0  0  0  0  0  0
    7.1098   49.4040   27.2168 C   0  0  0  0  0  0  0  0  0  0  0  0
    8.1310   50.2357   26.6872 C   0  0  0  0  0  0  0  0  0  0  0  0
    6.6466   48.3195   26.4473 C   0  0  0  0  0  0  0  0  0  0  0  0
    8.6093   51.3886   27.3947 N   0  0  0  0  0  0  0  0  0  0  0  0
    8.6693   49.9472   25.4217 C   0  0  0  0  0  0  0  0  0  0  0  0
    7.2051   48.0391   25.1994 C   0  0  0  0  0  0  0  0  0  0  0  0
    9.1987   51.2425   28.6285 O   0  0  0  0  0  0  0  0  0  0  0  0
    8.7373   52.4740   26.7917 O   0  0  0  0  0  0  0  0  0  0  0  0
    8.2155   48.8508   24.6879 C   0  0  0  0  0  0  0  0  0  0  0  0
    8.8122   40.1850   34.2128 O   0  0  0  0  0  0  0  0  0  0  0  0
   11.2403   40.7946   33.3668 O   0  0  0  0  0  0  0  0  0  0  0  0
   10.9126   40.6859   31.9954 C   0  0  0  0  0  0  0  0  0  0  0  0
   11.5175   39.3787   31.4405 C   0  0  0  0  0  0  0  0  0  0  0  0
   12.7490   39.0864   32.0752 O   0  0  0  0  0  0  0  0  0  0  0  0
   10.6061   38.1868   31.6656 C   0  0  0  0  0  0  0  0  0  0  0  0
   12.9356   37.6796   32.0292 C   0  0  0  0  0  0  0  0  0  0  0  0
    9.6399   38.0903   30.6471 O   0  0  0  0  0  0  0  0  0  0  0  0
   11.5765   37.0145   31.7044 C   0  0  0  0  0  0  0  0  0  0  0  0
   13.4858   37.2125   33.3244 N   0  0  0  0  0  0  0  0  0  0  0  0
   11.6101   36.3397   30.4673 O   0  0  0  0  0  0  0  0  0  0  0  0
   14.4805   36.3319   33.5729 C   0  0  0  0  0  0  0  0  0  0  0  0
   13.1144   37.6277   34.5694 C   0  0  0  0  0  0  0  0  0  0  0  0
   15.2076   35.6154   32.6741 N   0  0  0  0  0  0  0  0  0  0  0  0
   14.6760   36.2304   34.9184 C   0  0  0  0  0  0  0  0  0  0  0  0
   13.8219   37.0449   35.5786 N   0  0  0  0  0  0  0  0  0  0  0  0
   16.1641   34.7600   33.1548 C   0  0  0  0  0  0  0  0  0  0  0  0
   15.6527   35.3504   35.4132 C   0  0  0  0  0  0  0  0  0  0  0  0
   16.3795   34.6314   34.5043 N   0  0  0  0  0  0  0  0  0  0  0  0
   15.9002   35.1932   36.8091 N   0  0  0  0  0  0  0  0  0  0  0  0
    9.0121   45.4318   33.6714 H   0  0  0  0  0  0  0  0  0  0  0  0
   11.8906   45.7657   32.9469 H   0  0  0  0  0  0  0  0  0  0  0  0
   10.7260   46.9687   33.1212 H   0  0  0  0  0  0  0  0  0  0  0  0
   10.7229   44.8814   31.1556 H   0  0  0  0  0  0  0  0  0  0  0  0
    9.3414   43.8329   31.4763 H   0  0  0  0  0  0  0  0  0  0  0  0
    7.0082   44.7169   31.5813 H   0  0  0  0  0  0  0  0  0  0  0  0
   10.3467   47.1849   30.4113 H   0  0  0  0  0  0  0  0  0  0  0  0
    5.4623   46.3068   30.5010 H   0  0  0  0  0  0  0  0  0  0  0  0
    8.8144   48.7621   29.3492 H   0  0  0  0  0  0  0  0  0  0  0  0
    5.4667   50.2382   28.2888 H   0  0  0  0  0  0  0  0  0  0  0  0
    6.9969   50.3882   29.1826 H   0  0  0  0  0  0  0  0  0  0  0  0
    5.8442   47.6897   26.8112 H   0  0  0  0  0  0  0  0  0  0  0  0
    9.4495   50.5731   25.0066 H   0  0  0  0  0  0  0  0  0  0  0  0
    6.8450   47.1968   24.6228 H   0  0  0  0  0  0  0  0  0  0  0  0
    8.6425   48.6355   23.7168 H   0  0  0  0  0  0  0  0  0  0  0  0
    9.8215   40.7200   31.7636 H   0  0  0  0  0  0  0  0  0  0  0  0
   11.3803   41.5437   31.4664 H   0  0  0  0  0  0  0  0  0  0  0  0
   11.6999   39.5042   30.3482 H   0  0  0  0  0  0  0  0  0  0  0  0
   10.1085   38.2767   32.6603 H   0  0  0  0  0  0  0  0  0  0  0  0
   13.6680   37.4520   31.2229 H   0  0  0  0  0  0  0  0  0  0  0  0
    9.0016   37.3868   30.9350 H   0  0  0  0  0  0  0  0  0  0  0  0
   11.2667   36.3062   32.5084 H   0  0  0  0  0  0  0  0  0  0  0  0
   12.1389   35.5126   30.6150 H   0  0  0  0  0  0  0  0  0  0  0  0
   12.3301   38.3529   34.7450 H   0  0  0  0  0  0  0  0  0  0  0  0
   16.7560   34.1779   32.4620 H   0  0  0  0  0  0  0  0  0  0  0  0
   16.6348   34.5299   37.1416 H   0  0  0  0  0  0  0  0  0  0  0  0
   15.3534   35.7359   37.5139 H   0  0  0  0  0  0  0  0  0  0  0  0
  1  2  2  0
  1  3  1  0
  3  4  1  0
  4  5  1  0
  6  1  1  0
  7  6  1  0
  6  8  1  0
  8  9  1  0
  9 10  2  0
 11  9  1  0
 10 12  1  0
 13 11  2  0
 12 14  2  0
 14 13  1  0
 14 15  1  0
 15 16  1  0
 16 17  1  0
 17 18  2  0
 19 17  1  0
 18 20  1  0
 18 21  1  0
 22 19  2  0
 20 23  1  0
 20 24  2  0
 21 25  2  0
 25 22  1  0
  4 26  2  0
  4 27  1  0
 28 27  1  0
 28 29  1  0
 29 30  1  0
 29 31  1  0
 30 32  1  0
 31 33  1  0
 31 34  1  0
 34 32  1  0
 32 35  1  0
 34 36  1  0
 37 35  1  0
 38 35  1  0
 39 37  2  0
 37 40  1  0
 41 38  2  0
 42 39  1  0
 40 43  2  0
 40 41  1  0
 44 42  2  0
 44 43  1  0
 43 45  1  0
  6 46  1  1
  7 47  1  0
  7 48  1  0
  8 49  1  0
  8 50  1  0
 10 51  1  0
 11 52  1  0
 12 53  1  0
 13 54  1  0
 16 55  1  0
 16 56  1  0
 19 57  1  0
 21 58  1  0
 22 59  1  0
 25 60  1  0
 28 61  1  0
 28 62  1  0
 29 63  1  0
 31 64  1  0
 32 65  1  0
 33 66  1  0
 34 67  1  0
 36 68  1  0
 38 69  1  0
 42 70  1  0
 45 71  1  0
 45 72  1  0
M  CHG  3   5  -1  20   1  23  -1
M  END
>  <EmbedRMS>  (14) 
0.0824005615881

$$$$

     RDKit          3D

 72 76  0  0  0  0  0  0  0  0999 V2000
   10.2804   43.7664   33.8249 C   0  0  0  0  0  0  0  0  0  0  0  0
   11.4110   43.5918   34.3666 O   0  0  0  0  0  0  0  0  0  0  0  0
    9.3619   42.7249   33.7344 O   0  0  0  0  0  0  0  0  0  0  0  0
    9.8903   41.2265   34.2931 P   0  0  0  0  0  0  0  0  0  0  0  0
   10.3742   41.4563   35.8824 O   0  0  0  0  0  0  0  0  0  0  0  0
    9.9460   45.0736   33.2111 C   0  0  1  0  0  0  0  0  0  0  0  0
   11.0267   46.0292   33.4708 N   0  0  0  0  0  0  0  0  0  0  0  0
    9.7540   44.8542   31.6948 C   0  0  0  0  0  0  0  0  0  0  0  0
    8.7957   45.8412   31.0848 C   0  0  0  0  0  0  0  0  0  0  0  0
    7.4089   45.6002   31.1012 C   0  0  0  0  0  0  0  0  0  0  0  0
    9.2824   46.9881   30.4399 C   0  0  0  0  0  0  0  0  0  0  0  0
    6.5263   46.4995   30.4867 C   0  0  0  0  0  0  0  0  0  0  0  0
    8.3994   47.8875   29.8313 C   0  0  0  0  0  0  0  0  0  0  0  0
    7.0180   47.6539   29.8456 C   0  0  0  0  0  0  0  0  0  0  0  0
    6.1800   48.5860   29.2128 O   0  0  0  0  0  0  0  0  0  0  0  0
    4.7591   48.4815   29.0973 C   0  0  0  0  0  0  0  0  0  0  0  0
    4.3588   47.3577   28.1644 C   0  0  0  0  0  0  0  0  0  0  0  0
    3.2130   46.5495   28.3934 C   0  0  0  0  0  0  0  0  0  0  0  0
    5.0861   47.1854   26.9710 C   0  0  0  0  0  0  0  0  0  0  0  0
    2.3910   46.7073   29.5588 N   0  0  0  0  0  0  0  0  0  0  0  0
    2.8430   45.5906   27.4360 C   0  0  0  0  0  0  0  0  0  0  0  0
    4.7131   46.2144   26.0406 C   0  0  0  0  0  0  0  0  0  0  0  0
    1.0219   46.7122   29.4243 O   0  0  0  0  0  0  0  0  0  0  0  0
    2.8819   46.5579   30.6961 O   0  0  0  0  0  0  0  0  0  0  0  0
    3.5939   45.4179   26.2729 C   0  0  0  0  0  0  0  0  0  0  0  0
    8.8124   40.1844   34.2129 O   0  0  0  0  0  0  0  0  0  0  0  0
   11.2404   40.7948   33.3668 O   0  0  0  0  0  0  0  0  0  0  0  0
   10.9133   40.6866   31.9952 C   0  0  0  0  0  0  0  0  0  0  0  0
   11.5166   39.3787   31.4404 C   0  0  0  0  0  0  0  0  0  0  0  0
   12.7485   39.0849   32.0735 O   0  0  0  0  0  0  0  0  0  0  0  0
   10.6039   38.1884   31.6669 C   0  0  0  0  0  0  0  0  0  0  0  0
   12.9329   37.6776   32.0284 C   0  0  0  0  0  0  0  0  0  0  0  0
    9.6373   38.0938   30.6484 O   0  0  0  0  0  0  0  0  0  0  0  0
   11.5737   37.0141   31.7055 C   0  0  0  0  0  0  0  0  0  0  0  0
   13.4853   37.2120   33.3238 N   0  0  0  0  0  0  0  0  0  0  0  0
   11.6210   36.3379   30.4683 O   0  0  0  0  0  0  0  0  0  0  0  0
   14.4804   36.3319   33.5726 C   0  0  0  0  0  0  0  0  0  0  0  0
   13.1141   37.6275   34.5689 C   0  0  0  0  0  0  0  0  0  0  0  0
   15.2076   35.6152   32.6740 N   0  0  0  0  0  0  0  0  0  0  0  0
   14.6761   36.2306   34.9181 C   0  0  0  0  0  0  0  0  0  0  0  0
   13.8218   37.0451   35.5783 N   0  0  0  0  0  0  0  0  0  0  0  0
   16.1642   34.7600   33.1548 C   0  0  0  0  0  0  0  0  0  0  0  0
   15.6528   35.3507   35.4131 C   0  0  0  0  0  0  0  0  0  0  0  0
   16.3795   34.6315   34.5043 N   0  0  0  0  0  0  0  0  0  0  0  0
   15.9000   35.1933   36.8090 N   0  0  0  0  0  0  0  0  0  0  0  0
    8.9996   45.4381   33.6721 H   0  0  0  0  0  0  0  0  0  0  0  0
   10.7765   46.9369   33.0159 H   0  0  0  0  0  0  0  0  0  0  0  0
   11.0502   46.2277   34.4982 H   0  0  0  0  0  0  0  0  0  0  0  0
   10.7412   44.9079   31.1835 H   0  0  0  0  0  0  0  0  0  0  0  0
    9.3645   43.8354   31.4710 H   0  0  0  0  0  0  0  0  0  0  0  0
    7.0145   44.7155   31.5859 H   0  0  0  0  0  0  0  0  0  0  0  0
   10.3462   47.1880   30.4055 H   0  0  0  0  0  0  0  0  0  0  0  0
    5.4696   46.2854   30.5173 H   0  0  0  0  0  0  0  0  0  0  0  0
    8.7915   48.7688   29.3396 H   0  0  0  0  0  0  0  0  0  0  0  0
    4.3150   48.3985   30.1070 H   0  0  0  0  0  0  0  0  0  0  0  0
    4.3827   49.4304   28.6616 H   0  0  0  0  0  0  0  0  0  0  0  0
    5.9438   47.8104   26.7547 H   0  0  0  0  0  0  0  0  0  0  0  0
    1.9714   44.9686   27.5974 H   0  0  0  0  0  0  0  0  0  0  0  0
    5.2869   46.0879   25.1316 H   0  0  0  0  0  0  0  0  0  0  0  0
    3.3021   44.6705   25.5465 H   0  0  0  0  0  0  0  0  0  0  0  0
    9.8224   40.7224   31.7629 H   0  0  0  0  0  0  0  0  0  0  0  0
   11.3825   41.5438   31.4666 H   0  0  0  0  0  0  0  0  0  0  0  0
   11.6979   39.5036   30.3478 H   0  0  0  0  0  0  0  0  0  0  0  0
   10.1084   38.2786   32.6626 H   0  0  0  0  0  0  0  0  0  0  0  0
   13.6638   37.4473   31.2214 H   0  0  0  0  0  0  0  0  0  0  0  0
    8.9763   37.4191   30.9532 H   0  0  0  0  0  0  0  0  0  0  0  0
   11.2821   36.3054   32.5172 H   0  0  0  0  0  0  0  0  0  0  0  0
   10.8658   35.6935   30.4652 H   0  0  0  0  0  0  0  0  0  0  0  0
   12.3293   38.3523   34.7445 H   0  0  0  0  0  0  0  0  0  0  0  0
   16.7561   34.1778   32.4621 H   0  0  0  0  0  0  0  0  0  0  0  0
   15.3533   35.7361   37.5138 H   0  0  0  0  0  0  0  0  0  0  0  0
   16.6345   34.5300   37.1416 H   0  0  0  0  0  0  0  0  0  0  0  0
  1  2  2  0
  1  3  1  0
  3  4  1  0
  4  5  1  0
  6  1  1  0
  7  6  1  0
  6  8  1  0
  8  9  1  0
  9 10  2  0
 11  9  1  0
 10 12  1  0
 13 11  2  0
 12 14  2  0
 14 13  1  0
 14 15  1  0
 15 16  1  0
 16 17  1  0
 17 18  2  0
 19 17  1  0
 18 20  1  0
 18 21  1  0
 22 19  2  0
 20 23  1  0
 20 24  2  0
 21 25  2  0
 25 22  1  0
  4 26  2  0
  4 27  1  0
 28 27  1  0
 28 29  1  0
 29 30  1  0
 29 31  1  0
 30 32  1  0
 31 33  1  0
 31 34  1  0
 34 32  1  0
 32 35  1  0
 34 36  1  0
 37 35  1  0
 38 35  1  0
 39 37  2  0
 37 40  1  0
 41 38  2  0
 42 39  1  0
 40 43  2  0
 40 41  1  0
 44 42  2  0
 44 43  1  0
 43 45  1  0
  6 46  1  1
  7 47  1  0
  7 48  1  0
  8 49  1  0
  8 50  1  0
 10 51  1  0
 11 52  1  0
 12 53  1  0
 13 54  1  0
 16 55  1  0
 16 56  1  0
 19 57  1  0
 21 58  1  0
 22 59  1  0
 25 60  1  0
 28 61  1  0
 28 62  1  0
 29 63  1  0
 31 64  1  0
 32 65  1  0
 33 66  1  0
 34 67  1  0
 36 68  1  0
 38 69  1  0
 42 70  1  0
 45 71  1  0
 45 72  1  0
M  CHG  3   5  -1  20   1  23  -1
M  END
>  <EmbedRMS>  (15) 
0.0823765999565

$$$$

     RDKit          3D

 72 76  0  0  0  0  0  0  0  0999 V2000
   10.2836   43.7661   33.8256 C   0  0  0  0  0  0  0  0  0  0  0  0
   11.4103   43.5930   34.3753 O   0  0  0  0  0  0  0  0  0  0  0  0
    9.3640   42.7252   33.7347 O   0  0  0  0  0  0  0  0  0  0  0  0
    9.8908   41.2264   34.2939 P   0  0  0  0  0  0  0  0  0  0  0  0
   10.3732   41.4559   35.8835 O   0  0  0  0  0  0  0  0  0  0  0  0
    9.9547   45.0694   33.2035 C   0  0  1  0  0  0  0  0  0  0  0  0
   11.0273   46.0321   33.4756 N   0  0  0  0  0  0  0  0  0  0  0  0
    9.7466   44.8480   31.6876 C   0  0  0  0  0  0  0  0  0  0  0  0
    8.7924   45.8407   31.0844 C   0  0  0  0  0  0  0  0  0  0  0  0
    7.4056   45.6017   31.0993 C   0  0  0  0  0  0  0  0  0  0  0  0
    9.2821   46.9878   30.4424 C   0  0  0  0  0  0  0  0  0  0  0  0
    6.5268   46.5035   30.4841 C   0  0  0  0  0  0  0  0  0  0  0  0
    8.4027   47.8898   29.8322 C   0  0  0  0  0  0  0  0  0  0  0  0
    7.0144   47.6527   29.8465 C   0  0  0  0  0  0  0  0  0  0  0  0
    6.0897   48.5208   29.2440 O   0  0  0  0  0  0  0  0  0  0  0  0
    6.4157   49.7086   28.5187 C   0  0  0  0  0  0  0  0  0  0  0  0
    7.1005   49.3878   27.2066 C   0  0  0  0  0  0  0  0  0  0  0  0
    8.1396   50.1961   26.6724 C   0  0  0  0  0  0  0  0  0  0  0  0
    6.6094   48.3146   26.4385 C   0  0  0  0  0  0  0  0  0  0  0  0
    8.6506   51.3395   27.3724 N   0  0  0  0  0  0  0  0  0  0  0  0
    8.6617   49.8978   25.4029 C   0  0  0  0  0  0  0  0  0  0  0  0
    7.1542   48.0232   25.1872 C   0  0  0  0  0  0  0  0  0  0  0  0
    8.8613   52.5132   26.6865 O   0  0  0  0  0  0  0  0  0  0  0  0
    9.1619   51.2047   28.5025 O   0  0  0  0  0  0  0  0  0  0  0  0
    8.1790   48.8129   24.6705 C   0  0  0  0  0  0  0  0  0  0  0  0
    8.8127   40.1847   34.2122 O   0  0  0  0  0  0  0  0  0  0  0  0
   11.2421   40.7941   33.3697 O   0  0  0  0  0  0  0  0  0  0  0  0
   10.9187   40.6911   31.9971 C   0  0  0  0  0  0  0  0  0  0  0  0
   11.5172   39.3815   31.4407 C   0  0  0  0  0  0  0  0  0  0  0  0
   12.7493   39.0856   32.0728 O   0  0  0  0  0  0  0  0  0  0  0  0
   10.6023   38.1908   31.6665 C   0  0  0  0  0  0  0  0  0  0  0  0
   12.9319   37.6781   32.0281 C   0  0  0  0  0  0  0  0  0  0  0  0
    9.6392   38.0798   30.6452 O   0  0  0  0  0  0  0  0  0  0  0  0
   11.5715   37.0166   31.7056 C   0  0  0  0  0  0  0  0  0  0  0  0
   13.4847   37.2121   33.3235 N   0  0  0  0  0  0  0  0  0  0  0  0
   11.6187   36.3384   30.4695 O   0  0  0  0  0  0  0  0  0  0  0  0
   14.4801   36.3321   33.5724 C   0  0  0  0  0  0  0  0  0  0  0  0
   13.1137   37.6275   34.5688 C   0  0  0  0  0  0  0  0  0  0  0  0
   15.2073   35.6153   32.6738 N   0  0  0  0  0  0  0  0  0  0  0  0
   14.6759   36.2308   34.9179 C   0  0  0  0  0  0  0  0  0  0  0  0
   13.8216   37.0452   35.5781 N   0  0  0  0  0  0  0  0  0  0  0  0
   16.1640   34.7602   33.1546 C   0  0  0  0  0  0  0  0  0  0  0  0
   15.6526   35.3508   35.4129 C   0  0  0  0  0  0  0  0  0  0  0  0
   16.3794   34.6317   34.5041 N   0  0  0  0  0  0  0  0  0  0  0  0
   15.8999   35.1934   36.8088 N   0  0  0  0  0  0  0  0  0  0  0  0
    9.0121   45.4316   33.6714 H   0  0  0  0  0  0  0  0  0  0  0  0
   10.7259   46.9687   33.1212 H   0  0  0  0  0  0  0  0  0  0  0  0
   11.8906   45.7658   32.9469 H   0  0  0  0  0  0  0  0  0  0  0  0
    9.3415   43.8329   31.4762 H   0  0  0  0  0  0  0  0  0  0  0  0
   10.7230   44.8814   31.1556 H   0  0  0  0  0  0  0  0  0  0  0  0
    7.0082   44.7169   31.5813 H   0  0  0  0  0  0  0  0  0  0  0  0
   10.3467   47.1850   30.4114 H   0  0  0  0  0  0  0  0  0  0  0  0
    5.4623   46.3068   30.5012 H   0  0  0  0  0  0  0  0  0  0  0  0
    8.8142   48.7626   29.3501 H   0  0  0  0  0  0  0  0  0  0  0  0
    5.4669   50.2342   28.2831 H   0  0  0  0  0  0  0  0  0  0  0  0
    6.9999   50.3860   29.1694 H   0  0  0  0  0  0  0  0  0  0  0  0
    5.7949   47.7026   26.8062 H   0  0  0  0  0  0  0  0  0  0  0  0
    9.4532   50.5062   24.9834 H   0  0  0  0  0  0  0  0  0  0  0  0
    6.7720   47.1898   24.6118 H   0  0  0  0  0  0  0  0  0  0  0  0
    8.5950   48.5896   23.6965 H   0  0  0  0  0  0  0  0  0  0  0  0
    9.8300   40.7410   31.7613 H   0  0  0  0  0  0  0  0  0  0  0  0
   11.3968   41.5460   31.4729 H   0  0  0  0  0  0  0  0  0  0  0  0
   11.6975   39.5067   30.3481 H   0  0  0  0  0  0  0  0  0  0  0  0
   10.1076   38.2648   32.6645 H   0  0  0  0  0  0  0  0  0  0  0  0
   13.6621   37.4467   31.2209 H   0  0  0  0  0  0  0  0  0  0  0  0
    8.8975   38.6944   30.8831 H   0  0  0  0  0  0  0  0  0  0  0  0
   11.2806   36.3073   32.5170 H   0  0  0  0  0  0  0  0  0  0  0  0
   10.8492   35.7110   30.4586 H   0  0  0  0  0  0  0  0  0  0  0  0
   12.3290   38.3524   34.7444 H   0  0  0  0  0  0  0  0  0  0  0  0
   16.7559   34.1780   32.4619 H   0  0  0  0  0  0  0  0  0  0  0  0
   16.6344   34.5301   37.1414 H   0  0  0  0  0  0  0  0  0  0  0  0
   15.3531   35.7362   37.5137 H   0  0  0  0  0  0  0  0  0  0  0  0
  1  2  2  0
  1  3  1  0
  3  4  1  0
  4  5  1  0
  6  1  1  0
  7  6  1  0
  6  8  1  0
  8  9  1  0
  9 10  2  0
 11  9  1  0
 10 12  1  0
 13 11  2  0
 12 14  2  0
 14 13  1  0
 14 15  1  0
 15 16  1  0
 16 17  1  0
 17 18  2  0
 19 17  1  0
 18 20  1  0
 18 21  1  0
 22 19  2  0
 20 23  1  0
 20 24  2  0
 21 25  2  0
 25 22  1  0
  4 26  2  0
  4 27  1  0
 28 27  1  0
 28 29  1  0
 29 30  1  0
 29 31  1  0
 30 32  1  0
 31 33  1  0
 31 34  1  0
 34 32  1  0
 32 35  1  0
 34 36  1  0
 37 35  1  0
 38 35  1  0
 39 37  2  0
 37 40  1  0
 41 38  2  0
 42 39  1  0
 40 43  2  0
 40 41  1  0
 44 42  2  0
 44 43  1  0
 43 45  1  0
  6 46  1  1
  7 47  1  0
  7 48  1  0
  8 49  1  0
  8 50  1  0
 10 51  1  0
 11 52  1  0
 12 53  1  0
 13 54  1  0
 16 55  1  0
 16 56  1  0
 19 57  1  0
 21 58  1  0
 22 59  1  0
 25 60  1  0
 28 61  1  0
 28 62  1  0
 29 63  1  0
 31 64  1  0
 32 65  1  0
 33 66  1  0
 34 67  1  0
 36 68  1  0
 38 69  1  0
 42 70  1  0
 45 71  1  0
 45 72  1  0
M  CHG  3   5  -1  20   1  23  -1
M  END
>  <EmbedRMS>  (16) 
0.0829489316046

$$$$

     RDKit          3D

 72 76  0  0  0  0  0  0  0  0999 V2000
   10.2804   43.7664   33.8250 C   0  0  0  0  0  0  0  0  0  0  0  0
   11.4111   43.5919   34.3667 O   0  0  0  0  0  0  0  0  0  0  0  0
    9.3619   42.7249   33.7346 O   0  0  0  0  0  0  0  0  0  0  0  0
    9.8900   41.2267   34.2944 P   0  0  0  0  0  0  0  0  0  0  0  0
   10.3728   41.4567   35.8838 O   0  0  0  0  0  0  0  0  0  0  0  0
    9.9459   45.0737   33.2113 C   0  0  1  0  0  0  0  0  0  0  0  0
   11.0266   46.0293   33.4709 N   0  0  0  0  0  0  0  0  0  0  0  0
    9.7540   44.8543   31.6950 C   0  0  0  0  0  0  0  0  0  0  0  0
    8.7957   45.8414   31.0851 C   0  0  0  0  0  0  0  0  0  0  0  0
    7.4090   45.5997   31.1006 C   0  0  0  0  0  0  0  0  0  0  0  0
    9.2825   46.9876   30.4390 C   0  0  0  0  0  0  0  0  0  0  0  0
    6.5261   46.4983   30.4853 C   0  0  0  0  0  0  0  0  0  0  0  0
    8.3997   47.8868   29.8299 C   0  0  0  0  0  0  0  0  0  0  0  0
    7.0181   47.6559   29.8488 C   0  0  0  0  0  0  0  0  0  0  0  0
    6.1796   48.5943   29.2265 O   0  0  0  0  0  0  0  0  0  0  0  0
    4.7526   48.5975   29.2888 C   0  0  0  0  0  0  0  0  0  0  0  0
    4.2720   48.9270   30.6845 C   0  0  0  0  0  0  0  0  0  0  0  0
    4.7240   50.0753   31.3913 C   0  0  0  0  0  0  0  0  0  0  0  0
    3.3752   48.0437   31.3135 C   0  0  0  0  0  0  0  0  0  0  0  0
    5.6194   51.0345   30.7999 N   0  0  0  0  0  0  0  0  0  0  0  0
    4.2979   50.2742   32.7166 C   0  0  0  0  0  0  0  0  0  0  0  0
    2.9526   48.2698   32.6237 C   0  0  0  0  0  0  0  0  0  0  0  0
    6.4976   51.7350   31.5945 O   0  0  0  0  0  0  0  0  0  0  0  0
    5.5002   51.3652   29.6025 O   0  0  0  0  0  0  0  0  0  0  0  0
    3.4178   49.3793   33.3259 C   0  0  0  0  0  0  0  0  0  0  0  0
    8.8127   40.1842   34.2128 O   0  0  0  0  0  0  0  0  0  0  0  0
   11.2414   40.7950   33.3705 O   0  0  0  0  0  0  0  0  0  0  0  0
   10.9178   40.6922   31.9983 C   0  0  0  0  0  0  0  0  0  0  0  0
   11.5175   39.3837   31.4423 C   0  0  0  0  0  0  0  0  0  0  0  0
   12.7507   39.0887   32.0753 O   0  0  0  0  0  0  0  0  0  0  0  0
   10.6027   38.1916   31.6659 C   0  0  0  0  0  0  0  0  0  0  0  0
   12.9384   37.6819   32.0278 C   0  0  0  0  0  0  0  0  0  0  0  0
    9.6371   38.0805   30.6470 O   0  0  0  0  0  0  0  0  0  0  0  0
   11.5780   37.0215   31.6935 C   0  0  0  0  0  0  0  0  0  0  0  0
   13.4844   37.2119   33.3242 N   0  0  0  0  0  0  0  0  0  0  0  0
   11.6095   36.3201   30.4679 O   0  0  0  0  0  0  0  0  0  0  0  0
   14.4797   36.3318   33.5730 C   0  0  0  0  0  0  0  0  0  0  0  0
   13.1136   37.6278   34.5691 C   0  0  0  0  0  0  0  0  0  0  0  0
   15.2073   35.6155   32.6742 N   0  0  0  0  0  0  0  0  0  0  0  0
   14.6754   36.2305   34.9184 C   0  0  0  0  0  0  0  0  0  0  0  0
   13.8213   37.0452   35.5785 N   0  0  0  0  0  0  0  0  0  0  0  0
   16.1640   34.7604   33.1549 C   0  0  0  0  0  0  0  0  0  0  0  0
   15.6524   35.3507   35.4132 C   0  0  0  0  0  0  0  0  0  0  0  0
   16.3794   34.6318   34.5044 N   0  0  0  0  0  0  0  0  0  0  0  0
   15.8999   35.1934   36.8091 N   0  0  0  0  0  0  0  0  0  0  0  0
    8.9995   45.4382   33.6723 H   0  0  0  0  0  0  0  0  0  0  0  0
   11.0501   46.2278   34.4983 H   0  0  0  0  0  0  0  0  0  0  0  0
   10.7763   46.9370   33.0160 H   0  0  0  0  0  0  0  0  0  0  0  0
    9.3645   43.8355   31.4712 H   0  0  0  0  0  0  0  0  0  0  0  0
   10.7411   44.9080   31.1837 H   0  0  0  0  0  0  0  0  0  0  0  0
    7.0150   44.7135   31.5828 H   0  0  0  0  0  0  0  0  0  0  0  0
   10.3463   47.1873   30.4044 H   0  0  0  0  0  0  0  0  0  0  0  0
    5.4695   46.2767   30.5063 H   0  0  0  0  0  0  0  0  0  0  0  0
    8.7915   48.7695   29.3405 H   0  0  0  0  0  0  0  0  0  0  0  0
    4.3607   47.6215   28.9289 H   0  0  0  0  0  0  0  0  0  0  0  0
    4.3650   49.3628   28.5856 H   0  0  0  0  0  0  0  0  0  0  0  0
    3.0097   47.1669   30.7932 H   0  0  0  0  0  0  0  0  0  0  0  0
    4.6351   51.1374   33.2764 H   0  0  0  0  0  0  0  0  0  0  0  0
    2.2676   47.5787   33.0977 H   0  0  0  0  0  0  0  0  0  0  0  0
    3.0918   49.5498   34.3439 H   0  0  0  0  0  0  0  0  0  0  0  0
   11.3950   41.5477   31.4741 H   0  0  0  0  0  0  0  0  0  0  0  0
    9.8290   40.7408   31.7625 H   0  0  0  0  0  0  0  0  0  0  0  0
   11.6982   39.5114   30.3500 H   0  0  0  0  0  0  0  0  0  0  0  0
   10.1117   38.2604   32.6661 H   0  0  0  0  0  0  0  0  0  0  0  0
   13.6767   37.4557   31.2267 H   0  0  0  0  0  0  0  0  0  0  0  0
    8.8960   38.6950   30.8873 H   0  0  0  0  0  0  0  0  0  0  0  0
   11.2791   36.3072   32.4922 H   0  0  0  0  0  0  0  0  0  0  0  0
   11.8828   36.9598   29.7589 H   0  0  0  0  0  0  0  0  0  0  0  0
   12.3300   38.3539   34.7446 H   0  0  0  0  0  0  0  0  0  0  0  0
   16.7561   34.1785   32.4622 H   0  0  0  0  0  0  0  0  0  0  0  0
   16.6347   34.5303   37.1416 H   0  0  0  0  0  0  0  0  0  0  0  0
   15.3531   35.7360   37.5140 H   0  0  0  0  0  0  0  0  0  0  0  0
  1  2  2  0
  1  3  1  0
  3  4  1  0
  4  5  1  0
  6  1  1  0
  7  6  1  0
  6  8  1  0
  8  9  1  0
  9 10  2  0
 11  9  1  0
 10 12  1  0
 13 11  2  0
 12 14  2  0
 14 13  1  0
 14 15  1  0
 15 16  1  0
 16 17  1  0
 17 18  2  0
 19 17  1  0
 18 20  1  0
 18 21  1  0
 22 19  2  0
 20 23  1  0
 20 24  2  0
 21 25  2  0
 25 22  1  0
  4 26  2  0
  4 27  1  0
 28 27  1  0
 28 29  1  0
 29 30  1  0
 29 31  1  0
 30 32  1  0
 31 33  1  0
 31 34  1  0
 34 32  1  0
 32 35  1  0
 34 36  1  0
 37 35  1  0
 38 35  1  0
 39 37  2  0
 37 40  1  0
 41 38  2  0
 42 39  1  0
 40 43  2  0
 40 41  1  0
 44 42  2  0
 44 43  1  0
 43 45  1  0
  6 46  1  1
  7 47  1  0
  7 48  1  0
  8 49  1  0
  8 50  1  0
 10 51  1  0
 11 52  1  0
 12 53  1  0
 13 54  1  0
 16 55  1  0
 16 56  1  0
 19 57  1  0
 21 58  1  0
 22 59  1  0
 25 60  1  0
 28 61  1  0
 28 62  1  0
 29 63  1  0
 31 64  1  0
 32 65  1  0
 33 66  1  0
 34 67  1  0
 36 68  1  0
 38 69  1  0
 42 70  1  0
 45 71  1  0
 45 72  1  0
M  CHG  3   5  -1  20   1  23  -1
M  END
>  <EmbedRMS>  (17) 
0.0817893839147

$$$$

     RDKit          3D

 72 76  0  0  0  0  0  0  0  0999 V2000
   10.2804   43.7664   33.8249 C   0  0  0  0  0  0  0  0  0  0  0  0
   11.4111   43.5918   34.3666 O   0  0  0  0  0  0  0  0  0  0  0  0
    9.3618   42.7250   33.7345 O   0  0  0  0  0  0  0  0  0  0  0  0
    9.8898   41.2267   34.2940 P   0  0  0  0  0  0  0  0  0  0  0  0
   10.3735   41.4566   35.8832 O   0  0  0  0  0  0  0  0  0  0  0  0
    9.9460   45.0736   33.2112 C   0  0  1  0  0  0  0  0  0  0  0  0
   11.0267   46.0292   33.4708 N   0  0  0  0  0  0  0  0  0  0  0  0
    9.7540   44.8542   31.6948 C   0  0  0  0  0  0  0  0  0  0  0  0
    8.7956   45.8412   31.0848 C   0  0  0  0  0  0  0  0  0  0  0  0
    7.4087   45.5999   31.1011 C   0  0  0  0  0  0  0  0  0  0  0  0
    9.2825   46.9881   30.4395 C   0  0  0  0  0  0  0  0  0  0  0  0
    6.5256   46.4989   30.4864 C   0  0  0  0  0  0  0  0  0  0  0  0
    8.3998   47.8877   29.8308 C   0  0  0  0  0  0  0  0  0  0  0  0
    7.0186   47.6543   29.8467 C   0  0  0  0  0  0  0  0  0  0  0  0
    6.1781   48.5865   29.2215 O   0  0  0  0  0  0  0  0  0  0  0  0
    4.7564   48.4892   29.1764 C   0  0  0  0  0  0  0  0  0  0  0  0
    4.1887   49.6959   28.4711 C   0  0  0  0  0  0  0  0  0  0  0  0
    4.4507   51.0240   28.9101 C   0  0  0  0  0  0  0  0  0  0  0  0
    3.4080   49.4966   27.3169 C   0  0  0  0  0  0  0  0  0  0  0  0
    5.2385   51.3037   30.0828 N   0  0  0  0  0  0  0  0  0  0  0  0
    3.9442   52.1028   28.1630 C   0  0  0  0  0  0  0  0  0  0  0  0
    2.9032   50.5824   26.6009 C   0  0  0  0  0  0  0  0  0  0  0  0
    5.9639   52.4705   30.1598 O   0  0  0  0  0  0  0  0  0  0  0  0
    5.1519   50.5856   31.0995 O   0  0  0  0  0  0  0  0  0  0  0  0
    3.1738   51.8826   27.0208 C   0  0  0  0  0  0  0  0  0  0  0  0
    8.8122   40.1844   34.2133 O   0  0  0  0  0  0  0  0  0  0  0  0
   11.2402   40.7944   33.3688 O   0  0  0  0  0  0  0  0  0  0  0  0
   10.9142   40.6898   31.9970 C   0  0  0  0  0  0  0  0  0  0  0  0
   11.5260   39.3884   31.4376 C   0  0  0  0  0  0  0  0  0  0  0  0
   12.7504   39.0888   32.0816 O   0  0  0  0  0  0  0  0  0  0  0  0
   10.6114   38.1909   31.6460 C   0  0  0  0  0  0  0  0  0  0  0  0
   12.9357   37.6812   32.0303 C   0  0  0  0  0  0  0  0  0  0  0  0
    9.6145   38.0858   30.6534 O   0  0  0  0  0  0  0  0  0  0  0  0
   11.5769   37.0148   31.7012 C   0  0  0  0  0  0  0  0  0  0  0  0
   13.4849   37.2112   33.3247 N   0  0  0  0  0  0  0  0  0  0  0  0
   11.6193   36.3261   30.4724 O   0  0  0  0  0  0  0  0  0  0  0  0
   14.4802   36.3313   33.5730 C   0  0  0  0  0  0  0  0  0  0  0  0
   13.1141   37.6268   34.5698 C   0  0  0  0  0  0  0  0  0  0  0  0
   15.2075   35.6151   32.6741 N   0  0  0  0  0  0  0  0  0  0  0  0
   14.6761   36.2300   34.9184 C   0  0  0  0  0  0  0  0  0  0  0  0
   13.8220   37.0445   35.5789 N   0  0  0  0  0  0  0  0  0  0  0  0
   16.1642   34.7600   33.1547 C   0  0  0  0  0  0  0  0  0  0  0  0
   15.6529   35.3503   35.4131 C   0  0  0  0  0  0  0  0  0  0  0  0
   16.3797   34.6314   34.5042 N   0  0  0  0  0  0  0  0  0  0  0  0
   15.9004   35.1930   36.8090 N   0  0  0  0  0  0  0  0  0  0  0  0
    8.9996   45.4382   33.6721 H   0  0  0  0  0  0  0  0  0  0  0  0
   10.7765   46.9369   33.0159 H   0  0  0  0  0  0  0  0  0  0  0  0
   11.0502   46.2277   34.4982 H   0  0  0  0  0  0  0  0  0  0  0  0
    9.3646   43.8355   31.4710 H   0  0  0  0  0  0  0  0  0  0  0  0
   10.7411   44.9080   31.1835 H   0  0  0  0  0  0  0  0  0  0  0  0
    7.0146   44.7149   31.5856 H   0  0  0  0  0  0  0  0  0  0  0  0
   10.3463   47.1879   30.4054 H   0  0  0  0  0  0  0  0  0  0  0  0
    5.4661   46.2852   30.5151 H   0  0  0  0  0  0  0  0  0  0  0  0
    8.7914   48.7701   29.3407 H   0  0  0  0  0  0  0  0  0  0  0  0
    4.4764   47.5517   28.6478 H   0  0  0  0  0  0  0  0  0  0  0  0
    4.3388   48.4304   30.2034 H   0  0  0  0  0  0  0  0  0  0  0  0
    3.1937   48.4962   26.9615 H   0  0  0  0  0  0  0  0  0  0  0  0
    4.1338   53.1219   28.4752 H   0  0  0  0  0  0  0  0  0  0  0  0
    2.3056   50.4147   25.7141 H   0  0  0  0  0  0  0  0  0  0  0  0
    2.7843   52.7231   26.4610 H   0  0  0  0  0  0  0  0  0  0  0  0
   11.3777   41.5525   31.4723 H   0  0  0  0  0  0  0  0  0  0  0  0
    9.8232   40.7190   31.7645 H   0  0  0  0  0  0  0  0  0  0  0  0
   11.7283   39.5311   30.3515 H   0  0  0  0  0  0  0  0  0  0  0  0
   10.1127   38.2733   32.6376 H   0  0  0  0  0  0  0  0  0  0  0  0
   13.6692   37.4566   31.2242 H   0  0  0  0  0  0  0  0  0  0  0  0
   10.0533   38.1118   29.7636 H   0  0  0  0  0  0  0  0  0  0  0  0
   11.2607   36.3148   32.5102 H   0  0  0  0  0  0  0  0  0  0  0  0
   12.1496   35.5023   30.6324 H   0  0  0  0  0  0  0  0  0  0  0  0
   12.3301   38.3524   34.7455 H   0  0  0  0  0  0  0  0  0  0  0  0
   16.7562   34.1781   32.4619 H   0  0  0  0  0  0  0  0  0  0  0  0
   16.6351   34.5298   37.1416 H   0  0  0  0  0  0  0  0  0  0  0  0
   15.3536   35.7357   37.5139 H   0  0  0  0  0  0  0  0  0  0  0  0
  1  2  2  0
  1  3  1  0
  3  4  1  0
  4  5  1  0
  6  1  1  0
  7  6  1  0
  6  8  1  0
  8  9  1  0
  9 10  2  0
 11  9  1  0
 10 12  1  0
 13 11  2  0
 12 14  2  0
 14 13  1  0
 14 15  1  0
 15 16  1  0
 16 17  1  0
 17 18  2  0
 19 17  1  0
 18 20  1  0
 18 21  1  0
 22 19  2  0
 20 23  1  0
 20 24  2  0
 21 25  2  0
 25 22  1  0
  4 26  2  0
  4 27  1  0
 28 27  1  0
 28 29  1  0
 29 30  1  0
 29 31  1  0
 30 32  1  0
 31 33  1  0
 31 34  1  0
 34 32  1  0
 32 35  1  0
 34 36  1  0
 37 35  1  0
 38 35  1  0
 39 37  2  0
 37 40  1  0
 41 38  2  0
 42 39  1  0
 40 43  2  0
 40 41  1  0
 44 42  2  0
 44 43  1  0
 43 45  1  0
  6 46  1  1
  7 47  1  0
  7 48  1  0
  8 49  1  0
  8 50  1  0
 10 51  1  0
 11 52  1  0
 12 53  1  0
 13 54  1  0
 16 55  1  0
 16 56  1  0
 19 57  1  0
 21 58  1  0
 22 59  1  0
 25 60  1  0
 28 61  1  0
 28 62  1  0
 29 63  1  0
 31 64  1  0
 32 65  1  0
 33 66  1  0
 34 67  1  0
 36 68  1  0
 38 69  1  0
 42 70  1  0
 45 71  1  0
 45 72  1  0
M  CHG  3   5  -1  20   1  23  -1
M  END
>  <EmbedRMS>  (18) 
0.0814331877996

$$$$

     RDKit          3D

 72 76  0  0  0  0  0  0  0  0999 V2000
   10.2834   43.7662   33.8257 C   0  0  0  0  0  0  0  0  0  0  0  0
   11.4102   43.5929   34.3752 O   0  0  0  0  0  0  0  0  0  0  0  0
    9.3635   42.7257   33.7352 O   0  0  0  0  0  0  0  0  0  0  0  0
    9.8899   41.2270   34.2947 P   0  0  0  0  0  0  0  0  0  0  0  0
   10.3732   41.4562   35.8841 O   0  0  0  0  0  0  0  0  0  0  0  0
    9.9548   45.0696   33.2038 C   0  0  1  0  0  0  0  0  0  0  0  0
   11.0274   46.0323   33.4761 N   0  0  0  0  0  0  0  0  0  0  0  0
    9.7470   44.8486   31.6879 C   0  0  0  0  0  0  0  0  0  0  0  0
    8.7925   45.8415   31.0853 C   0  0  0  0  0  0  0  0  0  0  0  0
    7.4059   45.6008   31.0984 C   0  0  0  0  0  0  0  0  0  0  0  0
    9.2818   46.9874   30.4412 C   0  0  0  0  0  0  0  0  0  0  0  0
    6.5249   46.5003   30.4827 C   0  0  0  0  0  0  0  0  0  0  0  0
    8.4004   47.8867   29.8303 C   0  0  0  0  0  0  0  0  0  0  0  0
    7.0180   47.6586   29.8499 C   0  0  0  0  0  0  0  0  0  0  0  0
    6.1834   48.5975   29.2236 O   0  0  0  0  0  0  0  0  0  0  0  0
    4.7682   48.7002   29.3897 C   0  0  0  0  0  0  0  0  0  0  0  0
    4.4222   49.2154   30.7691 C   0  0  0  0  0  0  0  0  0  0  0  0
    4.6515   50.5660   31.1606 C   0  0  0  0  0  0  0  0  0  0  0  0
    3.7991   48.3372   31.6762 C   0  0  0  0  0  0  0  0  0  0  0  0
    5.2157   51.5466   30.2676 N   0  0  0  0  0  0  0  0  0  0  0  0
    4.2672   50.9764   32.4506 C   0  0  0  0  0  0  0  0  0  0  0  0
    3.4378   48.7656   32.9533 C   0  0  0  0  0  0  0  0  0  0  0  0
    4.8904   52.8755   30.4161 O   0  0  0  0  0  0  0  0  0  0  0  0
    6.1058   51.2400   29.4496 O   0  0  0  0  0  0  0  0  0  0  0  0
    3.6746   50.0813   33.3410 C   0  0  0  0  0  0  0  0  0  0  0  0
    8.8120   40.1851   34.2133 O   0  0  0  0  0  0  0  0  0  0  0  0
   11.2403   40.7947   33.3700 O   0  0  0  0  0  0  0  0  0  0  0  0
   10.9145   40.6914   31.9982 C   0  0  0  0  0  0  0  0  0  0  0  0
   11.5270   39.3912   31.4385 C   0  0  0  0  0  0  0  0  0  0  0  0
   12.7520   39.0911   32.0836 O   0  0  0  0  0  0  0  0  0  0  0  0
   10.6113   38.1932   31.6451 C   0  0  0  0  0  0  0  0  0  0  0  0
   12.9413   37.6838   32.0297 C   0  0  0  0  0  0  0  0  0  0  0  0
    9.6064   38.0878   30.6599 O   0  0  0  0  0  0  0  0  0  0  0  0
   11.5822   37.0198   31.6877 C   0  0  0  0  0  0  0  0  0  0  0  0
   13.4840   37.2104   33.3254 N   0  0  0  0  0  0  0  0  0  0  0  0
   11.6179   36.3072   30.4690 O   0  0  0  0  0  0  0  0  0  0  0  0
   14.4797   36.3309   33.5738 C   0  0  0  0  0  0  0  0  0  0  0  0
   13.1136   37.6269   34.5702 C   0  0  0  0  0  0  0  0  0  0  0  0
   15.2074   35.6152   32.6747 N   0  0  0  0  0  0  0  0  0  0  0  0
   14.6756   36.2298   34.9190 C   0  0  0  0  0  0  0  0  0  0  0  0
   13.8217   37.0445   35.5793 N   0  0  0  0  0  0  0  0  0  0  0  0
   16.1643   34.7603   33.1551 C   0  0  0  0  0  0  0  0  0  0  0  0
   15.6528   35.3503   35.4136 C   0  0  0  0  0  0  0  0  0  0  0  0
   16.3798   34.6316   34.5046 N   0  0  0  0  0  0  0  0  0  0  0  0
   15.9004   35.1930   36.8094 N   0  0  0  0  0  0  0  0  0  0  0  0
    9.0121   45.4318   33.6716 H   0  0  0  0  0  0  0  0  0  0  0  0
   10.7261   46.9689   33.1217 H   0  0  0  0  0  0  0  0  0  0  0  0
   11.8908   45.7659   32.9477 H   0  0  0  0  0  0  0  0  0  0  0  0
    9.3423   43.8334   31.4760 H   0  0  0  0  0  0  0  0  0  0  0  0
   10.7234   44.8826   31.1560 H   0  0  0  0  0  0  0  0  0  0  0  0
    7.0106   44.7121   31.5750 H   0  0  0  0  0  0  0  0  0  0  0  0
   10.3461   47.1854   30.4085 H   0  0  0  0  0  0  0  0  0  0  0  0
    5.4713   46.2704   30.4888 H   0  0  0  0  0  0  0  0  0  0  0  0
    8.7937   48.7687   29.3407 H   0  0  0  0  0  0  0  0  0  0  0  0
    4.2899   47.7205   29.1763 H   0  0  0  0  0  0  0  0  0  0  0  0
    4.3666   49.4046   28.6314 H   0  0  0  0  0  0  0  0  0  0  0  0
    3.5791   47.3158   31.3946 H   0  0  0  0  0  0  0  0  0  0  0  0
    4.4334   51.9964   32.7731 H   0  0  0  0  0  0  0  0  0  0  0  0
    2.9652   48.0764   33.6413 H   0  0  0  0  0  0  0  0  0  0  0  0
    3.3897   50.4123   34.3314 H   0  0  0  0  0  0  0  0  0  0  0  0
    9.8235   40.7201   31.7654 H   0  0  0  0  0  0  0  0  0  0  0  0
   11.3777   41.5549   31.4744 H   0  0  0  0  0  0  0  0  0  0  0  0
   11.7311   39.5363   30.3532 H   0  0  0  0  0  0  0  0  0  0  0  0
   10.1203   38.2696   32.6410 H   0  0  0  0  0  0  0  0  0  0  0  0
   13.6850   37.4639   31.2321 H   0  0  0  0  0  0  0  0  0  0  0  0
   10.0251   38.1793   29.7654 H   0  0  0  0  0  0  0  0  0  0  0  0
   11.2757   36.3135   32.4907 H   0  0  0  0  0  0  0  0  0  0  0  0
   11.9838   36.9111   29.7708 H   0  0  0  0  0  0  0  0  0  0  0  0
   12.3307   38.3536   34.7458 H   0  0  0  0  0  0  0  0  0  0  0  0
   16.7566   34.1787   32.4623 H   0  0  0  0  0  0  0  0  0  0  0  0
   15.3535   35.7355   37.5144 H   0  0  0  0  0  0  0  0  0  0  0  0
   16.6353   34.5301   37.1419 H   0  0  0  0  0  0  0  0  0  0  0  0
  1  2  2  0
  1  3  1  0
  3  4  1  0
  4  5  1  0
  6  1  1  0
  7  6  1  0
  6  8  1  0
  8  9  1  0
  9 10  2  0
 11  9  1  0
 10 12  1  0
 13 11  2  0
 12 14  2  0
 14 13  1  0
 14 15  1  0
 15 16  1  0
 16 17  1  0
 17 18  2  0
 19 17  1  0
 18 20  1  0
 18 21  1  0
 22 19  2  0
 20 23  1  0
 20 24  2  0
 21 25  2  0
 25 22  1  0
  4 26  2  0
  4 27  1  0
 28 27  1  0
 28 29  1  0
 29 30  1  0
 29 31  1  0
 30 32  1  0
 31 33  1  0
 31 34  1  0
 34 32  1  0
 32 35  1  0
 34 36  1  0
 37 35  1  0
 38 35  1  0
 39 37  2  0
 37 40  1  0
 41 38  2  0
 42 39  1  0
 40 43  2  0
 40 41  1  0
 44 42  2  0
 44 43  1  0
 43 45  1  0
  6 46  1  1
  7 47  1  0
  7 48  1  0
  8 49  1  0
  8 50  1  0
 10 51  1  0
 11 52  1  0
 12 53  1  0
 13 54  1  0
 16 55  1  0
 16 56  1  0
 19 57  1  0
 21 58  1  0
 22 59  1  0
 25 60  1  0
 28 61  1  0
 28 62  1  0
 29 63  1  0
 31 64  1  0
 32 65  1  0
 33 66  1  0
 34 67  1  0
 36 68  1  0
 38 69  1  0
 42 70  1  0
 45 71  1  0
 45 72  1  0
M  CHG  3   5  -1  20   1  23  -1
M  END
>  <EmbedRMS>  (19) 
0.0808119118331

$$$$

     RDKit          3D

 72 76  0  0  0  0  0  0  0  0999 V2000
   10.2834   43.7662   33.8255 C   0  0  0  0  0  0  0  0  0  0  0  0
   11.4102   43.5930   34.3752 O   0  0  0  0  0  0  0  0  0  0  0  0
    9.3637   42.7255   33.7348 O   0  0  0  0  0  0  0  0  0  0  0  0
    9.8903   41.2267   34.2942 P   0  0  0  0  0  0  0  0  0  0  0  0
   10.3735   41.4561   35.8836 O   0  0  0  0  0  0  0  0  0  0  0  0
    9.9547   45.0695   33.2033 C   0  0  1  0  0  0  0  0  0  0  0  0
   11.0273   46.0322   33.4757 N   0  0  0  0  0  0  0  0  0  0  0  0
    9.7472   44.8481   31.6872 C   0  0  0  0  0  0  0  0  0  0  0  0
    8.7928   45.8402   31.0834 C   0  0  0  0  0  0  0  0  0  0  0  0
    7.4059   45.6017   31.1001 C   0  0  0  0  0  0  0  0  0  0  0  0
    9.2817   46.9883   30.4429 C   0  0  0  0  0  0  0  0  0  0  0  0
    6.5245   46.5026   30.4869 C   0  0  0  0  0  0  0  0  0  0  0  0
    8.4001   47.8892   29.8346 C   0  0  0  0  0  0  0  0  0  0  0  0
    7.0187   47.6538   29.8419 C   0  0  0  0  0  0  0  0  0  0  0  0
    6.1848   48.5890   29.2092 O   0  0  0  0  0  0  0  0  0  0  0  0
    4.8145   48.3865   28.8597 C   0  0  0  0  0  0  0  0  0  0  0  0
    4.6880   47.4077   27.7134 C   0  0  0  0  0  0  0  0  0  0  0  0
    5.0683   47.7377   26.3806 C   0  0  0  0  0  0  0  0  0  0  0  0
    4.1196   46.1452   27.9692 C   0  0  0  0  0  0  0  0  0  0  0  0
    5.5873   49.0335   26.0211 N   0  0  0  0  0  0  0  0  0  0  0  0
    4.8841   46.7834   25.3631 C   0  0  0  0  0  0  0  0  0  0  0  0
    3.9578   45.2126   26.9450 C   0  0  0  0  0  0  0  0  0  0  0  0
    5.3863   49.5232   24.7508 O   0  0  0  0  0  0  0  0  0  0  0  0
    6.3394   49.6649   26.7898 O   0  0  0  0  0  0  0  0  0  0  0  0
    4.3426   45.5295   25.6454 C   0  0  0  0  0  0  0  0  0  0  0  0
    8.8121   40.1850   34.2130 O   0  0  0  0  0  0  0  0  0  0  0  0
   11.2407   40.7940   33.3693 O   0  0  0  0  0  0  0  0  0  0  0  0
   10.9151   40.6905   31.9974 C   0  0  0  0  0  0  0  0  0  0  0  0
   11.5252   39.3886   31.4375 C   0  0  0  0  0  0  0  0  0  0  0  0
   12.7500   39.0874   32.0799 O   0  0  0  0  0  0  0  0  0  0  0  0
   10.6092   38.1926   31.6470 C   0  0  0  0  0  0  0  0  0  0  0  0
   12.9332   37.6793   32.0294 C   0  0  0  0  0  0  0  0  0  0  0  0
    9.6122   38.0895   30.6542 O   0  0  0  0  0  0  0  0  0  0  0  0
   11.5743   37.0145   31.7024 C   0  0  0  0  0  0  0  0  0  0  0  0
   13.4844   37.2108   33.3241 N   0  0  0  0  0  0  0  0  0  0  0  0
   11.6297   36.3239   30.4740 O   0  0  0  0  0  0  0  0  0  0  0  0
   14.4802   36.3313   33.5727 C   0  0  0  0  0  0  0  0  0  0  0  0
   13.1138   37.6266   34.5692 C   0  0  0  0  0  0  0  0  0  0  0  0
   15.2075   35.6149   32.6739 N   0  0  0  0  0  0  0  0  0  0  0  0
   14.6761   36.2303   34.9181 C   0  0  0  0  0  0  0  0  0  0  0  0
   13.8220   37.0447   35.5785 N   0  0  0  0  0  0  0  0  0  0  0  0
   16.1643   34.7600   33.1547 C   0  0  0  0  0  0  0  0  0  0  0  0
   15.6529   35.3505   35.4130 C   0  0  0  0  0  0  0  0  0  0  0  0
   16.3798   34.6315   34.5042 N   0  0  0  0  0  0  0  0  0  0  0  0
   15.9003   35.1932   36.8090 N   0  0  0  0  0  0  0  0  0  0  0  0
    9.0120   45.4317   33.6708 H   0  0  0  0  0  0  0  0  0  0  0  0
   11.8907   45.7659   32.9474 H   0  0  0  0  0  0  0  0  0  0  0  0
   10.7260   46.9688   33.1213 H   0  0  0  0  0  0  0  0  0  0  0  0
    9.3426   43.8328   31.4756 H   0  0  0  0  0  0  0  0  0  0  0  0
   10.7238   44.8820   31.1555 H   0  0  0  0  0  0  0  0  0  0  0  0
    7.0096   44.7200   31.5887 H   0  0  0  0  0  0  0  0  0  0  0  0
   10.3459   47.1874   30.4120 H   0  0  0  0  0  0  0  0  0  0  0  0
    5.4666   46.3012   30.5415 H   0  0  0  0  0  0  0  0  0  0  0  0
    8.7933   48.7712   29.3451 H   0  0  0  0  0  0  0  0  0  0  0  0
    4.3735   49.3580   28.5532 H   0  0  0  0  0  0  0  0  0  0  0  0
    4.2400   48.0616   29.7534 H   0  0  0  0  0  0  0  0  0  0  0  0
    3.7873   45.8796   28.9642 H   0  0  0  0  0  0  0  0  0  0  0  0
    5.1679   47.0088   24.3429 H   0  0  0  0  0  0  0  0  0  0  0  0
    3.5248   44.2439   27.1591 H   0  0  0  0  0  0  0  0  0  0  0  0
    4.2124   44.8053   24.8516 H   0  0  0  0  0  0  0  0  0  0  0  0
   11.3802   41.5529   31.4733 H   0  0  0  0  0  0  0  0  0  0  0  0
    9.8243   40.7216   31.7643 H   0  0  0  0  0  0  0  0  0  0  0  0
   11.7266   39.5311   30.3513 H   0  0  0  0  0  0  0  0  0  0  0  0
   10.1110   38.2747   32.6387 H   0  0  0  0  0  0  0  0  0  0  0  0
   13.6652   37.4519   31.2226 H   0  0  0  0  0  0  0  0  0  0  0  0
   10.0511   38.1144   29.7645 H   0  0  0  0  0  0  0  0  0  0  0  0
   11.2762   36.3141   32.5189 H   0  0  0  0  0  0  0  0  0  0  0  0
   10.8593   35.6978   30.4640 H   0  0  0  0  0  0  0  0  0  0  0  0
   12.3294   38.3518   34.7449 H   0  0  0  0  0  0  0  0  0  0  0  0
   16.7564   34.1779   32.4620 H   0  0  0  0  0  0  0  0  0  0  0  0
   16.6349   34.5300   37.1415 H   0  0  0  0  0  0  0  0  0  0  0  0
   15.3534   35.7359   37.5138 H   0  0  0  0  0  0  0  0  0  0  0  0
  1  2  2  0
  1  3  1  0
  3  4  1  0
  4  5  1  0
  6  1  1  0
  7  6  1  0
  6  8  1  0
  8  9  1  0
  9 10  2  0
 11  9  1  0
 10 12  1  0
 13 11  2  0
 12 14  2  0
 14 13  1  0
 14 15  1  0
 15 16  1  0
 16 17  1  0
 17 18  2  0
 19 17  1  0
 18 20  1  0
 18 21  1  0
 22 19  2  0
 20 23  1  0
 20 24  2  0
 21 25  2  0
 25 22  1  0
  4 26  2  0
  4 27  1  0
 28 27  1  0
 28 29  1  0
 29 30  1  0
 29 31  1  0
 30 32  1  0
 31 33  1  0
 31 34  1  0
 34 32  1  0
 32 35  1  0
 34 36  1  0
 37 35  1  0
 38 35  1  0
 39 37  2  0
 37 40  1  0
 41 38  2  0
 42 39  1  0
 40 43  2  0
 40 41  1  0
 44 42  2  0
 44 43  1  0
 43 45  1  0
  6 46  1  1
  7 47  1  0
  7 48  1  0
  8 49  1  0
  8 50  1  0
 10 51  1  0
 11 52  1  0
 12 53  1  0
 13 54  1  0
 16 55  1  0
 16 56  1  0
 19 57  1  0
 21 58  1  0
 22 59  1  0
 25 60  1  0
 28 61  1  0
 28 62  1  0
 29 63  1  0
 31 64  1  0
 32 65  1  0
 33 66  1  0
 34 67  1  0
 36 68  1  0
 38 69  1  0
 42 70  1  0
 45 71  1  0
 45 72  1  0
M  CHG  3   5  -1  20   1  23  -1
M  END
>  <EmbedRMS>  (20) 
0.0818383453301

$$$$

     RDKit          3D

 72 76  0  0  0  0  0  0  0  0999 V2000
   10.2833   43.7663   33.8257 C   0  0  0  0  0  0  0  0  0  0  0  0
   11.4101   43.5931   34.3752 O   0  0  0  0  0  0  0  0  0  0  0  0
    9.3634   42.7257   33.7353 O   0  0  0  0  0  0  0  0  0  0  0  0
    9.8902   41.2269   34.2942 P   0  0  0  0  0  0  0  0  0  0  0  0
   10.3739   41.4560   35.8835 O   0  0  0  0  0  0  0  0  0  0  0  0
    9.9546   45.0695   33.2033 C   0  0  1  0  0  0  0  0  0  0  0  0
   11.0273   46.0322   33.4755 N   0  0  0  0  0  0  0  0  0  0  0  0
    9.7468   44.8478   31.6873 C   0  0  0  0  0  0  0  0  0  0  0  0
    8.7924   45.8400   31.0834 C   0  0  0  0  0  0  0  0  0  0  0  0
    7.4056   45.6019   31.0998 C   0  0  0  0  0  0  0  0  0  0  0  0
    9.2819   46.9881   30.4431 C   0  0  0  0  0  0  0  0  0  0  0  0
    6.5269   46.5045   30.4860 C   0  0  0  0  0  0  0  0  0  0  0  0
    8.4025   47.8910   29.8338 C   0  0  0  0  0  0  0  0  0  0  0  0
    7.0146   47.6510   29.8435 C   0  0  0  0  0  0  0  0  0  0  0  0
    6.0878   48.5178   29.2436 O   0  0  0  0  0  0  0  0  0  0  0  0
    6.3948   49.5558   28.3112 C   0  0  0  0  0  0  0  0  0  0  0  0
    6.8085   48.9779   26.9760 C   0  0  0  0  0  0  0  0  0  0  0  0
    5.8831   48.3446   26.0971 C   0  0  0  0  0  0  0  0  0  0  0  0
    8.1478   49.1254   26.5674 C   0  0  0  0  0  0  0  0  0  0  0  0
    4.4809   48.2205   26.4067 N   0  0  0  0  0  0  0  0  0  0  0  0
    6.3404   47.8662   24.8553 C   0  0  0  0  0  0  0  0  0  0  0  0
    8.5786   48.6325   25.3361 C   0  0  0  0  0  0  0  0  0  0  0  0
    3.5560   48.1771   25.3885 O   0  0  0  0  0  0  0  0  0  0  0  0
    4.0924   48.0072   27.5724 O   0  0  0  0  0  0  0  0  0  0  0  0
    7.6778   48.0010   24.4833 C   0  0  0  0  0  0  0  0  0  0  0  0
    8.8121   40.1851   34.2131 O   0  0  0  0  0  0  0  0  0  0  0  0
   11.2402   40.7952   33.3681 O   0  0  0  0  0  0  0  0  0  0  0  0
   10.9125   40.6877   31.9968 C   0  0  0  0  0  0  0  0  0  0  0  0
   11.5169   39.3811   31.4420 C   0  0  0  0  0  0  0  0  0  0  0  0
   12.7500   39.0881   32.0759 O   0  0  0  0  0  0  0  0  0  0  0  0
   10.6043   38.1893   31.6659 C   0  0  0  0  0  0  0  0  0  0  0  0
   12.9395   37.6814   32.0280 C   0  0  0  0  0  0  0  0  0  0  0  0
    9.6353   38.0951   30.6499 O   0  0  0  0  0  0  0  0  0  0  0  0
   11.5804   37.0191   31.6934 C   0  0  0  0  0  0  0  0  0  0  0  0
   13.4851   37.2119   33.3244 N   0  0  0  0  0  0  0  0  0  0  0  0
   11.6118   36.3189   30.4673 O   0  0  0  0  0  0  0  0  0  0  0  0
   14.4801   36.3316   33.5732 C   0  0  0  0  0  0  0  0  0  0  0  0
   13.1139   37.6277   34.5692 C   0  0  0  0  0  0  0  0  0  0  0  0
   15.2076   35.6154   32.6744 N   0  0  0  0  0  0  0  0  0  0  0  0
   14.6756   36.2303   34.9186 C   0  0  0  0  0  0  0  0  0  0  0  0
   13.8215   37.0451   35.5786 N   0  0  0  0  0  0  0  0  0  0  0  0
   16.1642   34.7602   33.1551 C   0  0  0  0  0  0  0  0  0  0  0  0
   15.6526   35.3505   35.4134 C   0  0  0  0  0  0  0  0  0  0  0  0
   16.3795   34.6316   34.5045 N   0  0  0  0  0  0  0  0  0  0  0  0
   15.9001   35.1933   36.8093 N   0  0  0  0  0  0  0  0  0  0  0  0
    9.0119   45.4318   33.6709 H   0  0  0  0  0  0  0  0  0  0  0  0
   11.8905   45.7659   32.9468 H   0  0  0  0  0  0  0  0  0  0  0  0
   10.7258   46.9688   33.1212 H   0  0  0  0  0  0  0  0  0  0  0  0
    9.3419   43.8325   31.4761 H   0  0  0  0  0  0  0  0  0  0  0  0
   10.7232   44.8813   31.1554 H   0  0  0  0  0  0  0  0  0  0  0  0
    7.0082   44.7177   31.5828 H   0  0  0  0  0  0  0  0  0  0  0  0
   10.3460   47.1886   30.4181 H   0  0  0  0  0  0  0  0  0  0  0  0
    5.4623   46.3085   30.5042 H   0  0  0  0  0  0  0  0  0  0  0  0
    8.8145   48.7765   29.3767 H   0  0  0  0  0  0  0  0  0  0  0  0
    5.4935   50.1875   28.1658 H   0  0  0  0  0  0  0  0  0  0  0  0
    7.1707   50.2283   28.7353 H   0  0  0  0  0  0  0  0  0  0  0  0
    8.8653   49.6345   27.1975 H   0  0  0  0  0  0  0  0  0  0  0  0
    5.6577   47.3786   24.1711 H   0  0  0  0  0  0  0  0  0  0  0  0
    9.6131   48.7484   25.0391 H   0  0  0  0  0  0  0  0  0  0  0  0
    8.0139   47.6228   23.5264 H   0  0  0  0  0  0  0  0  0  0  0  0
   11.3808   41.5457   31.4685 H   0  0  0  0  0  0  0  0  0  0  0  0
    9.8216   40.7222   31.7646 H   0  0  0  0  0  0  0  0  0  0  0  0
   11.6986   39.5089   30.3499 H   0  0  0  0  0  0  0  0  0  0  0  0
   10.1109   38.2737   32.6630 H   0  0  0  0  0  0  0  0  0  0  0  0
   13.6783   37.4562   31.2271 H   0  0  0  0  0  0  0  0  0  0  0  0
    9.0020   37.3860   30.9348 H   0  0  0  0  0  0  0  0  0  0  0  0
   11.2808   36.3053   32.4921 H   0  0  0  0  0  0  0  0  0  0  0  0
   11.8819   36.9600   29.7584 H   0  0  0  0  0  0  0  0  0  0  0  0
   12.3304   38.3538   34.7446 H   0  0  0  0  0  0  0  0  0  0  0  0
   16.7563   34.1783   32.4624 H   0  0  0  0  0  0  0  0  0  0  0  0
   16.6348   34.5301   37.1418 H   0  0  0  0  0  0  0  0  0  0  0  0
   15.3532   35.7359   37.5142 H   0  0  0  0  0  0  0  0  0  0  0  0
  1  2  2  0
  1  3  1  0
  3  4  1  0
  4  5  1  0
  6  1  1  0
  7  6  1  0
  6  8  1  0
  8  9  1  0
  9 10  2  0
 11  9  1  0
 10 12  1  0
 13 11  2  0
 12 14  2  0
 14 13  1  0
 14 15  1  0
 15 16  1  0
 16 17  1  0
 17 18  2  0
 19 17  1  0
 18 20  1  0
 18 21  1  0
 22 19  2  0
 20 23  1  0
 20 24  2  0
 21 25  2  0
 25 22  1  0
  4 26  2  0
  4 27  1  0
 28 27  1  0
 28 29  1  0
 29 30  1  0
 29 31  1  0
 30 32  1  0
 31 33  1  0
 31 34  1  0
 34 32  1  0
 32 35  1  0
 34 36  1  0
 37 35  1  0
 38 35  1  0
 39 37  2  0
 37 40  1  0
 41 38  2  0
 42 39  1  0
 40 43  2  0
 40 41  1  0
 44 42  2  0
 44 43  1  0
 43 45  1  0
  6 46  1  1
  7 47  1  0
  7 48  1  0
  8 49  1  0
  8 50  1  0
 10 51  1  0
 11 52  1  0
 12 53  1  0
 13 54  1  0
 16 55  1  0
 16 56  1  0
 19 57  1  0
 21 58  1  0
 22 59  1  0
 25 60  1  0
 28 61  1  0
 28 62  1  0
 29 63  1  0
 31 64  1  0
 32 65  1  0
 33 66  1  0
 34 67  1  0
 36 68  1  0
 38 69  1  0
 42 70  1  0
 45 71  1  0
 45 72  1  0
M  CHG  3   5  -1  20   1  23  -1
M  END
>  <EmbedRMS>  (21) 
0.0815949632199

$$$$

     RDKit          3D

 72 76  0  0  0  0  0  0  0  0999 V2000
   10.2834   43.7662   33.8257 C   0  0  0  0  0  0  0  0  0  0  0  0
   11.4102   43.5930   34.3753 O   0  0  0  0  0  0  0  0  0  0  0  0
    9.3637   42.7255   33.7350 O   0  0  0  0  0  0  0  0  0  0  0  0
    9.8902   41.2267   34.2942 P   0  0  0  0  0  0  0  0  0  0  0  0
   10.3736   41.4560   35.8836 O   0  0  0  0  0  0  0  0  0  0  0  0
    9.9546   45.0695   33.2036 C   0  0  1  0  0  0  0  0  0  0  0  0
   11.0273   46.0322   33.4757 N   0  0  0  0  0  0  0  0  0  0  0  0
    9.7466   44.8481   31.6878 C   0  0  0  0  0  0  0  0  0  0  0  0
    8.7923   45.8409   31.0846 C   0  0  0  0  0  0  0  0  0  0  0  0
    7.4056   45.6013   31.0985 C   0  0  0  0  0  0  0  0  0  0  0  0
    9.2823   46.9875   30.4420 C   0  0  0  0  0  0  0  0  0  0  0  0
    6.5267   46.5028   30.4831 C   0  0  0  0  0  0  0  0  0  0  0  0
    8.4034   47.8894   29.8310 C   0  0  0  0  0  0  0  0  0  0  0  0
    7.0138   47.6540   29.8491 C   0  0  0  0  0  0  0  0  0  0  0  0
    6.0887   48.5283   29.2557 O   0  0  0  0  0  0  0  0  0  0  0  0
    6.4104   49.7865   28.6604 C   0  0  0  0  0  0  0  0  0  0  0  0
    6.8279   50.7891   29.7138 C   0  0  0  0  0  0  0  0  0  0  0  0
    7.9994   51.5800   29.5907 C   0  0  0  0  0  0  0  0  0  0  0  0
    6.0390   50.9097   30.8725 C   0  0  0  0  0  0  0  0  0  0  0  0
    8.7885   51.5758   28.3911 N   0  0  0  0  0  0  0  0  0  0  0  0
    8.3832   52.4116   30.6575 C   0  0  0  0  0  0  0  0  0  0  0  0
    6.4257   51.7554   31.9131 C   0  0  0  0  0  0  0  0  0  0  0  0
    8.1805   51.7420   27.1681 O   0  0  0  0  0  0  0  0  0  0  0  0
   10.0325   51.6531   28.4617 O   0  0  0  0  0  0  0  0  0  0  0  0
    7.6014   52.4967   31.8105 C   0  0  0  0  0  0  0  0  0  0  0  0
    8.8121   40.1850   34.2131 O   0  0  0  0  0  0  0  0  0  0  0  0
   11.2404   40.7941   33.3690 O   0  0  0  0  0  0  0  0  0  0  0  0
   10.9143   40.6898   31.9972 C   0  0  0  0  0  0  0  0  0  0  0  0
   11.5261   39.3885   31.4376 C   0  0  0  0  0  0  0  0  0  0  0  0
   12.7504   39.0888   32.0816 O   0  0  0  0  0  0  0  0  0  0  0  0
   10.6115   38.1910   31.6460 C   0  0  0  0  0  0  0  0  0  0  0  0
   12.9357   37.6812   32.0303 C   0  0  0  0  0  0  0  0  0  0  0  0
    9.6146   38.0859   30.6534 O   0  0  0  0  0  0  0  0  0  0  0  0
   11.5769   37.0148   31.7012 C   0  0  0  0  0  0  0  0  0  0  0  0
   13.4849   37.2112   33.3247 N   0  0  0  0  0  0  0  0  0  0  0  0
   11.6193   36.3261   30.4724 O   0  0  0  0  0  0  0  0  0  0  0  0
   14.4802   36.3313   33.5730 C   0  0  0  0  0  0  0  0  0  0  0  0
   13.1141   37.6268   34.5697 C   0  0  0  0  0  0  0  0  0  0  0  0
   15.2075   35.6151   32.6741 N   0  0  0  0  0  0  0  0  0  0  0  0
   14.6761   36.2300   34.9184 C   0  0  0  0  0  0  0  0  0  0  0  0
   13.8220   37.0445   35.5789 N   0  0  0  0  0  0  0  0  0  0  0  0
   16.1642   34.7600   33.1547 C   0  0  0  0  0  0  0  0  0  0  0  0
   15.6529   35.3503   35.4131 C   0  0  0  0  0  0  0  0  0  0  0  0
   16.3797   34.6314   34.5042 N   0  0  0  0  0  0  0  0  0  0  0  0
   15.9004   35.1930   36.8090 N   0  0  0  0  0  0  0  0  0  0  0  0
    9.0121   45.4318   33.6715 H   0  0  0  0  0  0  0  0  0  0  0  0
   11.8905   45.7660   32.9469 H   0  0  0  0  0  0  0  0  0  0  0  0
   10.7258   46.9688   33.1213 H   0  0  0  0  0  0  0  0  0  0  0  0
    9.3414   43.8330   31.4763 H   0  0  0  0  0  0  0  0  0  0  0  0
   10.7229   44.8815   31.1557 H   0  0  0  0  0  0  0  0  0  0  0  0
    7.0084   44.7164   31.5804 H   0  0  0  0  0  0  0  0  0  0  0  0
   10.3471   47.1838   30.4099 H   0  0  0  0  0  0  0  0  0  0  0  0
    5.4620   46.3072   30.5022 H   0  0  0  0  0  0  0  0  0  0  0  0
    8.8174   48.7594   29.3427 H   0  0  0  0  0  0  0  0  0  0  0  0
    7.1796   49.6270   27.8791 H   0  0  0  0  0  0  0  0  0  0  0  0
    5.5011   50.1737   28.1552 H   0  0  0  0  0  0  0  0  0  0  0  0
    5.1308   50.3291   30.9795 H   0  0  0  0  0  0  0  0  0  0  0  0
    9.2782   53.0165   30.5839 H   0  0  0  0  0  0  0  0  0  0  0  0
    5.8161   51.8296   32.8045 H   0  0  0  0  0  0  0  0  0  0  0  0
    7.9017   53.1485   32.6207 H   0  0  0  0  0  0  0  0  0  0  0  0
    9.8233   40.7192   31.7647 H   0  0  0  0  0  0  0  0  0  0  0  0
   11.3779   41.5526   31.4727 H   0  0  0  0  0  0  0  0  0  0  0  0
   11.7283   39.5312   30.3515 H   0  0  0  0  0  0  0  0  0  0  0  0
   10.1127   38.2734   32.6377 H   0  0  0  0  0  0  0  0  0  0  0  0
   13.6692   37.4566   31.2242 H   0  0  0  0  0  0  0  0  0  0  0  0
   10.0534   38.1118   29.7636 H   0  0  0  0  0  0  0  0  0  0  0  0
   11.2607   36.3148   32.5102 H   0  0  0  0  0  0  0  0  0  0  0  0
   12.1496   35.5023   30.6324 H   0  0  0  0  0  0  0  0  0  0  0  0
   12.3301   38.3524   34.7455 H   0  0  0  0  0  0  0  0  0  0  0  0
   16.7563   34.1781   32.4619 H   0  0  0  0  0  0  0  0  0  0  0  0
   16.6350   34.5298   37.1416 H   0  0  0  0  0  0  0  0  0  0  0  0
   15.3535   35.7357   37.5139 H   0  0  0  0  0  0  0  0  0  0  0  0
  1  2  2  0
  1  3  1  0
  3  4  1  0
  4  5  1  0
  6  1  1  0
  7  6  1  0
  6  8  1  0
  8  9  1  0
  9 10  2  0
 11  9  1  0
 10 12  1  0
 13 11  2  0
 12 14  2  0
 14 13  1  0
 14 15  1  0
 15 16  1  0
 16 17  1  0
 17 18  2  0
 19 17  1  0
 18 20  1  0
 18 21  1  0
 22 19  2  0
 20 23  1  0
 20 24  2  0
 21 25  2  0
 25 22  1  0
  4 26  2  0
  4 27  1  0
 28 27  1  0
 28 29  1  0
 29 30  1  0
 29 31  1  0
 30 32  1  0
 31 33  1  0
 31 34  1  0
 34 32  1  0
 32 35  1  0
 34 36  1  0
 37 35  1  0
 38 35  1  0
 39 37  2  0
 37 40  1  0
 41 38  2  0
 42 39  1  0
 40 43  2  0
 40 41  1  0
 44 42  2  0
 44 43  1  0
 43 45  1  0
  6 46  1  1
  7 47  1  0
  7 48  1  0
  8 49  1  0
  8 50  1  0
 10 51  1  0
 11 52  1  0
 12 53  1  0
 13 54  1  0
 16 55  1  0
 16 56  1  0
 19 57  1  0
 21 58  1  0
 22 59  1  0
 25 60  1  0
 28 61  1  0
 28 62  1  0
 29 63  1  0
 31 64  1  0
 32 65  1  0
 33 66  1  0
 34 67  1  0
 36 68  1  0
 38 69  1  0
 42 70  1  0
 45 71  1  0
 45 72  1  0
M  CHG  3   5  -1  20   1  23  -1
M  END
>  <EmbedRMS>  (22) 
0.081624110616

$$$$

     RDKit          3D

 72 76  0  0  0  0  0  0  0  0999 V2000
   10.2839   43.7626   33.8277 C   0  0  0  0  0  0  0  0  0  0  0  0
   11.4104   43.5863   34.3767 O   0  0  0  0  0  0  0  0  0  0  0  0
    9.3631   42.7236   33.7354 O   0  0  0  0  0  0  0  0  0  0  0  0
    9.8898   41.2247   34.2935 P   0  0  0  0  0  0  0  0  0  0  0  0
   10.3734   41.4542   35.8829 O   0  0  0  0  0  0  0  0  0  0  0  0
    9.9548   45.0700   33.2067 C   0  0  1  0  0  0  0  0  0  0  0  0
   11.0199   46.0481   33.4570 N   0  0  0  0  0  0  0  0  0  0  0  0
    9.7499   44.8511   31.6928 C   0  0  0  0  0  0  0  0  0  0  0  0
    8.7940   45.8424   31.0881 C   0  0  0  0  0  0  0  0  0  0  0  0
    7.4075   45.6005   31.0991 C   0  0  0  0  0  0  0  0  0  0  0  0
    9.2829   46.9885   30.4439 C   0  0  0  0  0  0  0  0  0  0  0  0
    6.5285   46.5007   30.4817 C   0  0  0  0  0  0  0  0  0  0  0  0
    8.4033   47.8884   29.8303 C   0  0  0  0  0  0  0  0  0  0  0  0
    7.0146   47.6547   29.8516 C   0  0  0  0  0  0  0  0  0  0  0  0
    6.0872   48.5241   29.2563 O   0  0  0  0  0  0  0  0  0  0  0  0
    6.3400   49.8729   28.8599 C   0  0  0  0  0  0  0  0  0  0  0  0
    6.4936   50.7693   30.0677 C   0  0  0  0  0  0  0  0  0  0  0  0
    5.3851   51.1600   30.8694 C   0  0  0  0  0  0  0  0  0  0  0  0
    7.7702   51.2800   30.3703 C   0  0  0  0  0  0  0  0  0  0  0  0
    4.0403   50.7344   30.5775 N   0  0  0  0  0  0  0  0  0  0  0  0
    5.5995   52.0306   31.9545 C   0  0  0  0  0  0  0  0  0  0  0  0
    7.9601   52.1320   31.4582 C   0  0  0  0  0  0  0  0  0  0  0  0
    3.7745   49.4447   30.1832 O   0  0  0  0  0  0  0  0  0  0  0  0
    3.0792   51.4904   30.8300 O   0  0  0  0  0  0  0  0  0  0  0  0
    6.8776   52.5040   32.2508 C   0  0  0  0  0  0  0  0  0  0  0  0
    8.8115   40.1834   34.2126 O   0  0  0  0  0  0  0  0  0  0  0  0
   11.2402   40.7936   33.3673 O   0  0  0  0  0  0  0  0  0  0  0  0
   10.9134   40.6864   31.9955 C   0  0  0  0  0  0  0  0  0  0  0  0
   11.5166   39.3786   31.4404 C   0  0  0  0  0  0  0  0  0  0  0  0
   12.7486   39.0848   32.0734 O   0  0  0  0  0  0  0  0  0  0  0  0
   10.6039   38.1883   31.6669 C   0  0  0  0  0  0  0  0  0  0  0  0
   12.9329   37.6775   32.0284 C   0  0  0  0  0  0  0  0  0  0  0  0
    9.6373   38.0938   30.6484 O   0  0  0  0  0  0  0  0  0  0  0  0
   11.5737   37.0140   31.7055 C   0  0  0  0  0  0  0  0  0  0  0  0
   13.4853   37.2120   33.3238 N   0  0  0  0  0  0  0  0  0  0  0  0
   11.6210   36.3379   30.4683 O   0  0  0  0  0  0  0  0  0  0  0  0
   14.4804   36.3319   33.5726 C   0  0  0  0  0  0  0  0  0  0  0  0
   13.1141   37.6275   34.5689 C   0  0  0  0  0  0  0  0  0  0  0  0
   15.2076   35.6152   32.6740 N   0  0  0  0  0  0  0  0  0  0  0  0
   14.6761   36.2306   34.9181 C   0  0  0  0  0  0  0  0  0  0  0  0
   13.8218   37.0451   35.5783 N   0  0  0  0  0  0  0  0  0  0  0  0
   16.1642   34.7600   33.1548 C   0  0  0  0  0  0  0  0  0  0  0  0
   15.6527   35.3507   35.4131 C   0  0  0  0  0  0  0  0  0  0  0  0
   16.3795   34.6315   34.5043 N   0  0  0  0  0  0  0  0  0  0  0  0
   15.9000   35.1933   36.8090 N   0  0  0  0  0  0  0  0  0  0  0  0
    9.0100   45.4349   33.6676 H   0  0  0  0  0  0  0  0  0  0  0  0
   11.9348   45.6933   33.0925 H   0  0  0  0  0  0  0  0  0  0  0  0
   11.1136   46.1993   34.4883 H   0  0  0  0  0  0  0  0  0  0  0  0
   10.7301   44.8924   31.1678 H   0  0  0  0  0  0  0  0  0  0  0  0
    9.3505   43.8346   31.4766 H   0  0  0  0  0  0  0  0  0  0  0  0
    7.0108   44.7149   31.5801 H   0  0  0  0  0  0  0  0  0  0  0  0
   10.3478   47.1836   30.4086 H   0  0  0  0  0  0  0  0  0  0  0  0
    5.4641   46.3036   30.4990 H   0  0  0  0  0  0  0  0  0  0  0  0
    8.8193   48.7443   29.3230 H   0  0  0  0  0  0  0  0  0  0  0  0
    5.4865   50.2343   28.2489 H   0  0  0  0  0  0  0  0  0  0  0  0
    7.2277   49.9139   28.1935 H   0  0  0  0  0  0  0  0  0  0  0  0
    8.6255   51.0301   29.7565 H   0  0  0  0  0  0  0  0  0  0  0  0
    4.7712   52.3399   32.5795 H   0  0  0  0  0  0  0  0  0  0  0  0
    8.9488   52.5117   31.6816 H   0  0  0  0  0  0  0  0  0  0  0  0
    7.0268   53.1689   33.0918 H   0  0  0  0  0  0  0  0  0  0  0  0
    9.8226   40.7225   31.7629 H   0  0  0  0  0  0  0  0  0  0  0  0
   11.3831   41.5437   31.4675 H   0  0  0  0  0  0  0  0  0  0  0  0
   11.6978   39.5037   30.3478 H   0  0  0  0  0  0  0  0  0  0  0  0
   10.1084   38.2785   32.6626 H   0  0  0  0  0  0  0  0  0  0  0  0
   13.6638   37.4471   31.2214 H   0  0  0  0  0  0  0  0  0  0  0  0
    8.9763   37.4190   30.9532 H   0  0  0  0  0  0  0  0  0  0  0  0
   11.2821   36.3053   32.5171 H   0  0  0  0  0  0  0  0  0  0  0  0
   10.8658   35.6935   30.4652 H   0  0  0  0  0  0  0  0  0  0  0  0
   12.3293   38.3523   34.7444 H   0  0  0  0  0  0  0  0  0  0  0  0
   16.7561   34.1778   32.4621 H   0  0  0  0  0  0  0  0  0  0  0  0
   15.3533   35.7361   37.5138 H   0  0  0  0  0  0  0  0  0  0  0  0
   16.6345   34.5300   37.1416 H   0  0  0  0  0  0  0  0  0  0  0  0
  1  2  2  0
  1  3  1  0
  3  4  1  0
  4  5  1  0
  6  1  1  0
  7  6  1  0
  6  8  1  0
  8  9  1  0
  9 10  2  0
 11  9  1  0
 10 12  1  0
 13 11  2  0
 12 14  2  0
 14 13  1  0
 14 15  1  0
 15 16  1  0
 16 17  1  0
 17 18  2  0
 19 17  1  0
 18 20  1  0
 18 21  1  0
 22 19  2  0
 20 23  1  0
 20 24  2  0
 21 25  2  0
 25 22  1  0
  4 26  2  0
  4 27  1  0
 28 27  1  0
 28 29  1  0
 29 30  1  0
 29 31  1  0
 30 32  1  0
 31 33  1  0
 31 34  1  0
 34 32  1  0
 32 35  1  0
 34 36  1  0
 37 35  1  0
 38 35  1  0
 39 37  2  0
 37 40  1  0
 41 38  2  0
 42 39  1  0
 40 43  2  0
 40 41  1  0
 44 42  2  0
 44 43  1  0
 43 45  1  0
  6 46  1  1
  7 47  1  0
  7 48  1  0
  8 49  1  0
  8 50  1  0
 10 51  1  0
 11 52  1  0
 12 53  1  0
 13 54  1  0
 16 55  1  0
 16 56  1  0
 19 57  1  0
 21 58  1  0
 22 59  1  0
 25 60  1  0
 28 61  1  0
 28 62  1  0
 29 63  1  0
 31 64  1  0
 32 65  1  0
 33 66  1  0
 34 67  1  0
 36 68  1  0
 38 69  1  0
 42 70  1  0
 45 71  1  0
 45 72  1  0
M  CHG  3   5  -1  20   1  23  -1
M  END
>  <EmbedRMS>  (23) 
0.0834390775105

$$$$

     RDKit          3D

 72 76  0  0  0  0  0  0  0  0999 V2000
   10.2838   43.7627   33.8277 C   0  0  0  0  0  0  0  0  0  0  0  0
   11.4103   43.5864   34.3767 O   0  0  0  0  0  0  0  0  0  0  0  0
    9.3631   42.7236   33.7353 O   0  0  0  0  0  0  0  0  0  0  0  0
    9.8898   41.2247   34.2935 P   0  0  0  0  0  0  0  0  0  0  0  0
   10.3734   41.4542   35.8829 O   0  0  0  0  0  0  0  0  0  0  0  0
    9.9548   45.0700   33.2065 C   0  0  1  0  0  0  0  0  0  0  0  0
   11.0198   46.0481   33.4569 N   0  0  0  0  0  0  0  0  0  0  0  0
    9.7500   44.8509   31.6925 C   0  0  0  0  0  0  0  0  0  0  0  0
    8.7942   45.8419   31.0872 C   0  0  0  0  0  0  0  0  0  0  0  0
    7.4074   45.6008   31.0996 C   0  0  0  0  0  0  0  0  0  0  0  0
    9.2833   46.9888   30.4445 C   0  0  0  0  0  0  0  0  0  0  0  0
    6.5279   46.5015   30.4834 C   0  0  0  0  0  0  0  0  0  0  0  0
    8.4039   47.8892   29.8317 C   0  0  0  0  0  0  0  0  0  0  0  0
    7.0145   47.6529   29.8491 C   0  0  0  0  0  0  0  0  0  0  0  0
    6.0891   48.5261   29.2545 O   0  0  0  0  0  0  0  0  0  0  0  0
    6.4105   49.7836   28.6576 C   0  0  0  0  0  0  0  0  0  0  0  0
    6.8257   50.7882   29.7105 C   0  0  0  0  0  0  0  0  0  0  0  0
    7.9996   51.5783   29.5927 C   0  0  0  0  0  0  0  0  0  0  0  0
    6.0308   50.9122   30.8648 C   0  0  0  0  0  0  0  0  0  0  0  0
    8.8023   51.5715   28.4024 N   0  0  0  0  0  0  0  0  0  0  0  0
    8.3794   52.4087   30.6608 C   0  0  0  0  0  0  0  0  0  0  0  0
    6.4134   51.7587   31.9062 C   0  0  0  0  0  0  0  0  0  0  0  0
   10.1705   51.6770   28.5003 O   0  0  0  0  0  0  0  0  0  0  0  0
    8.2655   51.7153   27.2846 O   0  0  0  0  0  0  0  0  0  0  0  0
    7.5914   52.4971   31.8092 C   0  0  0  0  0  0  0  0  0  0  0  0
    8.8115   40.1834   34.2126 O   0  0  0  0  0  0  0  0  0  0  0  0
   11.2402   40.7936   33.3673 O   0  0  0  0  0  0  0  0  0  0  0  0
   10.9134   40.6864   31.9955 C   0  0  0  0  0  0  0  0  0  0  0  0
   11.5166   39.3786   31.4404 C   0  0  0  0  0  0  0  0  0  0  0  0
   12.7486   39.0848   32.0734 O   0  0  0  0  0  0  0  0  0  0  0  0
   10.6039   38.1883   31.6669 C   0  0  0  0  0  0  0  0  0  0  0  0
   12.9329   37.6775   32.0284 C   0  0  0  0  0  0  0  0  0  0  0  0
    9.6374   38.0938   30.6484 O   0  0  0  0  0  0  0  0  0  0  0  0
   11.5737   37.0140   31.7055 C   0  0  0  0  0  0  0  0  0  0  0  0
   13.4853   37.2120   33.3238 N   0  0  0  0  0  0  0  0  0  0  0  0
   11.6210   36.3379   30.4683 O   0  0  0  0  0  0  0  0  0  0  0  0
   14.4804   36.3319   33.5726 C   0  0  0  0  0  0  0  0  0  0  0  0
   13.1141   37.6275   34.5689 C   0  0  0  0  0  0  0  0  0  0  0  0
   15.2076   35.6152   32.6740 N   0  0  0  0  0  0  0  0  0  0  0  0
   14.6761   36.2306   34.9181 C   0  0  0  0  0  0  0  0  0  0  0  0
   13.8218   37.0451   35.5783 N   0  0  0  0  0  0  0  0  0  0  0  0
   16.1642   34.7600   33.1548 C   0  0  0  0  0  0  0  0  0  0  0  0
   15.6527   35.3507   35.4131 C   0  0  0  0  0  0  0  0  0  0  0  0
   16.3795   34.6315   34.5043 N   0  0  0  0  0  0  0  0  0  0  0  0
   15.9001   35.1933   36.8090 N   0  0  0  0  0  0  0  0  0  0  0  0
    9.0098   45.4349   33.6673 H   0  0  0  0  0  0  0  0  0  0  0  0
   11.9348   45.6933   33.0924 H   0  0  0  0  0  0  0  0  0  0  0  0
   11.1134   46.1994   34.4882 H   0  0  0  0  0  0  0  0  0  0  0  0
    9.3507   43.8344   31.4764 H   0  0  0  0  0  0  0  0  0  0  0  0
   10.7303   44.8922   31.1676 H   0  0  0  0  0  0  0  0  0  0  0  0
    7.0108   44.7156   31.5814 H   0  0  0  0  0  0  0  0  0  0  0  0
   10.3477   47.1869   30.4145 H   0  0  0  0  0  0  0  0  0  0  0  0
    5.4635   46.3049   30.5017 H   0  0  0  0  0  0  0  0  0  0  0  0
    8.8175   48.7594   29.3433 H   0  0  0  0  0  0  0  0  0  0  0  0
    7.1794   49.6228   27.8764 H   0  0  0  0  0  0  0  0  0  0  0  0
    5.5013   50.1694   28.1512 H   0  0  0  0  0  0  0  0  0  0  0  0
    5.1209   50.3335   30.9679 H   0  0  0  0  0  0  0  0  0  0  0  0
    9.2764   53.0110   30.5918 H   0  0  0  0  0  0  0  0  0  0  0  0
    5.7991   51.8355   32.7941 H   0  0  0  0  0  0  0  0  0  0  0  0
    7.8888   53.1491   32.6203 H   0  0  0  0  0  0  0  0  0  0  0  0
   11.3831   41.5437   31.4675 H   0  0  0  0  0  0  0  0  0  0  0  0
    9.8226   40.7225   31.7629 H   0  0  0  0  0  0  0  0  0  0  0  0
   11.6978   39.5037   30.3478 H   0  0  0  0  0  0  0  0  0  0  0  0
   10.1084   38.2785   32.6626 H   0  0  0  0  0  0  0  0  0  0  0  0
   13.6638   37.4471   31.2214 H   0  0  0  0  0  0  0  0  0  0  0  0
    8.9763   37.4190   30.9532 H   0  0  0  0  0  0  0  0  0  0  0  0
   11.2821   36.3053   32.5171 H   0  0  0  0  0  0  0  0  0  0  0  0
   10.8658   35.6935   30.4652 H   0  0  0  0  0  0  0  0  0  0  0  0
   12.3293   38.3523   34.7444 H   0  0  0  0  0  0  0  0  0  0  0  0
   16.7561   34.1778   32.4621 H   0  0  0  0  0  0  0  0  0  0  0  0
   15.3533   35.7361   37.5138 H   0  0  0  0  0  0  0  0  0  0  0  0
   16.6345   34.5300   37.1416 H   0  0  0  0  0  0  0  0  0  0  0  0
  1  2  2  0
  1  3  1  0
  3  4  1  0
  4  5  1  0
  6  1  1  0
  7  6  1  0
  6  8  1  0
  8  9  1  0
  9 10  2  0
 11  9  1  0
 10 12  1  0
 13 11  2  0
 12 14  2  0
 14 13  1  0
 14 15  1  0
 15 16  1  0
 16 17  1  0
 17 18  2  0
 19 17  1  0
 18 20  1  0
 18 21  1  0
 22 19  2  0
 20 23  1  0
 20 24  2  0
 21 25  2  0
 25 22  1  0
  4 26  2  0
  4 27  1  0
 28 27  1  0
 28 29  1  0
 29 30  1  0
 29 31  1  0
 30 32  1  0
 31 33  1  0
 31 34  1  0
 34 32  1  0
 32 35  1  0
 34 36  1  0
 37 35  1  0
 38 35  1  0
 39 37  2  0
 37 40  1  0
 41 38  2  0
 42 39  1  0
 40 43  2  0
 40 41  1  0
 44 42  2  0
 44 43  1  0
 43 45  1  0
  6 46  1  1
  7 47  1  0
  7 48  1  0
  8 49  1  0
  8 50  1  0
 10 51  1  0
 11 52  1  0
 12 53  1  0
 13 54  1  0
 16 55  1  0
 16 56  1  0
 19 57  1  0
 21 58  1  0
 22 59  1  0
 25 60  1  0
 28 61  1  0
 28 62  1  0
 29 63  1  0
 31 64  1  0
 32 65  1  0
 33 66  1  0
 34 67  1  0
 36 68  1  0
 38 69  1  0
 42 70  1  0
 45 71  1  0
 45 72  1  0
M  CHG  3   5  -1  20   1  23  -1
M  END
>  <EmbedRMS>  (24) 
0.0834471587904

$$$$

     RDKit          3D

 72 76  0  0  0  0  0  0  0  0999 V2000
   10.2838   43.7627   33.8278 C   0  0  0  0  0  0  0  0  0  0  0  0
   11.4104   43.5863   34.3767 O   0  0  0  0  0  0  0  0  0  0  0  0
    9.3629   42.7238   33.7358 O   0  0  0  0  0  0  0  0  0  0  0  0
    9.8891   41.2252   34.2949 P   0  0  0  0  0  0  0  0  0  0  0  0
   10.3724   41.4548   35.8843 O   0  0  0  0  0  0  0  0  0  0  0  0
    9.9549   45.0701   33.2067 C   0  0  1  0  0  0  0  0  0  0  0  0
   11.0199   46.0481   33.4570 N   0  0  0  0  0  0  0  0  0  0  0  0
    9.7499   44.8510   31.6928 C   0  0  0  0  0  0  0  0  0  0  0  0
    8.7941   45.8423   31.0880 C   0  0  0  0  0  0  0  0  0  0  0  0
    7.4075   45.6005   31.0992 C   0  0  0  0  0  0  0  0  0  0  0  0
    9.2830   46.9885   30.4440 C   0  0  0  0  0  0  0  0  0  0  0  0
    6.5285   46.5008   30.4819 C   0  0  0  0  0  0  0  0  0  0  0  0
    8.4033   47.8885   29.8305 C   0  0  0  0  0  0  0  0  0  0  0  0
    7.0146   47.6545   29.8512 C   0  0  0  0  0  0  0  0  0  0  0  0
    6.0872   48.5237   29.2557 O   0  0  0  0  0  0  0  0  0  0  0  0
    6.3465   49.8653   28.8390 C   0  0  0  0  0  0  0  0  0  0  0  0
    6.5304   50.7757   30.0329 C   0  0  0  0  0  0  0  0  0  0  0  0
    5.4480   51.1579   30.8767 C   0  0  0  0  0  0  0  0  0  0  0  0
    7.8108   51.3063   30.2808 C   0  0  0  0  0  0  0  0  0  0  0  0
    4.0945   50.7186   30.6479 N   0  0  0  0  0  0  0  0  0  0  0  0
    5.6954   52.0388   31.9458 C   0  0  0  0  0  0  0  0  0  0  0  0
    8.0323   52.1689   31.3540 C   0  0  0  0  0  0  0  0  0  0  0  0
    3.0412   51.5101   31.0452 O   0  0  0  0  0  0  0  0  0  0  0  0
    3.8499   49.5706   30.2262 O   0  0  0  0  0  0  0  0  0  0  0  0
    6.9776   52.5316   32.1869 C   0  0  0  0  0  0  0  0  0  0  0  0
    8.8112   40.1834   34.2132 O   0  0  0  0  0  0  0  0  0  0  0  0
   11.2398   40.7938   33.3702 O   0  0  0  0  0  0  0  0  0  0  0  0
   10.9144   40.6912   31.9983 C   0  0  0  0  0  0  0  0  0  0  0  0
   11.5270   39.3911   31.4385 C   0  0  0  0  0  0  0  0  0  0  0  0
   12.7520   39.0910   32.0836 O   0  0  0  0  0  0  0  0  0  0  0  0
   10.6113   38.1931   31.6451 C   0  0  0  0  0  0  0  0  0  0  0  0
   12.9413   37.6837   32.0297 C   0  0  0  0  0  0  0  0  0  0  0  0
    9.6064   38.0877   30.6598 O   0  0  0  0  0  0  0  0  0  0  0  0
   11.5822   37.0197   31.6876 C   0  0  0  0  0  0  0  0  0  0  0  0
   13.4840   37.2104   33.3254 N   0  0  0  0  0  0  0  0  0  0  0  0
   11.6179   36.3071   30.4690 O   0  0  0  0  0  0  0  0  0  0  0  0
   14.4797   36.3309   33.5738 C   0  0  0  0  0  0  0  0  0  0  0  0
   13.1136   37.6269   34.5702 C   0  0  0  0  0  0  0  0  0  0  0  0
   15.2074   35.6152   32.6747 N   0  0  0  0  0  0  0  0  0  0  0  0
   14.6756   36.2298   34.9190 C   0  0  0  0  0  0  0  0  0  0  0  0
   13.8217   37.0445   35.5793 N   0  0  0  0  0  0  0  0  0  0  0  0
   16.1643   34.7603   33.1551 C   0  0  0  0  0  0  0  0  0  0  0  0
   15.6528   35.3503   35.4136 C   0  0  0  0  0  0  0  0  0  0  0  0
   16.3798   34.6316   34.5046 N   0  0  0  0  0  0  0  0  0  0  0  0
   15.9004   35.1930   36.8094 N   0  0  0  0  0  0  0  0  0  0  0  0
    9.0100   45.4350   33.6676 H   0  0  0  0  0  0  0  0  0  0  0  0
   11.9349   45.6932   33.0925 H   0  0  0  0  0  0  0  0  0  0  0  0
   11.1137   46.1993   34.4883 H   0  0  0  0  0  0  0  0  0  0  0  0
   10.7301   44.8924   31.1678 H   0  0  0  0  0  0  0  0  0  0  0  0
    9.3505   43.8346   31.4767 H   0  0  0  0  0  0  0  0  0  0  0  0
    7.0108   44.7149   31.5802 H   0  0  0  0  0  0  0  0  0  0  0  0
   10.3478   47.1840   30.4093 H   0  0  0  0  0  0  0  0  0  0  0  0
    5.4641   46.3036   30.4991 H   0  0  0  0  0  0  0  0  0  0  0  0
    8.8190   48.7456   29.3250 H   0  0  0  0  0  0  0  0  0  0  0  0
    5.4865   50.2288   28.2385 H   0  0  0  0  0  0  0  0  0  0  0  0
    7.2229   49.8871   28.1566 H   0  0  0  0  0  0  0  0  0  0  0  0
    8.6448   51.0627   29.6356 H   0  0  0  0  0  0  0  0  0  0  0  0
    4.8903   52.3420   32.6031 H   0  0  0  0  0  0  0  0  0  0  0  0
    9.0238   52.5636   31.5350 H   0  0  0  0  0  0  0  0  0  0  0  0
    7.1514   53.2044   33.0169 H   0  0  0  0  0  0  0  0  0  0  0  0
    9.8235   40.7202   31.7651 H   0  0  0  0  0  0  0  0  0  0  0  0
   11.3780   41.5548   31.4751 H   0  0  0  0  0  0  0  0  0  0  0  0
   11.7311   39.5363   30.3531 H   0  0  0  0  0  0  0  0  0  0  0  0
   10.1202   38.2695   32.6409 H   0  0  0  0  0  0  0  0  0  0  0  0
   13.6850   37.4638   31.2321 H   0  0  0  0  0  0  0  0  0  0  0  0
   10.0251   38.1792   29.7654 H   0  0  0  0  0  0  0  0  0  0  0  0
   11.2757   36.3135   32.4907 H   0  0  0  0  0  0  0  0  0  0  0  0
   11.9838   36.9110   29.7708 H   0  0  0  0  0  0  0  0  0  0  0  0
   12.3306   38.3536   34.7457 H   0  0  0  0  0  0  0  0  0  0  0  0
   16.7566   34.1787   32.4623 H   0  0  0  0  0  0  0  0  0  0  0  0
   16.6353   34.5301   37.1419 H   0  0  0  0  0  0  0  0  0  0  0  0
   15.3535   35.7355   37.5144 H   0  0  0  0  0  0  0  0  0  0  0  0
  1  2  2  0
  1  3  1  0
  3  4  1  0
  4  5  1  0
  6  1  1  0
  7  6  1  0
  6  8  1  0
  8  9  1  0
  9 10  2  0
 11  9  1  0
 10 12  1  0
 13 11  2  0
 12 14  2  0
 14 13  1  0
 14 15  1  0
 15 16  1  0
 16 17  1  0
 17 18  2  0
 19 17  1  0
 18 20  1  0
 18 21  1  0
 22 19  2  0
 20 23  1  0
 20 24  2  0
 21 25  2  0
 25 22  1  0
  4 26  2  0
  4 27  1  0
 28 27  1  0
 28 29  1  0
 29 30  1  0
 29 31  1  0
 30 32  1  0
 31 33  1  0
 31 34  1  0
 34 32  1  0
 32 35  1  0
 34 36  1  0
 37 35  1  0
 38 35  1  0
 39 37  2  0
 37 40  1  0
 41 38  2  0
 42 39  1  0
 40 43  2  0
 40 41  1  0
 44 42  2  0
 44 43  1  0
 43 45  1  0
  6 46  1  1
  7 47  1  0
  7 48  1  0
  8 49  1  0
  8 50  1  0
 10 51  1  0
 11 52  1  0
 12 53  1  0
 13 54  1  0
 16 55  1  0
 16 56  1  0
 19 57  1  0
 21 58  1  0
 22 59  1  0
 25 60  1  0
 28 61  1  0
 28 62  1  0
 29 63  1  0
 31 64  1  0
 32 65  1  0
 33 66  1  0
 34 67  1  0
 36 68  1  0
 38 69  1  0
 42 70  1  0
 45 71  1  0
 45 72  1  0
M  CHG  3   5  -1  20   1  23  -1
M  END
>  <EmbedRMS>  (25) 
0.0817305046381

$$$$

     RDKit          3D

 72 76  0  0  0  0  0  0  0  0999 V2000
   10.2834   43.7662   33.8257 C   0  0  0  0  0  0  0  0  0  0  0  0
   11.4101   43.5930   34.3752 O   0  0  0  0  0  0  0  0  0  0  0  0
    9.3635   42.7257   33.7353 O   0  0  0  0  0  0  0  0  0  0  0  0
    9.8899   41.2270   34.2948 P   0  0  0  0  0  0  0  0  0  0  0  0
   10.3732   41.4562   35.8841 O   0  0  0  0  0  0  0  0  0  0  0  0
    9.9546   45.0695   33.2034 C   0  0  1  0  0  0  0  0  0  0  0  0
   11.0274   46.0321   33.4755 N   0  0  0  0  0  0  0  0  0  0  0  0
    9.7466   44.8479   31.6875 C   0  0  0  0  0  0  0  0  0  0  0  0
    8.7924   45.8405   31.0840 C   0  0  0  0  0  0  0  0  0  0  0  0
    7.4055   45.6018   31.0995 C   0  0  0  0  0  0  0  0  0  0  0  0
    9.2822   46.9880   30.4427 C   0  0  0  0  0  0  0  0  0  0  0  0
    6.5267   46.5038   30.4849 C   0  0  0  0  0  0  0  0  0  0  0  0
    8.4030   47.8905   29.8328 C   0  0  0  0  0  0  0  0  0  0  0  0
    7.0143   47.6517   29.8452 C   0  0  0  0  0  0  0  0  0  0  0  0
    6.0895   48.5187   29.2419 O   0  0  0  0  0  0  0  0  0  0  0  0
    6.4202   49.6415   28.4234 C   0  0  0  0  0  0  0  0  0  0  0  0
    7.0198   49.1955   27.1085 C   0  0  0  0  0  0  0  0  0  0  0  0
    6.3831   48.2398   26.2695 C   0  0  0  0  0  0  0  0  0  0  0  0
    8.2675   49.7212   26.7250 C   0  0  0  0  0  0  0  0  0  0  0  0
    5.0946   47.6818   26.5860 N   0  0  0  0  0  0  0  0  0  0  0  0
    7.0379   47.8117   25.1010 C   0  0  0  0  0  0  0  0  0  0  0  0
    8.8913   49.2940   25.5526 C   0  0  0  0  0  0  0  0  0  0  0  0
    4.7794   46.4066   26.1762 O   0  0  0  0  0  0  0  0  0  0  0  0
    4.1952   48.3920   27.0797 O   0  0  0  0  0  0  0  0  0  0  0  0
    8.2808   48.3368   24.7455 C   0  0  0  0  0  0  0  0  0  0  0  0
    8.8120   40.1850   34.2133 O   0  0  0  0  0  0  0  0  0  0  0  0
   11.2403   40.7947   33.3700 O   0  0  0  0  0  0  0  0  0  0  0  0
   10.9144   40.6914   31.9982 C   0  0  0  0  0  0  0  0  0  0  0  0
   11.5270   39.3912   31.4385 C   0  0  0  0  0  0  0  0  0  0  0  0
   12.7520   39.0911   32.0836 O   0  0  0  0  0  0  0  0  0  0  0  0
   10.6113   38.1932   31.6451 C   0  0  0  0  0  0  0  0  0  0  0  0
   12.9413   37.6838   32.0297 C   0  0  0  0  0  0  0  0  0  0  0  0
    9.6064   38.0878   30.6599 O   0  0  0  0  0  0  0  0  0  0  0  0
   11.5822   37.0198   31.6877 C   0  0  0  0  0  0  0  0  0  0  0  0
   13.4840   37.2104   33.3254 N   0  0  0  0  0  0  0  0  0  0  0  0
   11.6179   36.3072   30.4690 O   0  0  0  0  0  0  0  0  0  0  0  0
   14.4797   36.3309   33.5738 C   0  0  0  0  0  0  0  0  0  0  0  0
   13.1136   37.6269   34.5702 C   0  0  0  0  0  0  0  0  0  0  0  0
   15.2074   35.6152   32.6747 N   0  0  0  0  0  0  0  0  0  0  0  0
   14.6756   36.2298   34.9190 C   0  0  0  0  0  0  0  0  0  0  0  0
   13.8217   37.0445   35.5793 N   0  0  0  0  0  0  0  0  0  0  0  0
   16.1643   34.7603   33.1551 C   0  0  0  0  0  0  0  0  0  0  0  0
   15.6528   35.3503   35.4136 C   0  0  0  0  0  0  0  0  0  0  0  0
   16.3798   34.6316   34.5046 N   0  0  0  0  0  0  0  0  0  0  0  0
   15.9004   35.1930   36.8094 N   0  0  0  0  0  0  0  0  0  0  0  0
    9.0121   45.4318   33.6712 H   0  0  0  0  0  0  0  0  0  0  0  0
   10.7260   46.9687   33.1212 H   0  0  0  0  0  0  0  0  0  0  0  0
   11.8906   45.7658   32.9468 H   0  0  0  0  0  0  0  0  0  0  0  0
   10.7230   44.8813   31.1555 H   0  0  0  0  0  0  0  0  0  0  0  0
    9.3415   43.8328   31.4762 H   0  0  0  0  0  0  0  0  0  0  0  0
    7.0082   44.7172   31.5819 H   0  0  0  0  0  0  0  0  0  0  0  0
   10.3466   47.1864   30.4143 H   0  0  0  0  0  0  0  0  0  0  0  0
    5.4622   46.3072   30.5019 H   0  0  0  0  0  0  0  0  0  0  0  0
    8.8155   48.7695   29.3604 H   0  0  0  0  0  0  0  0  0  0  0  0
    5.4963   50.2201   28.2186 H   0  0  0  0  0  0  0  0  0  0  0  0
    7.0948   50.3258   28.9824 H   0  0  0  0  0  0  0  0  0  0  0  0
    8.7685   50.4566   27.3424 H   0  0  0  0  0  0  0  0  0  0  0  0
    6.5754   47.0796   24.4513 H   0  0  0  0  0  0  0  0  0  0  0  0
    9.8541   49.7019   25.2728 H   0  0  0  0  0  0  0  0  0  0  0  0
    8.7690   48.0039   23.8386 H   0  0  0  0  0  0  0  0  0  0  0  0
   11.3777   41.5549   31.4744 H   0  0  0  0  0  0  0  0  0  0  0  0
    9.8234   40.7201   31.7654 H   0  0  0  0  0  0  0  0  0  0  0  0
   11.7311   39.5363   30.3532 H   0  0  0  0  0  0  0  0  0  0  0  0
   10.1203   38.2696   32.6410 H   0  0  0  0  0  0  0  0  0  0  0  0
   13.6850   37.4639   31.2321 H   0  0  0  0  0  0  0  0  0  0  0  0
   10.0251   38.1793   29.7654 H   0  0  0  0  0  0  0  0  0  0  0  0
   11.2757   36.3135   32.4907 H   0  0  0  0  0  0  0  0  0  0  0  0
   11.9838   36.9111   29.7708 H   0  0  0  0  0  0  0  0  0  0  0  0
   12.3307   38.3536   34.7458 H   0  0  0  0  0  0  0  0  0  0  0  0
   16.7566   34.1787   32.4623 H   0  0  0  0  0  0  0  0  0  0  0  0
   15.3535   35.7355   37.5144 H   0  0  0  0  0  0  0  0  0  0  0  0
   16.6353   34.5301   37.1419 H   0  0  0  0  0  0  0  0  0  0  0  0
  1  2  2  0
  1  3  1  0
  3  4  1  0
  4  5  1  0
  6  1  1  0
  7  6  1  0
  6  8  1  0
  8  9  1  0
  9 10  2  0
 11  9  1  0
 10 12  1  0
 13 11  2  0
 12 14  2  0
 14 13  1  0
 14 15  1  0
 15 16  1  0
 16 17  1  0
 17 18  2  0
 19 17  1  0
 18 20  1  0
 18 21  1  0
 22 19  2  0
 20 23  1  0
 20 24  2  0
 21 25  2  0
 25 22  1  0
  4 26  2  0
  4 27  1  0
 28 27  1  0
 28 29  1  0
 29 30  1  0
 29 31  1  0
 30 32  1  0
 31 33  1  0
 31 34  1  0
 34 32  1  0
 32 35  1  0
 34 36  1  0
 37 35  1  0
 38 35  1  0
 39 37  2  0
 37 40  1  0
 41 38  2  0
 42 39  1  0
 40 43  2  0
 40 41  1  0
 44 42  2  0
 44 43  1  0
 43 45  1  0
  6 46  1  1
  7 47  1  0
  7 48  1  0
  8 49  1  0
  8 50  1  0
 10 51  1  0
 11 52  1  0
 12 53  1  0
 13 54  1  0
 16 55  1  0
 16 56  1  0
 19 57  1  0
 21 58  1  0
 22 59  1  0
 25 60  1  0
 28 61  1  0
 28 62  1  0
 29 63  1  0
 31 64  1  0
 32 65  1  0
 33 66  1  0
 34 67  1  0
 36 68  1  0
 38 69  1  0
 42 70  1  0
 45 71  1  0
 45 72  1  0
M  CHG  3   5  -1  20   1  23  -1
M  END
>  <EmbedRMS>  (26) 
0.0808451990829

$$$$

     RDKit          3D

 72 76  0  0  0  0  0  0  0  0999 V2000
   10.2805   43.7664   33.8250 C   0  0  0  0  0  0  0  0  0  0  0  0
   11.4111   43.5919   34.3668 O   0  0  0  0  0  0  0  0  0  0  0  0
    9.3622   42.7247   33.7343 O   0  0  0  0  0  0  0  0  0  0  0  0
    9.8904   41.2264   34.2937 P   0  0  0  0  0  0  0  0  0  0  0  0
   10.3732   41.4564   35.8832 O   0  0  0  0  0  0  0  0  0  0  0  0
    9.9458   45.0736   33.2113 C   0  0  1  0  0  0  0  0  0  0  0  0
   11.0266   46.0292   33.4706 N   0  0  0  0  0  0  0  0  0  0  0  0
    9.7534   44.8539   31.6951 C   0  0  0  0  0  0  0  0  0  0  0  0
    8.7954   45.8413   31.0852 C   0  0  0  0  0  0  0  0  0  0  0  0
    7.4087   45.6001   31.1001 C   0  0  0  0  0  0  0  0  0  0  0  0
    9.2830   46.9874   30.4394 C   0  0  0  0  0  0  0  0  0  0  0  0
    6.5283   46.5004   30.4842 C   0  0  0  0  0  0  0  0  0  0  0  0
    8.4025   47.8884   29.8293 C   0  0  0  0  0  0  0  0  0  0  0  0
    7.0136   47.6526   29.8505 C   0  0  0  0  0  0  0  0  0  0  0  0
    6.0864   48.5256   29.2594 O   0  0  0  0  0  0  0  0  0  0  0  0
    6.3905   49.8119   28.7180 C   0  0  0  0  0  0  0  0  0  0  0  0
    6.7773   50.7823   29.8117 C   0  0  0  0  0  0  0  0  0  0  0  0
    5.9662   50.9932   30.9607 C   0  0  0  0  0  0  0  0  0  0  0  0
    8.0003   51.4692   29.7003 C   0  0  0  0  0  0  0  0  0  0  0  0
    4.6919   50.3452   31.1271 N   0  0  0  0  0  0  0  0  0  0  0  0
    6.4287   51.8486   31.9765 C   0  0  0  0  0  0  0  0  0  0  0  0
    8.4317   52.3261   30.7132 C   0  0  0  0  0  0  0  0  0  0  0  0
    4.2306   50.0516   32.3898 O   0  0  0  0  0  0  0  0  0  0  0  0
    3.9209   50.1946   30.1576 O   0  0  0  0  0  0  0  0  0  0  0  0
    7.6505   52.5107   31.8517 C   0  0  0  0  0  0  0  0  0  0  0  0
    8.8129   40.1841   34.2124 O   0  0  0  0  0  0  0  0  0  0  0  0
   11.2419   40.7944   33.3695 O   0  0  0  0  0  0  0  0  0  0  0  0
   10.9186   40.6911   31.9969 C   0  0  0  0  0  0  0  0  0  0  0  0
   11.5172   39.3814   31.4407 C   0  0  0  0  0  0  0  0  0  0  0  0
   12.7492   39.0856   32.0729 O   0  0  0  0  0  0  0  0  0  0  0  0
   10.6023   38.1908   31.6665 C   0  0  0  0  0  0  0  0  0  0  0  0
   12.9319   37.6781   32.0281 C   0  0  0  0  0  0  0  0  0  0  0  0
    9.6392   38.0797   30.6452 O   0  0  0  0  0  0  0  0  0  0  0  0
   11.5715   37.0165   31.7056 C   0  0  0  0  0  0  0  0  0  0  0  0
   13.4847   37.2121   33.3235 N   0  0  0  0  0  0  0  0  0  0  0  0
   11.6187   36.3384   30.4695 O   0  0  0  0  0  0  0  0  0  0  0  0
   14.4801   36.3321   33.5724 C   0  0  0  0  0  0  0  0  0  0  0  0
   13.1137   37.6275   34.5688 C   0  0  0  0  0  0  0  0  0  0  0  0
   15.2073   35.6153   32.6738 N   0  0  0  0  0  0  0  0  0  0  0  0
   14.6759   36.2308   34.9179 C   0  0  0  0  0  0  0  0  0  0  0  0
   13.8216   37.0452   35.5781 N   0  0  0  0  0  0  0  0  0  0  0  0
   16.1640   34.7602   33.1546 C   0  0  0  0  0  0  0  0  0  0  0  0
   15.6526   35.3508   35.4129 C   0  0  0  0  0  0  0  0  0  0  0  0
   16.3794   34.6317   34.5041 N   0  0  0  0  0  0  0  0  0  0  0  0
   15.8999   35.1935   36.8088 N   0  0  0  0  0  0  0  0  0  0  0  0
    8.9995   45.4381   33.6725 H   0  0  0  0  0  0  0  0  0  0  0  0
   11.0503   46.2279   34.4980 H   0  0  0  0  0  0  0  0  0  0  0  0
   10.7761   46.9369   33.0157 H   0  0  0  0  0  0  0  0  0  0  0  0
   10.7405   44.9070   31.1836 H   0  0  0  0  0  0  0  0  0  0  0  0
    9.3634   43.8353   31.4716 H   0  0  0  0  0  0  0  0  0  0  0  0
    7.0130   44.7157   31.5841 H   0  0  0  0  0  0  0  0  0  0  0  0
   10.3474   47.1844   30.4035 H   0  0  0  0  0  0  0  0  0  0  0  0
    5.4638   46.3043   30.5050 H   0  0  0  0  0  0  0  0  0  0  0  0
    8.8154   48.7555   29.3356 H   0  0  0  0  0  0  0  0  0  0  0  0
    7.1822   49.7137   27.9439 H   0  0  0  0  0  0  0  0  0  0  0  0
    5.4939   50.2009   28.1934 H   0  0  0  0  0  0  0  0  0  0  0  0
    8.6318   51.3321   28.8312 H   0  0  0  0  0  0  0  0  0  0  0  0
    5.8314   52.0183   32.8634 H   0  0  0  0  0  0  0  0  0  0  0  0
    9.3777   52.8432   30.6175 H   0  0  0  0  0  0  0  0  0  0  0  0
    7.9897   53.1727   32.6380 H   0  0  0  0  0  0  0  0  0  0  0  0
    9.8298   40.7409   31.7611 H   0  0  0  0  0  0  0  0  0  0  0  0
   11.3967   41.5459   31.4726 H   0  0  0  0  0  0  0  0  0  0  0  0
   11.6975   39.5066   30.3481 H   0  0  0  0  0  0  0  0  0  0  0  0
   10.1076   38.2647   32.6645 H   0  0  0  0  0  0  0  0  0  0  0  0
   13.6621   37.4468   31.2209 H   0  0  0  0  0  0  0  0  0  0  0  0
    8.8974   38.6942   30.8832 H   0  0  0  0  0  0  0  0  0  0  0  0
   11.2806   36.3073   32.5170 H   0  0  0  0  0  0  0  0  0  0  0  0
   10.8493   35.7110   30.4586 H   0  0  0  0  0  0  0  0  0  0  0  0
   12.3290   38.3524   34.7444 H   0  0  0  0  0  0  0  0  0  0  0  0
   16.7559   34.1780   32.4619 H   0  0  0  0  0  0  0  0  0  0  0  0
   15.3532   35.7362   37.5137 H   0  0  0  0  0  0  0  0  0  0  0  0
   16.6344   34.5301   37.1414 H   0  0  0  0  0  0  0  0  0  0  0  0
  1  2  2  0
  1  3  1  0
  3  4  1  0
  4  5  1  0
  6  1  1  0
  7  6  1  0
  6  8  1  0
  8  9  1  0
  9 10  2  0
 11  9  1  0
 10 12  1  0
 13 11  2  0
 12 14  2  0
 14 13  1  0
 14 15  1  0
 15 16  1  0
 16 17  1  0
 17 18  2  0
 19 17  1  0
 18 20  1  0
 18 21  1  0
 22 19  2  0
 20 23  1  0
 20 24  2  0
 21 25  2  0
 25 22  1  0
  4 26  2  0
  4 27  1  0
 28 27  1  0
 28 29  1  0
 29 30  1  0
 29 31  1  0
 30 32  1  0
 31 33  1  0
 31 34  1  0
 34 32  1  0
 32 35  1  0
 34 36  1  0
 37 35  1  0
 38 35  1  0
 39 37  2  0
 37 40  1  0
 41 38  2  0
 42 39  1  0
 40 43  2  0
 40 41  1  0
 44 42  2  0
 44 43  1  0
 43 45  1  0
  6 46  1  1
  7 47  1  0
  7 48  1  0
  8 49  1  0
  8 50  1  0
 10 51  1  0
 11 52  1  0
 12 53  1  0
 13 54  1  0
 16 55  1  0
 16 56  1  0
 19 57  1  0
 21 58  1  0
 22 59  1  0
 25 60  1  0
 28 61  1  0
 28 62  1  0
 29 63  1  0
 31 64  1  0
 32 65  1  0
 33 66  1  0
 34 67  1  0
 36 68  1  0
 38 69  1  0
 42 70  1  0
 45 71  1  0
 45 72  1  0
M  CHG  3   5  -1  20   1  23  -1
M  END
>  <EmbedRMS>  (27) 
0.0827707893906

$$$$

     RDKit          3D

 72 76  0  0  0  0  0  0  0  0999 V2000
   10.2838   43.7626   33.8276 C   0  0  0  0  0  0  0  0  0  0  0  0
   11.4103   43.5863   34.3767 O   0  0  0  0  0  0  0  0  0  0  0  0
    9.3631   42.7236   33.7353 O   0  0  0  0  0  0  0  0  0  0  0  0
    9.8898   41.2247   34.2935 P   0  0  0  0  0  0  0  0  0  0  0  0
   10.3734   41.4542   35.8829 O   0  0  0  0  0  0  0  0  0  0  0  0
    9.9548   45.0700   33.2065 C   0  0  1  0  0  0  0  0  0  0  0  0
   11.0198   46.0481   33.4569 N   0  0  0  0  0  0  0  0  0  0  0  0
    9.7500   44.8509   31.6924 C   0  0  0  0  0  0  0  0  0  0  0  0
    8.7942   45.8419   31.0870 C   0  0  0  0  0  0  0  0  0  0  0  0
    7.4073   45.6010   31.1000 C   0  0  0  0  0  0  0  0  0  0  0  0
    9.2834   46.9892   30.4447 C   0  0  0  0  0  0  0  0  0  0  0  0
    6.5276   46.5018   30.4841 C   0  0  0  0  0  0  0  0  0  0  0  0
    8.4037   47.8901   29.8322 C   0  0  0  0  0  0  0  0  0  0  0  0
    7.0149   47.6516   29.8478 C   0  0  0  0  0  0  0  0  0  0  0  0
    6.0936   48.5230   29.2494 O   0  0  0  0  0  0  0  0  0  0  0  0
    6.4421   49.7362   28.5866 C   0  0  0  0  0  0  0  0  0  0  0  0
    5.1897   50.4347   28.1180 C   0  0  0  0  0  0  0  0  0  0  0  0
    4.1419   50.7937   29.0115 C   0  0  0  0  0  0  0  0  0  0  0  0
    5.0404   50.7007   26.7438 C   0  0  0  0  0  0  0  0  0  0  0  0
    4.2261   50.5546   30.4292 N   0  0  0  0  0  0  0  0  0  0  0  0
    2.9736   51.3811   28.4933 C   0  0  0  0  0  0  0  0  0  0  0  0
    3.8785   51.2986   26.2551 C   0  0  0  0  0  0  0  0  0  0  0  0
    3.0792   50.3355   31.1573 O   0  0  0  0  0  0  0  0  0  0  0  0
    5.3038   50.7003   31.0409 O   0  0  0  0  0  0  0  0  0  0  0  0
    2.8458   51.6346   27.1273 C   0  0  0  0  0  0  0  0  0  0  0  0
    8.8115   40.1834   34.2126 O   0  0  0  0  0  0  0  0  0  0  0  0
   11.2402   40.7936   33.3673 O   0  0  0  0  0  0  0  0  0  0  0  0
   10.9134   40.6864   31.9955 C   0  0  0  0  0  0  0  0  0  0  0  0
   11.5166   39.3786   31.4404 C   0  0  0  0  0  0  0  0  0  0  0  0
   12.7486   39.0848   32.0734 O   0  0  0  0  0  0  0  0  0  0  0  0
   10.6039   38.1883   31.6669 C   0  0  0  0  0  0  0  0  0  0  0  0
   12.9329   37.6775   32.0284 C   0  0  0  0  0  0  0  0  0  0  0  0
    9.6374   38.0938   30.6484 O   0  0  0  0  0  0  0  0  0  0  0  0
   11.5737   37.0140   31.7055 C   0  0  0  0  0  0  0  0  0  0  0  0
   13.4853   37.2120   33.3238 N   0  0  0  0  0  0  0  0  0  0  0  0
   11.6210   36.3379   30.4683 O   0  0  0  0  0  0  0  0  0  0  0  0
   14.4804   36.3319   33.5726 C   0  0  0  0  0  0  0  0  0  0  0  0
   13.1141   37.6275   34.5689 C   0  0  0  0  0  0  0  0  0  0  0  0
   15.2076   35.6152   32.6740 N   0  0  0  0  0  0  0  0  0  0  0  0
   14.6761   36.2306   34.9181 C   0  0  0  0  0  0  0  0  0  0  0  0
   13.8218   37.0451   35.5783 N   0  0  0  0  0  0  0  0  0  0  0  0
   16.1642   34.7600   33.1548 C   0  0  0  0  0  0  0  0  0  0  0  0
   15.6527   35.3507   35.4131 C   0  0  0  0  0  0  0  0  0  0  0  0
   16.3795   34.6315   34.5043 N   0  0  0  0  0  0  0  0  0  0  0  0
   15.9001   35.1933   36.8090 N   0  0  0  0  0  0  0  0  0  0  0  0
    9.0099   45.4349   33.6672 H   0  0  0  0  0  0  0  0  0  0  0  0
   11.9348   45.6932   33.0924 H   0  0  0  0  0  0  0  0  0  0  0  0
   11.1135   46.1992   34.4882 H   0  0  0  0  0  0  0  0  0  0  0  0
   10.7303   44.8922   31.1676 H   0  0  0  0  0  0  0  0  0  0  0  0
    9.3507   43.8344   31.4763 H   0  0  0  0  0  0  0  0  0  0  0  0
    7.0107   44.7159   31.5822 H   0  0  0  0  0  0  0  0  0  0  0  0
   10.3477   47.1879   30.4158 H   0  0  0  0  0  0  0  0  0  0  0  0
    5.4631   46.3053   30.5019 H   0  0  0  0  0  0  0  0  0  0  0  0
    8.8142   48.7651   29.3475 H   0  0  0  0  0  0  0  0  0  0  0  0
    7.1093   49.4991   27.7291 H   0  0  0  0  0  0  0  0  0  0  0  0
    7.0044   50.4049   29.2716 H   0  0  0  0  0  0  0  0  0  0  0  0
    5.8228   50.4375   26.0425 H   0  0  0  0  0  0  0  0  0  0  0  0
    2.1616   51.6592   29.1531 H   0  0  0  0  0  0  0  0  0  0  0  0
    3.7763   51.4961   25.1957 H   0  0  0  0  0  0  0  0  0  0  0  0
    1.9438   52.0947   26.7448 H   0  0  0  0  0  0  0  0  0  0  0  0
   11.3831   41.5437   31.4675 H   0  0  0  0  0  0  0  0  0  0  0  0
    9.8226   40.7225   31.7629 H   0  0  0  0  0  0  0  0  0  0  0  0
   11.6978   39.5037   30.3478 H   0  0  0  0  0  0  0  0  0  0  0  0
   10.1084   38.2785   32.6626 H   0  0  0  0  0  0  0  0  0  0  0  0
   13.6638   37.4471   31.2214 H   0  0  0  0  0  0  0  0  0  0  0  0
    8.9763   37.4190   30.9531 H   0  0  0  0  0  0  0  0  0  0  0  0
   11.2821   36.3054   32.5171 H   0  0  0  0  0  0  0  0  0  0  0  0
   10.8658   35.6935   30.4652 H   0  0  0  0  0  0  0  0  0  0  0  0
   12.3293   38.3523   34.7444 H   0  0  0  0  0  0  0  0  0  0  0  0
   16.7561   34.1778   32.4621 H   0  0  0  0  0  0  0  0  0  0  0  0
   16.6345   34.5300   37.1416 H   0  0  0  0  0  0  0  0  0  0  0  0
   15.3533   35.7361   37.5138 H   0  0  0  0  0  0  0  0  0  0  0  0
  1  2  2  0
  1  3  1  0
  3  4  1  0
  4  5  1  0
  6  1  1  0
  7  6  1  0
  6  8  1  0
  8  9  1  0
  9 10  2  0
 11  9  1  0
 10 12  1  0
 13 11  2  0
 12 14  2  0
 14 13  1  0
 14 15  1  0
 15 16  1  0
 16 17  1  0
 17 18  2  0
 19 17  1  0
 18 20  1  0
 18 21  1  0
 22 19  2  0
 20 23  1  0
 20 24  2  0
 21 25  2  0
 25 22  1  0
  4 26  2  0
  4 27  1  0
 28 27  1  0
 28 29  1  0
 29 30  1  0
 29 31  1  0
 30 32  1  0
 31 33  1  0
 31 34  1  0
 34 32  1  0
 32 35  1  0
 34 36  1  0
 37 35  1  0
 38 35  1  0
 39 37  2  0
 37 40  1  0
 41 38  2  0
 42 39  1  0
 40 43  2  0
 40 41  1  0
 44 42  2  0
 44 43  1  0
 43 45  1  0
  6 46  1  1
  7 47  1  0
  7 48  1  0
  8 49  1  0
  8 50  1  0
 10 51  1  0
 11 52  1  0
 12 53  1  0
 13 54  1  0
 16 55  1  0
 16 56  1  0
 19 57  1  0
 21 58  1  0
 22 59  1  0
 25 60  1  0
 28 61  1  0
 28 62  1  0
 29 63  1  0
 31 64  1  0
 32 65  1  0
 33 66  1  0
 34 67  1  0
 36 68  1  0
 38 69  1  0
 42 70  1  0
 45 71  1  0
 45 72  1  0
M  CHG  3   5  -1  20   1  23  -1
M  END
>  <EmbedRMS>  (28) 
0.083450446638

$$$$

     RDKit          3D

 72 76  0  0  0  0  0  0  0  0999 V2000
   10.2839   43.7627   33.8276 C   0  0  0  0  0  0  0  0  0  0  0  0
   11.4103   43.5863   34.3766 O   0  0  0  0  0  0  0  0  0  0  0  0
    9.3631   42.7236   33.7353 O   0  0  0  0  0  0  0  0  0  0  0  0
    9.8894   41.2249   34.2944 P   0  0  0  0  0  0  0  0  0  0  0  0
   10.3726   41.4547   35.8838 O   0  0  0  0  0  0  0  0  0  0  0  0
    9.9549   45.0700   33.2065 C   0  0  1  0  0  0  0  0  0  0  0  0
   11.0198   46.0482   33.4572 N   0  0  0  0  0  0  0  0  0  0  0  0
    9.7506   44.8512   31.6924 C   0  0  0  0  0  0  0  0  0  0  0  0
    8.7944   45.8420   31.0871 C   0  0  0  0  0  0  0  0  0  0  0  0
    7.4077   45.6002   31.1001 C   0  0  0  0  0  0  0  0  0  0  0  0
    9.2827   46.9890   30.4440 C   0  0  0  0  0  0  0  0  0  0  0  0
    6.5259   46.4992   30.4845 C   0  0  0  0  0  0  0  0  0  0  0  0
    8.4009   47.8879   29.8323 C   0  0  0  0  0  0  0  0  0  0  0  0
    7.0192   47.6564   29.8476 C   0  0  0  0  0  0  0  0  0  0  0  0
    6.1806   48.5940   29.2230 O   0  0  0  0  0  0  0  0  0  0  0  0
    4.7525   48.5569   29.2347 C   0  0  0  0  0  0  0  0  0  0  0  0
    4.2179   48.8571   30.6180 C   0  0  0  0  0  0  0  0  0  0  0  0
    3.2330   48.0511   31.2454 C   0  0  0  0  0  0  0  0  0  0  0  0
    4.7487   49.9572   31.3161 C   0  0  0  0  0  0  0  0  0  0  0  0
    2.5820   46.9778   30.5481 N   0  0  0  0  0  0  0  0  0  0  0  0
    2.8626   48.3266   32.5734 C   0  0  0  0  0  0  0  0  0  0  0  0
    4.3542   50.2269   32.6273 C   0  0  0  0  0  0  0  0  0  0  0  0
    2.0456   47.1948   29.2999 O   0  0  0  0  0  0  0  0  0  0  0  0
    2.2972   45.9230   31.1519 O   0  0  0  0  0  0  0  0  0  0  0  0
    3.4210   49.4065   33.2587 C   0  0  0  0  0  0  0  0  0  0  0  0
    8.8113   40.1834   34.2129 O   0  0  0  0  0  0  0  0  0  0  0  0
   11.2402   40.7930   33.3696 O   0  0  0  0  0  0  0  0  0  0  0  0
   10.9151   40.6903   31.9975 C   0  0  0  0  0  0  0  0  0  0  0  0
   11.5252   39.3885   31.4375 C   0  0  0  0  0  0  0  0  0  0  0  0
   12.7500   39.0873   32.0798 O   0  0  0  0  0  0  0  0  0  0  0  0
   10.6092   38.1925   31.6469 C   0  0  0  0  0  0  0  0  0  0  0  0
   12.9332   37.6792   32.0294 C   0  0  0  0  0  0  0  0  0  0  0  0
    9.6122   38.0894   30.6542 O   0  0  0  0  0  0  0  0  0  0  0  0
   11.5743   37.0144   31.7024 C   0  0  0  0  0  0  0  0  0  0  0  0
   13.4844   37.2107   33.3241 N   0  0  0  0  0  0  0  0  0  0  0  0
   11.6297   36.3238   30.4740 O   0  0  0  0  0  0  0  0  0  0  0  0
   14.4802   36.3313   33.5726 C   0  0  0  0  0  0  0  0  0  0  0  0
   13.1138   37.6266   34.5692 C   0  0  0  0  0  0  0  0  0  0  0  0
   15.2075   35.6149   32.6739 N   0  0  0  0  0  0  0  0  0  0  0  0
   14.6761   36.2303   34.9181 C   0  0  0  0  0  0  0  0  0  0  0  0
   13.8220   37.0447   35.5784 N   0  0  0  0  0  0  0  0  0  0  0  0
   16.1643   34.7600   33.1547 C   0  0  0  0  0  0  0  0  0  0  0  0
   15.6529   35.3505   35.4130 C   0  0  0  0  0  0  0  0  0  0  0  0
   16.3798   34.6315   34.5042 N   0  0  0  0  0  0  0  0  0  0  0  0
   15.9002   35.1932   36.8090 N   0  0  0  0  0  0  0  0  0  0  0  0
    9.0098   45.4349   33.6670 H   0  0  0  0  0  0  0  0  0  0  0  0
   11.9349   45.6934   33.0930 H   0  0  0  0  0  0  0  0  0  0  0  0
   11.1131   46.1993   34.4885 H   0  0  0  0  0  0  0  0  0  0  0  0
   10.7310   44.8933   31.1677 H   0  0  0  0  0  0  0  0  0  0  0  0
    9.3519   43.8346   31.4759 H   0  0  0  0  0  0  0  0  0  0  0  0
    7.0127   44.7139   31.5813 H   0  0  0  0  0  0  0  0  0  0  0  0
   10.3467   47.1891   30.4142 H   0  0  0  0  0  0  0  0  0  0  0  0
    5.4685   46.2799   30.5079 H   0  0  0  0  0  0  0  0  0  0  0  0
    8.7937   48.7706   29.3438 H   0  0  0  0  0  0  0  0  0  0  0  0
    4.4162   47.5784   28.8385 H   0  0  0  0  0  0  0  0  0  0  0  0
    4.3796   49.3401   28.5422 H   0  0  0  0  0  0  0  0  0  0  0  0
    5.4882   50.5967   30.8496 H   0  0  0  0  0  0  0  0  0  0  0  0
    2.1180   47.7174   33.0703 H   0  0  0  0  0  0  0  0  0  0  0  0
    4.7795   51.0692   33.1575 H   0  0  0  0  0  0  0  0  0  0  0  0
    3.1199   49.6149   34.2772 H   0  0  0  0  0  0  0  0  0  0  0  0
   11.3805   41.5528   31.4740 H   0  0  0  0  0  0  0  0  0  0  0  0
    9.8243   40.7216   31.7640 H   0  0  0  0  0  0  0  0  0  0  0  0
   11.7265   39.5311   30.3512 H   0  0  0  0  0  0  0  0  0  0  0  0
   10.1110   38.2746   32.6387 H   0  0  0  0  0  0  0  0  0  0  0  0
   13.6652   37.4519   31.2226 H   0  0  0  0  0  0  0  0  0  0  0  0
   10.0511   38.1142   29.7645 H   0  0  0  0  0  0  0  0  0  0  0  0
   11.2762   36.3141   32.5189 H   0  0  0  0  0  0  0  0  0  0  0  0
   10.8593   35.6977   30.4640 H   0  0  0  0  0  0  0  0  0  0  0  0
   12.3295   38.3518   34.7449 H   0  0  0  0  0  0  0  0  0  0  0  0
   16.7564   34.1779   32.4620 H   0  0  0  0  0  0  0  0  0  0  0  0
   15.3534   35.7359   37.5138 H   0  0  0  0  0  0  0  0  0  0  0  0
   16.6349   34.5300   37.1415 H   0  0  0  0  0  0  0  0  0  0  0  0
  1  2  2  0
  1  3  1  0
  3  4  1  0
  4  5  1  0
  6  1  1  0
  7  6  1  0
  6  8  1  0
  8  9  1  0
  9 10  2  0
 11  9  1  0
 10 12  1  0
 13 11  2  0
 12 14  2  0
 14 13  1  0
 14 15  1  0
 15 16  1  0
 16 17  1  0
 17 18  2  0
 19 17  1  0
 18 20  1  0
 18 21  1  0
 22 19  2  0
 20 23  1  0
 20 24  2  0
 21 25  2  0
 25 22  1  0
  4 26  2  0
  4 27  1  0
 28 27  1  0
 28 29  1  0
 29 30  1  0
 29 31  1  0
 30 32  1  0
 31 33  1  0
 31 34  1  0
 34 32  1  0
 32 35  1  0
 34 36  1  0
 37 35  1  0
 38 35  1  0
 39 37  2  0
 37 40  1  0
 41 38  2  0
 42 39  1  0
 40 43  2  0
 40 41  1  0
 44 42  2  0
 44 43  1  0
 43 45  1  0
  6 46  1  1
  7 47  1  0
  7 48  1  0
  8 49  1  0
  8 50  1  0
 10 51  1  0
 11 52  1  0
 12 53  1  0
 13 54  1  0
 16 55  1  0
 16 56  1  0
 19 57  1  0
 21 58  1  0
 22 59  1  0
 25 60  1  0
 28 61  1  0
 28 62  1  0
 29 63  1  0
 31 64  1  0
 32 65  1  0
 33 66  1  0
 34 67  1  0
 36 68  1  0
 38 69  1  0
 42 70  1  0
 45 71  1  0
 45 72  1  0
M  CHG  3   5  -1  20   1  23  -1
M  END
>  <EmbedRMS>  (29) 
0.0827020674284

$$$$

     RDKit          3D

 72 76  0  0  0  0  0  0  0  0999 V2000
   10.2804   43.7664   33.8250 C   0  0  0  0  0  0  0  0  0  0  0  0
   11.4111   43.5919   34.3667 O   0  0  0  0  0  0  0  0  0  0  0  0
    9.3619   42.7250   33.7347 O   0  0  0  0  0  0  0  0  0  0  0  0
    9.8900   41.2267   34.2944 P   0  0  0  0  0  0  0  0  0  0  0  0
   10.3728   41.4567   35.8838 O   0  0  0  0  0  0  0  0  0  0  0  0
    9.9459   45.0737   33.2113 C   0  0  1  0  0  0  0  0  0  0  0  0
   11.0266   46.0293   33.4709 N   0  0  0  0  0  0  0  0  0  0  0  0
    9.7540   44.8543   31.6950 C   0  0  0  0  0  0  0  0  0  0  0  0
    8.7957   45.8414   31.0851 C   0  0  0  0  0  0  0  0  0  0  0  0
    7.4090   45.5997   31.1006 C   0  0  0  0  0  0  0  0  0  0  0  0
    9.2825   46.9876   30.4390 C   0  0  0  0  0  0  0  0  0  0  0  0
    6.5261   46.4983   30.4854 C   0  0  0  0  0  0  0  0  0  0  0  0
    8.3997   47.8868   29.8300 C   0  0  0  0  0  0  0  0  0  0  0  0
    7.0181   47.6559   29.8488 C   0  0  0  0  0  0  0  0  0  0  0  0
    6.1795   48.5943   29.2267 O   0  0  0  0  0  0  0  0  0  0  0  0
    4.7524   48.5947   29.2861 C   0  0  0  0  0  0  0  0  0  0  0  0
    4.2677   48.9174   30.6817 C   0  0  0  0  0  0  0  0  0  0  0  0
    4.7304   50.0525   31.4005 C   0  0  0  0  0  0  0  0  0  0  0  0
    3.3571   48.0393   31.2982 C   0  0  0  0  0  0  0  0  0  0  0  0
    5.6405   51.0021   30.8165 N   0  0  0  0  0  0  0  0  0  0  0  0
    4.2984   50.2465   32.7255 C   0  0  0  0  0  0  0  0  0  0  0  0
    2.9297   48.2593   32.6079 C   0  0  0  0  0  0  0  0  0  0  0  0
    5.4936   51.4020   29.5088 O   0  0  0  0  0  0  0  0  0  0  0  0
    6.4722   51.5947   31.5348 O   0  0  0  0  0  0  0  0  0  0  0  0
    3.4038   49.3573   33.3222 C   0  0  0  0  0  0  0  0  0  0  0  0
    8.8127   40.1842   34.2128 O   0  0  0  0  0  0  0  0  0  0  0  0
   11.2414   40.7950   33.3705 O   0  0  0  0  0  0  0  0  0  0  0  0
   10.9178   40.6922   31.9983 C   0  0  0  0  0  0  0  0  0  0  0  0
   11.5175   39.3837   31.4423 C   0  0  0  0  0  0  0  0  0  0  0  0
   12.7507   39.0887   32.0753 O   0  0  0  0  0  0  0  0  0  0  0  0
   10.6027   38.1916   31.6659 C   0  0  0  0  0  0  0  0  0  0  0  0
   12.9384   37.6819   32.0278 C   0  0  0  0  0  0  0  0  0  0  0  0
    9.6371   38.0805   30.6470 O   0  0  0  0  0  0  0  0  0  0  0  0
   11.5780   37.0215   31.6935 C   0  0  0  0  0  0  0  0  0  0  0  0
   13.4844   37.2119   33.3242 N   0  0  0  0  0  0  0  0  0  0  0  0
   11.6095   36.3202   30.4679 O   0  0  0  0  0  0  0  0  0  0  0  0
   14.4797   36.3318   33.5730 C   0  0  0  0  0  0  0  0  0  0  0  0
   13.1135   37.6278   34.5691 C   0  0  0  0  0  0  0  0  0  0  0  0
   15.2073   35.6155   32.6742 N   0  0  0  0  0  0  0  0  0  0  0  0
   14.6754   36.2305   34.9184 C   0  0  0  0  0  0  0  0  0  0  0  0
   13.8213   37.0452   35.5785 N   0  0  0  0  0  0  0  0  0  0  0  0
   16.1640   34.7604   33.1549 C   0  0  0  0  0  0  0  0  0  0  0  0
   15.6524   35.3507   35.4132 C   0  0  0  0  0  0  0  0  0  0  0  0
   16.3794   34.6318   34.5044 N   0  0  0  0  0  0  0  0  0  0  0  0
   15.8999   35.1934   36.8091 N   0  0  0  0  0  0  0  0  0  0  0  0
    8.9995   45.4382   33.6722 H   0  0  0  0  0  0  0  0  0  0  0  0
   10.7763   46.9370   33.0160 H   0  0  0  0  0  0  0  0  0  0  0  0
   11.0501   46.2278   34.4983 H   0  0  0  0  0  0  0  0  0  0  0  0
   10.7411   44.9080   31.1837 H   0  0  0  0  0  0  0  0  0  0  0  0
    9.3645   43.8355   31.4712 H   0  0  0  0  0  0  0  0  0  0  0  0
    7.0150   44.7135   31.5829 H   0  0  0  0  0  0  0  0  0  0  0  0
   10.3463   47.1874   30.4045 H   0  0  0  0  0  0  0  0  0  0  0  0
    5.4693   46.2770   30.5068 H   0  0  0  0  0  0  0  0  0  0  0  0
    8.7915   48.7695   29.3406 H   0  0  0  0  0  0  0  0  0  0  0  0
    4.3632   47.6193   28.9217 H   0  0  0  0  0  0  0  0  0  0  0  0
    4.3645   49.3617   28.5852 H   0  0  0  0  0  0  0  0  0  0  0  0
    2.9846   47.1713   30.7683 H   0  0  0  0  0  0  0  0  0  0  0  0
    4.6435   51.1008   33.2941 H   0  0  0  0  0  0  0  0  0  0  0  0
    2.2337   47.5725   33.0721 H   0  0  0  0  0  0  0  0  0  0  0  0
    3.0738   49.5234   34.3396 H   0  0  0  0  0  0  0  0  0  0  0  0
   11.3950   41.5477   31.4741 H   0  0  0  0  0  0  0  0  0  0  0  0
    9.8290   40.7408   31.7625 H   0  0  0  0  0  0  0  0  0  0  0  0
   11.6982   39.5114   30.3500 H   0  0  0  0  0  0  0  0  0  0  0  0
   10.1117   38.2604   32.6661 H   0  0  0  0  0  0  0  0  0  0  0  0
   13.6767   37.4556   31.2267 H   0  0  0  0  0  0  0  0  0  0  0  0
    8.8960   38.6950   30.8873 H   0  0  0  0  0  0  0  0  0  0  0  0
   11.2792   36.3072   32.4922 H   0  0  0  0  0  0  0  0  0  0  0  0
   11.8828   36.9598   29.7589 H   0  0  0  0  0  0  0  0  0  0  0  0
   12.3300   38.3539   34.7446 H   0  0  0  0  0  0  0  0  0  0  0  0
   16.7561   34.1785   32.4622 H   0  0  0  0  0  0  0  0  0  0  0  0
   16.6347   34.5303   37.1416 H   0  0  0  0  0  0  0  0  0  0  0  0
   15.3531   35.7360   37.5140 H   0  0  0  0  0  0  0  0  0  0  0  0
  1  2  2  0
  1  3  1  0
  3  4  1  0
  4  5  1  0
  6  1  1  0
  7  6  1  0
  6  8  1  0
  8  9  1  0
  9 10  2  0
 11  9  1  0
 10 12  1  0
 13 11  2  0
 12 14  2  0
 14 13  1  0
 14 15  1  0
 15 16  1  0
 16 17  1  0
 17 18  2  0
 19 17  1  0
 18 20  1  0
 18 21  1  0
 22 19  2  0
 20 23  1  0
 20 24  2  0
 21 25  2  0
 25 22  1  0
  4 26  2  0
  4 27  1  0
 28 27  1  0
 28 29  1  0
 29 30  1  0
 29 31  1  0
 30 32  1  0
 31 33  1  0
 31 34  1  0
 34 32  1  0
 32 35  1  0
 34 36  1  0
 37 35  1  0
 38 35  1  0
 39 37  2  0
 37 40  1  0
 41 38  2  0
 42 39  1  0
 40 43  2  0
 40 41  1  0
 44 42  2  0
 44 43  1  0
 43 45  1  0
  6 46  1  1
  7 47  1  0
  7 48  1  0
  8 49  1  0
  8 50  1  0
 10 51  1  0
 11 52  1  0
 12 53  1  0
 13 54  1  0
 16 55  1  0
 16 56  1  0
 19 57  1  0
 21 58  1  0
 22 59  1  0
 25 60  1  0
 28 61  1  0
 28 62  1  0
 29 63  1  0
 31 64  1  0
 32 65  1  0
 33 66  1  0
 34 67  1  0
 36 68  1  0
 38 69  1  0
 42 70  1  0
 45 71  1  0
 45 72  1  0
M  CHG  3   5  -1  20   1  23  -1
M  END
>  <EmbedRMS>  (30) 
0.0817897914615

$$$$

     RDKit          3D

 72 76  0  0  0  0  0  0  0  0999 V2000
   10.2834   43.7662   33.8257 C   0  0  0  0  0  0  0  0  0  0  0  0
   11.4102   43.5930   34.3752 O   0  0  0  0  0  0  0  0  0  0  0  0
    9.3635   42.7257   33.7353 O   0  0  0  0  0  0  0  0  0  0  0  0
    9.8899   41.2270   34.2948 P   0  0  0  0  0  0  0  0  0  0  0  0
   10.3732   41.4562   35.8841 O   0  0  0  0  0  0  0  0  0  0  0  0
    9.9546   45.0695   33.2035 C   0  0  1  0  0  0  0  0  0  0  0  0
   11.0274   46.0321   33.4755 N   0  0  0  0  0  0  0  0  0  0  0  0
    9.7466   44.8480   31.6876 C   0  0  0  0  0  0  0  0  0  0  0  0
    8.7924   45.8406   31.0842 C   0  0  0  0  0  0  0  0  0  0  0  0
    7.4055   45.6018   31.0994 C   0  0  0  0  0  0  0  0  0  0  0  0
    9.2823   46.9879   30.4426 C   0  0  0  0  0  0  0  0  0  0  0  0
    6.5266   46.5036   30.4845 C   0  0  0  0  0  0  0  0  0  0  0  0
    8.4032   47.8903   29.8326 C   0  0  0  0  0  0  0  0  0  0  0  0
    7.0141   47.6521   29.8458 C   0  0  0  0  0  0  0  0  0  0  0  0
    6.0898   48.5204   29.2424 O   0  0  0  0  0  0  0  0  0  0  0  0
    6.4272   49.6768   28.4745 C   0  0  0  0  0  0  0  0  0  0  0  0
    7.0553   49.2820   27.1554 C   0  0  0  0  0  0  0  0  0  0  0  0
    8.2612   49.8609   26.6791 C   0  0  0  0  0  0  0  0  0  0  0  0
    6.4320   48.2762   26.3941 C   0  0  0  0  0  0  0  0  0  0  0  0
    8.8964   50.9558   27.3565 N   0  0  0  0  0  0  0  0  0  0  0  0
    8.8423   49.3658   25.4994 C   0  0  0  0  0  0  0  0  0  0  0  0
    7.0136   47.8124   25.2134 C   0  0  0  0  0  0  0  0  0  0  0  0
   10.2696   51.0288   27.3991 O   0  0  0  0  0  0  0  0  0  0  0  0
    8.2293   51.9563   27.6914 O   0  0  0  0  0  0  0  0  0  0  0  0
    8.2223   48.3484   24.7727 C   0  0  0  0  0  0  0  0  0  0  0  0
    8.8120   40.1850   34.2133 O   0  0  0  0  0  0  0  0  0  0  0  0
   11.2403   40.7947   33.3700 O   0  0  0  0  0  0  0  0  0  0  0  0
   10.9145   40.6914   31.9982 C   0  0  0  0  0  0  0  0  0  0  0  0
   11.5270   39.3912   31.4385 C   0  0  0  0  0  0  0  0  0  0  0  0
   12.7520   39.0911   32.0836 O   0  0  0  0  0  0  0  0  0  0  0  0
   10.6113   38.1932   31.6451 C   0  0  0  0  0  0  0  0  0  0  0  0
   12.9413   37.6838   32.0297 C   0  0  0  0  0  0  0  0  0  0  0  0
    9.6064   38.0878   30.6599 O   0  0  0  0  0  0  0  0  0  0  0  0
   11.5822   37.0198   31.6877 C   0  0  0  0  0  0  0  0  0  0  0  0
   13.4840   37.2104   33.3254 N   0  0  0  0  0  0  0  0  0  0  0  0
   11.6179   36.3072   30.4690 O   0  0  0  0  0  0  0  0  0  0  0  0
   14.4797   36.3309   33.5738 C   0  0  0  0  0  0  0  0  0  0  0  0
   13.1136   37.6269   34.5702 C   0  0  0  0  0  0  0  0  0  0  0  0
   15.2074   35.6152   32.6747 N   0  0  0  0  0  0  0  0  0  0  0  0
   14.6756   36.2298   34.9190 C   0  0  0  0  0  0  0  0  0  0  0  0
   13.8217   37.0445   35.5793 N   0  0  0  0  0  0  0  0  0  0  0  0
   16.1643   34.7603   33.1551 C   0  0  0  0  0  0  0  0  0  0  0  0
   15.6528   35.3503   35.4136 C   0  0  0  0  0  0  0  0  0  0  0  0
   16.3798   34.6316   34.5046 N   0  0  0  0  0  0  0  0  0  0  0  0
   15.9004   35.1930   36.8094 N   0  0  0  0  0  0  0  0  0  0  0  0
    9.0121   45.4318   33.6713 H   0  0  0  0  0  0  0  0  0  0  0  0
   11.8906   45.7658   32.9468 H   0  0  0  0  0  0  0  0  0  0  0  0
   10.7260   46.9687   33.1212 H   0  0  0  0  0  0  0  0  0  0  0  0
    9.3414   43.8328   31.4762 H   0  0  0  0  0  0  0  0  0  0  0  0
   10.7230   44.8813   31.1555 H   0  0  0  0  0  0  0  0  0  0  0  0
    7.0083   44.7171   31.5817 H   0  0  0  0  0  0  0  0  0  0  0  0
   10.3468   47.1857   30.4131 H   0  0  0  0  0  0  0  0  0  0  0  0
    5.4621   46.3069   30.5018 H   0  0  0  0  0  0  0  0  0  0  0  0
    8.8163   48.7671   29.3557 H   0  0  0  0  0  0  0  0  0  0  0  0
    7.0712   50.3380   29.0872 H   0  0  0  0  0  0  0  0  0  0  0  0
    5.4921   50.2345   28.2587 H   0  0  0  0  0  0  0  0  0  0  0  0
    5.5015   47.8338   26.7283 H   0  0  0  0  0  0  0  0  0  0  0  0
    9.7664   49.7891   25.1266 H   0  0  0  0  0  0  0  0  0  0  0  0
    6.5300   47.0295   24.6435 H   0  0  0  0  0  0  0  0  0  0  0  0
    8.6742   47.9835   23.8593 H   0  0  0  0  0  0  0  0  0  0  0  0
    9.8235   40.7201   31.7654 H   0  0  0  0  0  0  0  0  0  0  0  0
   11.3777   41.5549   31.4744 H   0  0  0  0  0  0  0  0  0  0  0  0
   11.7312   39.5363   30.3532 H   0  0  0  0  0  0  0  0  0  0  0  0
   10.1203   38.2696   32.6410 H   0  0  0  0  0  0  0  0  0  0  0  0
   13.6850   37.4639   31.2321 H   0  0  0  0  0  0  0  0  0  0  0  0
   10.0251   38.1793   29.7654 H   0  0  0  0  0  0  0  0  0  0  0  0
   11.2757   36.3135   32.4907 H   0  0  0  0  0  0  0  0  0  0  0  0
   11.9838   36.9111   29.7708 H   0  0  0  0  0  0  0  0  0  0  0  0
   12.3307   38.3536   34.7457 H   0  0  0  0  0  0  0  0  0  0  0  0
   16.7566   34.1787   32.4623 H   0  0  0  0  0  0  0  0  0  0  0  0
   16.6353   34.5301   37.1419 H   0  0  0  0  0  0  0  0  0  0  0  0
   15.3535   35.7355   37.5144 H   0  0  0  0  0  0  0  0  0  0  0  0
  1  2  2  0
  1  3  1  0
  3  4  1  0
  4  5  1  0
  6  1  1  0
  7  6  1  0
  6  8  1  0
  8  9  1  0
  9 10  2  0
 11  9  1  0
 10 12  1  0
 13 11  2  0
 12 14  2  0
 14 13  1  0
 14 15  1  0
 15 16  1  0
 16 17  1  0
 17 18  2  0
 19 17  1  0
 18 20  1  0
 18 21  1  0
 22 19  2  0
 20 23  1  0
 20 24  2  0
 21 25  2  0
 25 22  1  0
  4 26  2  0
  4 27  1  0
 28 27  1  0
 28 29  1  0
 29 30  1  0
 29 31  1  0
 30 32  1  0
 31 33  1  0
 31 34  1  0
 34 32  1  0
 32 35  1  0
 34 36  1  0
 37 35  1  0
 38 35  1  0
 39 37  2  0
 37 40  1  0
 41 38  2  0
 42 39  1  0
 40 43  2  0
 40 41  1  0
 44 42  2  0
 44 43  1  0
 43 45  1  0
  6 46  1  1
  7 47  1  0
  7 48  1  0
  8 49  1  0
  8 50  1  0
 10 51  1  0
 11 52  1  0
 12 53  1  0
 13 54  1  0
 16 55  1  0
 16 56  1  0
 19 57  1  0
 21 58  1  0
 22 59  1  0
 25 60  1  0
 28 61  1  0
 28 62  1  0
 29 63  1  0
 31 64  1  0
 32 65  1  0
 33 66  1  0
 34 67  1  0
 36 68  1  0
 38 69  1  0
 42 70  1  0
 45 71  1  0
 45 72  1  0
M  CHG  3   5  -1  20   1  23  -1
M  END
>  <EmbedRMS>  (31) 
0.0808387003035

$$$$

     RDKit          3D

 72 76  0  0  0  0  0  0  0  0999 V2000
   10.2834   43.7662   33.8255 C   0  0  0  0  0  0  0  0  0  0  0  0
   11.4101   43.5930   34.3752 O   0  0  0  0  0  0  0  0  0  0  0  0
    9.3637   42.7255   33.7347 O   0  0  0  0  0  0  0  0  0  0  0  0
    9.8906   41.2266   34.2933 P   0  0  0  0  0  0  0  0  0  0  0  0
   10.3742   41.4557   35.8827 O   0  0  0  0  0  0  0  0  0  0  0  0
    9.9547   45.0695   33.2034 C   0  0  1  0  0  0  0  0  0  0  0  0
   11.0273   46.0322   33.4758 N   0  0  0  0  0  0  0  0  0  0  0  0
    9.7472   44.8483   31.6873 C   0  0  0  0  0  0  0  0  0  0  0  0
    8.7926   45.8406   31.0839 C   0  0  0  0  0  0  0  0  0  0  0  0
    7.4058   45.6013   31.0998 C   0  0  0  0  0  0  0  0  0  0  0  0
    9.2817   46.9882   30.4425 C   0  0  0  0  0  0  0  0  0  0  0  0
    6.5244   46.5018   30.4861 C   0  0  0  0  0  0  0  0  0  0  0  0
    8.4003   47.8888   29.8334 C   0  0  0  0  0  0  0  0  0  0  0  0
    7.0189   47.6550   29.8437 C   0  0  0  0  0  0  0  0  0  0  0  0
    6.1831   48.5878   29.2093 O   0  0  0  0  0  0  0  0  0  0  0  0
    4.7798   48.4295   28.9948 C   0  0  0  0  0  0  0  0  0  0  0  0
    4.5060   47.3383   27.9839 C   0  0  0  0  0  0  0  0  0  0  0  0
    5.1296   47.3138   26.7060 C   0  0  0  0  0  0  0  0  0  0  0  0
    3.6308   46.2954   28.3398 C   0  0  0  0  0  0  0  0  0  0  0  0
    6.0135   48.3609   26.2658 N   0  0  0  0  0  0  0  0  0  0  0  0
    4.8901   46.2249   25.8490 C   0  0  0  0  0  0  0  0  0  0  0  0
    3.3951   45.2331   27.4668 C   0  0  0  0  0  0  0  0  0  0  0  0
    7.0354   48.0739   25.3901 O   0  0  0  0  0  0  0  0  0  0  0  0
    5.7699   49.5556   26.5313 O   0  0  0  0  0  0  0  0  0  0  0  0
    4.0282   45.1947   26.2265 C   0  0  0  0  0  0  0  0  0  0  0  0
    8.8122   40.1851   34.2127 O   0  0  0  0  0  0  0  0  0  0  0  0
   11.2406   40.7945   33.3670 O   0  0  0  0  0  0  0  0  0  0  0  0
   10.9134   40.6866   31.9954 C   0  0  0  0  0  0  0  0  0  0  0  0
   11.5167   39.3787   31.4404 C   0  0  0  0  0  0  0  0  0  0  0  0
   12.7486   39.0849   32.0735 O   0  0  0  0  0  0  0  0  0  0  0  0
   10.6039   38.1884   31.6669 C   0  0  0  0  0  0  0  0  0  0  0  0
   12.9329   37.6776   32.0284 C   0  0  0  0  0  0  0  0  0  0  0  0
    9.6374   38.0938   30.6484 O   0  0  0  0  0  0  0  0  0  0  0  0
   11.5737   37.0141   31.7055 C   0  0  0  0  0  0  0  0  0  0  0  0
   13.4853   37.2120   33.3238 N   0  0  0  0  0  0  0  0  0  0  0  0
   11.6210   36.3379   30.4683 O   0  0  0  0  0  0  0  0  0  0  0  0
   14.4804   36.3319   33.5726 C   0  0  0  0  0  0  0  0  0  0  0  0
   13.1140   37.6275   34.5689 C   0  0  0  0  0  0  0  0  0  0  0  0
   15.2076   35.6152   32.6740 N   0  0  0  0  0  0  0  0  0  0  0  0
   14.6761   36.2306   34.9181 C   0  0  0  0  0  0  0  0  0  0  0  0
   13.8218   37.0451   35.5783 N   0  0  0  0  0  0  0  0  0  0  0  0
   16.1642   34.7600   33.1548 C   0  0  0  0  0  0  0  0  0  0  0  0
   15.6527   35.3507   35.4131 C   0  0  0  0  0  0  0  0  0  0  0  0
   16.3795   34.6315   34.5043 N   0  0  0  0  0  0  0  0  0  0  0  0
   15.9001   35.1933   36.8090 N   0  0  0  0  0  0  0  0  0  0  0  0
    9.0120   45.4317   33.6710 H   0  0  0  0  0  0  0  0  0  0  0  0
   10.7260   46.9688   33.1214 H   0  0  0  0  0  0  0  0  0  0  0  0
   11.8908   45.7659   32.9474 H   0  0  0  0  0  0  0  0  0  0  0  0
   10.7236   44.8823   31.1556 H   0  0  0  0  0  0  0  0  0  0  0  0
    9.3426   43.8330   31.4756 H   0  0  0  0  0  0  0  0  0  0  0  0
    7.0098   44.7175   31.5849 H   0  0  0  0  0  0  0  0  0  0  0  0
   10.3459   47.1868   30.4110 H   0  0  0  0  0  0  0  0  0  0  0  0
    5.4658   46.2930   30.5260 H   0  0  0  0  0  0  0  0  0  0  0  0
    8.7936   48.7701   29.3426 H   0  0  0  0  0  0  0  0  0  0  0  0
    4.2723   48.2401   29.9655 H   0  0  0  0  0  0  0  0  0  0  0  0
    4.3658   49.3848   28.6124 H   0  0  0  0  0  0  0  0  0  0  0  0
    3.1369   46.2957   29.3037 H   0  0  0  0  0  0  0  0  0  0  0  0
    5.3598   46.1816   24.8745 H   0  0  0  0  0  0  0  0  0  0  0  0
    2.7245   44.4342   27.7559 H   0  0  0  0  0  0  0  0  0  0  0  0
    3.8468   44.3671   25.5529 H   0  0  0  0  0  0  0  0  0  0  0  0
    9.8225   40.7225   31.7631 H   0  0  0  0  0  0  0  0  0  0  0  0
   11.3828   41.5438   31.4669 H   0  0  0  0  0  0  0  0  0  0  0  0
   11.6978   39.5037   30.3478 H   0  0  0  0  0  0  0  0  0  0  0  0
   10.1084   38.2787   32.6627 H   0  0  0  0  0  0  0  0  0  0  0  0
   13.6638   37.4472   31.2214 H   0  0  0  0  0  0  0  0  0  0  0  0
    8.9763   37.4191   30.9532 H   0  0  0  0  0  0  0  0  0  0  0  0
   11.2821   36.3054   32.5172 H   0  0  0  0  0  0  0  0  0  0  0  0
   10.8658   35.6935   30.4652 H   0  0  0  0  0  0  0  0  0  0  0  0
   12.3293   38.3523   34.7444 H   0  0  0  0  0  0  0  0  0  0  0  0
   16.7561   34.1778   32.4621 H   0  0  0  0  0  0  0  0  0  0  0  0
   16.6345   34.5300   37.1416 H   0  0  0  0  0  0  0  0  0  0  0  0
   15.3533   35.7361   37.5138 H   0  0  0  0  0  0  0  0  0  0  0  0
  1  2  2  0
  1  3  1  0
  3  4  1  0
  4  5  1  0
  6  1  1  0
  7  6  1  0
  6  8  1  0
  8  9  1  0
  9 10  2  0
 11  9  1  0
 10 12  1  0
 13 11  2  0
 12 14  2  0
 14 13  1  0
 14 15  1  0
 15 16  1  0
 16 17  1  0
 17 18  2  0
 19 17  1  0
 18 20  1  0
 18 21  1  0
 22 19  2  0
 20 23  1  0
 20 24  2  0
 21 25  2  0
 25 22  1  0
  4 26  2  0
  4 27  1  0
 28 27  1  0
 28 29  1  0
 29 30  1  0
 29 31  1  0
 30 32  1  0
 31 33  1  0
 31 34  1  0
 34 32  1  0
 32 35  1  0
 34 36  1  0
 37 35  1  0
 38 35  1  0
 39 37  2  0
 37 40  1  0
 41 38  2  0
 42 39  1  0
 40 43  2  0
 40 41  1  0
 44 42  2  0
 44 43  1  0
 43 45  1  0
  6 46  1  1
  7 47  1  0
  7 48  1  0
  8 49  1  0
  8 50  1  0
 10 51  1  0
 11 52  1  0
 12 53  1  0
 13 54  1  0
 16 55  1  0
 16 56  1  0
 19 57  1  0
 21 58  1  0
 22 59  1  0
 25 60  1  0
 28 61  1  0
 28 62  1  0
 29 63  1  0
 31 64  1  0
 32 65  1  0
 33 66  1  0
 34 67  1  0
 36 68  1  0
 38 69  1  0
 42 70  1  0
 45 71  1  0
 45 72  1  0
M  CHG  3   5  -1  20   1  23  -1
M  END
>  <EmbedRMS>  (32) 
0.0825617003931

$$$$

     RDKit          3D

 72 76  0  0  0  0  0  0  0  0999 V2000
   10.2839   43.7626   33.8277 C   0  0  0  0  0  0  0  0  0  0  0  0
   11.4104   43.5863   34.3767 O   0  0  0  0  0  0  0  0  0  0  0  0
    9.3631   42.7236   33.7356 O   0  0  0  0  0  0  0  0  0  0  0  0
    9.8895   41.2249   34.2948 P   0  0  0  0  0  0  0  0  0  0  0  0
   10.3720   41.4547   35.8844 O   0  0  0  0  0  0  0  0  0  0  0  0
    9.9548   45.0699   33.2064 C   0  0  1  0  0  0  0  0  0  0  0  0
   11.0198   46.0480   33.4568 N   0  0  0  0  0  0  0  0  0  0  0  0
    9.7501   44.8507   31.6924 C   0  0  0  0  0  0  0  0  0  0  0  0
    8.7942   45.8417   31.0870 C   0  0  0  0  0  0  0  0  0  0  0  0
    7.4074   45.6012   31.1003 C   0  0  0  0  0  0  0  0  0  0  0  0
    9.2831   46.9891   30.4450 C   0  0  0  0  0  0  0  0  0  0  0  0
    6.5281   46.5022   30.4843 C   0  0  0  0  0  0  0  0  0  0  0  0
    8.4032   47.8898   29.8330 C   0  0  0  0  0  0  0  0  0  0  0  0
    7.0150   47.6516   29.8465 C   0  0  0  0  0  0  0  0  0  0  0  0
    6.0901   48.5184   29.2426 O   0  0  0  0  0  0  0  0  0  0  0  0
    6.4156   49.7060   28.5167 C   0  0  0  0  0  0  0  0  0  0  0  0
    7.1027   49.3850   27.2058 C   0  0  0  0  0  0  0  0  0  0  0  0
    8.1417   50.1940   26.6725 C   0  0  0  0  0  0  0  0  0  0  0  0
    6.6139   48.3106   26.4379 C   0  0  0  0  0  0  0  0  0  0  0  0
    8.6504   51.3386   27.3724 N   0  0  0  0  0  0  0  0  0  0  0  0
    8.6662   49.8951   25.4042 C   0  0  0  0  0  0  0  0  0  0  0  0
    7.1610   48.0187   25.1877 C   0  0  0  0  0  0  0  0  0  0  0  0
    8.8608   52.5119   26.6858 O   0  0  0  0  0  0  0  0  0  0  0  0
    9.1602   51.2052   28.5034 O   0  0  0  0  0  0  0  0  0  0  0  0
    8.1858   48.8091   24.6719 C   0  0  0  0  0  0  0  0  0  0  0  0
    8.8117   40.1831   34.2125 O   0  0  0  0  0  0  0  0  0  0  0  0
   11.2411   40.7939   33.3709 O   0  0  0  0  0  0  0  0  0  0  0  0
   10.9179   40.6919   31.9985 C   0  0  0  0  0  0  0  0  0  0  0  0
   11.5175   39.3837   31.4422 C   0  0  0  0  0  0  0  0  0  0  0  0
   12.7508   39.0887   32.0751 O   0  0  0  0  0  0  0  0  0  0  0  0
   10.6028   38.1915   31.6658 C   0  0  0  0  0  0  0  0  0  0  0  0
   12.9385   37.6818   32.0277 C   0  0  0  0  0  0  0  0  0  0  0  0
    9.6371   38.0805   30.6470 O   0  0  0  0  0  0  0  0  0  0  0  0
   11.5780   37.0215   31.6934 C   0  0  0  0  0  0  0  0  0  0  0  0
   13.4844   37.2119   33.3241 N   0  0  0  0  0  0  0  0  0  0  0  0
   11.6095   36.3201   30.4679 O   0  0  0  0  0  0  0  0  0  0  0  0
   14.4797   36.3318   33.5730 C   0  0  0  0  0  0  0  0  0  0  0  0
   13.1135   37.6278   34.5691 C   0  0  0  0  0  0  0  0  0  0  0  0
   15.2073   35.6155   32.6742 N   0  0  0  0  0  0  0  0  0  0  0  0
   14.6754   36.2305   34.9184 C   0  0  0  0  0  0  0  0  0  0  0  0
   13.8213   37.0452   35.5785 N   0  0  0  0  0  0  0  0  0  0  0  0
   16.1640   34.7604   33.1549 C   0  0  0  0  0  0  0  0  0  0  0  0
   15.6524   35.3507   35.4132 C   0  0  0  0  0  0  0  0  0  0  0  0
   16.3794   34.6318   34.5044 N   0  0  0  0  0  0  0  0  0  0  0  0
   15.9000   35.1934   36.8091 N   0  0  0  0  0  0  0  0  0  0  0  0
    9.0099   45.4348   33.6671 H   0  0  0  0  0  0  0  0  0  0  0  0
   11.1135   46.1992   34.4881 H   0  0  0  0  0  0  0  0  0  0  0  0
   11.9348   45.6932   33.0923 H   0  0  0  0  0  0  0  0  0  0  0  0
   10.7303   44.8921   31.1675 H   0  0  0  0  0  0  0  0  0  0  0  0
    9.3508   43.8342   31.4763 H   0  0  0  0  0  0  0  0  0  0  0  0
    7.0107   44.7161   31.5822 H   0  0  0  0  0  0  0  0  0  0  0  0
   10.3474   47.1882   30.4161 H   0  0  0  0  0  0  0  0  0  0  0  0
    5.4638   46.3045   30.5007 H   0  0  0  0  0  0  0  0  0  0  0  0
    8.8143   48.7627   29.3509 H   0  0  0  0  0  0  0  0  0  0  0  0
    6.9982   50.3846   29.1676 H   0  0  0  0  0  0  0  0  0  0  0  0
    5.4666   50.2303   28.2794 H   0  0  0  0  0  0  0  0  0  0  0  0
    5.7996   47.6981   26.8049 H   0  0  0  0  0  0  0  0  0  0  0  0
    9.4577   50.5040   24.9854 H   0  0  0  0  0  0  0  0  0  0  0  0
    6.7806   47.1844   24.6124 H   0  0  0  0  0  0  0  0  0  0  0  0
    8.6037   48.5854   23.6988 H   0  0  0  0  0  0  0  0  0  0  0  0
   11.3955   41.5477   31.4751 H   0  0  0  0  0  0  0  0  0  0  0  0
    9.8292   40.7409   31.7624 H   0  0  0  0  0  0  0  0  0  0  0  0
   11.6981   39.5116   30.3500 H   0  0  0  0  0  0  0  0  0  0  0  0
   10.1117   38.2603   32.6660 H   0  0  0  0  0  0  0  0  0  0  0  0
   13.6767   37.4555   31.2267 H   0  0  0  0  0  0  0  0  0  0  0  0
    8.8961   38.6951   30.8872 H   0  0  0  0  0  0  0  0  0  0  0  0
   11.2792   36.3072   32.4922 H   0  0  0  0  0  0  0  0  0  0  0  0
   11.8828   36.9597   29.7588 H   0  0  0  0  0  0  0  0  0  0  0  0
   12.3300   38.3538   34.7446 H   0  0  0  0  0  0  0  0  0  0  0  0
   16.7562   34.1785   32.4622 H   0  0  0  0  0  0  0  0  0  0  0  0
   16.6347   34.5303   37.1416 H   0  0  0  0  0  0  0  0  0  0  0  0
   15.3531   35.7360   37.5140 H   0  0  0  0  0  0  0  0  0  0  0  0
  1  2  2  0
  1  3  1  0
  3  4  1  0
  4  5  1  0
  6  1  1  0
  7  6  1  0
  6  8  1  0
  8  9  1  0
  9 10  2  0
 11  9  1  0
 10 12  1  0
 13 11  2  0
 12 14  2  0
 14 13  1  0
 14 15  1  0
 15 16  1  0
 16 17  1  0
 17 18  2  0
 19 17  1  0
 18 20  1  0
 18 21  1  0
 22 19  2  0
 20 23  1  0
 20 24  2  0
 21 25  2  0
 25 22  1  0
  4 26  2  0
  4 27  1  0
 28 27  1  0
 28 29  1  0
 29 30  1  0
 29 31  1  0
 30 32  1  0
 31 33  1  0
 31 34  1  0
 34 32  1  0
 32 35  1  0
 34 36  1  0
 37 35  1  0
 38 35  1  0
 39 37  2  0
 37 40  1  0
 41 38  2  0
 42 39  1  0
 40 43  2  0
 40 41  1  0
 44 42  2  0
 44 43  1  0
 43 45  1  0
  6 46  1  1
  7 47  1  0
  7 48  1  0
  8 49  1  0
  8 50  1  0
 10 51  1  0
 11 52  1  0
 12 53  1  0
 13 54  1  0
 16 55  1  0
 16 56  1  0
 19 57  1  0
 21 58  1  0
 22 59  1  0
 25 60  1  0
 28 61  1  0
 28 62  1  0
 29 63  1  0
 31 64  1  0
 32 65  1  0
 33 66  1  0
 34 67  1  0
 36 68  1  0
 38 69  1  0
 42 70  1  0
 45 71  1  0
 45 72  1  0
M  CHG  3   5  -1  20   1  23  -1
M  END
>  <EmbedRMS>  (33) 
0.0828793579733

$$$$

     RDKit          3D

 72 76  0  0  0  0  0  0  0  0999 V2000
   10.2835   43.7661   33.8256 C   0  0  0  0  0  0  0  0  0  0  0  0
   11.4102   43.5930   34.3753 O   0  0  0  0  0  0  0  0  0  0  0  0
    9.3639   42.7253   33.7347 O   0  0  0  0  0  0  0  0  0  0  0  0
    9.8907   41.2265   34.2938 P   0  0  0  0  0  0  0  0  0  0  0  0
   10.3733   41.4558   35.8835 O   0  0  0  0  0  0  0  0  0  0  0  0
    9.9546   45.0694   33.2034 C   0  0  1  0  0  0  0  0  0  0  0  0
   11.0273   46.0321   33.4755 N   0  0  0  0  0  0  0  0  0  0  0  0
    9.7466   44.8479   31.6875 C   0  0  0  0  0  0  0  0  0  0  0  0
    8.7924   45.8405   31.0840 C   0  0  0  0  0  0  0  0  0  0  0  0
    7.4055   45.6018   31.0995 C   0  0  0  0  0  0  0  0  0  0  0  0
    9.2822   46.9880   30.4427 C   0  0  0  0  0  0  0  0  0  0  0  0
    6.5267   46.5038   30.4849 C   0  0  0  0  0  0  0  0  0  0  0  0
    8.4030   47.8905   29.8328 C   0  0  0  0  0  0  0  0  0  0  0  0
    7.0143   47.6517   29.8453 C   0  0  0  0  0  0  0  0  0  0  0  0
    6.0896   48.5187   29.2418 O   0  0  0  0  0  0  0  0  0  0  0  0
    6.4210   49.6437   28.4265 C   0  0  0  0  0  0  0  0  0  0  0  0
    7.0267   49.2021   27.1132 C   0  0  0  0  0  0  0  0  0  0  0  0
    6.4047   48.2336   26.2800 C   0  0  0  0  0  0  0  0  0  0  0  0
    8.2663   49.7448   26.7271 C   0  0  0  0  0  0  0  0  0  0  0  0
    5.1249   47.6613   26.6053 N   0  0  0  0  0  0  0  0  0  0  0  0
    7.0643   47.8112   25.1111 C   0  0  0  0  0  0  0  0  0  0  0  0
    8.8955   49.3229   25.5555 C   0  0  0  0  0  0  0  0  0  0  0  0
    4.1150   48.4442   27.1140 O   0  0  0  0  0  0  0  0  0  0  0  0
    4.8645   46.4848   26.2784 O   0  0  0  0  0  0  0  0  0  0  0  0
    8.2986   48.3539   24.7522 C   0  0  0  0  0  0  0  0  0  0  0  0
    8.8126   40.1847   34.2122 O   0  0  0  0  0  0  0  0  0  0  0  0
   11.2418   40.7943   33.3694 O   0  0  0  0  0  0  0  0  0  0  0  0
   10.9179   40.6904   31.9970 C   0  0  0  0  0  0  0  0  0  0  0  0
   11.5181   39.3814   31.4408 C   0  0  0  0  0  0  0  0  0  0  0  0
   12.7497   39.0870   32.0745 O   0  0  0  0  0  0  0  0  0  0  0  0
   10.6045   38.1891   31.6655 C   0  0  0  0  0  0  0  0  0  0  0  0
   12.9344   37.6801   32.0290 C   0  0  0  0  0  0  0  0  0  0  0  0
    9.6418   38.0758   30.6441 O   0  0  0  0  0  0  0  0  0  0  0  0
   11.5741   37.0170   31.7045 C   0  0  0  0  0  0  0  0  0  0  0  0
   13.4851   37.2125   33.3241 N   0  0  0  0  0  0  0  0  0  0  0  0
   11.6079   36.3407   30.4680 O   0  0  0  0  0  0  0  0  0  0  0  0
   14.4801   36.3321   33.5727 C   0  0  0  0  0  0  0  0  0  0  0  0
   13.1140   37.6277   34.5693 C   0  0  0  0  0  0  0  0  0  0  0  0
   15.2073   35.6155   32.6739 N   0  0  0  0  0  0  0  0  0  0  0  0
   14.6758   36.2306   34.9182 C   0  0  0  0  0  0  0  0  0  0  0  0
   13.8217   37.0451   35.5785 N   0  0  0  0  0  0  0  0  0  0  0  0
   16.1639   34.7602   33.1546 C   0  0  0  0  0  0  0  0  0  0  0  0
   15.6526   35.3506   35.4130 C   0  0  0  0  0  0  0  0  0  0  0  0
   16.3794   34.6316   34.5041 N   0  0  0  0  0  0  0  0  0  0  0  0
   15.9001   35.1933   36.8089 N   0  0  0  0  0  0  0  0  0  0  0  0
    9.0120   45.4316   33.6712 H   0  0  0  0  0  0  0  0  0  0  0  0
   11.8905   45.7659   32.9468 H   0  0  0  0  0  0  0  0  0  0  0  0
   10.7258   46.9687   33.1213 H   0  0  0  0  0  0  0  0  0  0  0  0
    9.3415   43.8328   31.4761 H   0  0  0  0  0  0  0  0  0  0  0  0
   10.7230   44.8813   31.1555 H   0  0  0  0  0  0  0  0  0  0  0  0
    7.0082   44.7171   31.5818 H   0  0  0  0  0  0  0  0  0  0  0  0
   10.3466   47.1864   30.4142 H   0  0  0  0  0  0  0  0  0  0  0  0
    5.4622   46.3071   30.5017 H   0  0  0  0  0  0  0  0  0  0  0  0
    8.8155   48.7693   29.3599 H   0  0  0  0  0  0  0  0  0  0  0  0
    5.4971   50.2210   28.2194 H   0  0  0  0  0  0  0  0  0  0  0  0
    7.0922   50.3281   28.9894 H   0  0  0  0  0  0  0  0  0  0  0  0
    8.7567   50.4897   27.3416 H   0  0  0  0  0  0  0  0  0  0  0  0
    6.6119   47.0694   24.4651 H   0  0  0  0  0  0  0  0  0  0  0  0
    9.8518   49.7443   25.2735 H   0  0  0  0  0  0  0  0  0  0  0  0
    8.7909   48.0253   23.8459 H   0  0  0  0  0  0  0  0  0  0  0  0
   11.3946   41.5459   31.4722 H   0  0  0  0  0  0  0  0  0  0  0  0
    9.8290   40.7386   31.7617 H   0  0  0  0  0  0  0  0  0  0  0  0
   11.6994   39.5069   30.3484 H   0  0  0  0  0  0  0  0  0  0  0  0
   10.1090   38.2635   32.6632 H   0  0  0  0  0  0  0  0  0  0  0  0
   13.6662   37.4515   31.2224 H   0  0  0  0  0  0  0  0  0  0  0  0
    8.9009   38.6925   30.8793 H   0  0  0  0  0  0  0  0  0  0  0  0
   11.2650   36.3083   32.5087 H   0  0  0  0  0  0  0  0  0  0  0  0
   12.1372   35.5140   30.6163 H   0  0  0  0  0  0  0  0  0  0  0  0
   12.3297   38.3530   34.7450 H   0  0  0  0  0  0  0  0  0  0  0  0
   16.7558   34.1781   32.4619 H   0  0  0  0  0  0  0  0  0  0  0  0
   16.6346   34.5300   37.1414 H   0  0  0  0  0  0  0  0  0  0  0  0
   15.3533   35.7360   37.5138 H   0  0  0  0  0  0  0  0  0  0  0  0
  1  2  2  0
  1  3  1  0
  3  4  1  0
  4  5  1  0
  6  1  1  0
  7  6  1  0
  6  8  1  0
  8  9  1  0
  9 10  2  0
 11  9  1  0
 10 12  1  0
 13 11  2  0
 12 14  2  0
 14 13  1  0
 14 15  1  0
 15 16  1  0
 16 17  1  0
 17 18  2  0
 19 17  1  0
 18 20  1  0
 18 21  1  0
 22 19  2  0
 20 23  1  0
 20 24  2  0
 21 25  2  0
 25 22  1  0
  4 26  2  0
  4 27  1  0
 28 27  1  0
 28 29  1  0
 29 30  1  0
 29 31  1  0
 30 32  1  0
 31 33  1  0
 31 34  1  0
 34 32  1  0
 32 35  1  0
 34 36  1  0
 37 35  1  0
 38 35  1  0
 39 37  2  0
 37 40  1  0
 41 38  2  0
 42 39  1  0
 40 43  2  0
 40 41  1  0
 44 42  2  0
 44 43  1  0
 43 45  1  0
  6 46  1  1
  7 47  1  0
  7 48  1  0
  8 49  1  0
  8 50  1  0
 10 51  1  0
 11 52  1  0
 12 53  1  0
 13 54  1  0
 16 55  1  0
 16 56  1  0
 19 57  1  0
 21 58  1  0
 22 59  1  0
 25 60  1  0
 28 61  1  0
 28 62  1  0
 29 63  1  0
 31 64  1  0
 32 65  1  0
 33 66  1  0
 34 67  1  0
 36 68  1  0
 38 69  1  0
 42 70  1  0
 45 71  1  0
 45 72  1  0
M  CHG  3   5  -1  20   1  23  -1
M  END
>  <EmbedRMS>  (34) 
0.0828454528593

$$$$

     RDKit          3D

 72 76  0  0  0  0  0  0  0  0999 V2000
   10.2834   43.7662   33.8257 C   0  0  0  0  0  0  0  0  0  0  0  0
   11.4102   43.5930   34.3752 O   0  0  0  0  0  0  0  0  0  0  0  0
    9.3635   42.7257   33.7352 O   0  0  0  0  0  0  0  0  0  0  0  0
    9.8899   41.2270   34.2947 P   0  0  0  0  0  0  0  0  0  0  0  0
   10.3732   41.4563   35.8841 O   0  0  0  0  0  0  0  0  0  0  0  0
    9.9548   45.0696   33.2035 C   0  0  1  0  0  0  0  0  0  0  0  0
   11.0274   46.0322   33.4758 N   0  0  0  0  0  0  0  0  0  0  0  0
    9.7470   44.8484   31.6875 C   0  0  0  0  0  0  0  0  0  0  0  0
    8.7924   45.8409   31.0843 C   0  0  0  0  0  0  0  0  0  0  0  0
    7.4055   45.6010   31.0995 C   0  0  0  0  0  0  0  0  0  0  0  0
    9.2818   46.9881   30.4421 C   0  0  0  0  0  0  0  0  0  0  0  0
    6.5241   46.5012   30.4849 C   0  0  0  0  0  0  0  0  0  0  0  0
    8.4006   47.8886   29.8323 C   0  0  0  0  0  0  0  0  0  0  0  0
    7.0191   47.6560   29.8458 C   0  0  0  0  0  0  0  0  0  0  0  0
    6.1805   48.5873   29.2167 O   0  0  0  0  0  0  0  0  0  0  0  0
    4.7620   48.4705   29.1344 C   0  0  0  0  0  0  0  0  0  0  0  0
    4.2034   49.6254   28.3410 C   0  0  0  0  0  0  0  0  0  0  0  0
    4.6421   49.9184   27.0208 C   0  0  0  0  0  0  0  0  0  0  0  0
    3.2469   50.4611   28.9476 C   0  0  0  0  0  0  0  0  0  0  0  0
    5.6148   49.1016   26.3423 N   0  0  0  0  0  0  0  0  0  0  0  0
    4.1267   51.0517   26.3645 C   0  0  0  0  0  0  0  0  0  0  0  0
    2.7386   51.5710   28.2720 C   0  0  0  0  0  0  0  0  0  0  0  0
    5.5811   47.7309   26.4489 O   0  0  0  0  0  0  0  0  0  0  0  0
    6.4019   49.6185   25.5225 O   0  0  0  0  0  0  0  0  0  0  0  0
    3.1802   51.8678   26.9847 C   0  0  0  0  0  0  0  0  0  0  0  0
    8.8120   40.1850   34.2133 O   0  0  0  0  0  0  0  0  0  0  0  0
   11.2403   40.7947   33.3700 O   0  0  0  0  0  0  0  0  0  0  0  0
   10.9144   40.6914   31.9982 C   0  0  0  0  0  0  0  0  0  0  0  0
   11.5270   39.3912   31.4385 C   0  0  0  0  0  0  0  0  0  0  0  0
   12.7520   39.0911   32.0836 O   0  0  0  0  0  0  0  0  0  0  0  0
   10.6113   38.1932   31.6451 C   0  0  0  0  0  0  0  0  0  0  0  0
   12.9413   37.6838   32.0297 C   0  0  0  0  0  0  0  0  0  0  0  0
    9.6064   38.0878   30.6599 O   0  0  0  0  0  0  0  0  0  0  0  0
   11.5822   37.0197   31.6877 C   0  0  0  0  0  0  0  0  0  0  0  0
   13.4840   37.2104   33.3254 N   0  0  0  0  0  0  0  0  0  0  0  0
   11.6179   36.3072   30.4690 O   0  0  0  0  0  0  0  0  0  0  0  0
   14.4797   36.3309   33.5738 C   0  0  0  0  0  0  0  0  0  0  0  0
   13.1137   37.6269   34.5702 C   0  0  0  0  0  0  0  0  0  0  0  0
   15.2074   35.6152   32.6747 N   0  0  0  0  0  0  0  0  0  0  0  0
   14.6756   36.2298   34.9190 C   0  0  0  0  0  0  0  0  0  0  0  0
   13.8217   37.0445   35.5793 N   0  0  0  0  0  0  0  0  0  0  0  0
   16.1643   34.7603   33.1551 C   0  0  0  0  0  0  0  0  0  0  0  0
   15.6528   35.3503   35.4136 C   0  0  0  0  0  0  0  0  0  0  0  0
   16.3798   34.6316   34.5046 N   0  0  0  0  0  0  0  0  0  0  0  0
   15.9004   35.1930   36.8094 N   0  0  0  0  0  0  0  0  0  0  0  0
    9.0121   45.4318   33.6712 H   0  0  0  0  0  0  0  0  0  0  0  0
   11.8908   45.7658   32.9475 H   0  0  0  0  0  0  0  0  0  0  0  0
   10.7262   46.9688   33.1214 H   0  0  0  0  0  0  0  0  0  0  0  0
   10.7235   44.8824   31.1557 H   0  0  0  0  0  0  0  0  0  0  0  0
    9.3424   43.8331   31.4758 H   0  0  0  0  0  0  0  0  0  0  0  0
    7.0098   44.7158   31.5823 H   0  0  0  0  0  0  0  0  0  0  0  0
   10.3461   47.1863   30.4103 H   0  0  0  0  0  0  0  0  0  0  0  0
    5.4642   46.2893   30.5137 H   0  0  0  0  0  0  0  0  0  0  0  0
    8.7936   48.7703   29.3420 H   0  0  0  0  0  0  0  0  0  0  0  0
    4.4791   47.5152   28.6451 H   0  0  0  0  0  0  0  0  0  0  0  0
    4.3415   48.4557   30.1638 H   0  0  0  0  0  0  0  0  0  0  0  0
    2.8961   50.2597   29.9524 H   0  0  0  0  0  0  0  0  0  0  0  0
    4.4492   51.2965   25.3603 H   0  0  0  0  0  0  0  0  0  0  0  0
    2.0045   52.2061   28.7510 H   0  0  0  0  0  0  0  0  0  0  0  0
    2.7871   52.7318   26.4645 H   0  0  0  0  0  0  0  0  0  0  0  0
   11.3777   41.5549   31.4744 H   0  0  0  0  0  0  0  0  0  0  0  0
    9.8235   40.7201   31.7654 H   0  0  0  0  0  0  0  0  0  0  0  0
   11.7311   39.5363   30.3532 H   0  0  0  0  0  0  0  0  0  0  0  0
   10.1203   38.2696   32.6410 H   0  0  0  0  0  0  0  0  0  0  0  0
   13.6850   37.4639   31.2321 H   0  0  0  0  0  0  0  0  0  0  0  0
   10.0251   38.1793   29.7654 H   0  0  0  0  0  0  0  0  0  0  0  0
   11.2757   36.3135   32.4907 H   0  0  0  0  0  0  0  0  0  0  0  0
   11.9838   36.9111   29.7708 H   0  0  0  0  0  0  0  0  0  0  0  0
   12.3307   38.3536   34.7457 H   0  0  0  0  0  0  0  0  0  0  0  0
   16.7566   34.1787   32.4623 H   0  0  0  0  0  0  0  0  0  0  0  0
   15.3535   35.7355   37.5144 H   0  0  0  0  0  0  0  0  0  0  0  0
   16.6353   34.5301   37.1419 H   0  0  0  0  0  0  0  0  0  0  0  0
  1  2  2  0
  1  3  1  0
  3  4  1  0
  4  5  1  0
  6  1  1  0
  7  6  1  0
  6  8  1  0
  8  9  1  0
  9 10  2  0
 11  9  1  0
 10 12  1  0
 13 11  2  0
 12 14  2  0
 14 13  1  0
 14 15  1  0
 15 16  1  0
 16 17  1  0
 17 18  2  0
 19 17  1  0
 18 20  1  0
 18 21  1  0
 22 19  2  0
 20 23  1  0
 20 24  2  0
 21 25  2  0
 25 22  1  0
  4 26  2  0
  4 27  1  0
 28 27  1  0
 28 29  1  0
 29 30  1  0
 29 31  1  0
 30 32  1  0
 31 33  1  0
 31 34  1  0
 34 32  1  0
 32 35  1  0
 34 36  1  0
 37 35  1  0
 38 35  1  0
 39 37  2  0
 37 40  1  0
 41 38  2  0
 42 39  1  0
 40 43  2  0
 40 41  1  0
 44 42  2  0
 44 43  1  0
 43 45  1  0
  6 46  1  1
  7 47  1  0
  7 48  1  0
  8 49  1  0
  8 50  1  0
 10 51  1  0
 11 52  1  0
 12 53  1  0
 13 54  1  0
 16 55  1  0
 16 56  1  0
 19 57  1  0
 21 58  1  0
 22 59  1  0
 25 60  1  0
 28 61  1  0
 28 62  1  0
 29 63  1  0
 31 64  1  0
 32 65  1  0
 33 66  1  0
 34 67  1  0
 36 68  1  0
 38 69  1  0
 42 70  1  0
 45 71  1  0
 45 72  1  0
M  CHG  3   5  -1  20   1  23  -1
M  END
>  <EmbedRMS>  (35) 
0.0808177808809

$$$$

     RDKit          3D

 72 76  0  0  0  0  0  0  0  0999 V2000
   10.2804   43.7665   33.8251 C   0  0  0  0  0  0  0  0  0  0  0  0
   11.4111   43.5918   34.3666 O   0  0  0  0  0  0  0  0  0  0  0  0
    9.3616   42.7252   33.7348 O   0  0  0  0  0  0  0  0  0  0  0  0
    9.8898   41.2268   34.2939 P   0  0  0  0  0  0  0  0  0  0  0  0
   10.3738   41.4565   35.8831 O   0  0  0  0  0  0  0  0  0  0  0  0
    9.9460   45.0737   33.2115 C   0  0  1  0  0  0  0  0  0  0  0  0
   11.0267   46.0293   33.4711 N   0  0  0  0  0  0  0  0  0  0  0  0
    9.7539   44.8544   31.6952 C   0  0  0  0  0  0  0  0  0  0  0  0
    8.7956   45.8418   31.0858 C   0  0  0  0  0  0  0  0  0  0  0  0
    7.4091   45.5998   31.1001 C   0  0  0  0  0  0  0  0  0  0  0  0
    9.2825   46.9874   30.4387 C   0  0  0  0  0  0  0  0  0  0  0  0
    6.5263   46.4981   30.4840 C   0  0  0  0  0  0  0  0  0  0  0  0
    8.3997   47.8858   29.8288 C   0  0  0  0  0  0  0  0  0  0  0  0
    7.0175   47.6569   29.8507 C   0  0  0  0  0  0  0  0  0  0  0  0
    6.1814   48.5947   29.2249 O   0  0  0  0  0  0  0  0  0  0  0  0
    4.7699   48.7116   29.4102 C   0  0  0  0  0  0  0  0  0  0  0  0
    4.4505   49.2559   30.7842 C   0  0  0  0  0  0  0  0  0  0  0  0
    4.6590   50.6207   31.1276 C   0  0  0  0  0  0  0  0  0  0  0  0
    3.8725   48.3922   31.7339 C   0  0  0  0  0  0  0  0  0  0  0  0
    5.1797   51.5774   30.1850 N   0  0  0  0  0  0  0  0  0  0  0  0
    4.2994   51.0643   32.4142 C   0  0  0  0  0  0  0  0  0  0  0  0
    3.5353   48.8521   33.0068 C   0  0  0  0  0  0  0  0  0  0  0  0
    6.2100   51.2484   29.3366 O   0  0  0  0  0  0  0  0  0  0  0  0
    4.8055   52.7676   30.2345 O   0  0  0  0  0  0  0  0  0  0  0  0
    3.7513   50.1846   33.3475 C   0  0  0  0  0  0  0  0  0  0  0  0
    8.8122   40.1845   34.2134 O   0  0  0  0  0  0  0  0  0  0  0  0
   11.2400   40.7954   33.3680 O   0  0  0  0  0  0  0  0  0  0  0  0
   10.9124   40.6877   31.9967 C   0  0  0  0  0  0  0  0  0  0  0  0
   11.5169   39.3811   31.4420 C   0  0  0  0  0  0  0  0  0  0  0  0
   12.7500   39.0881   32.0760 O   0  0  0  0  0  0  0  0  0  0  0  0
   10.6043   38.1893   31.6659 C   0  0  0  0  0  0  0  0  0  0  0  0
   12.9395   37.6814   32.0280 C   0  0  0  0  0  0  0  0  0  0  0  0
    9.6353   38.0951   30.6499 O   0  0  0  0  0  0  0  0  0  0  0  0
   11.5804   37.0191   31.6934 C   0  0  0  0  0  0  0  0  0  0  0  0
   13.4851   37.2119   33.3244 N   0  0  0  0  0  0  0  0  0  0  0  0
   11.6118   36.3189   30.4673 O   0  0  0  0  0  0  0  0  0  0  0  0
   14.4801   36.3316   33.5732 C   0  0  0  0  0  0  0  0  0  0  0  0
   13.1139   37.6277   34.5692 C   0  0  0  0  0  0  0  0  0  0  0  0
   15.2076   35.6154   32.6744 N   0  0  0  0  0  0  0  0  0  0  0  0
   14.6756   36.2303   34.9186 C   0  0  0  0  0  0  0  0  0  0  0  0
   13.8215   37.0451   35.5786 N   0  0  0  0  0  0  0  0  0  0  0  0
   16.1642   34.7602   33.1551 C   0  0  0  0  0  0  0  0  0  0  0  0
   15.6526   35.3505   35.4134 C   0  0  0  0  0  0  0  0  0  0  0  0
   16.3796   34.6316   34.5045 N   0  0  0  0  0  0  0  0  0  0  0  0
   15.9001   35.1933   36.8093 N   0  0  0  0  0  0  0  0  0  0  0  0
    8.9996   45.4383   33.6725 H   0  0  0  0  0  0  0  0  0  0  0  0
   11.0503   46.2278   34.4985 H   0  0  0  0  0  0  0  0  0  0  0  0
   10.7765   46.9370   33.0161 H   0  0  0  0  0  0  0  0  0  0  0  0
    9.3643   43.8358   31.4713 H   0  0  0  0  0  0  0  0  0  0  0  0
   10.7410   44.9082   31.1838 H   0  0  0  0  0  0  0  0  0  0  0  0
    7.0154   44.7113   31.5783 H   0  0  0  0  0  0  0  0  0  0  0  0
   10.3464   47.1867   30.4034 H   0  0  0  0  0  0  0  0  0  0  0  0
    5.4732   46.2660   30.4899 H   0  0  0  0  0  0  0  0  0  0  0  0
    8.7916   48.7676   29.3379 H   0  0  0  0  0  0  0  0  0  0  0  0
    4.3626   49.4043   28.6443 H   0  0  0  0  0  0  0  0  0  0  0  0
    4.2791   47.7326   29.2242 H   0  0  0  0  0  0  0  0  0  0  0  0
    3.6680   47.3584   31.4889 H   0  0  0  0  0  0  0  0  0  0  0  0
    4.4506   52.0982   32.6984 H   0  0  0  0  0  0  0  0  0  0  0  0
    3.0970   48.1744   33.7281 H   0  0  0  0  0  0  0  0  0  0  0  0
    3.4847   50.5401   34.3345 H   0  0  0  0  0  0  0  0  0  0  0  0
   11.3806   41.5456   31.4683 H   0  0  0  0  0  0  0  0  0  0  0  0
    9.8214   40.7221   31.7644 H   0  0  0  0  0  0  0  0  0  0  0  0
   11.6986   39.5088   30.3499 H   0  0  0  0  0  0  0  0  0  0  0  0
   10.1109   38.2737   32.6630 H   0  0  0  0  0  0  0  0  0  0  0  0
   13.6783   37.4562   31.2271 H   0  0  0  0  0  0  0  0  0  0  0  0
    9.0020   37.3860   30.9348 H   0  0  0  0  0  0  0  0  0  0  0  0
   11.2808   36.3052   32.4921 H   0  0  0  0  0  0  0  0  0  0  0  0
   11.8818   36.9600   29.7584 H   0  0  0  0  0  0  0  0  0  0  0  0
   12.3303   38.3538   34.7446 H   0  0  0  0  0  0  0  0  0  0  0  0
   16.7563   34.1783   32.4623 H   0  0  0  0  0  0  0  0  0  0  0  0
   16.6348   34.5301   37.1418 H   0  0  0  0  0  0  0  0  0  0  0  0
   15.3532   35.7359   37.5142 H   0  0  0  0  0  0  0  0  0  0  0  0
  1  2  2  0
  1  3  1  0
  3  4  1  0
  4  5  1  0
  6  1  1  0
  7  6  1  0
  6  8  1  0
  8  9  1  0
  9 10  2  0
 11  9  1  0
 10 12  1  0
 13 11  2  0
 12 14  2  0
 14 13  1  0
 14 15  1  0
 15 16  1  0
 16 17  1  0
 17 18  2  0
 19 17  1  0
 18 20  1  0
 18 21  1  0
 22 19  2  0
 20 23  1  0
 20 24  2  0
 21 25  2  0
 25 22  1  0
  4 26  2  0
  4 27  1  0
 28 27  1  0
 28 29  1  0
 29 30  1  0
 29 31  1  0
 30 32  1  0
 31 33  1  0
 31 34  1  0
 34 32  1  0
 32 35  1  0
 34 36  1  0
 37 35  1  0
 38 35  1  0
 39 37  2  0
 37 40  1  0
 41 38  2  0
 42 39  1  0
 40 43  2  0
 40 41  1  0
 44 42  2  0
 44 43  1  0
 43 45  1  0
  6 46  1  1
  7 47  1  0
  7 48  1  0
  8 49  1  0
  8 50  1  0
 10 51  1  0
 11 52  1  0
 12 53  1  0
 13 54  1  0
 16 55  1  0
 16 56  1  0
 19 57  1  0
 21 58  1  0
 22 59  1  0
 25 60  1  0
 28 61  1  0
 28 62  1  0
 29 63  1  0
 31 64  1  0
 32 65  1  0
 33 66  1  0
 34 67  1  0
 36 68  1  0
 38 69  1  0
 42 70  1  0
 45 71  1  0
 45 72  1  0
M  CHG  3   5  -1  20   1  23  -1
M  END
>  <EmbedRMS>  (36) 
0.0813746081779

$$$$

     RDKit          3D

 72 76  0  0  0  0  0  0  0  0999 V2000
   10.2805   43.7663   33.8249 C   0  0  0  0  0  0  0  0  0  0  0  0
   11.4111   43.5919   34.3667 O   0  0  0  0  0  0  0  0  0  0  0  0
    9.3622   42.7247   33.7343 O   0  0  0  0  0  0  0  0  0  0  0  0
    9.8904   41.2264   34.2936 P   0  0  0  0  0  0  0  0  0  0  0  0
   10.3732   41.4564   35.8832 O   0  0  0  0  0  0  0  0  0  0  0  0
    9.9459   45.0735   33.2111 C   0  0  1  0  0  0  0  0  0  0  0  0
   11.0266   46.0291   33.4705 N   0  0  0  0  0  0  0  0  0  0  0  0
    9.7536   44.8537   31.6948 C   0  0  0  0  0  0  0  0  0  0  0  0
    8.7955   45.8408   31.0844 C   0  0  0  0  0  0  0  0  0  0  0  0
    7.4086   45.6008   31.1012 C   0  0  0  0  0  0  0  0  0  0  0  0
    9.2829   46.9879   30.4402 C   0  0  0  0  0  0  0  0  0  0  0  0
    6.5281   46.5017   30.4864 C   0  0  0  0  0  0  0  0  0  0  0  0
    8.4022   47.8897   29.8315 C   0  0  0  0  0  0  0  0  0  0  0  0
    7.0139   47.6498   29.8458 C   0  0  0  0  0  0  0  0  0  0  0  0
    6.0875   48.5159   29.2434 O   0  0  0  0  0  0  0  0  0  0  0  0
    6.4162   49.6391   28.4245 C   0  0  0  0  0  0  0  0  0  0  0  0
    7.0144   49.1936   27.1088 C   0  0  0  0  0  0  0  0  0  0  0  0
    6.3774   48.2374   26.2706 C   0  0  0  0  0  0  0  0  0  0  0  0
    8.2611   49.7203   26.7237 C   0  0  0  0  0  0  0  0  0  0  0  0
    5.0899   47.6783   26.5887 N   0  0  0  0  0  0  0  0  0  0  0  0
    7.0310   47.8099   25.1012 C   0  0  0  0  0  0  0  0  0  0  0  0
    8.8838   49.2937   25.5504 C   0  0  0  0  0  0  0  0  0  0  0  0
    4.7752   46.4028   26.1793 O   0  0  0  0  0  0  0  0  0  0  0  0
    4.1905   48.3877   27.0837 O   0  0  0  0  0  0  0  0  0  0  0  0
    8.2730   48.3360   24.7440 C   0  0  0  0  0  0  0  0  0  0  0  0
    8.8129   40.1841   34.2124 O   0  0  0  0  0  0  0  0  0  0  0  0
   11.2419   40.7944   33.3695 O   0  0  0  0  0  0  0  0  0  0  0  0
   10.9186   40.6911   31.9969 C   0  0  0  0  0  0  0  0  0  0  0  0
   11.5172   39.3814   31.4407 C   0  0  0  0  0  0  0  0  0  0  0  0
   12.7492   39.0856   32.0729 O   0  0  0  0  0  0  0  0  0  0  0  0
   10.6023   38.1908   31.6665 C   0  0  0  0  0  0  0  0  0  0  0  0
   12.9319   37.6781   32.0281 C   0  0  0  0  0  0  0  0  0  0  0  0
    9.6392   38.0797   30.6452 O   0  0  0  0  0  0  0  0  0  0  0  0
   11.5715   37.0165   31.7056 C   0  0  0  0  0  0  0  0  0  0  0  0
   13.4847   37.2121   33.3235 N   0  0  0  0  0  0  0  0  0  0  0  0
   11.6187   36.3384   30.4695 O   0  0  0  0  0  0  0  0  0  0  0  0
   14.4801   36.3321   33.5724 C   0  0  0  0  0  0  0  0  0  0  0  0
   13.1137   37.6275   34.5688 C   0  0  0  0  0  0  0  0  0  0  0  0
   15.2073   35.6153   32.6738 N   0  0  0  0  0  0  0  0  0  0  0  0
   14.6759   36.2308   34.9179 C   0  0  0  0  0  0  0  0  0  0  0  0
   13.8216   37.0452   35.5781 N   0  0  0  0  0  0  0  0  0  0  0  0
   16.1640   34.7602   33.1546 C   0  0  0  0  0  0  0  0  0  0  0  0
   15.6526   35.3508   35.4129 C   0  0  0  0  0  0  0  0  0  0  0  0
   16.3794   34.6317   34.5041 N   0  0  0  0  0  0  0  0  0  0  0  0
   15.8999   35.1934   36.8088 N   0  0  0  0  0  0  0  0  0  0  0  0
    8.9995   45.4380   33.6721 H   0  0  0  0  0  0  0  0  0  0  0  0
   10.7762   46.9368   33.0156 H   0  0  0  0  0  0  0  0  0  0  0  0
   11.0503   46.2276   34.4979 H   0  0  0  0  0  0  0  0  0  0  0  0
   10.7407   44.9069   31.1833 H   0  0  0  0  0  0  0  0  0  0  0  0
    9.3637   43.8351   31.4713 H   0  0  0  0  0  0  0  0  0  0  0  0
    7.0130   44.7166   31.5857 H   0  0  0  0  0  0  0  0  0  0  0  0
   10.3469   47.1879   30.4092 H   0  0  0  0  0  0  0  0  0  0  0  0
    5.4638   46.3040   30.5047 H   0  0  0  0  0  0  0  0  0  0  0  0
    8.8134   48.7687   29.3579 H   0  0  0  0  0  0  0  0  0  0  0  0
    7.0910   50.3238   28.9826 H   0  0  0  0  0  0  0  0  0  0  0  0
    5.4915   50.2168   28.2209 H   0  0  0  0  0  0  0  0  0  0  0  0
    8.7624   50.4561   27.3404 H   0  0  0  0  0  0  0  0  0  0  0  0
    6.5683   47.0774   24.4520 H   0  0  0  0  0  0  0  0  0  0  0  0
    9.8458   49.7025   25.2693 H   0  0  0  0  0  0  0  0  0  0  0  0
    8.7603   48.0036   23.8365 H   0  0  0  0  0  0  0  0  0  0  0  0
   11.3967   41.5459   31.4726 H   0  0  0  0  0  0  0  0  0  0  0  0
    9.8298   40.7409   31.7611 H   0  0  0  0  0  0  0  0  0  0  0  0
   11.6975   39.5066   30.3481 H   0  0  0  0  0  0  0  0  0  0  0  0
   10.1076   38.2647   32.6645 H   0  0  0  0  0  0  0  0  0  0  0  0
   13.6621   37.4468   31.2209 H   0  0  0  0  0  0  0  0  0  0  0  0
    8.8974   38.6943   30.8832 H   0  0  0  0  0  0  0  0  0  0  0  0
   11.2806   36.3073   32.5170 H   0  0  0  0  0  0  0  0  0  0  0  0
   10.8493   35.7110   30.4586 H   0  0  0  0  0  0  0  0  0  0  0  0
   12.3290   38.3524   34.7444 H   0  0  0  0  0  0  0  0  0  0  0  0
   16.7559   34.1780   32.4619 H   0  0  0  0  0  0  0  0  0  0  0  0
   16.6344   34.5301   37.1414 H   0  0  0  0  0  0  0  0  0  0  0  0
   15.3532   35.7362   37.5137 H   0  0  0  0  0  0  0  0  0  0  0  0
  1  2  2  0
  1  3  1  0
  3  4  1  0
  4  5  1  0
  6  1  1  0
  7  6  1  0
  6  8  1  0
  8  9  1  0
  9 10  2  0
 11  9  1  0
 10 12  1  0
 13 11  2  0
 12 14  2  0
 14 13  1  0
 14 15  1  0
 15 16  1  0
 16 17  1  0
 17 18  2  0
 19 17  1  0
 18 20  1  0
 18 21  1  0
 22 19  2  0
 20 23  1  0
 20 24  2  0
 21 25  2  0
 25 22  1  0
  4 26  2  0
  4 27  1  0
 28 27  1  0
 28 29  1  0
 29 30  1  0
 29 31  1  0
 30 32  1  0
 31 33  1  0
 31 34  1  0
 34 32  1  0
 32 35  1  0
 34 36  1  0
 37 35  1  0
 38 35  1  0
 39 37  2  0
 37 40  1  0
 41 38  2  0
 42 39  1  0
 40 43  2  0
 40 41  1  0
 44 42  2  0
 44 43  1  0
 43 45  1  0
  6 46  1  1
  7 47  1  0
  7 48  1  0
  8 49  1  0
  8 50  1  0
 10 51  1  0
 11 52  1  0
 12 53  1  0
 13 54  1  0
 16 55  1  0
 16 56  1  0
 19 57  1  0
 21 58  1  0
 22 59  1  0
 25 60  1  0
 28 61  1  0
 28 62  1  0
 29 63  1  0
 31 64  1  0
 32 65  1  0
 33 66  1  0
 34 67  1  0
 36 68  1  0
 38 69  1  0
 42 70  1  0
 45 71  1  0
 45 72  1  0
M  CHG  3   5  -1  20   1  23  -1
M  END
>  <EmbedRMS>  (37) 
0.0827813973735

$$$$

     RDKit          3D

 72 76  0  0  0  0  0  0  0  0999 V2000
   10.2834   43.7662   33.8256 C   0  0  0  0  0  0  0  0  0  0  0  0
   11.4102   43.5930   34.3752 O   0  0  0  0  0  0  0  0  0  0  0  0
    9.3637   42.7255   33.7348 O   0  0  0  0  0  0  0  0  0  0  0  0
    9.8907   41.2265   34.2933 P   0  0  0  0  0  0  0  0  0  0  0  0
   10.3743   41.4557   35.8827 O   0  0  0  0  0  0  0  0  0  0  0  0
    9.9546   45.0694   33.2034 C   0  0  1  0  0  0  0  0  0  0  0  0
   11.0273   46.0321   33.4756 N   0  0  0  0  0  0  0  0  0  0  0  0
    9.7466   44.8479   31.6875 C   0  0  0  0  0  0  0  0  0  0  0  0
    8.7924   45.8405   31.0840 C   0  0  0  0  0  0  0  0  0  0  0  0
    7.4055   45.6018   31.0996 C   0  0  0  0  0  0  0  0  0  0  0  0
    9.2822   46.9880   30.4428 C   0  0  0  0  0  0  0  0  0  0  0  0
    6.5267   46.5038   30.4849 C   0  0  0  0  0  0  0  0  0  0  0  0
    8.4030   47.8905   29.8328 C   0  0  0  0  0  0  0  0  0  0  0  0
    7.0144   47.6516   29.8451 C   0  0  0  0  0  0  0  0  0  0  0  0
    6.0895   48.5184   29.2414 O   0  0  0  0  0  0  0  0  0  0  0  0
    6.4204   49.6405   28.4219 C   0  0  0  0  0  0  0  0  0  0  0  0
    7.0206   49.1933   27.1077 C   0  0  0  0  0  0  0  0  0  0  0  0
    6.3846   48.2365   26.2695 C   0  0  0  0  0  0  0  0  0  0  0  0
    8.2683   49.7190   26.7242 C   0  0  0  0  0  0  0  0  0  0  0  0
    5.0963   47.6784   26.5860 N   0  0  0  0  0  0  0  0  0  0  0  0
    7.0402   47.8072   25.1018 C   0  0  0  0  0  0  0  0  0  0  0  0
    8.8928   49.2907   25.5526 C   0  0  0  0  0  0  0  0  0  0  0  0
    4.7817   46.4026   26.1776 O   0  0  0  0  0  0  0  0  0  0  0  0
    4.1964   48.3888   27.0786 O   0  0  0  0  0  0  0  0  0  0  0  0
    8.2830   48.3324   24.7462 C   0  0  0  0  0  0  0  0  0  0  0  0
    8.8123   40.1850   34.2127 O   0  0  0  0  0  0  0  0  0  0  0  0
   11.2407   40.7945   33.3670 O   0  0  0  0  0  0  0  0  0  0  0  0
   10.9134   40.6866   31.9954 C   0  0  0  0  0  0  0  0  0  0  0  0
   11.5167   39.3787   31.4404 C   0  0  0  0  0  0  0  0  0  0  0  0
   12.7486   39.0849   32.0734 O   0  0  0  0  0  0  0  0  0  0  0  0
   10.6039   38.1884   31.6669 C   0  0  0  0  0  0  0  0  0  0  0  0
   12.9329   37.6776   32.0284 C   0  0  0  0  0  0  0  0  0  0  0  0
    9.6373   38.0938   30.6484 O   0  0  0  0  0  0  0  0  0  0  0  0
   11.5737   37.0141   31.7055 C   0  0  0  0  0  0  0  0  0  0  0  0
   13.4853   37.2120   33.3238 N   0  0  0  0  0  0  0  0  0  0  0  0
   11.6210   36.3379   30.4683 O   0  0  0  0  0  0  0  0  0  0  0  0
   14.4804   36.3319   33.5726 C   0  0  0  0  0  0  0  0  0  0  0  0
   13.1141   37.6275   34.5689 C   0  0  0  0  0  0  0  0  0  0  0  0
   15.2076   35.6152   32.6740 N   0  0  0  0  0  0  0  0  0  0  0  0
   14.6761   36.2307   34.9181 C   0  0  0  0  0  0  0  0  0  0  0  0
   13.8218   37.0451   35.5783 N   0  0  0  0  0  0  0  0  0  0  0  0
   16.1642   34.7600   33.1548 C   0  0  0  0  0  0  0  0  0  0  0  0
   15.6528   35.3507   35.4131 C   0  0  0  0  0  0  0  0  0  0  0  0
   16.3795   34.6315   34.5043 N   0  0  0  0  0  0  0  0  0  0  0  0
   15.9000   35.1933   36.8090 N   0  0  0  0  0  0  0  0  0  0  0  0
    9.0120   45.4317   33.6712 H   0  0  0  0  0  0  0  0  0  0  0  0
   11.8906   45.7659   32.9468 H   0  0  0  0  0  0  0  0  0  0  0  0
   10.7259   46.9687   33.1213 H   0  0  0  0  0  0  0  0  0  0  0  0
    9.3416   43.8328   31.4761 H   0  0  0  0  0  0  0  0  0  0  0  0
   10.7230   44.8814   31.1555 H   0  0  0  0  0  0  0  0  0  0  0  0
    7.0082   44.7172   31.5819 H   0  0  0  0  0  0  0  0  0  0  0  0
   10.3466   47.1865   30.4143 H   0  0  0  0  0  0  0  0  0  0  0  0
    5.4622   46.3071   30.5018 H   0  0  0  0  0  0  0  0  0  0  0  0
    8.8155   48.7695   29.3604 H   0  0  0  0  0  0  0  0  0  0  0  0
    5.4964   50.2186   28.2161 H   0  0  0  0  0  0  0  0  0  0  0  0
    7.0946   50.3254   28.9805 H   0  0  0  0  0  0  0  0  0  0  0  0
    8.7688   50.4553   27.3410 H   0  0  0  0  0  0  0  0  0  0  0  0
    6.5783   47.0742   24.4527 H   0  0  0  0  0  0  0  0  0  0  0  0
    9.8556   49.6987   25.2728 H   0  0  0  0  0  0  0  0  0  0  0  0
    8.7718   47.9987   23.8400 H   0  0  0  0  0  0  0  0  0  0  0  0
    9.8225   40.7225   31.7631 H   0  0  0  0  0  0  0  0  0  0  0  0
   11.3828   41.5438   31.4669 H   0  0  0  0  0  0  0  0  0  0  0  0
   11.6978   39.5037   30.3478 H   0  0  0  0  0  0  0  0  0  0  0  0
   10.1084   38.2787   32.6627 H   0  0  0  0  0  0  0  0  0  0  0  0
   13.6638   37.4472   31.2214 H   0  0  0  0  0  0  0  0  0  0  0  0
    8.9763   37.4191   30.9532 H   0  0  0  0  0  0  0  0  0  0  0  0
   11.2821   36.3054   32.5172 H   0  0  0  0  0  0  0  0  0  0  0  0
   10.8658   35.6935   30.4652 H   0  0  0  0  0  0  0  0  0  0  0  0
   12.3293   38.3523   34.7444 H   0  0  0  0  0  0  0  0  0  0  0  0
   16.7561   34.1778   32.4621 H   0  0  0  0  0  0  0  0  0  0  0  0
   16.6345   34.5300   37.1416 H   0  0  0  0  0  0  0  0  0  0  0  0
   15.3533   35.7361   37.5138 H   0  0  0  0  0  0  0  0  0  0  0  0
  1  2  2  0
  1  3  1  0
  3  4  1  0
  4  5  1  0
  6  1  1  0
  7  6  1  0
  6  8  1  0
  8  9  1  0
  9 10  2  0
 11  9  1  0
 10 12  1  0
 13 11  2  0
 12 14  2  0
 14 13  1  0
 14 15  1  0
 15 16  1  0
 16 17  1  0
 17 18  2  0
 19 17  1  0
 18 20  1  0
 18 21  1  0
 22 19  2  0
 20 23  1  0
 20 24  2  0
 21 25  2  0
 25 22  1  0
  4 26  2  0
  4 27  1  0
 28 27  1  0
 28 29  1  0
 29 30  1  0
 29 31  1  0
 30 32  1  0
 31 33  1  0
 31 34  1  0
 34 32  1  0
 32 35  1  0
 34 36  1  0
 37 35  1  0
 38 35  1  0
 39 37  2  0
 37 40  1  0
 41 38  2  0
 42 39  1  0
 40 43  2  0
 40 41  1  0
 44 42  2  0
 44 43  1  0
 43 45  1  0
  6 46  1  1
  7 47  1  0
  7 48  1  0
  8 49  1  0
  8 50  1  0
 10 51  1  0
 11 52  1  0
 12 53  1  0
 13 54  1  0
 16 55  1  0
 16 56  1  0
 19 57  1  0
 21 58  1  0
 22 59  1  0
 25 60  1  0
 28 61  1  0
 28 62  1  0
 29 63  1  0
 31 64  1  0
 32 65  1  0
 33 66  1  0
 34 67  1  0
 36 68  1  0
 38 69  1  0
 42 70  1  0
 45 71  1  0
 45 72  1  0
M  CHG  3   5  -1  20   1  23  -1
M  END
>  <EmbedRMS>  (38) 
0.0825730950934

$$$$

     RDKit          3D

 72 76  0  0  0  0  0  0  0  0999 V2000
   10.2804   43.7665   33.8251 C   0  0  0  0  0  0  0  0  0  0  0  0
   11.4110   43.5920   34.3667 O   0  0  0  0  0  0  0  0  0  0  0  0
    9.3619   42.7249   33.7347 O   0  0  0  0  0  0  0  0  0  0  0  0
    9.8900   41.2267   34.2944 P   0  0  0  0  0  0  0  0  0  0  0  0
   10.3728   41.4567   35.8839 O   0  0  0  0  0  0  0  0  0  0  0  0
    9.9458   45.0736   33.2111 C   0  0  1  0  0  0  0  0  0  0  0  0
   11.0265   46.0292   33.4705 N   0  0  0  0  0  0  0  0  0  0  0  0
    9.7536   44.8537   31.6949 C   0  0  0  0  0  0  0  0  0  0  0  0
    8.7956   45.8407   31.0842 C   0  0  0  0  0  0  0  0  0  0  0  0
    7.4087   45.6004   31.1007 C   0  0  0  0  0  0  0  0  0  0  0  0
    9.2831   46.9878   30.4401 C   0  0  0  0  0  0  0  0  0  0  0  0
    6.5280   46.5014   30.4861 C   0  0  0  0  0  0  0  0  0  0  0  0
    8.4027   47.8894   29.8308 C   0  0  0  0  0  0  0  0  0  0  0  0
    7.0135   47.6507   29.8474 C   0  0  0  0  0  0  0  0  0  0  0  0
    6.0862   48.5266   29.2571 O   0  0  0  0  0  0  0  0  0  0  0  0
    6.4206   49.6869   28.4913 C   0  0  0  0  0  0  0  0  0  0  0  0
    6.7708   50.8929   29.3463 C   0  0  0  0  0  0  0  0  0  0  0  0
    7.0484   52.1503   28.7424 C   0  0  0  0  0  0  0  0  0  0  0  0
    6.7548   50.8076   30.7559 C   0  0  0  0  0  0  0  0  0  0  0  0
    7.0403   52.3240   27.3141 N   0  0  0  0  0  0  0  0  0  0  0  0
    7.3055   53.2671   29.5580 C   0  0  0  0  0  0  0  0  0  0  0  0
    7.0282   51.9258   31.5442 C   0  0  0  0  0  0  0  0  0  0  0  0
    7.6849   51.4272   26.4950 O   0  0  0  0  0  0  0  0  0  0  0  0
    6.6141   53.3878   26.8188 O   0  0  0  0  0  0  0  0  0  0  0  0
    7.3035   53.1525   30.9471 C   0  0  0  0  0  0  0  0  0  0  0  0
    8.8127   40.1842   34.2128 O   0  0  0  0  0  0  0  0  0  0  0  0
   11.2414   40.7951   33.3705 O   0  0  0  0  0  0  0  0  0  0  0  0
   10.9178   40.6922   31.9983 C   0  0  0  0  0  0  0  0  0  0  0  0
   11.5175   39.3837   31.4423 C   0  0  0  0  0  0  0  0  0  0  0  0
   12.7507   39.0887   32.0753 O   0  0  0  0  0  0  0  0  0  0  0  0
   10.6027   38.1916   31.6659 C   0  0  0  0  0  0  0  0  0  0  0  0
   12.9384   37.6819   32.0278 C   0  0  0  0  0  0  0  0  0  0  0  0
    9.6371   38.0805   30.6470 O   0  0  0  0  0  0  0  0  0  0  0  0
   11.5780   37.0215   31.6935 C   0  0  0  0  0  0  0  0  0  0  0  0
   13.4844   37.2119   33.3242 N   0  0  0  0  0  0  0  0  0  0  0  0
   11.6095   36.3201   30.4679 O   0  0  0  0  0  0  0  0  0  0  0  0
   14.4797   36.3318   33.5730 C   0  0  0  0  0  0  0  0  0  0  0  0
   13.1136   37.6278   34.5691 C   0  0  0  0  0  0  0  0  0  0  0  0
   15.2073   35.6155   32.6742 N   0  0  0  0  0  0  0  0  0  0  0  0
   14.6754   36.2305   34.9184 C   0  0  0  0  0  0  0  0  0  0  0  0
   13.8213   37.0452   35.5785 N   0  0  0  0  0  0  0  0  0  0  0  0
   16.1640   34.7604   33.1549 C   0  0  0  0  0  0  0  0  0  0  0  0
   15.6524   35.3507   35.4132 C   0  0  0  0  0  0  0  0  0  0  0  0
   16.3794   34.6318   34.5044 N   0  0  0  0  0  0  0  0  0  0  0  0
   15.8999   35.1934   36.8091 N   0  0  0  0  0  0  0  0  0  0  0  0
    8.9994   45.4382   33.6721 H   0  0  0  0  0  0  0  0  0  0  0  0
   10.7760   46.9370   33.0158 H   0  0  0  0  0  0  0  0  0  0  0  0
   11.0503   46.2277   34.4979 H   0  0  0  0  0  0  0  0  0  0  0  0
   10.7407   44.9068   31.1835 H   0  0  0  0  0  0  0  0  0  0  0  0
    9.3637   43.8350   31.4715 H   0  0  0  0  0  0  0  0  0  0  0  0
    7.0130   44.7165   31.5856 H   0  0  0  0  0  0  0  0  0  0  0  0
   10.3470   47.1881   30.4101 H   0  0  0  0  0  0  0  0  0  0  0  0
    5.4634   46.3056   30.5080 H   0  0  0  0  0  0  0  0  0  0  0  0
    8.8136   48.7713   29.3598 H   0  0  0  0  0  0  0  0  0  0  0  0
    7.2494   49.4357   27.7993 H   0  0  0  0  0  0  0  0  0  0  0  0
    5.5371   49.9490   27.8720 H   0  0  0  0  0  0  0  0  0  0  0  0
    6.5172   49.8836   31.2630 H   0  0  0  0  0  0  0  0  0  0  0  0
    7.5188   54.2309   29.1129 H   0  0  0  0  0  0  0  0  0  0  0  0
    7.0157   51.8423   32.6234 H   0  0  0  0  0  0  0  0  0  0  0  0
    7.5096   54.0191   31.5620 H   0  0  0  0  0  0  0  0  0  0  0  0
    9.8290   40.7408   31.7625 H   0  0  0  0  0  0  0  0  0  0  0  0
   11.3950   41.5477   31.4741 H   0  0  0  0  0  0  0  0  0  0  0  0
   11.6982   39.5114   30.3500 H   0  0  0  0  0  0  0  0  0  0  0  0
   10.1117   38.2604   32.6661 H   0  0  0  0  0  0  0  0  0  0  0  0
   13.6767   37.4557   31.2267 H   0  0  0  0  0  0  0  0  0  0  0  0
    8.8960   38.6950   30.8873 H   0  0  0  0  0  0  0  0  0  0  0  0
   11.2791   36.3072   32.4922 H   0  0  0  0  0  0  0  0  0  0  0  0
   11.8828   36.9598   29.7589 H   0  0  0  0  0  0  0  0  0  0  0  0
   12.3300   38.3539   34.7446 H   0  0  0  0  0  0  0  0  0  0  0  0
   16.7561   34.1785   32.4622 H   0  0  0  0  0  0  0  0  0  0  0  0
   16.6347   34.5303   37.1416 H   0  0  0  0  0  0  0  0  0  0  0  0
   15.3531   35.7360   37.5140 H   0  0  0  0  0  0  0  0  0  0  0  0
  1  2  2  0
  1  3  1  0
  3  4  1  0
  4  5  1  0
  6  1  1  0
  7  6  1  0
  6  8  1  0
  8  9  1  0
  9 10  2  0
 11  9  1  0
 10 12  1  0
 13 11  2  0
 12 14  2  0
 14 13  1  0
 14 15  1  0
 15 16  1  0
 16 17  1  0
 17 18  2  0
 19 17  1  0
 18 20  1  0
 18 21  1  0
 22 19  2  0
 20 23  1  0
 20 24  2  0
 21 25  2  0
 25 22  1  0
  4 26  2  0
  4 27  1  0
 28 27  1  0
 28 29  1  0
 29 30  1  0
 29 31  1  0
 30 32  1  0
 31 33  1  0
 31 34  1  0
 34 32  1  0
 32 35  1  0
 34 36  1  0
 37 35  1  0
 38 35  1  0
 39 37  2  0
 37 40  1  0
 41 38  2  0
 42 39  1  0
 40 43  2  0
 40 41  1  0
 44 42  2  0
 44 43  1  0
 43 45  1  0
  6 46  1  1
  7 47  1  0
  7 48  1  0
  8 49  1  0
  8 50  1  0
 10 51  1  0
 11 52  1  0
 12 53  1  0
 13 54  1  0
 16 55  1  0
 16 56  1  0
 19 57  1  0
 21 58  1  0
 22 59  1  0
 25 60  1  0
 28 61  1  0
 28 62  1  0
 29 63  1  0
 31 64  1  0
 32 65  1  0
 33 66  1  0
 34 67  1  0
 36 68  1  0
 38 69  1  0
 42 70  1  0
 45 71  1  0
 45 72  1  0
M  CHG  3   5  -1  20   1  23  -1
M  END
>  <EmbedRMS>  (39) 
0.0818108434418

$$$$

     RDKit          3D

 72 76  0  0  0  0  0  0  0  0999 V2000
   10.2834   43.7663   33.8257 C   0  0  0  0  0  0  0  0  0  0  0  0
   11.4102   43.5930   34.3752 O   0  0  0  0  0  0  0  0  0  0  0  0
    9.3635   42.7257   33.7352 O   0  0  0  0  0  0  0  0  0  0  0  0
    9.8899   41.2270   34.2947 P   0  0  0  0  0  0  0  0  0  0  0  0
   10.3732   41.4563   35.8841 O   0  0  0  0  0  0  0  0  0  0  0  0
    9.9547   45.0696   33.2036 C   0  0  1  0  0  0  0  0  0  0  0  0
   11.0273   46.0323   33.4760 N   0  0  0  0  0  0  0  0  0  0  0  0
    9.7470   44.8485   31.6877 C   0  0  0  0  0  0  0  0  0  0  0  0
    8.7925   45.8411   31.0847 C   0  0  0  0  0  0  0  0  0  0  0  0
    7.4058   45.6008   31.0989 C   0  0  0  0  0  0  0  0  0  0  0  0
    9.2818   46.9876   30.4414 C   0  0  0  0  0  0  0  0  0  0  0  0
    6.5246   46.5005   30.4838 C   0  0  0  0  0  0  0  0  0  0  0  0
    8.4005   47.8876   29.8312 C   0  0  0  0  0  0  0  0  0  0  0  0
    7.0185   47.6577   29.8483 C   0  0  0  0  0  0  0  0  0  0  0  0
    6.1816   48.5972   29.2254 O   0  0  0  0  0  0  0  0  0  0  0  0
    4.7546   48.6020   29.2864 C   0  0  0  0  0  0  0  0  0  0  0  0
    4.2733   48.9316   30.6819 C   0  0  0  0  0  0  0  0  0  0  0  0
    4.7262   50.0790   31.3896 C   0  0  0  0  0  0  0  0  0  0  0  0
    3.3749   48.0492   31.3099 C   0  0  0  0  0  0  0  0  0  0  0  0
    5.6232   51.0374   30.7991 N   0  0  0  0  0  0  0  0  0  0  0  0
    4.2995   50.2779   32.7146 C   0  0  0  0  0  0  0  0  0  0  0  0
    2.9518   48.2752   32.6199 C   0  0  0  0  0  0  0  0  0  0  0  0
    6.5017   51.7365   31.5947 O   0  0  0  0  0  0  0  0  0  0  0  0
    5.5053   51.3688   29.6018 O   0  0  0  0  0  0  0  0  0  0  0  0
    3.4178   49.3838   33.3229 C   0  0  0  0  0  0  0  0  0  0  0  0
    8.8120   40.1851   34.2133 O   0  0  0  0  0  0  0  0  0  0  0  0
   11.2403   40.7947   33.3700 O   0  0  0  0  0  0  0  0  0  0  0  0
   10.9144   40.6914   31.9982 C   0  0  0  0  0  0  0  0  0  0  0  0
   11.5270   39.3912   31.4385 C   0  0  0  0  0  0  0  0  0  0  0  0
   12.7520   39.0911   32.0836 O   0  0  0  0  0  0  0  0  0  0  0  0
   10.6113   38.1932   31.6451 C   0  0  0  0  0  0  0  0  0  0  0  0
   12.9413   37.6838   32.0297 C   0  0  0  0  0  0  0  0  0  0  0  0
    9.6064   38.0878   30.6599 O   0  0  0  0  0  0  0  0  0  0  0  0
   11.5822   37.0198   31.6877 C   0  0  0  0  0  0  0  0  0  0  0  0
   13.4840   37.2104   33.3254 N   0  0  0  0  0  0  0  0  0  0  0  0
   11.6179   36.3072   30.4690 O   0  0  0  0  0  0  0  0  0  0  0  0
   14.4797   36.3309   33.5738 C   0  0  0  0  0  0  0  0  0  0  0  0
   13.1136   37.6269   34.5702 C   0  0  0  0  0  0  0  0  0  0  0  0
   15.2074   35.6152   32.6747 N   0  0  0  0  0  0  0  0  0  0  0  0
   14.6756   36.2298   34.9190 C   0  0  0  0  0  0  0  0  0  0  0  0
   13.8217   37.0445   35.5793 N   0  0  0  0  0  0  0  0  0  0  0  0
   16.1643   34.7603   33.1551 C   0  0  0  0  0  0  0  0  0  0  0  0
   15.6528   35.3503   35.4136 C   0  0  0  0  0  0  0  0  0  0  0  0
   16.3798   34.6316   34.5046 N   0  0  0  0  0  0  0  0  0  0  0  0
   15.9004   35.1930   36.8094 N   0  0  0  0  0  0  0  0  0  0  0  0
    9.0120   45.4319   33.6713 H   0  0  0  0  0  0  0  0  0  0  0  0
   11.8907   45.7660   32.9476 H   0  0  0  0  0  0  0  0  0  0  0  0
   10.7260   46.9689   33.1216 H   0  0  0  0  0  0  0  0  0  0  0  0
   10.7235   44.8825   31.1559 H   0  0  0  0  0  0  0  0  0  0  0  0
    9.3424   43.8332   31.4759 H   0  0  0  0  0  0  0  0  0  0  0  0
    7.0103   44.7141   31.5790 H   0  0  0  0  0  0  0  0  0  0  0  0
   10.3461   47.1859   30.4094 H   0  0  0  0  0  0  0  0  0  0  0  0
    5.4678   46.2798   30.5035 H   0  0  0  0  0  0  0  0  0  0  0  0
    8.7936   48.7703   29.3429 H   0  0  0  0  0  0  0  0  0  0  0  0
    4.3684   49.3681   28.5833 H   0  0  0  0  0  0  0  0  0  0  0  0
    4.3618   47.6266   28.9259 H   0  0  0  0  0  0  0  0  0  0  0  0
    3.0088   47.1730   30.7890 H   0  0  0  0  0  0  0  0  0  0  0  0
    4.6373   51.1404   33.2750 H   0  0  0  0  0  0  0  0  0  0  0  0
    2.2655   47.5848   33.0932 H   0  0  0  0  0  0  0  0  0  0  0  0
    3.0913   49.5543   34.3407 H   0  0  0  0  0  0  0  0  0  0  0  0
    9.8235   40.7201   31.7654 H   0  0  0  0  0  0  0  0  0  0  0  0
   11.3777   41.5549   31.4744 H   0  0  0  0  0  0  0  0  0  0  0  0
   11.7312   39.5363   30.3532 H   0  0  0  0  0  0  0  0  0  0  0  0
   10.1203   38.2696   32.6410 H   0  0  0  0  0  0  0  0  0  0  0  0
   13.6850   37.4639   31.2321 H   0  0  0  0  0  0  0  0  0  0  0  0
   10.0251   38.1793   29.7654 H   0  0  0  0  0  0  0  0  0  0  0  0
   11.2757   36.3135   32.4907 H   0  0  0  0  0  0  0  0  0  0  0  0
   11.9838   36.9111   29.7708 H   0  0  0  0  0  0  0  0  0  0  0  0
   12.3307   38.3536   34.7458 H   0  0  0  0  0  0  0  0  0  0  0  0
   16.7566   34.1787   32.4623 H   0  0  0  0  0  0  0  0  0  0  0  0
   16.6353   34.5301   37.1419 H   0  0  0  0  0  0  0  0  0  0  0  0
   15.3535   35.7355   37.5144 H   0  0  0  0  0  0  0  0  0  0  0  0
  1  2  2  0
  1  3  1  0
  3  4  1  0
  4  5  1  0
  6  1  1  0
  7  6  1  0
  6  8  1  0
  8  9  1  0
  9 10  2  0
 11  9  1  0
 10 12  1  0
 13 11  2  0
 12 14  2  0
 14 13  1  0
 14 15  1  0
 15 16  1  0
 16 17  1  0
 17 18  2  0
 19 17  1  0
 18 20  1  0
 18 21  1  0
 22 19  2  0
 20 23  1  0
 20 24  2  0
 21 25  2  0
 25 22  1  0
  4 26  2  0
  4 27  1  0
 28 27  1  0
 28 29  1  0
 29 30  1  0
 29 31  1  0
 30 32  1  0
 31 33  1  0
 31 34  1  0
 34 32  1  0
 32 35  1  0
 34 36  1  0
 37 35  1  0
 38 35  1  0
 39 37  2  0
 37 40  1  0
 41 38  2  0
 42 39  1  0
 40 43  2  0
 40 41  1  0
 44 42  2  0
 44 43  1  0
 43 45  1  0
  6 46  1  1
  7 47  1  0
  7 48  1  0
  8 49  1  0
  8 50  1  0
 10 51  1  0
 11 52  1  0
 12 53  1  0
 13 54  1  0
 16 55  1  0
 16 56  1  0
 19 57  1  0
 21 58  1  0
 22 59  1  0
 25 60  1  0
 28 61  1  0
 28 62  1  0
 29 63  1  0
 31 64  1  0
 32 65  1  0
 33 66  1  0
 34 67  1  0
 36 68  1  0
 38 69  1  0
 42 70  1  0
 45 71  1  0
 45 72  1  0
M  CHG  3   5  -1  20   1  23  -1
M  END
>  <EmbedRMS>  (40) 
0.0808178211902

$$$$

     RDKit          3D

 72 76  0  0  0  0  0  0  0  0999 V2000
   10.2834   43.7662   33.8256 C   0  0  0  0  0  0  0  0  0  0  0  0
   11.4102   43.5930   34.3752 O   0  0  0  0  0  0  0  0  0  0  0  0
    9.3637   42.7255   33.7348 O   0  0  0  0  0  0  0  0  0  0  0  0
    9.8907   41.2265   34.2933 P   0  0  0  0  0  0  0  0  0  0  0  0
   10.3743   41.4557   35.8828 O   0  0  0  0  0  0  0  0  0  0  0  0
    9.9546   45.0695   33.2035 C   0  0  1  0  0  0  0  0  0  0  0  0
   11.0274   46.0321   33.4755 N   0  0  0  0  0  0  0  0  0  0  0  0
    9.7466   44.8480   31.6875 C   0  0  0  0  0  0  0  0  0  0  0  0
    8.7923   45.8406   31.0842 C   0  0  0  0  0  0  0  0  0  0  0  0
    7.4055   45.6018   31.0994 C   0  0  0  0  0  0  0  0  0  0  0  0
    9.2823   46.9879   30.4426 C   0  0  0  0  0  0  0  0  0  0  0  0
    6.5266   46.5036   30.4845 C   0  0  0  0  0  0  0  0  0  0  0  0
    8.4032   47.8904   29.8326 C   0  0  0  0  0  0  0  0  0  0  0  0
    7.0141   47.6520   29.8458 C   0  0  0  0  0  0  0  0  0  0  0  0
    6.0899   48.5202   29.2421 O   0  0  0  0  0  0  0  0  0  0  0  0
    6.4274   49.6769   28.4745 C   0  0  0  0  0  0  0  0  0  0  0  0
    7.0570   49.2827   27.1560 C   0  0  0  0  0  0  0  0  0  0  0  0
    8.2622   49.8636   26.6804 C   0  0  0  0  0  0  0  0  0  0  0  0
    6.4361   48.2755   26.3946 C   0  0  0  0  0  0  0  0  0  0  0  0
    8.8948   50.9600   27.3578 N   0  0  0  0  0  0  0  0  0  0  0  0
    8.8451   49.3691   25.5013 C   0  0  0  0  0  0  0  0  0  0  0  0
    7.0195   47.8123   25.2145 C   0  0  0  0  0  0  0  0  0  0  0  0
   10.2679   51.0358   27.4010 O   0  0  0  0  0  0  0  0  0  0  0  0
    8.2256   51.9591   27.6923 O   0  0  0  0  0  0  0  0  0  0  0  0
    8.2275   48.3502   24.7746 C   0  0  0  0  0  0  0  0  0  0  0  0
    8.8123   40.1850   34.2127 O   0  0  0  0  0  0  0  0  0  0  0  0
   11.2407   40.7945   33.3670 O   0  0  0  0  0  0  0  0  0  0  0  0
   10.9134   40.6866   31.9954 C   0  0  0  0  0  0  0  0  0  0  0  0
   11.5167   39.3787   31.4404 C   0  0  0  0  0  0  0  0  0  0  0  0
   12.7486   39.0849   32.0735 O   0  0  0  0  0  0  0  0  0  0  0  0
   10.6039   38.1884   31.6669 C   0  0  0  0  0  0  0  0  0  0  0  0
   12.9329   37.6776   32.0284 C   0  0  0  0  0  0  0  0  0  0  0  0
    9.6374   38.0938   30.6484 O   0  0  0  0  0  0  0  0  0  0  0  0
   11.5737   37.0141   31.7055 C   0  0  0  0  0  0  0  0  0  0  0  0
   13.4853   37.2120   33.3238 N   0  0  0  0  0  0  0  0  0  0  0  0
   11.6210   36.3379   30.4684 O   0  0  0  0  0  0  0  0  0  0  0  0
   14.4804   36.3319   33.5726 C   0  0  0  0  0  0  0  0  0  0  0  0
   13.1141   37.6275   34.5689 C   0  0  0  0  0  0  0  0  0  0  0  0
   15.2076   35.6152   32.6740 N   0  0  0  0  0  0  0  0  0  0  0  0
   14.6761   36.2306   34.9181 C   0  0  0  0  0  0  0  0  0  0  0  0
   13.8218   37.0451   35.5783 N   0  0  0  0  0  0  0  0  0  0  0  0
   16.1642   34.7600   33.1548 C   0  0  0  0  0  0  0  0  0  0  0  0
   15.6528   35.3507   35.4131 C   0  0  0  0  0  0  0  0  0  0  0  0
   16.3795   34.6315   34.5043 N   0  0  0  0  0  0  0  0  0  0  0  0
   15.9001   35.1933   36.8090 N   0  0  0  0  0  0  0  0  0  0  0  0
    9.0121   45.4318   33.6713 H   0  0  0  0  0  0  0  0  0  0  0  0
   11.8906   45.7658   32.9468 H   0  0  0  0  0  0  0  0  0  0  0  0
   10.7259   46.9687   33.1212 H   0  0  0  0  0  0  0  0  0  0  0  0
    9.3414   43.8328   31.4762 H   0  0  0  0  0  0  0  0  0  0  0  0
   10.7230   44.8813   31.1555 H   0  0  0  0  0  0  0  0  0  0  0  0
    7.0082   44.7171   31.5817 H   0  0  0  0  0  0  0  0  0  0  0  0
   10.3468   47.1858   30.4132 H   0  0  0  0  0  0  0  0  0  0  0  0
    5.4621   46.3069   30.5017 H   0  0  0  0  0  0  0  0  0  0  0  0
    8.8163   48.7672   29.3558 H   0  0  0  0  0  0  0  0  0  0  0  0
    5.4922   50.2341   28.2580 H   0  0  0  0  0  0  0  0  0  0  0  0
    7.0705   50.3383   29.0880 H   0  0  0  0  0  0  0  0  0  0  0  0
    5.5061   47.8315   26.7283 H   0  0  0  0  0  0  0  0  0  0  0  0
    9.7688   49.7939   25.1291 H   0  0  0  0  0  0  0  0  0  0  0  0
    6.5377   47.0283   24.6446 H   0  0  0  0  0  0  0  0  0  0  0  0
    8.6808   47.9858   23.8618 H   0  0  0  0  0  0  0  0  0  0  0  0
   11.3828   41.5438   31.4669 H   0  0  0  0  0  0  0  0  0  0  0  0
    9.8225   40.7225   31.7631 H   0  0  0  0  0  0  0  0  0  0  0  0
   11.6979   39.5037   30.3478 H   0  0  0  0  0  0  0  0  0  0  0  0
   10.1084   38.2787   32.6627 H   0  0  0  0  0  0  0  0  0  0  0  0
   13.6638   37.4472   31.2214 H   0  0  0  0  0  0  0  0  0  0  0  0
    8.9763   37.4191   30.9532 H   0  0  0  0  0  0  0  0  0  0  0  0
   11.2821   36.3054   32.5172 H   0  0  0  0  0  0  0  0  0  0  0  0
   10.8658   35.6935   30.4652 H   0  0  0  0  0  0  0  0  0  0  0  0
   12.3293   38.3523   34.7445 H   0  0  0  0  0  0  0  0  0  0  0  0
   16.7561   34.1778   32.4621 H   0  0  0  0  0  0  0  0  0  0  0  0
   16.6345   34.5300   37.1416 H   0  0  0  0  0  0  0  0  0  0  0  0
   15.3533   35.7361   37.5138 H   0  0  0  0  0  0  0  0  0  0  0  0
  1  2  2  0
  1  3  1  0
  3  4  1  0
  4  5  1  0
  6  1  1  0
  7  6  1  0
  6  8  1  0
  8  9  1  0
  9 10  2  0
 11  9  1  0
 10 12  1  0
 13 11  2  0
 12 14  2  0
 14 13  1  0
 14 15  1  0
 15 16  1  0
 16 17  1  0
 17 18  2  0
 19 17  1  0
 18 20  1  0
 18 21  1  0
 22 19  2  0
 20 23  1  0
 20 24  2  0
 21 25  2  0
 25 22  1  0
  4 26  2  0
  4 27  1  0
 28 27  1  0
 28 29  1  0
 29 30  1  0
 29 31  1  0
 30 32  1  0
 31 33  1  0
 31 34  1  0
 34 32  1  0
 32 35  1  0
 34 36  1  0
 37 35  1  0
 38 35  1  0
 39 37  2  0
 37 40  1  0
 41 38  2  0
 42 39  1  0
 40 43  2  0
 40 41  1  0
 44 42  2  0
 44 43  1  0
 43 45  1  0
  6 46  1  1
  7 47  1  0
  7 48  1  0
  8 49  1  0
  8 50  1  0
 10 51  1  0
 11 52  1  0
 12 53  1  0
 13 54  1  0
 16 55  1  0
 16 56  1  0
 19 57  1  0
 21 58  1  0
 22 59  1  0
 25 60  1  0
 28 61  1  0
 28 62  1  0
 29 63  1  0
 31 64  1  0
 32 65  1  0
 33 66  1  0
 34 67  1  0
 36 68  1  0
 38 69  1  0
 42 70  1  0
 45 71  1  0
 45 72  1  0
M  CHG  3   5  -1  20   1  23  -1
M  END
>  <EmbedRMS>  (41) 
0.0825664564282

$$$$

     RDKit          3D

 72 76  0  0  0  0  0  0  0  0999 V2000
   10.2839   43.7626   33.8276 C   0  0  0  0  0  0  0  0  0  0  0  0
   11.4103   43.5863   34.3766 O   0  0  0  0  0  0  0  0  0  0  0  0
    9.3630   42.7236   33.7354 O   0  0  0  0  0  0  0  0  0  0  0  0
    9.8893   41.2249   34.2943 P   0  0  0  0  0  0  0  0  0  0  0  0
   10.3727   41.4546   35.8837 O   0  0  0  0  0  0  0  0  0  0  0  0
    9.9549   45.0700   33.2064 C   0  0  1  0  0  0  0  0  0  0  0  0
   11.0199   46.0481   33.4571 N   0  0  0  0  0  0  0  0  0  0  0  0
    9.7506   44.8512   31.6923 C   0  0  0  0  0  0  0  0  0  0  0  0
    8.7943   45.8419   31.0869 C   0  0  0  0  0  0  0  0  0  0  0  0
    7.4074   45.6004   31.1005 C   0  0  0  0  0  0  0  0  0  0  0  0
    9.2827   46.9894   30.4445 C   0  0  0  0  0  0  0  0  0  0  0  0
    6.5254   46.4998   30.4852 C   0  0  0  0  0  0  0  0  0  0  0  0
    8.4011   47.8885   29.8330 C   0  0  0  0  0  0  0  0  0  0  0  0
    7.0196   47.6550   29.8459 C   0  0  0  0  0  0  0  0  0  0  0  0
    6.1800   48.5861   29.2173 O   0  0  0  0  0  0  0  0  0  0  0  0
    4.7591   48.4788   29.1544 C   0  0  0  0  0  0  0  0  0  0  0  0
    4.1914   49.6844   28.4456 C   0  0  0  0  0  0  0  0  0  0  0  0
    3.2961   49.5768   27.3494 C   0  0  0  0  0  0  0  0  0  0  0  0
    4.5951   50.9615   28.8766 C   0  0  0  0  0  0  0  0  0  0  0  0
    2.7652   48.3101   26.9307 N   0  0  0  0  0  0  0  0  0  0  0  0
    2.8876   50.7428   26.6780 C   0  0  0  0  0  0  0  0  0  0  0  0
    4.1633   52.1089   28.2094 C   0  0  0  0  0  0  0  0  0  0  0  0
    2.1958   47.4655   27.8557 O   0  0  0  0  0  0  0  0  0  0  0  0
    2.5983   48.0745   25.7162 O   0  0  0  0  0  0  0  0  0  0  0  0
    3.3197   51.9991   27.1054 C   0  0  0  0  0  0  0  0  0  0  0  0
    8.8113   40.1834   34.2130 O   0  0  0  0  0  0  0  0  0  0  0  0
   11.2399   40.7932   33.3693 O   0  0  0  0  0  0  0  0  0  0  0  0
   10.9143   40.6896   31.9973 C   0  0  0  0  0  0  0  0  0  0  0  0
   11.5261   39.3884   31.4375 C   0  0  0  0  0  0  0  0  0  0  0  0
   12.7504   39.0887   32.0815 O   0  0  0  0  0  0  0  0  0  0  0  0
   10.6115   38.1909   31.6460 C   0  0  0  0  0  0  0  0  0  0  0  0
   12.9357   37.6812   32.0303 C   0  0  0  0  0  0  0  0  0  0  0  0
    9.6146   38.0858   30.6533 O   0  0  0  0  0  0  0  0  0  0  0  0
   11.5769   37.0148   31.7012 C   0  0  0  0  0  0  0  0  0  0  0  0
   13.4849   37.2112   33.3247 N   0  0  0  0  0  0  0  0  0  0  0  0
   11.6193   36.3260   30.4724 O   0  0  0  0  0  0  0  0  0  0  0  0
   14.4802   36.3313   33.5730 C   0  0  0  0  0  0  0  0  0  0  0  0
   13.1141   37.6268   34.5697 C   0  0  0  0  0  0  0  0  0  0  0  0
   15.2075   35.6151   32.6741 N   0  0  0  0  0  0  0  0  0  0  0  0
   14.6761   36.2300   34.9184 C   0  0  0  0  0  0  0  0  0  0  0  0
   13.8220   37.0445   35.5789 N   0  0  0  0  0  0  0  0  0  0  0  0
   16.1642   34.7600   33.1547 C   0  0  0  0  0  0  0  0  0  0  0  0
   15.6529   35.3503   35.4131 C   0  0  0  0  0  0  0  0  0  0  0  0
   16.3798   34.6314   34.5042 N   0  0  0  0  0  0  0  0  0  0  0  0
   15.9004   35.1930   36.8090 N   0  0  0  0  0  0  0  0  0  0  0  0
    9.0099   45.4349   33.6670 H   0  0  0  0  0  0  0  0  0  0  0  0
   11.1133   46.1992   34.4885 H   0  0  0  0  0  0  0  0  0  0  0  0
   11.9350   45.6933   33.0928 H   0  0  0  0  0  0  0  0  0  0  0  0
    9.3518   43.8345   31.4758 H   0  0  0  0  0  0  0  0  0  0  0  0
   10.7309   44.8933   31.1676 H   0  0  0  0  0  0  0  0  0  0  0  0
    7.0124   44.7148   31.5830 H   0  0  0  0  0  0  0  0  0  0  0  0
   10.3467   47.1896   30.4150 H   0  0  0  0  0  0  0  0  0  0  0  0
    5.4657   46.2864   30.5126 H   0  0  0  0  0  0  0  0  0  0  0  0
    8.7937   48.7708   29.3434 H   0  0  0  0  0  0  0  0  0  0  0  0
    4.5057   47.5351   28.6325 H   0  0  0  0  0  0  0  0  0  0  0  0
    4.3429   48.4466   30.1843 H   0  0  0  0  0  0  0  0  0  0  0  0
    5.2629   51.0678   29.7230 H   0  0  0  0  0  0  0  0  0  0  0  0
    2.2090   50.6790   25.8366 H   0  0  0  0  0  0  0  0  0  0  0  0
    4.4898   53.0848   28.5450 H   0  0  0  0  0  0  0  0  0  0  0  0
    2.9893   52.8900   26.5871 H   0  0  0  0  0  0  0  0  0  0  0  0
    9.8233   40.7191   31.7644 H   0  0  0  0  0  0  0  0  0  0  0  0
   11.3782   41.5525   31.4733 H   0  0  0  0  0  0  0  0  0  0  0  0
   11.7283   39.5312   30.3515 H   0  0  0  0  0  0  0  0  0  0  0  0
   10.1127   38.2733   32.6376 H   0  0  0  0  0  0  0  0  0  0  0  0
   13.6693   37.4565   31.2242 H   0  0  0  0  0  0  0  0  0  0  0  0
   10.0533   38.1117   29.7635 H   0  0  0  0  0  0  0  0  0  0  0  0
   11.2607   36.3147   32.5101 H   0  0  0  0  0  0  0  0  0  0  0  0
   12.1496   35.5022   30.6323 H   0  0  0  0  0  0  0  0  0  0  0  0
   12.3301   38.3524   34.7455 H   0  0  0  0  0  0  0  0  0  0  0  0
   16.7563   34.1780   32.4619 H   0  0  0  0  0  0  0  0  0  0  0  0
   16.6351   34.5298   37.1415 H   0  0  0  0  0  0  0  0  0  0  0  0
   15.3536   35.7357   37.5139 H   0  0  0  0  0  0  0  0  0  0  0  0
  1  2  2  0
  1  3  1  0
  3  4  1  0
  4  5  1  0
  6  1  1  0
  7  6  1  0
  6  8  1  0
  8  9  1  0
  9 10  2  0
 11  9  1  0
 10 12  1  0
 13 11  2  0
 12 14  2  0
 14 13  1  0
 14 15  1  0
 15 16  1  0
 16 17  1  0
 17 18  2  0
 19 17  1  0
 18 20  1  0
 18 21  1  0
 22 19  2  0
 20 23  1  0
 20 24  2  0
 21 25  2  0
 25 22  1  0
  4 26  2  0
  4 27  1  0
 28 27  1  0
 28 29  1  0
 29 30  1  0
 29 31  1  0
 30 32  1  0
 31 33  1  0
 31 34  1  0
 34 32  1  0
 32 35  1  0
 34 36  1  0
 37 35  1  0
 38 35  1  0
 39 37  2  0
 37 40  1  0
 41 38  2  0
 42 39  1  0
 40 43  2  0
 40 41  1  0
 44 42  2  0
 44 43  1  0
 43 45  1  0
  6 46  1  1
  7 47  1  0
  7 48  1  0
  8 49  1  0
  8 50  1  0
 10 51  1  0
 11 52  1  0
 12 53  1  0
 13 54  1  0
 16 55  1  0
 16 56  1  0
 19 57  1  0
 21 58  1  0
 22 59  1  0
 25 60  1  0
 28 61  1  0
 28 62  1  0
 29 63  1  0
 31 64  1  0
 32 65  1  0
 33 66  1  0
 34 67  1  0
 36 68  1  0
 38 69  1  0
 42 70  1  0
 45 71  1  0
 45 72  1  0
M  CHG  3   5  -1  20   1  23  -1
M  END
>  <EmbedRMS>  (42) 
0.0825086492539

$$$$

     RDKit          3D

 72 76  0  0  0  0  0  0  0  0999 V2000
   10.2834   43.7663   33.8257 C   0  0  0  0  0  0  0  0  0  0  0  0
   11.4102   43.5930   34.3752 O   0  0  0  0  0  0  0  0  0  0  0  0
    9.3635   42.7257   33.7352 O   0  0  0  0  0  0  0  0  0  0  0  0
    9.8902   41.2269   34.2941 P   0  0  0  0  0  0  0  0  0  0  0  0
   10.3739   41.4560   35.8835 O   0  0  0  0  0  0  0  0  0  0  0  0
    9.9547   45.0696   33.2035 C   0  0  1  0  0  0  0  0  0  0  0  0
   11.0274   46.0322   33.4759 N   0  0  0  0  0  0  0  0  0  0  0  0
    9.7471   44.8484   31.6875 C   0  0  0  0  0  0  0  0  0  0  0  0
    8.7924   45.8409   31.0843 C   0  0  0  0  0  0  0  0  0  0  0  0
    7.4055   45.6008   31.0994 C   0  0  0  0  0  0  0  0  0  0  0  0
    9.2818   46.9880   30.4419 C   0  0  0  0  0  0  0  0  0  0  0  0
    6.5241   46.5011   30.4849 C   0  0  0  0  0  0  0  0  0  0  0  0
    8.4006   47.8886   29.8322 C   0  0  0  0  0  0  0  0  0  0  0  0
    7.0189   47.6563   29.8462 C   0  0  0  0  0  0  0  0  0  0  0  0
    6.1797   48.5888   29.2193 O   0  0  0  0  0  0  0  0  0  0  0  0
    4.7588   48.4815   29.1552 C   0  0  0  0  0  0  0  0  0  0  0  0
    4.1987   49.6398   28.3660 C   0  0  0  0  0  0  0  0  0  0  0  0
    3.1613   50.4728   28.8608 C   0  0  0  0  0  0  0  0  0  0  0  0
    4.7542   49.9156   27.1030 C   0  0  0  0  0  0  0  0  0  0  0  0
    2.4826   50.1815   30.0921 N   0  0  0  0  0  0  0  0  0  0  0  0
    2.7605   51.5918   28.1095 C   0  0  0  0  0  0  0  0  0  0  0  0
    4.3294   51.0200   26.3629 C   0  0  0  0  0  0  0  0  0  0  0  0
    1.9756   48.9219   30.3144 O   0  0  0  0  0  0  0  0  0  0  0  0
    2.1395   51.1119   30.8505 O   0  0  0  0  0  0  0  0  0  0  0  0
    3.3420   51.8628   26.8701 C   0  0  0  0  0  0  0  0  0  0  0  0
    8.8121   40.1852   34.2131 O   0  0  0  0  0  0  0  0  0  0  0  0
   11.2402   40.7951   33.3681 O   0  0  0  0  0  0  0  0  0  0  0  0
   10.9126   40.6877   31.9968 C   0  0  0  0  0  0  0  0  0  0  0  0
   11.5170   39.3811   31.4421 C   0  0  0  0  0  0  0  0  0  0  0  0
   12.7500   39.0881   32.0759 O   0  0  0  0  0  0  0  0  0  0  0  0
   10.6043   38.1893   31.6659 C   0  0  0  0  0  0  0  0  0  0  0  0
   12.9395   37.6814   32.0280 C   0  0  0  0  0  0  0  0  0  0  0  0
    9.6353   38.0951   30.6499 O   0  0  0  0  0  0  0  0  0  0  0  0
   11.5804   37.0191   31.6934 C   0  0  0  0  0  0  0  0  0  0  0  0
   13.4851   37.2119   33.3244 N   0  0  0  0  0  0  0  0  0  0  0  0
   11.6118   36.3189   30.4673 O   0  0  0  0  0  0  0  0  0  0  0  0
   14.4801   36.3316   33.5732 C   0  0  0  0  0  0  0  0  0  0  0  0
   13.1139   37.6277   34.5692 C   0  0  0  0  0  0  0  0  0  0  0  0
   15.2076   35.6154   32.6744 N   0  0  0  0  0  0  0  0  0  0  0  0
   14.6756   36.2303   34.9186 C   0  0  0  0  0  0  0  0  0  0  0  0
   13.8215   37.0450   35.5786 N   0  0  0  0  0  0  0  0  0  0  0  0
   16.1642   34.7602   33.1551 C   0  0  0  0  0  0  0  0  0  0  0  0
   15.6526   35.3505   35.4134 C   0  0  0  0  0  0  0  0  0  0  0  0
   16.3795   34.6316   34.5046 N   0  0  0  0  0  0  0  0  0  0  0  0
   15.9001   35.1933   36.8093 N   0  0  0  0  0  0  0  0  0  0  0  0
    9.0121   45.4318   33.6712 H   0  0  0  0  0  0  0  0  0  0  0  0
   11.8908   45.7658   32.9475 H   0  0  0  0  0  0  0  0  0  0  0  0
   10.7262   46.9688   33.1213 H   0  0  0  0  0  0  0  0  0  0  0  0
    9.3425   43.8331   31.4758 H   0  0  0  0  0  0  0  0  0  0  0  0
   10.7235   44.8824   31.1557 H   0  0  0  0  0  0  0  0  0  0  0  0
    7.0099   44.7156   31.5820 H   0  0  0  0  0  0  0  0  0  0  0  0
   10.3461   47.1863   30.4102 H   0  0  0  0  0  0  0  0  0  0  0  0
    5.4643   46.2887   30.5131 H   0  0  0  0  0  0  0  0  0  0  0  0
    8.7937   48.7706   29.3426 H   0  0  0  0  0  0  0  0  0  0  0  0
    4.4803   47.5365   28.6408 H   0  0  0  0  0  0  0  0  0  0  0  0
    4.3660   48.4585   30.1908 H   0  0  0  0  0  0  0  0  0  0  0  0
    5.5338   49.2818   26.6978 H   0  0  0  0  0  0  0  0  0  0  0  0
    1.9742   52.2410   28.4740 H   0  0  0  0  0  0  0  0  0  0  0  0
    4.7725   51.2268   25.3973 H   0  0  0  0  0  0  0  0  0  0  0  0
    3.0168   52.7209   26.2961 H   0  0  0  0  0  0  0  0  0  0  0  0
   11.3808   41.5456   31.4686 H   0  0  0  0  0  0  0  0  0  0  0  0
    9.8216   40.7222   31.7647 H   0  0  0  0  0  0  0  0  0  0  0  0
   11.6986   39.5089   30.3499 H   0  0  0  0  0  0  0  0  0  0  0  0
   10.1109   38.2737   32.6630 H   0  0  0  0  0  0  0  0  0  0  0  0
   13.6783   37.4562   31.2271 H   0  0  0  0  0  0  0  0  0  0  0  0
    9.0020   37.3860   30.9348 H   0  0  0  0  0  0  0  0  0  0  0  0
   11.2807   36.3053   32.4921 H   0  0  0  0  0  0  0  0  0  0  0  0
   11.8818   36.9600   29.7584 H   0  0  0  0  0  0  0  0  0  0  0  0
   12.3303   38.3538   34.7446 H   0  0  0  0  0  0  0  0  0  0  0  0
   16.7564   34.1783   32.4624 H   0  0  0  0  0  0  0  0  0  0  0  0
   16.6348   34.5301   37.1418 H   0  0  0  0  0  0  0  0  0  0  0  0
   15.3532   35.7359   37.5142 H   0  0  0  0  0  0  0  0  0  0  0  0
  1  2  2  0
  1  3  1  0
  3  4  1  0
  4  5  1  0
  6  1  1  0
  7  6  1  0
  6  8  1  0
  8  9  1  0
  9 10  2  0
 11  9  1  0
 10 12  1  0
 13 11  2  0
 12 14  2  0
 14 13  1  0
 14 15  1  0
 15 16  1  0
 16 17  1  0
 17 18  2  0
 19 17  1  0
 18 20  1  0
 18 21  1  0
 22 19  2  0
 20 23  1  0
 20 24  2  0
 21 25  2  0
 25 22  1  0
  4 26  2  0
  4 27  1  0
 28 27  1  0
 28 29  1  0
 29 30  1  0
 29 31  1  0
 30 32  1  0
 31 33  1  0
 31 34  1  0
 34 32  1  0
 32 35  1  0
 34 36  1  0
 37 35  1  0
 38 35  1  0
 39 37  2  0
 37 40  1  0
 41 38  2  0
 42 39  1  0
 40 43  2  0
 40 41  1  0
 44 42  2  0
 44 43  1  0
 43 45  1  0
  6 46  1  1
  7 47  1  0
  7 48  1  0
  8 49  1  0
  8 50  1  0
 10 51  1  0
 11 52  1  0
 12 53  1  0
 13 54  1  0
 16 55  1  0
 16 56  1  0
 19 57  1  0
 21 58  1  0
 22 59  1  0
 25 60  1  0
 28 61  1  0
 28 62  1  0
 29 63  1  0
 31 64  1  0
 32 65  1  0
 33 66  1  0
 34 67  1  0
 36 68  1  0
 38 69  1  0
 42 70  1  0
 45 71  1  0
 45 72  1  0
M  CHG  3   5  -1  20   1  23  -1
M  END
>  <EmbedRMS>  (43) 
0.0815512961948

$$$$

     RDKit          3D

 72 76  0  0  0  0  0  0  0  0999 V2000
   10.2804   43.7665   33.8252 C   0  0  0  0  0  0  0  0  0  0  0  0
   11.4111   43.5918   34.3667 O   0  0  0  0  0  0  0  0  0  0  0  0
    9.3617   42.7251   33.7349 O   0  0  0  0  0  0  0  0  0  0  0  0
    9.8896   41.2269   34.2946 P   0  0  0  0  0  0  0  0  0  0  0  0
   10.3732   41.4568   35.8838 O   0  0  0  0  0  0  0  0  0  0  0  0
    9.9459   45.0737   33.2115 C   0  0  1  0  0  0  0  0  0  0  0  0
   11.0267   46.0292   33.4707 N   0  0  0  0  0  0  0  0  0  0  0  0
    9.7533   44.8540   31.6954 C   0  0  0  0  0  0  0  0  0  0  0  0
    8.7953   45.8416   31.0859 C   0  0  0  0  0  0  0  0  0  0  0  0
    7.4088   45.6000   31.0998 C   0  0  0  0  0  0  0  0  0  0  0  0
    9.2827   46.9871   30.4390 C   0  0  0  0  0  0  0  0  0  0  0  0
    6.5287   46.4998   30.4830 C   0  0  0  0  0  0  0  0  0  0  0  0
    8.4021   47.8877   29.8282 C   0  0  0  0  0  0  0  0  0  0  0  0
    7.0136   47.6541   29.8522 C   0  0  0  0  0  0  0  0  0  0  0  0
    6.0851   48.5238   29.2592 O   0  0  0  0  0  0  0  0  0  0  0  0
    6.3369   49.8735   28.8650 C   0  0  0  0  0  0  0  0  0  0  0  0
    6.4933   50.7674   30.0743 C   0  0  0  0  0  0  0  0  0  0  0  0
    5.3865   51.1565   30.8792 C   0  0  0  0  0  0  0  0  0  0  0  0
    7.7707   51.2770   30.3753 C   0  0  0  0  0  0  0  0  0  0  0  0
    4.0410   50.7318   30.5893 N   0  0  0  0  0  0  0  0  0  0  0  0
    5.6035   52.0246   31.9658 C   0  0  0  0  0  0  0  0  0  0  0  0
    7.9630   52.1265   31.4648 C   0  0  0  0  0  0  0  0  0  0  0  0
    3.7742   49.4431   30.1925 O   0  0  0  0  0  0  0  0  0  0  0  0
    3.0806   51.4873   30.8457 O   0  0  0  0  0  0  0  0  0  0  0  0
    6.8823   52.4970   32.2604 C   0  0  0  0  0  0  0  0  0  0  0  0
    8.8122   40.1844   34.2135 O   0  0  0  0  0  0  0  0  0  0  0  0
   11.2401   40.7950   33.3698 O   0  0  0  0  0  0  0  0  0  0  0  0
   10.9143   40.6914   31.9981 C   0  0  0  0  0  0  0  0  0  0  0  0
   11.5269   39.3911   31.4385 C   0  0  0  0  0  0  0  0  0  0  0  0
   12.7519   39.0911   32.0837 O   0  0  0  0  0  0  0  0  0  0  0  0
   10.6113   38.1932   31.6451 C   0  0  0  0  0  0  0  0  0  0  0  0
   12.9413   37.6838   32.0297 C   0  0  0  0  0  0  0  0  0  0  0  0
    9.6064   38.0878   30.6599 O   0  0  0  0  0  0  0  0  0  0  0  0
   11.5822   37.0197   31.6877 C   0  0  0  0  0  0  0  0  0  0  0  0
   13.4840   37.2104   33.3254 N   0  0  0  0  0  0  0  0  0  0  0  0
   11.6179   36.3072   30.4690 O   0  0  0  0  0  0  0  0  0  0  0  0
   14.4797   36.3309   33.5738 C   0  0  0  0  0  0  0  0  0  0  0  0
   13.1136   37.6269   34.5702 C   0  0  0  0  0  0  0  0  0  0  0  0
   15.2074   35.6152   32.6747 N   0  0  0  0  0  0  0  0  0  0  0  0
   14.6756   36.2298   34.9190 C   0  0  0  0  0  0  0  0  0  0  0  0
   13.8217   37.0445   35.5793 N   0  0  0  0  0  0  0  0  0  0  0  0
   16.1643   34.7603   33.1551 C   0  0  0  0  0  0  0  0  0  0  0  0
   15.6528   35.3503   35.4136 C   0  0  0  0  0  0  0  0  0  0  0  0
   16.3798   34.6316   34.5046 N   0  0  0  0  0  0  0  0  0  0  0  0
   15.9004   35.1930   36.8094 N   0  0  0  0  0  0  0  0  0  0  0  0
    8.9997   45.4383   33.6728 H   0  0  0  0  0  0  0  0  0  0  0  0
   10.7765   46.9368   33.0155 H   0  0  0  0  0  0  0  0  0  0  0  0
   11.0505   46.2280   34.4980 H   0  0  0  0  0  0  0  0  0  0  0  0
   10.7403   44.9070   31.1837 H   0  0  0  0  0  0  0  0  0  0  0  0
    9.3631   43.8355   31.4719 H   0  0  0  0  0  0  0  0  0  0  0  0
    7.0130   44.7151   31.5829 H   0  0  0  0  0  0  0  0  0  0  0  0
   10.3474   47.1818   30.3992 H   0  0  0  0  0  0  0  0  0  0  0  0
    5.4643   46.3029   30.5023 H   0  0  0  0  0  0  0  0  0  0  0  0
    8.8172   48.7433   29.3198 H   0  0  0  0  0  0  0  0  0  0  0  0
    5.4820   50.2361   28.2566 H   0  0  0  0  0  0  0  0  0  0  0  0
    7.2232   49.9159   28.1967 H   0  0  0  0  0  0  0  0  0  0  0  0
    8.6246   51.0282   29.7592 H   0  0  0  0  0  0  0  0  0  0  0  0
    4.7765   52.3327   32.5933 H   0  0  0  0  0  0  0  0  0  0  0  0
    8.9523   52.5054   31.6870 H   0  0  0  0  0  0  0  0  0  0  0  0
    7.0334   53.1599   33.1027 H   0  0  0  0  0  0  0  0  0  0  0  0
   11.3775   41.5548   31.4741 H   0  0  0  0  0  0  0  0  0  0  0  0
    9.8233   40.7200   31.7652 H   0  0  0  0  0  0  0  0  0  0  0  0
   11.7312   39.5362   30.3532 H   0  0  0  0  0  0  0  0  0  0  0  0
   10.1202   38.2696   32.6410 H   0  0  0  0  0  0  0  0  0  0  0  0
   13.6850   37.4639   31.2321 H   0  0  0  0  0  0  0  0  0  0  0  0
   10.0251   38.1792   29.7654 H   0  0  0  0  0  0  0  0  0  0  0  0
   11.2757   36.3135   32.4907 H   0  0  0  0  0  0  0  0  0  0  0  0
   11.9838   36.9111   29.7708 H   0  0  0  0  0  0  0  0  0  0  0  0
   12.3307   38.3536   34.7458 H   0  0  0  0  0  0  0  0  0  0  0  0
   16.7566   34.1787   32.4623 H   0  0  0  0  0  0  0  0  0  0  0  0
   16.6353   34.5301   37.1419 H   0  0  0  0  0  0  0  0  0  0  0  0
   15.3535   35.7355   37.5144 H   0  0  0  0  0  0  0  0  0  0  0  0
  1  2  2  0
  1  3  1  0
  3  4  1  0
  4  5  1  0
  6  1  1  0
  7  6  1  0
  6  8  1  0
  8  9  1  0
  9 10  2  0
 11  9  1  0
 10 12  1  0
 13 11  2  0
 12 14  2  0
 14 13  1  0
 14 15  1  0
 15 16  1  0
 16 17  1  0
 17 18  2  0
 19 17  1  0
 18 20  1  0
 18 21  1  0
 22 19  2  0
 20 23  1  0
 20 24  2  0
 21 25  2  0
 25 22  1  0
  4 26  2  0
  4 27  1  0
 28 27  1  0
 28 29  1  0
 29 30  1  0
 29 31  1  0
 30 32  1  0
 31 33  1  0
 31 34  1  0
 34 32  1  0
 32 35  1  0
 34 36  1  0
 37 35  1  0
 38 35  1  0
 39 37  2  0
 37 40  1  0
 41 38  2  0
 42 39  1  0
 40 43  2  0
 40 41  1  0
 44 42  2  0
 44 43  1  0
 43 45  1  0
  6 46  1  1
  7 47  1  0
  7 48  1  0
  8 49  1  0
  8 50  1  0
 10 51  1  0
 11 52  1  0
 12 53  1  0
 13 54  1  0
 16 55  1  0
 16 56  1  0
 19 57  1  0
 21 58  1  0
 22 59  1  0
 25 60  1  0
 28 61  1  0
 28 62  1  0
 29 63  1  0
 31 64  1  0
 32 65  1  0
 33 66  1  0
 34 67  1  0
 36 68  1  0
 38 69  1  0
 42 70  1  0
 45 71  1  0
 45 72  1  0
M  CHG  3   5  -1  20   1  23  -1
M  END
>  <EmbedRMS>  (44) 
0.0806480664476

$$$$

     RDKit          3D

 72 76  0  0  0  0  0  0  0  0999 V2000
   10.2834   43.7661   33.8257 C   0  0  0  0  0  0  0  0  0  0  0  0
   11.4102   43.5930   34.3752 O   0  0  0  0  0  0  0  0  0  0  0  0
    9.3637   42.7255   33.7350 O   0  0  0  0  0  0  0  0  0  0  0  0
    9.8902   41.2267   34.2942 P   0  0  0  0  0  0  0  0  0  0  0  0
   10.3736   41.4560   35.8836 O   0  0  0  0  0  0  0  0  0  0  0  0
    9.9547   45.0695   33.2036 C   0  0  1  0  0  0  0  0  0  0  0  0
   11.0274   46.0321   33.4756 N   0  0  0  0  0  0  0  0  0  0  0  0
    9.7466   44.8481   31.6877 C   0  0  0  0  0  0  0  0  0  0  0  0
    8.7923   45.8409   31.0844 C   0  0  0  0  0  0  0  0  0  0  0  0
    7.4054   45.6015   31.0991 C   0  0  0  0  0  0  0  0  0  0  0  0
    9.2824   46.9880   30.4423 C   0  0  0  0  0  0  0  0  0  0  0  0
    6.5264   46.5032   30.4840 C   0  0  0  0  0  0  0  0  0  0  0  0
    8.4032   47.8902   29.8315 C   0  0  0  0  0  0  0  0  0  0  0  0
    7.0143   47.6525   29.8474 C   0  0  0  0  0  0  0  0  0  0  0  0
    6.0936   48.5232   29.2471 O   0  0  0  0  0  0  0  0  0  0  0  0
    6.4458   49.7156   28.5493 C   0  0  0  0  0  0  0  0  0  0  0  0
    5.2023   50.3644   27.9944 C   0  0  0  0  0  0  0  0  0  0  0  0
    4.3042   49.6697   27.1388 C   0  0  0  0  0  0  0  0  0  0  0  0
    4.9053   51.6874   28.3722 C   0  0  0  0  0  0  0  0  0  0  0  0
    4.5512   48.3167   26.7122 N   0  0  0  0  0  0  0  0  0  0  0  0
    3.1285   50.3151   26.7124 C   0  0  0  0  0  0  0  0  0  0  0  0
    3.7408   52.3125   27.9250 C   0  0  0  0  0  0  0  0  0  0  0  0
    5.8177   47.9070   26.3668 O   0  0  0  0  0  0  0  0  0  0  0  0
    3.5937   47.5443   26.4985 O   0  0  0  0  0  0  0  0  0  0  0  0
    2.8525   51.6267   27.0999 C   0  0  0  0  0  0  0  0  0  0  0  0
    8.8121   40.1850   34.2131 O   0  0  0  0  0  0  0  0  0  0  0  0
   11.2404   40.7941   33.3690 O   0  0  0  0  0  0  0  0  0  0  0  0
   10.9143   40.6898   31.9972 C   0  0  0  0  0  0  0  0  0  0  0  0
   11.5261   39.3885   31.4376 C   0  0  0  0  0  0  0  0  0  0  0  0
   12.7504   39.0888   32.0816 O   0  0  0  0  0  0  0  0  0  0  0  0
   10.6115   38.1910   31.6460 C   0  0  0  0  0  0  0  0  0  0  0  0
   12.9357   37.6812   32.0303 C   0  0  0  0  0  0  0  0  0  0  0  0
    9.6146   38.0859   30.6534 O   0  0  0  0  0  0  0  0  0  0  0  0
   11.5769   37.0148   31.7012 C   0  0  0  0  0  0  0  0  0  0  0  0
   13.4849   37.2112   33.3247 N   0  0  0  0  0  0  0  0  0  0  0  0
   11.6193   36.3261   30.4724 O   0  0  0  0  0  0  0  0  0  0  0  0
   14.4802   36.3313   33.5730 C   0  0  0  0  0  0  0  0  0  0  0  0
   13.1141   37.6268   34.5698 C   0  0  0  0  0  0  0  0  0  0  0  0
   15.2075   35.6151   32.6741 N   0  0  0  0  0  0  0  0  0  0  0  0
   14.6761   36.2300   34.9184 C   0  0  0  0  0  0  0  0  0  0  0  0
   13.8220   37.0445   35.5789 N   0  0  0  0  0  0  0  0  0  0  0  0
   16.1642   34.7600   33.1547 C   0  0  0  0  0  0  0  0  0  0  0  0
   15.6529   35.3503   35.4131 C   0  0  0  0  0  0  0  0  0  0  0  0
   16.3798   34.6314   34.5042 N   0  0  0  0  0  0  0  0  0  0  0  0
   15.9004   35.1930   36.8090 N   0  0  0  0  0  0  0  0  0  0  0  0
    9.0121   45.4318   33.6714 H   0  0  0  0  0  0  0  0  0  0  0  0
   10.7260   46.9687   33.1213 H   0  0  0  0  0  0  0  0  0  0  0  0
   11.8906   45.7658   32.9469 H   0  0  0  0  0  0  0  0  0  0  0  0
    9.3414   43.8330   31.4763 H   0  0  0  0  0  0  0  0  0  0  0  0
   10.7229   44.8814   31.1556 H   0  0  0  0  0  0  0  0  0  0  0  0
    7.0082   44.7167   31.5811 H   0  0  0  0  0  0  0  0  0  0  0  0
   10.3470   47.1851   30.4117 H   0  0  0  0  0  0  0  0  0  0  0  0
    5.4618   46.3070   30.5013 H   0  0  0  0  0  0  0  0  0  0  0  0
    8.8141   48.7659   29.3483 H   0  0  0  0  0  0  0  0  0  0  0  0
    6.9722   50.4005   29.2497 H   0  0  0  0  0  0  0  0  0  0  0  0
    7.1451   49.4866   27.7184 H   0  0  0  0  0  0  0  0  0  0  0  0
    5.5730   52.2386   29.0230 H   0  0  0  0  0  0  0  0  0  0  0  0
    2.4282   49.8041   26.0636 H   0  0  0  0  0  0  0  0  0  0  0  0
    3.5241   53.3299   28.2243 H   0  0  0  0  0  0  0  0  0  0  0  0
    1.9479   52.1128   26.7577 H   0  0  0  0  0  0  0  0  0  0  0  0
    9.8233   40.7191   31.7647 H   0  0  0  0  0  0  0  0  0  0  0  0
   11.3779   41.5526   31.4727 H   0  0  0  0  0  0  0  0  0  0  0  0
   11.7283   39.5312   30.3515 H   0  0  0  0  0  0  0  0  0  0  0  0
   10.1127   38.2734   32.6376 H   0  0  0  0  0  0  0  0  0  0  0  0
   13.6692   37.4566   31.2242 H   0  0  0  0  0  0  0  0  0  0  0  0
   10.0533   38.1118   29.7636 H   0  0  0  0  0  0  0  0  0  0  0  0
   11.2607   36.3148   32.5102 H   0  0  0  0  0  0  0  0  0  0  0  0
   12.1496   35.5023   30.6324 H   0  0  0  0  0  0  0  0  0  0  0  0
   12.3301   38.3524   34.7455 H   0  0  0  0  0  0  0  0  0  0  0  0
   16.7563   34.1781   32.4619 H   0  0  0  0  0  0  0  0  0  0  0  0
   16.6351   34.5298   37.1416 H   0  0  0  0  0  0  0  0  0  0  0  0
   15.3536   35.7357   37.5139 H   0  0  0  0  0  0  0  0  0  0  0  0
  1  2  2  0
  1  3  1  0
  3  4  1  0
  4  5  1  0
  6  1  1  0
  7  6  1  0
  6  8  1  0
  8  9  1  0
  9 10  2  0
 11  9  1  0
 10 12  1  0
 13 11  2  0
 12 14  2  0
 14 13  1  0
 14 15  1  0
 15 16  1  0
 16 17  1  0
 17 18  2  0
 19 17  1  0
 18 20  1  0
 18 21  1  0
 22 19  2  0
 20 23  1  0
 20 24  2  0
 21 25  2  0
 25 22  1  0
  4 26  2  0
  4 27  1  0
 28 27  1  0
 28 29  1  0
 29 30  1  0
 29 31  1  0
 30 32  1  0
 31 33  1  0
 31 34  1  0
 34 32  1  0
 32 35  1  0
 34 36  1  0
 37 35  1  0
 38 35  1  0
 39 37  2  0
 37 40  1  0
 41 38  2  0
 42 39  1  0
 40 43  2  0
 40 41  1  0
 44 42  2  0
 44 43  1  0
 43 45  1  0
  6 46  1  1
  7 47  1  0
  7 48  1  0
  8 49  1  0
  8 50  1  0
 10 51  1  0
 11 52  1  0
 12 53  1  0
 13 54  1  0
 16 55  1  0
 16 56  1  0
 19 57  1  0
 21 58  1  0
 22 59  1  0
 25 60  1  0
 28 61  1  0
 28 62  1  0
 29 63  1  0
 31 64  1  0
 32 65  1  0
 33 66  1  0
 34 67  1  0
 36 68  1  0
 38 69  1  0
 42 70  1  0
 45 71  1  0
 45 72  1  0
M  CHG  3   5  -1  20   1  23  -1
M  END
>  <EmbedRMS>  (45) 
0.0816253539732

$$$$

     RDKit          3D

 72 76  0  0  0  0  0  0  0  0999 V2000
   10.2803   43.7665   33.8251 C   0  0  0  0  0  0  0  0  0  0  0  0
   11.4110   43.5918   34.3666 O   0  0  0  0  0  0  0  0  0  0  0  0
    9.3616   42.7251   33.7349 O   0  0  0  0  0  0  0  0  0  0  0  0
    9.8896   41.2269   34.2945 P   0  0  0  0  0  0  0  0  0  0  0  0
   10.3732   41.4568   35.8838 O   0  0  0  0  0  0  0  0  0  0  0  0
    9.9459   45.0736   33.2112 C   0  0  1  0  0  0  0  0  0  0  0  0
   11.0267   46.0291   33.4706 N   0  0  0  0  0  0  0  0  0  0  0  0
    9.7535   44.8539   31.6950 C   0  0  0  0  0  0  0  0  0  0  0  0
    8.7955   45.8411   31.0848 C   0  0  0  0  0  0  0  0  0  0  0  0
    7.4085   45.6005   31.1008 C   0  0  0  0  0  0  0  0  0  0  0  0
    9.2831   46.9879   30.4398 C   0  0  0  0  0  0  0  0  0  0  0  0
    6.5278   46.5010   30.4854 C   0  0  0  0  0  0  0  0  0  0  0  0
    8.4025   47.8894   29.8301 C   0  0  0  0  0  0  0  0  0  0  0  0
    7.0138   47.6509   29.8481 C   0  0  0  0  0  0  0  0  0  0  0  0
    6.0915   48.5217   29.2497 O   0  0  0  0  0  0  0  0  0  0  0  0
    6.4415   49.7240   28.5666 C   0  0  0  0  0  0  0  0  0  0  0  0
    5.1955   50.3725   28.0131 C   0  0  0  0  0  0  0  0  0  0  0  0
    4.8645   51.7323   28.2560 C   0  0  0  0  0  0  0  0  0  0  0  0
    4.3171   49.5808   27.2506 C   0  0  0  0  0  0  0  0  0  0  0  0
    5.7611   52.6222   28.9381 N   0  0  0  0  0  0  0  0  0  0  0  0
    3.6371   52.2346   27.7911 C   0  0  0  0  0  0  0  0  0  0  0  0
    3.1122   50.1041   26.7791 C   0  0  0  0  0  0  0  0  0  0  0  0
    5.2572   53.5793   29.7883 O   0  0  0  0  0  0  0  0  0  0  0  0
    6.9535   52.7048   28.5779 O   0  0  0  0  0  0  0  0  0  0  0  0
    2.7678   51.4253   27.0582 C   0  0  0  0  0  0  0  0  0  0  0  0
    8.8122   40.1844   34.2135 O   0  0  0  0  0  0  0  0  0  0  0  0
   11.2401   40.7949   33.3698 O   0  0  0  0  0  0  0  0  0  0  0  0
   10.9143   40.6914   31.9981 C   0  0  0  0  0  0  0  0  0  0  0  0
   11.5270   39.3911   31.4385 C   0  0  0  0  0  0  0  0  0  0  0  0
   12.7519   39.0911   32.0837 O   0  0  0  0  0  0  0  0  0  0  0  0
   10.6113   38.1932   31.6451 C   0  0  0  0  0  0  0  0  0  0  0  0
   12.9413   37.6838   32.0297 C   0  0  0  0  0  0  0  0  0  0  0  0
    9.6064   38.0878   30.6599 O   0  0  0  0  0  0  0  0  0  0  0  0
   11.5822   37.0197   31.6877 C   0  0  0  0  0  0  0  0  0  0  0  0
   13.4840   37.2104   33.3254 N   0  0  0  0  0  0  0  0  0  0  0  0
   11.6179   36.3072   30.4690 O   0  0  0  0  0  0  0  0  0  0  0  0
   14.4797   36.3309   33.5738 C   0  0  0  0  0  0  0  0  0  0  0  0
   13.1136   37.6269   34.5702 C   0  0  0  0  0  0  0  0  0  0  0  0
   15.2074   35.6152   32.6747 N   0  0  0  0  0  0  0  0  0  0  0  0
   14.6756   36.2298   34.9190 C   0  0  0  0  0  0  0  0  0  0  0  0
   13.8217   37.0445   35.5793 N   0  0  0  0  0  0  0  0  0  0  0  0
   16.1643   34.7603   33.1551 C   0  0  0  0  0  0  0  0  0  0  0  0
   15.6528   35.3503   35.4136 C   0  0  0  0  0  0  0  0  0  0  0  0
   16.3798   34.6316   34.5046 N   0  0  0  0  0  0  0  0  0  0  0  0
   15.9004   35.1930   36.8094 N   0  0  0  0  0  0  0  0  0  0  0  0
    8.9996   45.4383   33.6723 H   0  0  0  0  0  0  0  0  0  0  0  0
   11.0505   46.2277   34.4980 H   0  0  0  0  0  0  0  0  0  0  0  0
   10.7765   46.9368   33.0156 H   0  0  0  0  0  0  0  0  0  0  0  0
    9.3635   43.8353   31.4716 H   0  0  0  0  0  0  0  0  0  0  0  0
   10.7406   44.9069   31.1835 H   0  0  0  0  0  0  0  0  0  0  0  0
    7.0130   44.7162   31.5850 H   0  0  0  0  0  0  0  0  0  0  0  0
   10.3474   47.1863   30.4064 H   0  0  0  0  0  0  0  0  0  0  0  0
    5.4634   46.3040   30.5047 H   0  0  0  0  0  0  0  0  0  0  0  0
    8.8122   48.7646   29.3450 H   0  0  0  0  0  0  0  0  0  0  0  0
    7.1207   49.4858   27.7198 H   0  0  0  0  0  0  0  0  0  0  0  0
    6.9720   50.3853   29.2795 H   0  0  0  0  0  0  0  0  0  0  0  0
    4.5585   48.5467   27.0362 H   0  0  0  0  0  0  0  0  0  0  0  0
    3.3654   53.2668   27.9732 H   0  0  0  0  0  0  0  0  0  0  0  0
    2.4407   49.4808   26.2027 H   0  0  0  0  0  0  0  0  0  0  0  0
    1.8307   51.8277   26.6954 H   0  0  0  0  0  0  0  0  0  0  0  0
    9.8233   40.7200   31.7652 H   0  0  0  0  0  0  0  0  0  0  0  0
   11.3775   41.5548   31.4741 H   0  0  0  0  0  0  0  0  0  0  0  0
   11.7312   39.5361   30.3532 H   0  0  0  0  0  0  0  0  0  0  0  0
   10.1203   38.2696   32.6410 H   0  0  0  0  0  0  0  0  0  0  0  0
   13.6850   37.4639   31.2321 H   0  0  0  0  0  0  0  0  0  0  0  0
   10.0251   38.1792   29.7654 H   0  0  0  0  0  0  0  0  0  0  0  0
   11.2757   36.3135   32.4907 H   0  0  0  0  0  0  0  0  0  0  0  0
   11.9838   36.9111   29.7708 H   0  0  0  0  0  0  0  0  0  0  0  0
   12.3307   38.3536   34.7458 H   0  0  0  0  0  0  0  0  0  0  0  0
   16.7566   34.1787   32.4623 H   0  0  0  0  0  0  0  0  0  0  0  0
   15.3535   35.7355   37.5144 H   0  0  0  0  0  0  0  0  0  0  0  0
   16.6353   34.5301   37.1419 H   0  0  0  0  0  0  0  0  0  0  0  0
  1  2  2  0
  1  3  1  0
  3  4  1  0
  4  5  1  0
  6  1  1  0
  7  6  1  0
  6  8  1  0
  8  9  1  0
  9 10  2  0
 11  9  1  0
 10 12  1  0
 13 11  2  0
 12 14  2  0
 14 13  1  0
 14 15  1  0
 15 16  1  0
 16 17  1  0
 17 18  2  0
 19 17  1  0
 18 20  1  0
 18 21  1  0
 22 19  2  0
 20 23  1  0
 20 24  2  0
 21 25  2  0
 25 22  1  0
  4 26  2  0
  4 27  1  0
 28 27  1  0
 28 29  1  0
 29 30  1  0
 29 31  1  0
 30 32  1  0
 31 33  1  0
 31 34  1  0
 34 32  1  0
 32 35  1  0
 34 36  1  0
 37 35  1  0
 38 35  1  0
 39 37  2  0
 37 40  1  0
 41 38  2  0
 42 39  1  0
 40 43  2  0
 40 41  1  0
 44 42  2  0
 44 43  1  0
 43 45  1  0
  6 46  1  1
  7 47  1  0
  7 48  1  0
  8 49  1  0
  8 50  1  0
 10 51  1  0
 11 52  1  0
 12 53  1  0
 13 54  1  0
 16 55  1  0
 16 56  1  0
 19 57  1  0
 21 58  1  0
 22 59  1  0
 25 60  1  0
 28 61  1  0
 28 62  1  0
 29 63  1  0
 31 64  1  0
 32 65  1  0
 33 66  1  0
 34 67  1  0
 36 68  1  0
 38 69  1  0
 42 70  1  0
 45 71  1  0
 45 72  1  0
M  CHG  3   5  -1  20   1  23  -1
M  END
>  <EmbedRMS>  (46) 
0.0806517357068

$$$$

     RDKit          3D

 72 76  0  0  0  0  0  0  0  0999 V2000
   10.2834   43.7662   33.8257 C   0  0  0  0  0  0  0  0  0  0  0  0
   11.4102   43.5930   34.3752 O   0  0  0  0  0  0  0  0  0  0  0  0
    9.3637   42.7255   33.7350 O   0  0  0  0  0  0  0  0  0  0  0  0
    9.8902   41.2267   34.2942 P   0  0  0  0  0  0  0  0  0  0  0  0
   10.3736   41.4560   35.8836 O   0  0  0  0  0  0  0  0  0  0  0  0
    9.9546   45.0695   33.2036 C   0  0  1  0  0  0  0  0  0  0  0  0
   11.0273   46.0322   33.4756 N   0  0  0  0  0  0  0  0  0  0  0  0
    9.7465   44.8481   31.6878 C   0  0  0  0  0  0  0  0  0  0  0  0
    8.7923   45.8409   31.0846 C   0  0  0  0  0  0  0  0  0  0  0  0
    7.4055   45.6012   31.0984 C   0  0  0  0  0  0  0  0  0  0  0  0
    9.2824   46.9875   30.4421 C   0  0  0  0  0  0  0  0  0  0  0  0
    6.5267   46.5028   30.4830 C   0  0  0  0  0  0  0  0  0  0  0  0
    8.4034   47.8894   29.8310 C   0  0  0  0  0  0  0  0  0  0  0  0
    7.0139   47.6541   29.8493 C   0  0  0  0  0  0  0  0  0  0  0  0
    6.0888   48.5288   29.2564 O   0  0  0  0  0  0  0  0  0  0  0  0
    6.4103   49.7886   28.6644 C   0  0  0  0  0  0  0  0  0  0  0  0
    6.8266   50.7886   29.7208 C   0  0  0  0  0  0  0  0  0  0  0  0
    7.9994   51.5784   29.6020 C   0  0  0  0  0  0  0  0  0  0  0  0
    6.0356   50.9073   30.8782 C   0  0  0  0  0  0  0  0  0  0  0  0
    8.7910   51.5760   28.4040 N   0  0  0  0  0  0  0  0  0  0  0  0
    8.3819   52.4069   30.6716 C   0  0  0  0  0  0  0  0  0  0  0  0
    6.4211   51.7501   31.9216 C   0  0  0  0  0  0  0  0  0  0  0  0
    8.1859   51.7465   27.1802 O   0  0  0  0  0  0  0  0  0  0  0  0
   10.0349   51.6511   28.4775 O   0  0  0  0  0  0  0  0  0  0  0  0
    7.5979   52.4902   31.8231 C   0  0  0  0  0  0  0  0  0  0  0  0
    8.8121   40.1850   34.2131 O   0  0  0  0  0  0  0  0  0  0  0  0
   11.2404   40.7941   33.3690 O   0  0  0  0  0  0  0  0  0  0  0  0
   10.9143   40.6898   31.9972 C   0  0  0  0  0  0  0  0  0  0  0  0
   11.5261   39.3885   31.4376 C   0  0  0  0  0  0  0  0  0  0  0  0
   12.7504   39.0888   32.0815 O   0  0  0  0  0  0  0  0  0  0  0  0
   10.6115   38.1910   31.6460 C   0  0  0  0  0  0  0  0  0  0  0  0
   12.9357   37.6812   32.0303 C   0  0  0  0  0  0  0  0  0  0  0  0
    9.6146   38.0859   30.6534 O   0  0  0  0  0  0  0  0  0  0  0  0
   11.5769   37.0148   31.7012 C   0  0  0  0  0  0  0  0  0  0  0  0
   13.4849   37.2112   33.3247 N   0  0  0  0  0  0  0  0  0  0  0  0
   11.6193   36.3261   30.4724 O   0  0  0  0  0  0  0  0  0  0  0  0
   14.4802   36.3313   33.5730 C   0  0  0  0  0  0  0  0  0  0  0  0
   13.1141   37.6268   34.5698 C   0  0  0  0  0  0  0  0  0  0  0  0
   15.2075   35.6151   32.6741 N   0  0  0  0  0  0  0  0  0  0  0  0
   14.6761   36.2300   34.9184 C   0  0  0  0  0  0  0  0  0  0  0  0
   13.8220   37.0445   35.5789 N   0  0  0  0  0  0  0  0  0  0  0  0
   16.1642   34.7600   33.1547 C   0  0  0  0  0  0  0  0  0  0  0  0
   15.6529   35.3503   35.4132 C   0  0  0  0  0  0  0  0  0  0  0  0
   16.3797   34.6314   34.5042 N   0  0  0  0  0  0  0  0  0  0  0  0
   15.9004   35.1930   36.8090 N   0  0  0  0  0  0  0  0  0  0  0  0
    9.0121   45.4318   33.6715 H   0  0  0  0  0  0  0  0  0  0  0  0
   10.7258   46.9688   33.1213 H   0  0  0  0  0  0  0  0  0  0  0  0
   11.8905   45.7660   32.9469 H   0  0  0  0  0  0  0  0  0  0  0  0
    9.3413   43.8330   31.4764 H   0  0  0  0  0  0  0  0  0  0  0  0
   10.7229   44.8814   31.1557 H   0  0  0  0  0  0  0  0  0  0  0  0
    7.0083   44.7163   31.5803 H   0  0  0  0  0  0  0  0  0  0  0  0
   10.3471   47.1838   30.4100 H   0  0  0  0  0  0  0  0  0  0  0  0
    5.4620   46.3072   30.5021 H   0  0  0  0  0  0  0  0  0  0  0  0
    8.8175   48.7594   29.3428 H   0  0  0  0  0  0  0  0  0  0  0  0
    5.5011   50.1768   28.1597 H   0  0  0  0  0  0  0  0  0  0  0  0
    7.1800   49.6314   27.8831 H   0  0  0  0  0  0  0  0  0  0  0  0
    5.1265   50.3274   30.9820 H   0  0  0  0  0  0  0  0  0  0  0  0
    9.2779   53.0109   30.6013 H   0  0  0  0  0  0  0  0  0  0  0  0
    5.8099   51.8229   32.8119 H   0  0  0  0  0  0  0  0  0  0  0  0
    7.8974   53.1397   32.6355 H   0  0  0  0  0  0  0  0  0  0  0  0
    9.8233   40.7191   31.7647 H   0  0  0  0  0  0  0  0  0  0  0  0
   11.3779   41.5526   31.4726 H   0  0  0  0  0  0  0  0  0  0  0  0
   11.7283   39.5312   30.3515 H   0  0  0  0  0  0  0  0  0  0  0  0
   10.1127   38.2734   32.6376 H   0  0  0  0  0  0  0  0  0  0  0  0
   13.6692   37.4566   31.2242 H   0  0  0  0  0  0  0  0  0  0  0  0
   10.0533   38.1118   29.7636 H   0  0  0  0  0  0  0  0  0  0  0  0
   11.2607   36.3148   32.5102 H   0  0  0  0  0  0  0  0  0  0  0  0
   12.1496   35.5023   30.6324 H   0  0  0  0  0  0  0  0  0  0  0  0
   12.3301   38.3524   34.7455 H   0  0  0  0  0  0  0  0  0  0  0  0
   16.7563   34.1781   32.4619 H   0  0  0  0  0  0  0  0  0  0  0  0
   15.3536   35.7357   37.5140 H   0  0  0  0  0  0  0  0  0  0  0  0
   16.6351   34.5298   37.1415 H   0  0  0  0  0  0  0  0  0  0  0  0
  1  2  2  0
  1  3  1  0
  3  4  1  0
  4  5  1  0
  6  1  1  0
  7  6  1  0
  6  8  1  0
  8  9  1  0
  9 10  2  0
 11  9  1  0
 10 12  1  0
 13 11  2  0
 12 14  2  0
 14 13  1  0
 14 15  1  0
 15 16  1  0
 16 17  1  0
 17 18  2  0
 19 17  1  0
 18 20  1  0
 18 21  1  0
 22 19  2  0
 20 23  1  0
 20 24  2  0
 21 25  2  0
 25 22  1  0
  4 26  2  0
  4 27  1  0
 28 27  1  0
 28 29  1  0
 29 30  1  0
 29 31  1  0
 30 32  1  0
 31 33  1  0
 31 34  1  0
 34 32  1  0
 32 35  1  0
 34 36  1  0
 37 35  1  0
 38 35  1  0
 39 37  2  0
 37 40  1  0
 41 38  2  0
 42 39  1  0
 40 43  2  0
 40 41  1  0
 44 42  2  0
 44 43  1  0
 43 45  1  0
  6 46  1  1
  7 47  1  0
  7 48  1  0
  8 49  1  0
  8 50  1  0
 10 51  1  0
 11 52  1  0
 12 53  1  0
 13 54  1  0
 16 55  1  0
 16 56  1  0
 19 57  1  0
 21 58  1  0
 22 59  1  0
 25 60  1  0
 28 61  1  0
 28 62  1  0
 29 63  1  0
 31 64  1  0
 32 65  1  0
 33 66  1  0
 34 67  1  0
 36 68  1  0
 38 69  1  0
 42 70  1  0
 45 71  1  0
 45 72  1  0
M  CHG  3   5  -1  20   1  23  -1
M  END
>  <EmbedRMS>  (47) 
0.081621662614

$$$$

     RDKit          3D

 72 76  0  0  0  0  0  0  0  0999 V2000
   10.2804   43.7665   33.8250 C   0  0  0  0  0  0  0  0  0  0  0  0
   11.4111   43.5919   34.3667 O   0  0  0  0  0  0  0  0  0  0  0  0
    9.3619   42.7249   33.7345 O   0  0  0  0  0  0  0  0  0  0  0  0
    9.8903   41.2265   34.2931 P   0  0  0  0  0  0  0  0  0  0  0  0
   10.3742   41.4563   35.8824 O   0  0  0  0  0  0  0  0  0  0  0  0
    9.9458   45.0736   33.2113 C   0  0  1  0  0  0  0  0  0  0  0  0
   11.0266   46.0293   33.4706 N   0  0  0  0  0  0  0  0  0  0  0  0
    9.7535   44.8539   31.6951 C   0  0  0  0  0  0  0  0  0  0  0  0
    8.7955   45.8412   31.0850 C   0  0  0  0  0  0  0  0  0  0  0  0
    7.4087   45.6002   31.1001 C   0  0  0  0  0  0  0  0  0  0  0  0
    9.2830   46.9875   30.4395 C   0  0  0  0  0  0  0  0  0  0  0  0
    6.5281   46.5006   30.4846 C   0  0  0  0  0  0  0  0  0  0  0  0
    8.4027   47.8885   29.8296 C   0  0  0  0  0  0  0  0  0  0  0  0
    7.0134   47.6523   29.8499 C   0  0  0  0  0  0  0  0  0  0  0  0
    6.0868   48.5263   29.2583 O   0  0  0  0  0  0  0  0  0  0  0  0
    6.4067   49.7859   28.6649 C   0  0  0  0  0  0  0  0  0  0  0  0
    6.8261   50.7865   29.7195 C   0  0  0  0  0  0  0  0  0  0  0  0
    7.9975   51.5776   29.5957 C   0  0  0  0  0  0  0  0  0  0  0  0
    6.0398   50.9044   30.8801 C   0  0  0  0  0  0  0  0  0  0  0  0
    8.7841   51.5760   28.3944 N   0  0  0  0  0  0  0  0  0  0  0  0
    8.3836   52.4065   30.6637 C   0  0  0  0  0  0  0  0  0  0  0  0
    6.4288   51.7476   31.9219 C   0  0  0  0  0  0  0  0  0  0  0  0
    8.1735   51.7449   27.1731 O   0  0  0  0  0  0  0  0  0  0  0  0
   10.0282   51.6531   28.4626 O   0  0  0  0  0  0  0  0  0  0  0  0
    7.6044   52.4890   31.8185 C   0  0  0  0  0  0  0  0  0  0  0  0
    8.8125   40.1844   34.2130 O   0  0  0  0  0  0  0  0  0  0  0  0
   11.2405   40.7948   33.3668 O   0  0  0  0  0  0  0  0  0  0  0  0
   10.9133   40.6866   31.9952 C   0  0  0  0  0  0  0  0  0  0  0  0
   11.5166   39.3787   31.4404 C   0  0  0  0  0  0  0  0  0  0  0  0
   12.7485   39.0849   32.0735 O   0  0  0  0  0  0  0  0  0  0  0  0
   10.6039   38.1884   31.6669 C   0  0  0  0  0  0  0  0  0  0  0  0
   12.9329   37.6776   32.0284 C   0  0  0  0  0  0  0  0  0  0  0  0
    9.6373   38.0938   30.6484 O   0  0  0  0  0  0  0  0  0  0  0  0
   11.5737   37.0141   31.7055 C   0  0  0  0  0  0  0  0  0  0  0  0
   13.4853   37.2120   33.3238 N   0  0  0  0  0  0  0  0  0  0  0  0
   11.6210   36.3379   30.4683 O   0  0  0  0  0  0  0  0  0  0  0  0
   14.4804   36.3319   33.5726 C   0  0  0  0  0  0  0  0  0  0  0  0
   13.1141   37.6275   34.5689 C   0  0  0  0  0  0  0  0  0  0  0  0
   15.2075   35.6152   32.6740 N   0  0  0  0  0  0  0  0  0  0  0  0
   14.6761   36.2307   34.9181 C   0  0  0  0  0  0  0  0  0  0  0  0
   13.8218   37.0451   35.5783 N   0  0  0  0  0  0  0  0  0  0  0  0
   16.1641   34.7600   33.1548 C   0  0  0  0  0  0  0  0  0  0  0  0
   15.6528   35.3507   35.4131 C   0  0  0  0  0  0  0  0  0  0  0  0
   16.3795   34.6315   34.5043 N   0  0  0  0  0  0  0  0  0  0  0  0
   15.9001   35.1933   36.8090 N   0  0  0  0  0  0  0  0  0  0  0  0
    8.9995   45.4382   33.6724 H   0  0  0  0  0  0  0  0  0  0  0  0
   11.0503   46.2279   34.4980 H   0  0  0  0  0  0  0  0  0  0  0  0
   10.7762   46.9369   33.0156 H   0  0  0  0  0  0  0  0  0  0  0  0
    9.3635   43.8353   31.4716 H   0  0  0  0  0  0  0  0  0  0  0  0
   10.7406   44.9070   31.1836 H   0  0  0  0  0  0  0  0  0  0  0  0
    7.0131   44.7158   31.5841 H   0  0  0  0  0  0  0  0  0  0  0  0
   10.3474   47.1852   30.4048 H   0  0  0  0  0  0  0  0  0  0  0  0
    5.4637   46.3042   30.5052 H   0  0  0  0  0  0  0  0  0  0  0  0
    8.8154   48.7585   29.3402 H   0  0  0  0  0  0  0  0  0  0  0  0
    5.4961   50.1738   28.1625 H   0  0  0  0  0  0  0  0  0  0  0  0
    7.1743   49.6283   27.8816 H   0  0  0  0  0  0  0  0  0  0  0  0
    5.1318   50.3236   30.9878 H   0  0  0  0  0  0  0  0  0  0  0  0
    9.2786   53.0115   30.5896 H   0  0  0  0  0  0  0  0  0  0  0  0
    5.8212   51.8198   32.8148 H   0  0  0  0  0  0  0  0  0  0  0  0
    7.9066   53.1389   32.6296 H   0  0  0  0  0  0  0  0  0  0  0  0
   11.3826   41.5437   31.4666 H   0  0  0  0  0  0  0  0  0  0  0  0
    9.8224   40.7224   31.7629 H   0  0  0  0  0  0  0  0  0  0  0  0
   11.6979   39.5036   30.3478 H   0  0  0  0  0  0  0  0  0  0  0  0
   10.1084   38.2786   32.6627 H   0  0  0  0  0  0  0  0  0  0  0  0
   13.6638   37.4473   31.2214 H   0  0  0  0  0  0  0  0  0  0  0  0
    8.9763   37.4190   30.9532 H   0  0  0  0  0  0  0  0  0  0  0  0
   11.2821   36.3054   32.5172 H   0  0  0  0  0  0  0  0  0  0  0  0
   10.8658   35.6935   30.4652 H   0  0  0  0  0  0  0  0  0  0  0  0
   12.3293   38.3523   34.7445 H   0  0  0  0  0  0  0  0  0  0  0  0
   16.7561   34.1778   32.4621 H   0  0  0  0  0  0  0  0  0  0  0  0
   16.6346   34.5300   37.1416 H   0  0  0  0  0  0  0  0  0  0  0  0
   15.3533   35.7361   37.5138 H   0  0  0  0  0  0  0  0  0  0  0  0
  1  2  2  0
  1  3  1  0
  3  4  1  0
  4  5  1  0
  6  1  1  0
  7  6  1  0
  6  8  1  0
  8  9  1  0
  9 10  2  0
 11  9  1  0
 10 12  1  0
 13 11  2  0
 12 14  2  0
 14 13  1  0
 14 15  1  0
 15 16  1  0
 16 17  1  0
 17 18  2  0
 19 17  1  0
 18 20  1  0
 18 21  1  0
 22 19  2  0
 20 23  1  0
 20 24  2  0
 21 25  2  0
 25 22  1  0
  4 26  2  0
  4 27  1  0
 28 27  1  0
 28 29  1  0
 29 30  1  0
 29 31  1  0
 30 32  1  0
 31 33  1  0
 31 34  1  0
 34 32  1  0
 32 35  1  0
 34 36  1  0
 37 35  1  0
 38 35  1  0
 39 37  2  0
 37 40  1  0
 41 38  2  0
 42 39  1  0
 40 43  2  0
 40 41  1  0
 44 42  2  0
 44 43  1  0
 43 45  1  0
  6 46  1  1
  7 47  1  0
  7 48  1  0
  8 49  1  0
  8 50  1  0
 10 51  1  0
 11 52  1  0
 12 53  1  0
 13 54  1  0
 16 55  1  0
 16 56  1  0
 19 57  1  0
 21 58  1  0
 22 59  1  0
 25 60  1  0
 28 61  1  0
 28 62  1  0
 29 63  1  0
 31 64  1  0
 32 65  1  0
 33 66  1  0
 34 67  1  0
 36 68  1  0
 38 69  1  0
 42 70  1  0
 45 71  1  0
 45 72  1  0
M  CHG  3   5  -1  20   1  23  -1
M  END
>  <EmbedRMS>  (48) 
0.0823851007159

$$$$

     RDKit          3D

 72 76  0  0  0  0  0  0  0  0999 V2000
   10.2835   43.7661   33.8257 C   0  0  0  0  0  0  0  0  0  0  0  0
   11.4102   43.5930   34.3753 O   0  0  0  0  0  0  0  0  0  0  0  0
    9.3640   42.7253   33.7348 O   0  0  0  0  0  0  0  0  0  0  0  0
    9.8907   41.2265   34.2939 P   0  0  0  0  0  0  0  0  0  0  0  0
   10.3733   41.4558   35.8835 O   0  0  0  0  0  0  0  0  0  0  0  0
    9.9546   45.0695   33.2036 C   0  0  1  0  0  0  0  0  0  0  0  0
   11.0273   46.0322   33.4757 N   0  0  0  0  0  0  0  0  0  0  0  0
    9.7465   44.8481   31.6878 C   0  0  0  0  0  0  0  0  0  0  0  0
    8.7923   45.8409   31.0846 C   0  0  0  0  0  0  0  0  0  0  0  0
    7.4056   45.6012   31.0985 C   0  0  0  0  0  0  0  0  0  0  0  0
    9.2824   46.9875   30.4420 C   0  0  0  0  0  0  0  0  0  0  0  0
    6.5267   46.5028   30.4831 C   0  0  0  0  0  0  0  0  0  0  0  0
    8.4034   47.8893   29.8309 C   0  0  0  0  0  0  0  0  0  0  0  0
    7.0138   47.6540   29.8492 C   0  0  0  0  0  0  0  0  0  0  0  0
    6.0888   48.5285   29.2560 O   0  0  0  0  0  0  0  0  0  0  0  0
    6.4105   49.7868   28.6610 C   0  0  0  0  0  0  0  0  0  0  0  0
    6.8286   50.7890   29.7146 C   0  0  0  0  0  0  0  0  0  0  0  0
    8.0011   51.5787   29.5920 C   0  0  0  0  0  0  0  0  0  0  0  0
    6.0396   50.9100   30.8732 C   0  0  0  0  0  0  0  0  0  0  0  0
    8.7905   51.5739   28.3926 N   0  0  0  0  0  0  0  0  0  0  0  0
    8.3854   52.4095   30.6592 C   0  0  0  0  0  0  0  0  0  0  0  0
    6.4269   51.7551   31.9141 C   0  0  0  0  0  0  0  0  0  0  0  0
    8.1830   51.7414   27.1695 O   0  0  0  0  0  0  0  0  0  0  0  0
   10.0345   51.6496   28.4636 O   0  0  0  0  0  0  0  0  0  0  0  0
    7.6035   52.4951   31.8120 C   0  0  0  0  0  0  0  0  0  0  0  0
    8.8126   40.1848   34.2122 O   0  0  0  0  0  0  0  0  0  0  0  0
   11.2418   40.7943   33.3694 O   0  0  0  0  0  0  0  0  0  0  0  0
   10.9179   40.6904   31.9970 C   0  0  0  0  0  0  0  0  0  0  0  0
   11.5181   39.3814   31.4408 C   0  0  0  0  0  0  0  0  0  0  0  0
   12.7497   39.0870   32.0745 O   0  0  0  0  0  0  0  0  0  0  0  0
   10.6045   38.1891   31.6655 C   0  0  0  0  0  0  0  0  0  0  0  0
   12.9344   37.6801   32.0290 C   0  0  0  0  0  0  0  0  0  0  0  0
    9.6418   38.0758   30.6441 O   0  0  0  0  0  0  0  0  0  0  0  0
   11.5741   37.0170   31.7045 C   0  0  0  0  0  0  0  0  0  0  0  0
   13.4851   37.2125   33.3241 N   0  0  0  0  0  0  0  0  0  0  0  0
   11.6079   36.3407   30.4680 O   0  0  0  0  0  0  0  0  0  0  0  0
   14.4801   36.3321   33.5727 C   0  0  0  0  0  0  0  0  0  0  0  0
   13.1140   37.6277   34.5693 C   0  0  0  0  0  0  0  0  0  0  0  0
   15.2073   35.6155   32.6739 N   0  0  0  0  0  0  0  0  0  0  0  0
   14.6758   36.2306   34.9182 C   0  0  0  0  0  0  0  0  0  0  0  0
   13.8217   37.0451   35.5785 N   0  0  0  0  0  0  0  0  0  0  0  0
   16.1639   34.7602   33.1546 C   0  0  0  0  0  0  0  0  0  0  0  0
   15.6526   35.3506   35.4130 C   0  0  0  0  0  0  0  0  0  0  0  0
   16.3794   34.6316   34.5041 N   0  0  0  0  0  0  0  0  0  0  0  0
   15.9001   35.1933   36.8089 N   0  0  0  0  0  0  0  0  0  0  0  0
    9.0120   45.4317   33.6715 H   0  0  0  0  0  0  0  0  0  0  0  0
   10.7257   46.9688   33.1214 H   0  0  0  0  0  0  0  0  0  0  0  0
   11.8905   45.7660   32.9469 H   0  0  0  0  0  0  0  0  0  0  0  0
   10.7229   44.8814   31.1558 H   0  0  0  0  0  0  0  0  0  0  0  0
    9.3413   43.8330   31.4764 H   0  0  0  0  0  0  0  0  0  0  0  0
    7.0083   44.7164   31.5804 H   0  0  0  0  0  0  0  0  0  0  0  0
   10.3471   47.1837   30.4099 H   0  0  0  0  0  0  0  0  0  0  0  0
    5.4620   46.3072   30.5022 H   0  0  0  0  0  0  0  0  0  0  0  0
    8.8175   48.7593   29.3426 H   0  0  0  0  0  0  0  0  0  0  0  0
    7.1795   49.6274   27.8793 H   0  0  0  0  0  0  0  0  0  0  0  0
    5.5011   50.1745   28.1563 H   0  0  0  0  0  0  0  0  0  0  0  0
    5.1308   50.3303   30.9798 H   0  0  0  0  0  0  0  0  0  0  0  0
    9.2811   53.0135   30.5859 H   0  0  0  0  0  0  0  0  0  0  0  0
    5.8173   51.8297   32.8053 H   0  0  0  0  0  0  0  0  0  0  0  0
    7.9043   53.1464   32.6224 H   0  0  0  0  0  0  0  0  0  0  0  0
   11.3945   41.5459   31.4722 H   0  0  0  0  0  0  0  0  0  0  0  0
    9.8290   40.7385   31.7617 H   0  0  0  0  0  0  0  0  0  0  0  0
   11.6994   39.5069   30.3484 H   0  0  0  0  0  0  0  0  0  0  0  0
   10.1090   38.2635   32.6632 H   0  0  0  0  0  0  0  0  0  0  0  0
   13.6662   37.4515   31.2224 H   0  0  0  0  0  0  0  0  0  0  0  0
    8.9009   38.6925   30.8793 H   0  0  0  0  0  0  0  0  0  0  0  0
   11.2650   36.3083   32.5087 H   0  0  0  0  0  0  0  0  0  0  0  0
   12.1372   35.5140   30.6163 H   0  0  0  0  0  0  0  0  0  0  0  0
   12.3297   38.3530   34.7450 H   0  0  0  0  0  0  0  0  0  0  0  0
   16.7558   34.1781   32.4619 H   0  0  0  0  0  0  0  0  0  0  0  0
   16.6346   34.5300   37.1414 H   0  0  0  0  0  0  0  0  0  0  0  0
   15.3533   35.7360   37.5138 H   0  0  0  0  0  0  0  0  0  0  0  0
  1  2  2  0
  1  3  1  0
  3  4  1  0
  4  5  1  0
  6  1  1  0
  7  6  1  0
  6  8  1  0
  8  9  1  0
  9 10  2  0
 11  9  1  0
 10 12  1  0
 13 11  2  0
 12 14  2  0
 14 13  1  0
 14 15  1  0
 15 16  1  0
 16 17  1  0
 17 18  2  0
 19 17  1  0
 18 20  1  0
 18 21  1  0
 22 19  2  0
 20 23  1  0
 20 24  2  0
 21 25  2  0
 25 22  1  0
  4 26  2  0
  4 27  1  0
 28 27  1  0
 28 29  1  0
 29 30  1  0
 29 31  1  0
 30 32  1  0
 31 33  1  0
 31 34  1  0
 34 32  1  0
 32 35  1  0
 34 36  1  0
 37 35  1  0
 38 35  1  0
 39 37  2  0
 37 40  1  0
 41 38  2  0
 42 39  1  0
 40 43  2  0
 40 41  1  0
 44 42  2  0
 44 43  1  0
 43 45  1  0
  6 46  1  1
  7 47  1  0
  7 48  1  0
  8 49  1  0
  8 50  1  0
 10 51  1  0
 11 52  1  0
 12 53  1  0
 13 54  1  0
 16 55  1  0
 16 56  1  0
 19 57  1  0
 21 58  1  0
 22 59  1  0
 25 60  1  0
 28 61  1  0
 28 62  1  0
 29 63  1  0
 31 64  1  0
 32 65  1  0
 33 66  1  0
 34 67  1  0
 36 68  1  0
 38 69  1  0
 42 70  1  0
 45 71  1  0
 45 72  1  0
M  CHG  3   5  -1  20   1  23  -1
M  END
>  <EmbedRMS>  (49) 
0.0828325432645

$$$$

     RDKit          3D

 72 76  0  0  0  0  0  0  0  0999 V2000
   10.2805   43.7664   33.8249 C   0  0  0  0  0  0  0  0  0  0  0  0
   11.4111   43.5919   34.3667 O   0  0  0  0  0  0  0  0  0  0  0  0
    9.3622   42.7247   33.7342 O   0  0  0  0  0  0  0  0  0  0  0  0
    9.8904   41.2264   34.2936 P   0  0  0  0  0  0  0  0  0  0  0  0
   10.3731   41.4565   35.8832 O   0  0  0  0  0  0  0  0  0  0  0  0
    9.9459   45.0736   33.2113 C   0  0  1  0  0  0  0  0  0  0  0  0
   11.0265   46.0293   33.4710 N   0  0  0  0  0  0  0  0  0  0  0  0
    9.7540   44.8543   31.6950 C   0  0  0  0  0  0  0  0  0  0  0  0
    8.7957   45.8414   31.0851 C   0  0  0  0  0  0  0  0  0  0  0  0
    7.4090   45.5997   31.1006 C   0  0  0  0  0  0  0  0  0  0  0  0
    9.2825   46.9876   30.4390 C   0  0  0  0  0  0  0  0  0  0  0  0
    6.5261   46.4983   30.4854 C   0  0  0  0  0  0  0  0  0  0  0  0
    8.3997   47.8868   29.8299 C   0  0  0  0  0  0  0  0  0  0  0  0
    7.0181   47.6559   29.8488 C   0  0  0  0  0  0  0  0  0  0  0  0
    6.1795   48.5944   29.2268 O   0  0  0  0  0  0  0  0  0  0  0  0
    4.7524   48.5954   29.2872 C   0  0  0  0  0  0  0  0  0  0  0  0
    4.2689   48.9184   30.6832 C   0  0  0  0  0  0  0  0  0  0  0  0
    4.7325   50.0534   31.4015 C   0  0  0  0  0  0  0  0  0  0  0  0
    3.3586   48.0407   31.3005 C   0  0  0  0  0  0  0  0  0  0  0  0
    5.6425   51.0027   30.8166 N   0  0  0  0  0  0  0  0  0  0  0  0
    4.3016   50.2477   32.7268 C   0  0  0  0  0  0  0  0  0  0  0  0
    2.9322   48.2610   32.6105 C   0  0  0  0  0  0  0  0  0  0  0  0
    5.4947   51.4025   29.5090 O   0  0  0  0  0  0  0  0  0  0  0  0
    6.4750   51.5951   31.5341 O   0  0  0  0  0  0  0  0  0  0  0  0
    3.4072   49.3590   33.3243 C   0  0  0  0  0  0  0  0  0  0  0  0
    8.8128   40.1841   34.2124 O   0  0  0  0  0  0  0  0  0  0  0  0
   11.2419   40.7944   33.3695 O   0  0  0  0  0  0  0  0  0  0  0  0
   10.9186   40.6911   31.9969 C   0  0  0  0  0  0  0  0  0  0  0  0
   11.5172   39.3814   31.4407 C   0  0  0  0  0  0  0  0  0  0  0  0
   12.7492   39.0856   32.0729 O   0  0  0  0  0  0  0  0  0  0  0  0
   10.6023   38.1908   31.6665 C   0  0  0  0  0  0  0  0  0  0  0  0
   12.9319   37.6781   32.0281 C   0  0  0  0  0  0  0  0  0  0  0  0
    9.6392   38.0797   30.6452 O   0  0  0  0  0  0  0  0  0  0  0  0
   11.5715   37.0166   31.7056 C   0  0  0  0  0  0  0  0  0  0  0  0
   13.4846   37.2121   33.3235 N   0  0  0  0  0  0  0  0  0  0  0  0
   11.6187   36.3384   30.4695 O   0  0  0  0  0  0  0  0  0  0  0  0
   14.4801   36.3321   33.5724 C   0  0  0  0  0  0  0  0  0  0  0  0
   13.1137   37.6276   34.5688 C   0  0  0  0  0  0  0  0  0  0  0  0
   15.2073   35.6153   32.6738 N   0  0  0  0  0  0  0  0  0  0  0  0
   14.6759   36.2308   34.9179 C   0  0  0  0  0  0  0  0  0  0  0  0
   13.8217   37.0452   35.5781 N   0  0  0  0  0  0  0  0  0  0  0  0
   16.1640   34.7602   33.1546 C   0  0  0  0  0  0  0  0  0  0  0  0
   15.6526   35.3508   35.4129 C   0  0  0  0  0  0  0  0  0  0  0  0
   16.3794   34.6317   34.5041 N   0  0  0  0  0  0  0  0  0  0  0  0
   15.8999   35.1935   36.8088 N   0  0  0  0  0  0  0  0  0  0  0  0
    8.9995   45.4380   33.6723 H   0  0  0  0  0  0  0  0  0  0  0  0
   11.0501   46.2277   34.4984 H   0  0  0  0  0  0  0  0  0  0  0  0
   10.7762   46.9370   33.0161 H   0  0  0  0  0  0  0  0  0  0  0  0
   10.7411   44.9081   31.1837 H   0  0  0  0  0  0  0  0  0  0  0  0
    9.3645   43.8355   31.4711 H   0  0  0  0  0  0  0  0  0  0  0  0
    7.0150   44.7136   31.5830 H   0  0  0  0  0  0  0  0  0  0  0  0
   10.3463   47.1873   30.4044 H   0  0  0  0  0  0  0  0  0  0  0  0
    5.4693   46.2771   30.5069 H   0  0  0  0  0  0  0  0  0  0  0  0
    8.7915   48.7695   29.3406 H   0  0  0  0  0  0  0  0  0  0  0  0
    4.3643   49.3624   28.5865 H   0  0  0  0  0  0  0  0  0  0  0  0
    4.3626   47.6201   28.9232 H   0  0  0  0  0  0  0  0  0  0  0  0
    2.9853   47.1727   30.7710 H   0  0  0  0  0  0  0  0  0  0  0  0
    4.6475   51.1020   33.2950 H   0  0  0  0  0  0  0  0  0  0  0  0
    2.2364   47.5745   33.0754 H   0  0  0  0  0  0  0  0  0  0  0  0
    3.0781   49.5253   34.3419 H   0  0  0  0  0  0  0  0  0  0  0  0
    9.8298   40.7409   31.7611 H   0  0  0  0  0  0  0  0  0  0  0  0
   11.3967   41.5460   31.4726 H   0  0  0  0  0  0  0  0  0  0  0  0
   11.6975   39.5066   30.3481 H   0  0  0  0  0  0  0  0  0  0  0  0
   10.1076   38.2648   32.6645 H   0  0  0  0  0  0  0  0  0  0  0  0
   13.6621   37.4468   31.2209 H   0  0  0  0  0  0  0  0  0  0  0  0
    8.8974   38.6942   30.8832 H   0  0  0  0  0  0  0  0  0  0  0  0
   11.2806   36.3073   32.5170 H   0  0  0  0  0  0  0  0  0  0  0  0
   10.8493   35.7110   30.4586 H   0  0  0  0  0  0  0  0  0  0  0  0
   12.3291   38.3524   34.7444 H   0  0  0  0  0  0  0  0  0  0  0  0
   16.7559   34.1780   32.4619 H   0  0  0  0  0  0  0  0  0  0  0  0
   16.6344   34.5301   37.1414 H   0  0  0  0  0  0  0  0  0  0  0  0
   15.3531   35.7362   37.5137 H   0  0  0  0  0  0  0  0  0  0  0  0
  1  2  2  0
  1  3  1  0
  3  4  1  0
  4  5  1  0
  6  1  1  0
  7  6  1  0
  6  8  1  0
  8  9  1  0
  9 10  2  0
 11  9  1  0
 10 12  1  0
 13 11  2  0
 12 14  2  0
 14 13  1  0
 14 15  1  0
 15 16  1  0
 16 17  1  0
 17 18  2  0
 19 17  1  0
 18 20  1  0
 18 21  1  0
 22 19  2  0
 20 23  1  0
 20 24  2  0
 21 25  2  0
 25 22  1  0
  4 26  2  0
  4 27  1  0
 28 27  1  0
 28 29  1  0
 29 30  1  0
 29 31  1  0
 30 32  1  0
 31 33  1  0
 31 34  1  0
 34 32  1  0
 32 35  1  0
 34 36  1  0
 37 35  1  0
 38 35  1  0
 39 37  2  0
 37 40  1  0
 41 38  2  0
 42 39  1  0
 40 43  2  0
 40 41  1  0
 44 42  2  0
 44 43  1  0
 43 45  1  0
  6 46  1  1
  7 47  1  0
  7 48  1  0
  8 49  1  0
  8 50  1  0
 10 51  1  0
 11 52  1  0
 12 53  1  0
 13 54  1  0
 16 55  1  0
 16 56  1  0
 19 57  1  0
 21 58  1  0
 22 59  1  0
 25 60  1  0
 28 61  1  0
 28 62  1  0
 29 63  1  0
 31 64  1  0
 32 65  1  0
 33 66  1  0
 34 67  1  0
 36 68  1  0
 38 69  1  0
 42 70  1  0
 45 71  1  0
 45 72  1  0
M  CHG  3   5  -1  20   1  23  -1
M  END
>  <EmbedRMS>  (50) 
0.0827589561812

$$$$

     RDKit          3D

 72 76  0  0  0  0  0  0  0  0999 V2000
   10.2838   43.7626   33.8276 C   0  0  0  0  0  0  0  0  0  0  0  0
   11.4103   43.5864   34.3766 O   0  0  0  0  0  0  0  0  0  0  0  0
    9.3631   42.7236   33.7353 O   0  0  0  0  0  0  0  0  0  0  0  0
    9.8898   41.2247   34.2935 P   0  0  0  0  0  0  0  0  0  0  0  0
   10.3734   41.4543   35.8829 O   0  0  0  0  0  0  0  0  0  0  0  0
    9.9548   45.0699   33.2063 C   0  0  1  0  0  0  0  0  0  0  0  0
   11.0198   46.0481   33.4567 N   0  0  0  0  0  0  0  0  0  0  0  0
    9.7501   44.8507   31.6922 C   0  0  0  0  0  0  0  0  0  0  0  0
    8.7943   45.8415   31.0866 C   0  0  0  0  0  0  0  0  0  0  0  0
    7.4074   45.6013   31.1005 C   0  0  0  0  0  0  0  0  0  0  0  0
    9.2832   46.9893   30.4452 C   0  0  0  0  0  0  0  0  0  0  0  0
    6.5279   46.5025   30.4851 C   0  0  0  0  0  0  0  0  0  0  0  0
    8.4035   47.8905   29.8336 C   0  0  0  0  0  0  0  0  0  0  0  0
    7.0150   47.6506   29.8454 C   0  0  0  0  0  0  0  0  0  0  0  0
    6.0898   48.5166   29.2411 O   0  0  0  0  0  0  0  0  0  0  0  0
    6.4208   49.6423   28.4266 C   0  0  0  0  0  0  0  0  0  0  0  0
    7.0282   49.2021   27.1136 C   0  0  0  0  0  0  0  0  0  0  0  0
    6.4081   48.2332   26.2793 C   0  0  0  0  0  0  0  0  0  0  0  0
    8.2674   49.7466   26.7287 C   0  0  0  0  0  0  0  0  0  0  0  0
    5.1287   47.6591   26.6033 N   0  0  0  0  0  0  0  0  0  0  0  0
    7.0693   47.8122   25.1108 C   0  0  0  0  0  0  0  0  0  0  0  0
    8.8982   49.3260   25.5575 C   0  0  0  0  0  0  0  0  0  0  0  0
    4.1174   48.4406   27.1114 O   0  0  0  0  0  0  0  0  0  0  0  0
    4.8701   46.4825   26.2755 O   0  0  0  0  0  0  0  0  0  0  0  0
    8.3032   48.3566   24.7532 C   0  0  0  0  0  0  0  0  0  0  0  0
    8.8115   40.1834   34.2126 O   0  0  0  0  0  0  0  0  0  0  0  0
   11.2402   40.7936   33.3673 O   0  0  0  0  0  0  0  0  0  0  0  0
   10.9134   40.6864   31.9955 C   0  0  0  0  0  0  0  0  0  0  0  0
   11.5166   39.3786   31.4404 C   0  0  0  0  0  0  0  0  0  0  0  0
   12.7486   39.0848   32.0734 O   0  0  0  0  0  0  0  0  0  0  0  0
   10.6039   38.1883   31.6669 C   0  0  0  0  0  0  0  0  0  0  0  0
   12.9329   37.6775   32.0284 C   0  0  0  0  0  0  0  0  0  0  0  0
    9.6374   38.0938   30.6484 O   0  0  0  0  0  0  0  0  0  0  0  0
   11.5737   37.0140   31.7055 C   0  0  0  0  0  0  0  0  0  0  0  0
   13.4853   37.2120   33.3238 N   0  0  0  0  0  0  0  0  0  0  0  0
   11.6210   36.3379   30.4683 O   0  0  0  0  0  0  0  0  0  0  0  0
   14.4804   36.3319   33.5726 C   0  0  0  0  0  0  0  0  0  0  0  0
   13.1141   37.6275   34.5689 C   0  0  0  0  0  0  0  0  0  0  0  0
   15.2076   35.6152   32.6740 N   0  0  0  0  0  0  0  0  0  0  0  0
   14.6761   36.2306   34.9181 C   0  0  0  0  0  0  0  0  0  0  0  0
   13.8218   37.0451   35.5783 N   0  0  0  0  0  0  0  0  0  0  0  0
   16.1642   34.7600   33.1548 C   0  0  0  0  0  0  0  0  0  0  0  0
   15.6528   35.3507   35.4131 C   0  0  0  0  0  0  0  0  0  0  0  0
   16.3795   34.6315   34.5043 N   0  0  0  0  0  0  0  0  0  0  0  0
   15.9000   35.1933   36.8090 N   0  0  0  0  0  0  0  0  0  0  0  0
    9.0098   45.4349   33.6669 H   0  0  0  0  0  0  0  0  0  0  0  0
   11.1134   46.1991   34.4880 H   0  0  0  0  0  0  0  0  0  0  0  0
   11.9348   45.6933   33.0923 H   0  0  0  0  0  0  0  0  0  0  0  0
   10.7304   44.8922   31.1674 H   0  0  0  0  0  0  0  0  0  0  0  0
    9.3509   43.8342   31.4761 H   0  0  0  0  0  0  0  0  0  0  0  0
    7.0107   44.7163   31.5827 H   0  0  0  0  0  0  0  0  0  0  0  0
   10.3473   47.1895   30.4188 H   0  0  0  0  0  0  0  0  0  0  0  0
    5.4636   46.3048   30.5013 H   0  0  0  0  0  0  0  0  0  0  0  0
    8.8155   48.7695   29.3607 H   0  0  0  0  0  0  0  0  0  0  0  0
    5.4964   50.2187   28.2188 H   0  0  0  0  0  0  0  0  0  0  0  0
    7.0907   50.3272   28.9904 H   0  0  0  0  0  0  0  0  0  0  0  0
    8.7563   50.4919   27.3440 H   0  0  0  0  0  0  0  0  0  0  0  0
    6.6183   47.0702   24.4640 H   0  0  0  0  0  0  0  0  0  0  0  0
    9.8541   49.7488   25.2765 H   0  0  0  0  0  0  0  0  0  0  0  0
    8.7967   48.0291   23.8472 H   0  0  0  0  0  0  0  0  0  0  0  0
   11.3831   41.5438   31.4675 H   0  0  0  0  0  0  0  0  0  0  0  0
    9.8226   40.7225   31.7629 H   0  0  0  0  0  0  0  0  0  0  0  0
   11.6978   39.5037   30.3478 H   0  0  0  0  0  0  0  0  0  0  0  0
   10.1084   38.2786   32.6626 H   0  0  0  0  0  0  0  0  0  0  0  0
   13.6638   37.4471   31.2214 H   0  0  0  0  0  0  0  0  0  0  0  0
    8.9763   37.4190   30.9532 H   0  0  0  0  0  0  0  0  0  0  0  0
   11.2821   36.3053   32.5171 H   0  0  0  0  0  0  0  0  0  0  0  0
   10.8658   35.6935   30.4652 H   0  0  0  0  0  0  0  0  0  0  0  0
   12.3293   38.3523   34.7444 H   0  0  0  0  0  0  0  0  0  0  0  0
   16.7561   34.1778   32.4621 H   0  0  0  0  0  0  0  0  0  0  0  0
   15.3533   35.7362   37.5138 H   0  0  0  0  0  0  0  0  0  0  0  0
   16.6345   34.5300   37.1416 H   0  0  0  0  0  0  0  0  0  0  0  0
  1  2  2  0
  1  3  1  0
  3  4  1  0
  4  5  1  0
  6  1  1  0
  7  6  1  0
  6  8  1  0
  8  9  1  0
  9 10  2  0
 11  9  1  0
 10 12  1  0
 13 11  2  0
 12 14  2  0
 14 13  1  0
 14 15  1  0
 15 16  1  0
 16 17  1  0
 17 18  2  0
 19 17  1  0
 18 20  1  0
 18 21  1  0
 22 19  2  0
 20 23  1  0
 20 24  2  0
 21 25  2  0
 25 22  1  0
  4 26  2  0
  4 27  1  0
 28 27  1  0
 28 29  1  0
 29 30  1  0
 29 31  1  0
 30 32  1  0
 31 33  1  0
 31 34  1  0
 34 32  1  0
 32 35  1  0
 34 36  1  0
 37 35  1  0
 38 35  1  0
 39 37  2  0
 37 40  1  0
 41 38  2  0
 42 39  1  0
 40 43  2  0
 40 41  1  0
 44 42  2  0
 44 43  1  0
 43 45  1  0
  6 46  1  1
  7 47  1  0
  7 48  1  0
  8 49  1  0
  8 50  1  0
 10 51  1  0
 11 52  1  0
 12 53  1  0
 13 54  1  0
 16 55  1  0
 16 56  1  0
 19 57  1  0
 21 58  1  0
 22 59  1  0
 25 60  1  0
 28 61  1  0
 28 62  1  0
 29 63  1  0
 31 64  1  0
 32 65  1  0
 33 66  1  0
 34 67  1  0
 36 68  1  0
 38 69  1  0
 42 70  1  0
 45 71  1  0
 45 72  1  0
M  CHG  3   5  -1  20   1  23  -1
M  END
>  <EmbedRMS>  (51) 
0.0834663248885

$$$$

     RDKit          3D

 72 76  0  0  0  0  0  0  0  0999 V2000
   10.2834   43.7662   33.8256 C   0  0  0  0  0  0  0  0  0  0  0  0
   11.4101   43.5930   34.3752 O   0  0  0  0  0  0  0  0  0  0  0  0
    9.3636   42.7255   33.7350 O   0  0  0  0  0  0  0  0  0  0  0  0
    9.8902   41.2267   34.2942 P   0  0  0  0  0  0  0  0  0  0  0  0
   10.3736   41.4560   35.8836 O   0  0  0  0  0  0  0  0  0  0  0  0
    9.9546   45.0694   33.2033 C   0  0  1  0  0  0  0  0  0  0  0  0
   11.0273   46.0321   33.4755 N   0  0  0  0  0  0  0  0  0  0  0  0
    9.7468   44.8478   31.6873 C   0  0  0  0  0  0  0  0  0  0  0  0
    8.7925   45.8400   31.0833 C   0  0  0  0  0  0  0  0  0  0  0  0
    7.4056   45.6019   31.0998 C   0  0  0  0  0  0  0  0  0  0  0  0
    9.2819   46.9881   30.4431 C   0  0  0  0  0  0  0  0  0  0  0  0
    6.5269   46.5046   30.4861 C   0  0  0  0  0  0  0  0  0  0  0  0
    8.4025   47.8911   29.8340 C   0  0  0  0  0  0  0  0  0  0  0  0
    7.0147   47.6509   29.8433 C   0  0  0  0  0  0  0  0  0  0  0  0
    6.0877   48.5181   29.2441 O   0  0  0  0  0  0  0  0  0  0  0  0
    6.3912   49.5429   28.2965 C   0  0  0  0  0  0  0  0  0  0  0  0
    6.7734   48.9458   26.9610 C   0  0  0  0  0  0  0  0  0  0  0  0
    5.8150   48.3546   26.0914 C   0  0  0  0  0  0  0  0  0  0  0  0
    8.1144   49.0345   26.5418 C   0  0  0  0  0  0  0  0  0  0  0  0
    4.4144   48.2940   26.4221 N   0  0  0  0  0  0  0  0  0  0  0  0
    6.2387   47.8569   24.8447 C   0  0  0  0  0  0  0  0  0  0  0  0
    8.5127   48.5233   25.3066 C   0  0  0  0  0  0  0  0  0  0  0  0
    3.9992   47.9819   27.6948 O   0  0  0  0  0  0  0  0  0  0  0  0
    3.5570   48.3711   25.5177 O   0  0  0  0  0  0  0  0  0  0  0  0
    7.5775   47.9327   24.4611 C   0  0  0  0  0  0  0  0  0  0  0  0
    8.8121   40.1850   34.2131 O   0  0  0  0  0  0  0  0  0  0  0  0
   11.2404   40.7941   33.3690 O   0  0  0  0  0  0  0  0  0  0  0  0
   10.9143   40.6898   31.9972 C   0  0  0  0  0  0  0  0  0  0  0  0
   11.5261   39.3885   31.4376 C   0  0  0  0  0  0  0  0  0  0  0  0
   12.7504   39.0888   32.0816 O   0  0  0  0  0  0  0  0  0  0  0  0
   10.6115   38.1910   31.6460 C   0  0  0  0  0  0  0  0  0  0  0  0
   12.9357   37.6812   32.0303 C   0  0  0  0  0  0  0  0  0  0  0  0
    9.6146   38.0858   30.6534 O   0  0  0  0  0  0  0  0  0  0  0  0
   11.5769   37.0148   31.7012 C   0  0  0  0  0  0  0  0  0  0  0  0
   13.4849   37.2112   33.3247 N   0  0  0  0  0  0  0  0  0  0  0  0
   11.6193   36.3261   30.4724 O   0  0  0  0  0  0  0  0  0  0  0  0
   14.4802   36.3313   33.5730 C   0  0  0  0  0  0  0  0  0  0  0  0
   13.1141   37.6268   34.5698 C   0  0  0  0  0  0  0  0  0  0  0  0
   15.2075   35.6151   32.6741 N   0  0  0  0  0  0  0  0  0  0  0  0
   14.6761   36.2300   34.9184 C   0  0  0  0  0  0  0  0  0  0  0  0
   13.8220   37.0445   35.5789 N   0  0  0  0  0  0  0  0  0  0  0  0
   16.1642   34.7600   33.1547 C   0  0  0  0  0  0  0  0  0  0  0  0
   15.6529   35.3503   35.4132 C   0  0  0  0  0  0  0  0  0  0  0  0
   16.3798   34.6314   34.5042 N   0  0  0  0  0  0  0  0  0  0  0  0
   15.9004   35.1930   36.8090 N   0  0  0  0  0  0  0  0  0  0  0  0
    9.0119   45.4317   33.6709 H   0  0  0  0  0  0  0  0  0  0  0  0
   11.8905   45.7659   32.9468 H   0  0  0  0  0  0  0  0  0  0  0  0
   10.7258   46.9687   33.1213 H   0  0  0  0  0  0  0  0  0  0  0  0
   10.7233   44.8813   31.1554 H   0  0  0  0  0  0  0  0  0  0  0  0
    9.3420   43.8325   31.4760 H   0  0  0  0  0  0  0  0  0  0  0  0
    7.0082   44.7177   31.5829 H   0  0  0  0  0  0  0  0  0  0  0  0
   10.3460   47.1889   30.4186 H   0  0  0  0  0  0  0  0  0  0  0  0
    5.4623   46.3087   30.5045 H   0  0  0  0  0  0  0  0  0  0  0  0
    8.8145   48.7775   29.3788 H   0  0  0  0  0  0  0  0  0  0  0  0
    5.4953   50.1843   28.1612 H   0  0  0  0  0  0  0  0  0  0  0  0
    7.1831   50.2105   28.6979 H   0  0  0  0  0  0  0  0  0  0  0  0
    8.8583   49.5124   27.1654 H   0  0  0  0  0  0  0  0  0  0  0  0
    5.5273   47.4012   24.1674 H   0  0  0  0  0  0  0  0  0  0  0  0
    9.5486   48.5939   25.0008 H   0  0  0  0  0  0  0  0  0  0  0  0
    7.8883   47.5408   23.5012 H   0  0  0  0  0  0  0  0  0  0  0  0
   11.3779   41.5526   31.4726 H   0  0  0  0  0  0  0  0  0  0  0  0
    9.8233   40.7191   31.7647 H   0  0  0  0  0  0  0  0  0  0  0  0
   11.7283   39.5312   30.3515 H   0  0  0  0  0  0  0  0  0  0  0  0
   10.1127   38.2734   32.6376 H   0  0  0  0  0  0  0  0  0  0  0  0
   13.6692   37.4566   31.2242 H   0  0  0  0  0  0  0  0  0  0  0  0
   10.0533   38.1119   29.7636 H   0  0  0  0  0  0  0  0  0  0  0  0
   11.2607   36.3148   32.5102 H   0  0  0  0  0  0  0  0  0  0  0  0
   12.1496   35.5023   30.6324 H   0  0  0  0  0  0  0  0  0  0  0  0
   12.3301   38.3524   34.7455 H   0  0  0  0  0  0  0  0  0  0  0  0
   16.7562   34.1780   32.4619 H   0  0  0  0  0  0  0  0  0  0  0  0
   16.6351   34.5299   37.1416 H   0  0  0  0  0  0  0  0  0  0  0  0
   15.3536   35.7357   37.5140 H   0  0  0  0  0  0  0  0  0  0  0  0
  1  2  2  0
  1  3  1  0
  3  4  1  0
  4  5  1  0
  6  1  1  0
  7  6  1  0
  6  8  1  0
  8  9  1  0
  9 10  2  0
 11  9  1  0
 10 12  1  0
 13 11  2  0
 12 14  2  0
 14 13  1  0
 14 15  1  0
 15 16  1  0
 16 17  1  0
 17 18  2  0
 19 17  1  0
 18 20  1  0
 18 21  1  0
 22 19  2  0
 20 23  1  0
 20 24  2  0
 21 25  2  0
 25 22  1  0
  4 26  2  0
  4 27  1  0
 28 27  1  0
 28 29  1  0
 29 30  1  0
 29 31  1  0
 30 32  1  0
 31 33  1  0
 31 34  1  0
 34 32  1  0
 32 35  1  0
 34 36  1  0
 37 35  1  0
 38 35  1  0
 39 37  2  0
 37 40  1  0
 41 38  2  0
 42 39  1  0
 40 43  2  0
 40 41  1  0
 44 42  2  0
 44 43  1  0
 43 45  1  0
  6 46  1  1
  7 47  1  0
  7 48  1  0
  8 49  1  0
  8 50  1  0
 10 51  1  0
 11 52  1  0
 12 53  1  0
 13 54  1  0
 16 55  1  0
 16 56  1  0
 19 57  1  0
 21 58  1  0
 22 59  1  0
 25 60  1  0
 28 61  1  0
 28 62  1  0
 29 63  1  0
 31 64  1  0
 32 65  1  0
 33 66  1  0
 34 67  1  0
 36 68  1  0
 38 69  1  0
 42 70  1  0
 45 71  1  0
 45 72  1  0
M  CHG  3   5  -1  20   1  23  -1
M  END
>  <EmbedRMS>  (52) 
0.0816542659064

$$$$

     RDKit          3D

 72 76  0  0  0  0  0  0  0  0999 V2000
   10.2836   43.7661   33.8257 C   0  0  0  0  0  0  0  0  0  0  0  0
   11.4103   43.5931   34.3753 O   0  0  0  0  0  0  0  0  0  0  0  0
    9.3640   42.7253   33.7347 O   0  0  0  0  0  0  0  0  0  0  0  0
    9.8908   41.2265   34.2939 P   0  0  0  0  0  0  0  0  0  0  0  0
   10.3732   41.4558   35.8836 O   0  0  0  0  0  0  0  0  0  0  0  0
    9.9546   45.0695   33.2037 C   0  0  1  0  0  0  0  0  0  0  0  0
   11.0273   46.0323   33.4757 N   0  0  0  0  0  0  0  0  0  0  0  0
    9.7465   44.8481   31.6878 C   0  0  0  0  0  0  0  0  0  0  0  0
    8.7923   45.8409   31.0848 C   0  0  0  0  0  0  0  0  0  0  0  0
    7.4056   45.6012   31.0984 C   0  0  0  0  0  0  0  0  0  0  0  0
    9.2823   46.9874   30.4419 C   0  0  0  0  0  0  0  0  0  0  0  0
    6.5268   46.5026   30.4828 C   0  0  0  0  0  0  0  0  0  0  0  0
    8.4033   47.8892   29.8307 C   0  0  0  0  0  0  0  0  0  0  0  0
    7.0140   47.6544   29.8499 C   0  0  0  0  0  0  0  0  0  0  0  0
    6.0884   48.5285   29.2580 O   0  0  0  0  0  0  0  0  0  0  0  0
    6.3956   49.8127   28.7136 C   0  0  0  0  0  0  0  0  0  0  0  0
    6.7885   50.7842   29.8038 C   0  0  0  0  0  0  0  0  0  0  0  0
    5.9903   50.9858   30.9621 C   0  0  0  0  0  0  0  0  0  0  0  0
    8.0051   51.4802   29.6794 C   0  0  0  0  0  0  0  0  0  0  0  0
    4.7238   50.3248   31.1362 N   0  0  0  0  0  0  0  0  0  0  0  0
    6.4573   51.8444   31.9743 C   0  0  0  0  0  0  0  0  0  0  0  0
    8.4418   52.3390   30.6885 C   0  0  0  0  0  0  0  0  0  0  0  0
    3.8523   50.1889   30.0809 O   0  0  0  0  0  0  0  0  0  0  0  0
    4.3333   50.0125   32.2802 O   0  0  0  0  0  0  0  0  0  0  0  0
    7.6724   52.5163   31.8362 C   0  0  0  0  0  0  0  0  0  0  0  0
    8.8127   40.1847   34.2122 O   0  0  0  0  0  0  0  0  0  0  0  0
   11.2421   40.7941   33.3697 O   0  0  0  0  0  0  0  0  0  0  0  0
   10.9187   40.6911   31.9971 C   0  0  0  0  0  0  0  0  0  0  0  0
   11.5172   39.3815   31.4408 C   0  0  0  0  0  0  0  0  0  0  0  0
   12.7493   39.0856   32.0728 O   0  0  0  0  0  0  0  0  0  0  0  0
   10.6023   38.1908   31.6665 C   0  0  0  0  0  0  0  0  0  0  0  0
   12.9319   37.6781   32.0281 C   0  0  0  0  0  0  0  0  0  0  0  0
    9.6392   38.0798   30.6452 O   0  0  0  0  0  0  0  0  0  0  0  0
   11.5715   37.0166   31.7056 C   0  0  0  0  0  0  0  0  0  0  0  0
   13.4847   37.2121   33.3235 N   0  0  0  0  0  0  0  0  0  0  0  0
   11.6187   36.3384   30.4695 O   0  0  0  0  0  0  0  0  0  0  0  0
   14.4801   36.3321   33.5724 C   0  0  0  0  0  0  0  0  0  0  0  0
   13.1137   37.6276   34.5688 C   0  0  0  0  0  0  0  0  0  0  0  0
   15.2073   35.6153   32.6738 N   0  0  0  0  0  0  0  0  0  0  0  0
   14.6759   36.2308   34.9179 C   0  0  0  0  0  0  0  0  0  0  0  0
   13.8216   37.0452   35.5781 N   0  0  0  0  0  0  0  0  0  0  0  0
   16.1640   34.7602   33.1546 C   0  0  0  0  0  0  0  0  0  0  0  0
   15.6526   35.3508   35.4129 C   0  0  0  0  0  0  0  0  0  0  0  0
   16.3794   34.6317   34.5041 N   0  0  0  0  0  0  0  0  0  0  0  0
   15.8999   35.1934   36.8088 N   0  0  0  0  0  0  0  0  0  0  0  0
    9.0120   45.4317   33.6716 H   0  0  0  0  0  0  0  0  0  0  0  0
   11.8905   45.7660   32.9469 H   0  0  0  0  0  0  0  0  0  0  0  0
   10.7257   46.9688   33.1214 H   0  0  0  0  0  0  0  0  0  0  0  0
   10.7229   44.8814   31.1558 H   0  0  0  0  0  0  0  0  0  0  0  0
    9.3413   43.8330   31.4764 H   0  0  0  0  0  0  0  0  0  0  0  0
    7.0083   44.7163   31.5802 H   0  0  0  0  0  0  0  0  0  0  0  0
   10.3471   47.1830   30.4087 H   0  0  0  0  0  0  0  0  0  0  0  0
    5.4621   46.3075   30.5022 H   0  0  0  0  0  0  0  0  0  0  0  0
    8.8174   48.7567   29.3385 H   0  0  0  0  0  0  0  0  0  0  0  0
    7.1855   49.7103   27.9381 H   0  0  0  0  0  0  0  0  0  0  0  0
    5.4997   50.2040   28.1899 H   0  0  0  0  0  0  0  0  0  0  0  0
    8.6275   51.3487   28.8028 H   0  0  0  0  0  0  0  0  0  0  0  0
    5.8687   52.0074   32.8683 H   0  0  0  0  0  0  0  0  0  0  0  0
    9.3827   52.8634   30.5826 H   0  0  0  0  0  0  0  0  0  0  0  0
    8.0155   53.1800   32.6194 H   0  0  0  0  0  0  0  0  0  0  0  0
   11.3969   41.5460   31.4729 H   0  0  0  0  0  0  0  0  0  0  0  0
    9.8300   40.7410   31.7613 H   0  0  0  0  0  0  0  0  0  0  0  0
   11.6975   39.5067   30.3481 H   0  0  0  0  0  0  0  0  0  0  0  0
   10.1077   38.2648   32.6645 H   0  0  0  0  0  0  0  0  0  0  0  0
   13.6621   37.4467   31.2208 H   0  0  0  0  0  0  0  0  0  0  0  0
    8.8974   38.6944   30.8831 H   0  0  0  0  0  0  0  0  0  0  0  0
   11.2806   36.3073   32.5170 H   0  0  0  0  0  0  0  0  0  0  0  0
   10.8492   35.7110   30.4586 H   0  0  0  0  0  0  0  0  0  0  0  0
   12.3290   38.3524   34.7444 H   0  0  0  0  0  0  0  0  0  0  0  0
   16.7559   34.1780   32.4619 H   0  0  0  0  0  0  0  0  0  0  0  0
   16.6344   34.5301   37.1414 H   0  0  0  0  0  0  0  0  0  0  0  0
   15.3532   35.7362   37.5137 H   0  0  0  0  0  0  0  0  0  0  0  0
  1  2  2  0
  1  3  1  0
  3  4  1  0
  4  5  1  0
  6  1  1  0
  7  6  1  0
  6  8  1  0
  8  9  1  0
  9 10  2  0
 11  9  1  0
 10 12  1  0
 13 11  2  0
 12 14  2  0
 14 13  1  0
 14 15  1  0
 15 16  1  0
 16 17  1  0
 17 18  2  0
 19 17  1  0
 18 20  1  0
 18 21  1  0
 22 19  2  0
 20 23  1  0
 20 24  2  0
 21 25  2  0
 25 22  1  0
  4 26  2  0
  4 27  1  0
 28 27  1  0
 28 29  1  0
 29 30  1  0
 29 31  1  0
 30 32  1  0
 31 33  1  0
 31 34  1  0
 34 32  1  0
 32 35  1  0
 34 36  1  0
 37 35  1  0
 38 35  1  0
 39 37  2  0
 37 40  1  0
 41 38  2  0
 42 39  1  0
 40 43  2  0
 40 41  1  0
 44 42  2  0
 44 43  1  0
 43 45  1  0
  6 46  1  1
  7 47  1  0
  7 48  1  0
  8 49  1  0
  8 50  1  0
 10 51  1  0
 11 52  1  0
 12 53  1  0
 13 54  1  0
 16 55  1  0
 16 56  1  0
 19 57  1  0
 21 58  1  0
 22 59  1  0
 25 60  1  0
 28 61  1  0
 28 62  1  0
 29 63  1  0
 31 64  1  0
 32 65  1  0
 33 66  1  0
 34 67  1  0
 36 68  1  0
 38 69  1  0
 42 70  1  0
 45 71  1  0
 45 72  1  0
M  CHG  3   5  -1  20   1  23  -1
M  END
>  <EmbedRMS>  (53) 
0.0829455443443

$$$$

     RDKit          3D

 72 76  0  0  0  0  0  0  0  0999 V2000
   10.2839   43.7626   33.8275 C   0  0  0  0  0  0  0  0  0  0  0  0
   11.4104   43.5863   34.3767 O   0  0  0  0  0  0  0  0  0  0  0  0
    9.3634   42.7234   33.7351 O   0  0  0  0  0  0  0  0  0  0  0  0
    9.8899   41.2247   34.2940 P   0  0  0  0  0  0  0  0  0  0  0  0
   10.3723   41.4545   35.8837 O   0  0  0  0  0  0  0  0  0  0  0  0
    9.9549   45.0699   33.2062 C   0  0  1  0  0  0  0  0  0  0  0  0
   11.0198   46.0481   33.4570 N   0  0  0  0  0  0  0  0  0  0  0  0
    9.7506   44.8510   31.6921 C   0  0  0  0  0  0  0  0  0  0  0  0
    8.7945   45.8416   31.0865 C   0  0  0  0  0  0  0  0  0  0  0  0
    7.4076   45.6007   31.1008 C   0  0  0  0  0  0  0  0  0  0  0  0
    9.2826   46.9895   30.4450 C   0  0  0  0  0  0  0  0  0  0  0  0
    6.5257   46.5005   30.4863 C   0  0  0  0  0  0  0  0  0  0  0  0
    8.4008   47.8887   29.8342 C   0  0  0  0  0  0  0  0  0  0  0  0
    7.0195   47.6539   29.8437 C   0  0  0  0  0  0  0  0  0  0  0  0
    6.1833   48.5854   29.2081 O   0  0  0  0  0  0  0  0  0  0  0  0
    4.7799   48.4263   28.9954 C   0  0  0  0  0  0  0  0  0  0  0  0
    4.5044   47.3309   27.9900 C   0  0  0  0  0  0  0  0  0  0  0  0
    5.1407   47.2910   26.7200 C   0  0  0  0  0  0  0  0  0  0  0  0
    3.6155   46.2993   28.3448 C   0  0  0  0  0  0  0  0  0  0  0  0
    6.0385   48.3292   26.2874 N   0  0  0  0  0  0  0  0  0  0  0  0
    4.8977   46.1989   25.8667 C   0  0  0  0  0  0  0  0  0  0  0  0
    3.3771   45.2335   27.4766 C   0  0  0  0  0  0  0  0  0  0  0  0
    5.7565   49.6513   26.5408 O   0  0  0  0  0  0  0  0  0  0  0  0
    6.9979   48.0541   25.5373 O   0  0  0  0  0  0  0  0  0  0  0  0
    4.0213   45.1803   26.2425 C   0  0  0  0  0  0  0  0  0  0  0  0
    8.8119   40.1831   34.2120 O   0  0  0  0  0  0  0  0  0  0  0  0
   11.2416   40.7932   33.3699 O   0  0  0  0  0  0  0  0  0  0  0  0
   10.9186   40.6909   31.9972 C   0  0  0  0  0  0  0  0  0  0  0  0
   11.5172   39.3814   31.4407 C   0  0  0  0  0  0  0  0  0  0  0  0
   12.7493   39.0855   32.0727 O   0  0  0  0  0  0  0  0  0  0  0  0
   10.6023   38.1907   31.6665 C   0  0  0  0  0  0  0  0  0  0  0  0
   12.9319   37.6781   32.0281 C   0  0  0  0  0  0  0  0  0  0  0  0
    9.6392   38.0797   30.6452 O   0  0  0  0  0  0  0  0  0  0  0  0
   11.5715   37.0165   31.7056 C   0  0  0  0  0  0  0  0  0  0  0  0
   13.4846   37.2121   33.3235 N   0  0  0  0  0  0  0  0  0  0  0  0
   11.6187   36.3383   30.4694 O   0  0  0  0  0  0  0  0  0  0  0  0
   14.4801   36.3321   33.5724 C   0  0  0  0  0  0  0  0  0  0  0  0
   13.1137   37.6275   34.5687 C   0  0  0  0  0  0  0  0  0  0  0  0
   15.2073   35.6153   32.6738 N   0  0  0  0  0  0  0  0  0  0  0  0
   14.6759   36.2308   34.9179 C   0  0  0  0  0  0  0  0  0  0  0  0
   13.8216   37.0452   35.5781 N   0  0  0  0  0  0  0  0  0  0  0  0
   16.1640   34.7602   33.1546 C   0  0  0  0  0  0  0  0  0  0  0  0
   15.6526   35.3508   35.4129 C   0  0  0  0  0  0  0  0  0  0  0  0
   16.3794   34.6317   34.5041 N   0  0  0  0  0  0  0  0  0  0  0  0
   15.8999   35.1935   36.8088 N   0  0  0  0  0  0  0  0  0  0  0  0
    9.0098   45.4347   33.6668 H   0  0  0  0  0  0  0  0  0  0  0  0
   11.9349   45.6934   33.0928 H   0  0  0  0  0  0  0  0  0  0  0  0
   11.1131   46.1992   34.4883 H   0  0  0  0  0  0  0  0  0  0  0  0
   10.7310   44.8930   31.1674 H   0  0  0  0  0  0  0  0  0  0  0  0
    9.3518   43.8343   31.4757 H   0  0  0  0  0  0  0  0  0  0  0  0
    7.0123   44.7165   31.5856 H   0  0  0  0  0  0  0  0  0  0  0  0
   10.3466   47.1899   30.4155 H   0  0  0  0  0  0  0  0  0  0  0  0
    5.4672   46.2904   30.5249 H   0  0  0  0  0  0  0  0  0  0  0  0
    8.7936   48.7702   29.3433 H   0  0  0  0  0  0  0  0  0  0  0  0
    4.3653   49.3798   28.6096 H   0  0  0  0  0  0  0  0  0  0  0  0
    4.2734   48.2411   29.9674 H   0  0  0  0  0  0  0  0  0  0  0  0
    3.1128   46.3112   29.3040 H   0  0  0  0  0  0  0  0  0  0  0  0
    5.3771   46.1446   24.8974 H   0  0  0  0  0  0  0  0  0  0  0  0
    2.6956   44.4434   27.7646 H   0  0  0  0  0  0  0  0  0  0  0  0
    3.8378   44.3502   25.5726 H   0  0  0  0  0  0  0  0  0  0  0  0
    9.8300   40.7410   31.7610 H   0  0  0  0  0  0  0  0  0  0  0  0
   11.3972   41.5459   31.4735 H   0  0  0  0  0  0  0  0  0  0  0  0
   11.6974   39.5067   30.3480 H   0  0  0  0  0  0  0  0  0  0  0  0
   10.1077   38.2646   32.6645 H   0  0  0  0  0  0  0  0  0  0  0  0
   13.6621   37.4467   31.2209 H   0  0  0  0  0  0  0  0  0  0  0  0
    8.8975   38.6943   30.8831 H   0  0  0  0  0  0  0  0  0  0  0  0
   11.2806   36.3073   32.5170 H   0  0  0  0  0  0  0  0  0  0  0  0
   10.8493   35.7110   30.4585 H   0  0  0  0  0  0  0  0  0  0  0  0
   12.3290   38.3524   34.7444 H   0  0  0  0  0  0  0  0  0  0  0  0
   16.7559   34.1780   32.4619 H   0  0  0  0  0  0  0  0  0  0  0  0
   15.3531   35.7362   37.5137 H   0  0  0  0  0  0  0  0  0  0  0  0
   16.6344   34.5301   37.1414 H   0  0  0  0  0  0  0  0  0  0  0  0
  1  2  2  0
  1  3  1  0
  3  4  1  0
  4  5  1  0
  6  1  1  0
  7  6  1  0
  6  8  1  0
  8  9  1  0
  9 10  2  0
 11  9  1  0
 10 12  1  0
 13 11  2  0
 12 14  2  0
 14 13  1  0
 14 15  1  0
 15 16  1  0
 16 17  1  0
 17 18  2  0
 19 17  1  0
 18 20  1  0
 18 21  1  0
 22 19  2  0
 20 23  1  0
 20 24  2  0
 21 25  2  0
 25 22  1  0
  4 26  2  0
  4 27  1  0
 28 27  1  0
 28 29  1  0
 29 30  1  0
 29 31  1  0
 30 32  1  0
 31 33  1  0
 31 34  1  0
 34 32  1  0
 32 35  1  0
 34 36  1  0
 37 35  1  0
 38 35  1  0
 39 37  2  0
 37 40  1  0
 41 38  2  0
 42 39  1  0
 40 43  2  0
 40 41  1  0
 44 42  2  0
 44 43  1  0
 43 45  1  0
  6 46  1  1
  7 47  1  0
  7 48  1  0
  8 49  1  0
  8 50  1  0
 10 51  1  0
 11 52  1  0
 12 53  1  0
 13 54  1  0
 16 55  1  0
 16 56  1  0
 19 57  1  0
 21 58  1  0
 22 59  1  0
 25 60  1  0
 28 61  1  0
 28 62  1  0
 29 63  1  0
 31 64  1  0
 32 65  1  0
 33 66  1  0
 34 67  1  0
 36 68  1  0
 38 69  1  0
 42 70  1  0
 45 71  1  0
 45 72  1  0
M  CHG  3   5  -1  20   1  23  -1
M  END
>  <EmbedRMS>  (54) 
0.0838341045326

$$$$

     RDKit          3D

 72 76  0  0  0  0  0  0  0  0999 V2000
   10.2838   43.7627   33.8276 C   0  0  0  0  0  0  0  0  0  0  0  0
   11.4103   43.5863   34.3766 O   0  0  0  0  0  0  0  0  0  0  0  0
    9.3628   42.7238   33.7356 O   0  0  0  0  0  0  0  0  0  0  0  0
    9.8890   41.2252   34.2949 P   0  0  0  0  0  0  0  0  0  0  0  0
   10.3724   41.4548   35.8843 O   0  0  0  0  0  0  0  0  0  0  0  0
    9.9549   45.0700   33.2063 C   0  0  1  0  0  0  0  0  0  0  0  0
   11.0198   46.0481   33.4570 N   0  0  0  0  0  0  0  0  0  0  0  0
    9.7506   44.8511   31.6921 C   0  0  0  0  0  0  0  0  0  0  0  0
    8.7944   45.8417   31.0867 C   0  0  0  0  0  0  0  0  0  0  0  0
    7.4077   45.6006   31.1007 C   0  0  0  0  0  0  0  0  0  0  0  0
    9.2826   46.9895   30.4449 C   0  0  0  0  0  0  0  0  0  0  0  0
    6.5257   46.5001   30.4861 C   0  0  0  0  0  0  0  0  0  0  0  0
    8.4008   47.8887   29.8337 C   0  0  0  0  0  0  0  0  0  0  0  0
    7.0195   47.6544   29.8442 C   0  0  0  0  0  0  0  0  0  0  0  0
    6.1820   48.5859   29.2092 O   0  0  0  0  0  0  0  0  0  0  0  0
    4.7692   48.4470   29.0489 C   0  0  0  0  0  0  0  0  0  0  0  0
    4.4452   47.3457   28.0632 C   0  0  0  0  0  0  0  0  0  0  0  0
    3.4906   46.3329   28.3394 C   0  0  0  0  0  0  0  0  0  0  0  0
    5.1469   47.3113   26.8442 C   0  0  0  0  0  0  0  0  0  0  0  0
    2.6723   46.3704   29.5187 N   0  0  0  0  0  0  0  0  0  0  0  0
    3.3194   45.2808   27.4226 C   0  0  0  0  0  0  0  0  0  0  0  0
    4.9490   46.2692   25.9373 C   0  0  0  0  0  0  0  0  0  0  0  0
    1.9962   47.5221   29.8495 O   0  0  0  0  0  0  0  0  0  0  0  0
    2.3873   45.3113   30.1148 O   0  0  0  0  0  0  0  0  0  0  0  0
    4.0450   45.2499   26.2309 C   0  0  0  0  0  0  0  0  0  0  0  0
    8.8112   40.1834   34.2131 O   0  0  0  0  0  0  0  0  0  0  0  0
   11.2398   40.7938   33.3702 O   0  0  0  0  0  0  0  0  0  0  0  0
   10.9144   40.6912   31.9983 C   0  0  0  0  0  0  0  0  0  0  0  0
   11.5270   39.3911   31.4385 C   0  0  0  0  0  0  0  0  0  0  0  0
   12.7520   39.0911   32.0835 O   0  0  0  0  0  0  0  0  0  0  0  0
   10.6113   38.1931   31.6451 C   0  0  0  0  0  0  0  0  0  0  0  0
   12.9413   37.6837   32.0297 C   0  0  0  0  0  0  0  0  0  0  0  0
    9.6064   38.0877   30.6598 O   0  0  0  0  0  0  0  0  0  0  0  0
   11.5822   37.0197   31.6876 C   0  0  0  0  0  0  0  0  0  0  0  0
   13.4840   37.2104   33.3254 N   0  0  0  0  0  0  0  0  0  0  0  0
   11.6179   36.3071   30.4690 O   0  0  0  0  0  0  0  0  0  0  0  0
   14.4797   36.3309   33.5738 C   0  0  0  0  0  0  0  0  0  0  0  0
   13.1136   37.6269   34.5702 C   0  0  0  0  0  0  0  0  0  0  0  0
   15.2074   35.6152   32.6747 N   0  0  0  0  0  0  0  0  0  0  0  0
   14.6756   36.2298   34.9190 C   0  0  0  0  0  0  0  0  0  0  0  0
   13.8217   37.0446   35.5793 N   0  0  0  0  0  0  0  0  0  0  0  0
   16.1643   34.7603   33.1551 C   0  0  0  0  0  0  0  0  0  0  0  0
   15.6528   35.3503   35.4136 C   0  0  0  0  0  0  0  0  0  0  0  0
   16.3798   34.6316   34.5046 N   0  0  0  0  0  0  0  0  0  0  0  0
   15.9004   35.1931   36.8094 N   0  0  0  0  0  0  0  0  0  0  0  0
    9.0099   45.4350   33.6668 H   0  0  0  0  0  0  0  0  0  0  0  0
   11.9349   45.6933   33.0928 H   0  0  0  0  0  0  0  0  0  0  0  0
   11.1132   46.1992   34.4883 H   0  0  0  0  0  0  0  0  0  0  0  0
    9.3519   43.8344   31.4758 H   0  0  0  0  0  0  0  0  0  0  0  0
   10.7310   44.8931   31.1675 H   0  0  0  0  0  0  0  0  0  0  0  0
    7.0124   44.7158   31.5846 H   0  0  0  0  0  0  0  0  0  0  0  0
   10.3466   47.1899   30.4155 H   0  0  0  0  0  0  0  0  0  0  0  0
    5.4673   46.2876   30.5210 H   0  0  0  0  0  0  0  0  0  0  0  0
    8.7938   48.7702   29.3433 H   0  0  0  0  0  0  0  0  0  0  0  0
    4.3706   49.4009   28.6450 H   0  0  0  0  0  0  0  0  0  0  0  0
    4.3090   48.2920   30.0448 H   0  0  0  0  0  0  0  0  0  0  0  0
    5.8667   48.0844   26.6047 H   0  0  0  0  0  0  0  0  0  0  0  0
    2.6007   44.4954   27.6205 H   0  0  0  0  0  0  0  0  0  0  0  0
    5.5042   46.2480   25.0084 H   0  0  0  0  0  0  0  0  0  0  0  0
    3.8965   44.4402   25.5280 H   0  0  0  0  0  0  0  0  0  0  0  0
    9.8235   40.7201   31.7651 H   0  0  0  0  0  0  0  0  0  0  0  0
   11.3780   41.5548   31.4750 H   0  0  0  0  0  0  0  0  0  0  0  0
   11.7311   39.5363   30.3531 H   0  0  0  0  0  0  0  0  0  0  0  0
   10.1202   38.2696   32.6409 H   0  0  0  0  0  0  0  0  0  0  0  0
   13.6850   37.4638   31.2321 H   0  0  0  0  0  0  0  0  0  0  0  0
   10.0251   38.1792   29.7654 H   0  0  0  0  0  0  0  0  0  0  0  0
   11.2757   36.3135   32.4907 H   0  0  0  0  0  0  0  0  0  0  0  0
   11.9838   36.9111   29.7708 H   0  0  0  0  0  0  0  0  0  0  0  0
   12.3307   38.3536   34.7457 H   0  0  0  0  0  0  0  0  0  0  0  0
   16.7566   34.1787   32.4623 H   0  0  0  0  0  0  0  0  0  0  0  0
   15.3535   35.7355   37.5144 H   0  0  0  0  0  0  0  0  0  0  0  0
   16.6353   34.5301   37.1419 H   0  0  0  0  0  0  0  0  0  0  0  0
  1  2  2  0
  1  3  1  0
  3  4  1  0
  4  5  1  0
  6  1  1  0
  7  6  1  0
  6  8  1  0
  8  9  1  0
  9 10  2  0
 11  9  1  0
 10 12  1  0
 13 11  2  0
 12 14  2  0
 14 13  1  0
 14 15  1  0
 15 16  1  0
 16 17  1  0
 17 18  2  0
 19 17  1  0
 18 20  1  0
 18 21  1  0
 22 19  2  0
 20 23  1  0
 20 24  2  0
 21 25  2  0
 25 22  1  0
  4 26  2  0
  4 27  1  0
 28 27  1  0
 28 29  1  0
 29 30  1  0
 29 31  1  0
 30 32  1  0
 31 33  1  0
 31 34  1  0
 34 32  1  0
 32 35  1  0
 34 36  1  0
 37 35  1  0
 38 35  1  0
 39 37  2  0
 37 40  1  0
 41 38  2  0
 42 39  1  0
 40 43  2  0
 40 41  1  0
 44 42  2  0
 44 43  1  0
 43 45  1  0
  6 46  1  1
  7 47  1  0
  7 48  1  0
  8 49  1  0
  8 50  1  0
 10 51  1  0
 11 52  1  0
 12 53  1  0
 13 54  1  0
 16 55  1  0
 16 56  1  0
 19 57  1  0
 21 58  1  0
 22 59  1  0
 25 60  1  0
 28 61  1  0
 28 62  1  0
 29 63  1  0
 31 64  1  0
 32 65  1  0
 33 66  1  0
 34 67  1  0
 36 68  1  0
 38 69  1  0
 42 70  1  0
 45 71  1  0
 45 72  1  0
M  CHG  3   5  -1  20   1  23  -1
M  END
>  <EmbedRMS>  (55) 
0.0817362086895

$$$$

     RDKit          3D

 72 76  0  0  0  0  0  0  0  0999 V2000
   10.2839   43.7626   33.8276 C   0  0  0  0  0  0  0  0  0  0  0  0
   11.4103   43.5864   34.3767 O   0  0  0  0  0  0  0  0  0  0  0  0
    9.3631   42.7236   33.7355 O   0  0  0  0  0  0  0  0  0  0  0  0
    9.8895   41.2250   34.2948 P   0  0  0  0  0  0  0  0  0  0  0  0
   10.3720   41.4547   35.8844 O   0  0  0  0  0  0  0  0  0  0  0  0
    9.9549   45.0699   33.2062 C   0  0  1  0  0  0  0  0  0  0  0  0
   11.0198   46.0481   33.4570 N   0  0  0  0  0  0  0  0  0  0  0  0
    9.7506   44.8510   31.6921 C   0  0  0  0  0  0  0  0  0  0  0  0
    8.7945   45.8416   31.0865 C   0  0  0  0  0  0  0  0  0  0  0  0
    7.4076   45.6007   31.1008 C   0  0  0  0  0  0  0  0  0  0  0  0
    9.2826   46.9895   30.4450 C   0  0  0  0  0  0  0  0  0  0  0  0
    6.5257   46.5005   30.4863 C   0  0  0  0  0  0  0  0  0  0  0  0
    8.4008   47.8887   29.8342 C   0  0  0  0  0  0  0  0  0  0  0  0
    7.0195   47.6539   29.8437 C   0  0  0  0  0  0  0  0  0  0  0  0
    6.1833   48.5854   29.2082 O   0  0  0  0  0  0  0  0  0  0  0  0
    4.7799   48.4262   28.9952 C   0  0  0  0  0  0  0  0  0  0  0  0
    4.5047   47.3308   27.9897 C   0  0  0  0  0  0  0  0  0  0  0  0
    5.1412   47.2912   26.7198 C   0  0  0  0  0  0  0  0  0  0  0  0
    3.6160   46.2990   28.3441 C   0  0  0  0  0  0  0  0  0  0  0  0
    6.0389   48.3296   26.2874 N   0  0  0  0  0  0  0  0  0  0  0  0
    4.8985   46.1991   25.8662 C   0  0  0  0  0  0  0  0  0  0  0  0
    3.3779   45.2332   27.4757 C   0  0  0  0  0  0  0  0  0  0  0  0
    5.7566   49.6516   26.5409 O   0  0  0  0  0  0  0  0  0  0  0  0
    6.9986   48.0547   25.5376 O   0  0  0  0  0  0  0  0  0  0  0  0
    4.0222   45.1804   26.2418 C   0  0  0  0  0  0  0  0  0  0  0  0
    8.8117   40.1832   34.2124 O   0  0  0  0  0  0  0  0  0  0  0  0
   11.2411   40.7939   33.3709 O   0  0  0  0  0  0  0  0  0  0  0  0
   10.9179   40.6920   31.9985 C   0  0  0  0  0  0  0  0  0  0  0  0
   11.5175   39.3837   31.4422 C   0  0  0  0  0  0  0  0  0  0  0  0
   12.7508   39.0887   32.0751 O   0  0  0  0  0  0  0  0  0  0  0  0
   10.6028   38.1915   31.6658 C   0  0  0  0  0  0  0  0  0  0  0  0
   12.9385   37.6818   32.0278 C   0  0  0  0  0  0  0  0  0  0  0  0
    9.6371   38.0805   30.6470 O   0  0  0  0  0  0  0  0  0  0  0  0
   11.5780   37.0215   31.6934 C   0  0  0  0  0  0  0  0  0  0  0  0
   13.4844   37.2119   33.3241 N   0  0  0  0  0  0  0  0  0  0  0  0
   11.6095   36.3201   30.4678 O   0  0  0  0  0  0  0  0  0  0  0  0
   14.4797   36.3318   33.5730 C   0  0  0  0  0  0  0  0  0  0  0  0
   13.1135   37.6278   34.5691 C   0  0  0  0  0  0  0  0  0  0  0  0
   15.2073   35.6155   32.6742 N   0  0  0  0  0  0  0  0  0  0  0  0
   14.6754   36.2305   34.9184 C   0  0  0  0  0  0  0  0  0  0  0  0
   13.8213   37.0452   35.5785 N   0  0  0  0  0  0  0  0  0  0  0  0
   16.1640   34.7604   33.1549 C   0  0  0  0  0  0  0  0  0  0  0  0
   15.6524   35.3507   35.4132 C   0  0  0  0  0  0  0  0  0  0  0  0
   16.3794   34.6318   34.5044 N   0  0  0  0  0  0  0  0  0  0  0  0
   15.8999   35.1934   36.8091 N   0  0  0  0  0  0  0  0  0  0  0  0
    9.0098   45.4348   33.6667 H   0  0  0  0  0  0  0  0  0  0  0  0
   11.9349   45.6933   33.0927 H   0  0  0  0  0  0  0  0  0  0  0  0
   11.1132   46.1992   34.4883 H   0  0  0  0  0  0  0  0  0  0  0  0
   10.7310   44.8930   31.1674 H   0  0  0  0  0  0  0  0  0  0  0  0
    9.3518   43.8343   31.4758 H   0  0  0  0  0  0  0  0  0  0  0  0
    7.0123   44.7165   31.5857 H   0  0  0  0  0  0  0  0  0  0  0  0
   10.3466   47.1899   30.4156 H   0  0  0  0  0  0  0  0  0  0  0  0
    5.4672   46.2904   30.5249 H   0  0  0  0  0  0  0  0  0  0  0  0
    8.7936   48.7702   29.3434 H   0  0  0  0  0  0  0  0  0  0  0  0
    4.2733   48.2407   29.9671 H   0  0  0  0  0  0  0  0  0  0  0  0
    4.3652   49.3797   28.6095 H   0  0  0  0  0  0  0  0  0  0  0  0
    3.1131   46.3107   29.3033 H   0  0  0  0  0  0  0  0  0  0  0  0
    5.3780   46.1451   24.8970 H   0  0  0  0  0  0  0  0  0  0  0  0
    2.6964   44.4431   27.7636 H   0  0  0  0  0  0  0  0  0  0  0  0
    3.8389   44.3503   25.5717 H   0  0  0  0  0  0  0  0  0  0  0  0
   11.3955   41.5477   31.4751 H   0  0  0  0  0  0  0  0  0  0  0  0
    9.8292   40.7409   31.7624 H   0  0  0  0  0  0  0  0  0  0  0  0
   11.6981   39.5116   30.3500 H   0  0  0  0  0  0  0  0  0  0  0  0
   10.1117   38.2603   32.6660 H   0  0  0  0  0  0  0  0  0  0  0  0
   13.6767   37.4555   31.2267 H   0  0  0  0  0  0  0  0  0  0  0  0
    8.8961   38.6951   30.8872 H   0  0  0  0  0  0  0  0  0  0  0  0
   11.2791   36.3072   32.4922 H   0  0  0  0  0  0  0  0  0  0  0  0
   11.8828   36.9598   29.7588 H   0  0  0  0  0  0  0  0  0  0  0  0
   12.3300   38.3539   34.7446 H   0  0  0  0  0  0  0  0  0  0  0  0
   16.7561   34.1785   32.4622 H   0  0  0  0  0  0  0  0  0  0  0  0
   16.6347   34.5303   37.1416 H   0  0  0  0  0  0  0  0  0  0  0  0
   15.3531   35.7360   37.5140 H   0  0  0  0  0  0  0  0  0  0  0  0
  1  2  2  0
  1  3  1  0
  3  4  1  0
  4  5  1  0
  6  1  1  0
  7  6  1  0
  6  8  1  0
  8  9  1  0
  9 10  2  0
 11  9  1  0
 10 12  1  0
 13 11  2  0
 12 14  2  0
 14 13  1  0
 14 15  1  0
 15 16  1  0
 16 17  1  0
 17 18  2  0
 19 17  1  0
 18 20  1  0
 18 21  1  0
 22 19  2  0
 20 23  1  0
 20 24  2  0
 21 25  2  0
 25 22  1  0
  4 26  2  0
  4 27  1  0
 28 27  1  0
 28 29  1  0
 29 30  1  0
 29 31  1  0
 30 32  1  0
 31 33  1  0
 31 34  1  0
 34 32  1  0
 32 35  1  0
 34 36  1  0
 37 35  1  0
 38 35  1  0
 39 37  2  0
 37 40  1  0
 41 38  2  0
 42 39  1  0
 40 43  2  0
 40 41  1  0
 44 42  2  0
 44 43  1  0
 43 45  1  0
  6 46  1  1
  7 47  1  0
  7 48  1  0
  8 49  1  0
  8 50  1  0
 10 51  1  0
 11 52  1  0
 12 53  1  0
 13 54  1  0
 16 55  1  0
 16 56  1  0
 19 57  1  0
 21 58  1  0
 22 59  1  0
 25 60  1  0
 28 61  1  0
 28 62  1  0
 29 63  1  0
 31 64  1  0
 32 65  1  0
 33 66  1  0
 34 67  1  0
 36 68  1  0
 38 69  1  0
 42 70  1  0
 45 71  1  0
 45 72  1  0
M  CHG  3   5  -1  20   1  23  -1
M  END
>  <EmbedRMS>  (56) 
0.0828768387283

$$$$

     RDKit          3D

 72 76  0  0  0  0  0  0  0  0999 V2000
   10.2804   43.7664   33.8249 C   0  0  0  0  0  0  0  0  0  0  0  0
   11.4110   43.5919   34.3666 O   0  0  0  0  0  0  0  0  0  0  0  0
    9.3619   42.7249   33.7344 O   0  0  0  0  0  0  0  0  0  0  0  0
    9.8903   41.2265   34.2931 P   0  0  0  0  0  0  0  0  0  0  0  0
   10.3742   41.4563   35.8824 O   0  0  0  0  0  0  0  0  0  0  0  0
    9.9459   45.0737   33.2112 C   0  0  1  0  0  0  0  0  0  0  0  0
   11.0266   46.0293   33.4710 N   0  0  0  0  0  0  0  0  0  0  0  0
    9.7540   44.8543   31.6949 C   0  0  0  0  0  0  0  0  0  0  0  0
    8.7957   45.8413   31.0849 C   0  0  0  0  0  0  0  0  0  0  0  0
    7.4090   45.5998   31.1009 C   0  0  0  0  0  0  0  0  0  0  0  0
    9.2824   46.9877   30.4391 C   0  0  0  0  0  0  0  0  0  0  0  0
    6.5261   46.4983   30.4857 C   0  0  0  0  0  0  0  0  0  0  0  0
    8.3997   47.8871   29.8302 C   0  0  0  0  0  0  0  0  0  0  0  0
    7.0181   47.6556   29.8481 C   0  0  0  0  0  0  0  0  0  0  0  0
    6.1784   48.5933   29.2253 O   0  0  0  0  0  0  0  0  0  0  0  0
    4.7503   48.5568   29.2410 C   0  0  0  0  0  0  0  0  0  0  0  0
    4.2200   48.8580   30.6260 C   0  0  0  0  0  0  0  0  0  0  0  0
    3.2392   48.0514   31.2614 C   0  0  0  0  0  0  0  0  0  0  0  0
    4.7512   49.9615   31.3185 C   0  0  0  0  0  0  0  0  0  0  0  0
    2.5875   46.9700   30.5779 N   0  0  0  0  0  0  0  0  0  0  0  0
    2.8769   48.3287   32.5904 C   0  0  0  0  0  0  0  0  0  0  0  0
    4.3628   50.2337   32.6310 C   0  0  0  0  0  0  0  0  0  0  0  0
    2.2657   45.8224   31.2651 O   0  0  0  0  0  0  0  0  0  0  0  0
    2.0967   47.1511   29.4446 O   0  0  0  0  0  0  0  0  0  0  0  0
    3.4357   49.4121   33.2697 C   0  0  0  0  0  0  0  0  0  0  0  0
    8.8124   40.1844   34.2129 O   0  0  0  0  0  0  0  0  0  0  0  0
   11.2405   40.7948   33.3669 O   0  0  0  0  0  0  0  0  0  0  0  0
   10.9133   40.6866   31.9952 C   0  0  0  0  0  0  0  0  0  0  0  0
   11.5166   39.3787   31.4404 C   0  0  0  0  0  0  0  0  0  0  0  0
   12.7485   39.0849   32.0735 O   0  0  0  0  0  0  0  0  0  0  0  0
   10.6039   38.1884   31.6669 C   0  0  0  0  0  0  0  0  0  0  0  0
   12.9329   37.6776   32.0284 C   0  0  0  0  0  0  0  0  0  0  0  0
    9.6373   38.0938   30.6484 O   0  0  0  0  0  0  0  0  0  0  0  0
   11.5737   37.0140   31.7055 C   0  0  0  0  0  0  0  0  0  0  0  0
   13.4853   37.2120   33.3238 N   0  0  0  0  0  0  0  0  0  0  0  0
   11.6210   36.3379   30.4683 O   0  0  0  0  0  0  0  0  0  0  0  0
   14.4804   36.3319   33.5726 C   0  0  0  0  0  0  0  0  0  0  0  0
   13.1141   37.6275   34.5689 C   0  0  0  0  0  0  0  0  0  0  0  0
   15.2075   35.6152   32.6740 N   0  0  0  0  0  0  0  0  0  0  0  0
   14.6761   36.2306   34.9181 C   0  0  0  0  0  0  0  0  0  0  0  0
   13.8218   37.0451   35.5783 N   0  0  0  0  0  0  0  0  0  0  0  0
   16.1642   34.7600   33.1548 C   0  0  0  0  0  0  0  0  0  0  0  0
   15.6527   35.3507   35.4131 C   0  0  0  0  0  0  0  0  0  0  0  0
   16.3795   34.6315   34.5043 N   0  0  0  0  0  0  0  0  0  0  0  0
   15.9001   35.1933   36.8090 N   0  0  0  0  0  0  0  0  0  0  0  0
    8.9994   45.4382   33.6722 H   0  0  0  0  0  0  0  0  0  0  0  0
   11.0501   46.2278   34.4984 H   0  0  0  0  0  0  0  0  0  0  0  0
   10.7763   46.9370   33.0160 H   0  0  0  0  0  0  0  0  0  0  0  0
   10.7412   44.9081   31.1837 H   0  0  0  0  0  0  0  0  0  0  0  0
    9.3646   43.8355   31.4710 H   0  0  0  0  0  0  0  0  0  0  0  0
    7.0149   44.7142   31.5842 H   0  0  0  0  0  0  0  0  0  0  0  0
   10.3463   47.1874   30.4045 H   0  0  0  0  0  0  0  0  0  0  0  0
    5.4687   46.2790   30.5112 H   0  0  0  0  0  0  0  0  0  0  0  0
    8.7916   48.7696   29.3405 H   0  0  0  0  0  0  0  0  0  0  0  0
    4.4130   47.5789   28.8445 H   0  0  0  0  0  0  0  0  0  0  0  0
    4.3758   49.3402   28.5496 H   0  0  0  0  0  0  0  0  0  0  0  0
    5.4866   50.6018   30.8467 H   0  0  0  0  0  0  0  0  0  0  0  0
    2.1375   47.7183   33.0935 H   0  0  0  0  0  0  0  0  0  0  0  0
    4.7885   51.0787   33.1567 H   0  0  0  0  0  0  0  0  0  0  0  0
    3.1399   49.6221   34.2895 H   0  0  0  0  0  0  0  0  0  0  0  0
   11.3826   41.5438   31.4666 H   0  0  0  0  0  0  0  0  0  0  0  0
    9.8224   40.7224   31.7629 H   0  0  0  0  0  0  0  0  0  0  0  0
   11.6979   39.5036   30.3478 H   0  0  0  0  0  0  0  0  0  0  0  0
   10.1084   38.2786   32.6627 H   0  0  0  0  0  0  0  0  0  0  0  0
   13.6638   37.4473   31.2214 H   0  0  0  0  0  0  0  0  0  0  0  0
    8.9763   37.4190   30.9532 H   0  0  0  0  0  0  0  0  0  0  0  0
   11.2821   36.3054   32.5172 H   0  0  0  0  0  0  0  0  0  0  0  0
   10.8658   35.6935   30.4652 H   0  0  0  0  0  0  0  0  0  0  0  0
   12.3293   38.3523   34.7445 H   0  0  0  0  0  0  0  0  0  0  0  0
   16.7561   34.1778   32.4621 H   0  0  0  0  0  0  0  0  0  0  0  0
   16.6345   34.5300   37.1416 H   0  0  0  0  0  0  0  0  0  0  0  0
   15.3533   35.7361   37.5138 H   0  0  0  0  0  0  0  0  0  0  0  0
  1  2  2  0
  1  3  1  0
  3  4  1  0
  4  5  1  0
  6  1  1  0
  7  6  1  0
  6  8  1  0
  8  9  1  0
  9 10  2  0
 11  9  1  0
 10 12  1  0
 13 11  2  0
 12 14  2  0
 14 13  1  0
 14 15  1  0
 15 16  1  0
 16 17  1  0
 17 18  2  0
 19 17  1  0
 18 20  1  0
 18 21  1  0
 22 19  2  0
 20 23  1  0
 20 24  2  0
 21 25  2  0
 25 22  1  0
  4 26  2  0
  4 27  1  0
 28 27  1  0
 28 29  1  0
 29 30  1  0
 29 31  1  0
 30 32  1  0
 31 33  1  0
 31 34  1  0
 34 32  1  0
 32 35  1  0
 34 36  1  0
 37 35  1  0
 38 35  1  0
 39 37  2  0
 37 40  1  0
 41 38  2  0
 42 39  1  0
 40 43  2  0
 40 41  1  0
 44 42  2  0
 44 43  1  0
 43 45  1  0
  6 46  1  1
  7 47  1  0
  7 48  1  0
  8 49  1  0
  8 50  1  0
 10 51  1  0
 11 52  1  0
 12 53  1  0
 13 54  1  0
 16 55  1  0
 16 56  1  0
 19 57  1  0
 21 58  1  0
 22 59  1  0
 25 60  1  0
 28 61  1  0
 28 62  1  0
 29 63  1  0
 31 64  1  0
 32 65  1  0
 33 66  1  0
 34 67  1  0
 36 68  1  0
 38 69  1  0
 42 70  1  0
 45 71  1  0
 45 72  1  0
M  CHG  3   5  -1  20   1  23  -1
M  END
>  <EmbedRMS>  (57) 
0.0823732576347

$$$$

     RDKit          3D

 72 76  0  0  0  0  0  0  0  0999 V2000
   10.2835   43.7661   33.8257 C   0  0  0  0  0  0  0  0  0  0  0  0
   11.4102   43.5930   34.3753 O   0  0  0  0  0  0  0  0  0  0  0  0
    9.3638   42.7254   33.7349 O   0  0  0  0  0  0  0  0  0  0  0  0
    9.8903   41.2267   34.2943 P   0  0  0  0  0  0  0  0  0  0  0  0
   10.3735   41.4561   35.8837 O   0  0  0  0  0  0  0  0  0  0  0  0
    9.9547   45.0694   33.2036 C   0  0  1  0  0  0  0  0  0  0  0  0
   11.0274   46.0321   33.4756 N   0  0  0  0  0  0  0  0  0  0  0  0
    9.7466   44.8481   31.6877 C   0  0  0  0  0  0  0  0  0  0  0  0
    8.7923   45.8409   31.0844 C   0  0  0  0  0  0  0  0  0  0  0  0
    7.4054   45.6015   31.0990 C   0  0  0  0  0  0  0  0  0  0  0  0
    9.2824   46.9879   30.4423 C   0  0  0  0  0  0  0  0  0  0  0  0
    6.5263   46.5031   30.4839 C   0  0  0  0  0  0  0  0  0  0  0  0
    8.4032   47.8902   29.8315 C   0  0  0  0  0  0  0  0  0  0  0  0
    7.0143   47.6527   29.8475 C   0  0  0  0  0  0  0  0  0  0  0  0
    6.0935   48.5245   29.2482 O   0  0  0  0  0  0  0  0  0  0  0  0
    6.4454   49.7265   28.5656 C   0  0  0  0  0  0  0  0  0  0  0  0
    5.2007   50.3759   28.0102 C   0  0  0  0  0  0  0  0  0  0  0  0
    4.8701   51.7358   28.2529 C   0  0  0  0  0  0  0  0  0  0  0  0
    4.3232   49.5849   27.2459 C   0  0  0  0  0  0  0  0  0  0  0  0
    5.7660   52.6250   28.9369 N   0  0  0  0  0  0  0  0  0  0  0  0
    3.6438   52.2389   27.7860 C   0  0  0  0  0  0  0  0  0  0  0  0
    3.1195   50.1090   26.7724 C   0  0  0  0  0  0  0  0  0  0  0  0
    5.2611   53.5821   29.7866 O   0  0  0  0  0  0  0  0  0  0  0  0
    6.9590   52.7072   28.5788 O   0  0  0  0  0  0  0  0  0  0  0  0
    2.7753   51.4304   27.0513 C   0  0  0  0  0  0  0  0  0  0  0  0
    8.8122   40.1850   34.2131 O   0  0  0  0  0  0  0  0  0  0  0  0
   11.2407   40.7939   33.3694 O   0  0  0  0  0  0  0  0  0  0  0  0
   10.9152   40.6905   31.9974 C   0  0  0  0  0  0  0  0  0  0  0  0
   11.5252   39.3886   31.4375 C   0  0  0  0  0  0  0  0  0  0  0  0
   12.7500   39.0874   32.0799 O   0  0  0  0  0  0  0  0  0  0  0  0
   10.6092   38.1926   31.6470 C   0  0  0  0  0  0  0  0  0  0  0  0
   12.9332   37.6792   32.0294 C   0  0  0  0  0  0  0  0  0  0  0  0
    9.6122   38.0895   30.6542 O   0  0  0  0  0  0  0  0  0  0  0  0
   11.5743   37.0145   31.7024 C   0  0  0  0  0  0  0  0  0  0  0  0
   13.4844   37.2108   33.3241 N   0  0  0  0  0  0  0  0  0  0  0  0
   11.6297   36.3239   30.4740 O   0  0  0  0  0  0  0  0  0  0  0  0
   14.4802   36.3313   33.5727 C   0  0  0  0  0  0  0  0  0  0  0  0
   13.1138   37.6267   34.5692 C   0  0  0  0  0  0  0  0  0  0  0  0
   15.2075   35.6149   32.6739 N   0  0  0  0  0  0  0  0  0  0  0  0
   14.6761   36.2303   34.9181 C   0  0  0  0  0  0  0  0  0  0  0  0
   13.8220   37.0447   35.5785 N   0  0  0  0  0  0  0  0  0  0  0  0
   16.1643   34.7600   33.1547 C   0  0  0  0  0  0  0  0  0  0  0  0
   15.6529   35.3505   35.4130 C   0  0  0  0  0  0  0  0  0  0  0  0
   16.3798   34.6315   34.5042 N   0  0  0  0  0  0  0  0  0  0  0  0
   15.9003   35.1932   36.8090 N   0  0  0  0  0  0  0  0  0  0  0  0
    9.0121   45.4317   33.6715 H   0  0  0  0  0  0  0  0  0  0  0  0
   10.7260   46.9687   33.1213 H   0  0  0  0  0  0  0  0  0  0  0  0
   11.8906   45.7658   32.9469 H   0  0  0  0  0  0  0  0  0  0  0  0
   10.7229   44.8814   31.1557 H   0  0  0  0  0  0  0  0  0  0  0  0
    9.3413   43.8330   31.4763 H   0  0  0  0  0  0  0  0  0  0  0  0
    7.0083   44.7167   31.5812 H   0  0  0  0  0  0  0  0  0  0  0  0
   10.3471   47.1849   30.4115 H   0  0  0  0  0  0  0  0  0  0  0  0
    5.4617   46.3071   30.5017 H   0  0  0  0  0  0  0  0  0  0  0  0
    8.8143   48.7654   29.3475 H   0  0  0  0  0  0  0  0  0  0  0  0
    7.1258   49.4879   27.7199 H   0  0  0  0  0  0  0  0  0  0  0  0
    6.9752   50.3874   29.2794 H   0  0  0  0  0  0  0  0  0  0  0  0
    4.5645   48.5507   27.0316 H   0  0  0  0  0  0  0  0  0  0  0  0
    3.3724   53.2712   27.9680 H   0  0  0  0  0  0  0  0  0  0  0  0
    2.4487   49.4863   26.1946 H   0  0  0  0  0  0  0  0  0  0  0  0
    1.8392   51.8334   26.6870 H   0  0  0  0  0  0  0  0  0  0  0  0
    9.8243   40.7216   31.7643 H   0  0  0  0  0  0  0  0  0  0  0  0
   11.3802   41.5529   31.4733 H   0  0  0  0  0  0  0  0  0  0  0  0
   11.7266   39.5311   30.3513 H   0  0  0  0  0  0  0  0  0  0  0  0
   10.1110   38.2747   32.6387 H   0  0  0  0  0  0  0  0  0  0  0  0
   13.6652   37.4519   31.2226 H   0  0  0  0  0  0  0  0  0  0  0  0
   10.0512   38.1143   29.7645 H   0  0  0  0  0  0  0  0  0  0  0  0
   11.2762   36.3141   32.5190 H   0  0  0  0  0  0  0  0  0  0  0  0
   10.8593   35.6978   30.4640 H   0  0  0  0  0  0  0  0  0  0  0  0
   12.3295   38.3518   34.7449 H   0  0  0  0  0  0  0  0  0  0  0  0
   16.7564   34.1780   32.4620 H   0  0  0  0  0  0  0  0  0  0  0  0
   16.6349   34.5300   37.1415 H   0  0  0  0  0  0  0  0  0  0  0  0
   15.3534   35.7359   37.5138 H   0  0  0  0  0  0  0  0  0  0  0  0
  1  2  2  0
  1  3  1  0
  3  4  1  0
  4  5  1  0
  6  1  1  0
  7  6  1  0
  6  8  1  0
  8  9  1  0
  9 10  2  0
 11  9  1  0
 10 12  1  0
 13 11  2  0
 12 14  2  0
 14 13  1  0
 14 15  1  0
 15 16  1  0
 16 17  1  0
 17 18  2  0
 19 17  1  0
 18 20  1  0
 18 21  1  0
 22 19  2  0
 20 23  1  0
 20 24  2  0
 21 25  2  0
 25 22  1  0
  4 26  2  0
  4 27  1  0
 28 27  1  0
 28 29  1  0
 29 30  1  0
 29 31  1  0
 30 32  1  0
 31 33  1  0
 31 34  1  0
 34 32  1  0
 32 35  1  0
 34 36  1  0
 37 35  1  0
 38 35  1  0
 39 37  2  0
 37 40  1  0
 41 38  2  0
 42 39  1  0
 40 43  2  0
 40 41  1  0
 44 42  2  0
 44 43  1  0
 43 45  1  0
  6 46  1  1
  7 47  1  0
  7 48  1  0
  8 49  1  0
  8 50  1  0
 10 51  1  0
 11 52  1  0
 12 53  1  0
 13 54  1  0
 16 55  1  0
 16 56  1  0
 19 57  1  0
 21 58  1  0
 22 59  1  0
 25 60  1  0
 28 61  1  0
 28 62  1  0
 29 63  1  0
 31 64  1  0
 32 65  1  0
 33 66  1  0
 34 67  1  0
 36 68  1  0
 38 69  1  0
 42 70  1  0
 45 71  1  0
 45 72  1  0
M  CHG  3   5  -1  20   1  23  -1
M  END
>  <EmbedRMS>  (58) 
0.0818189840739

$$$$

     RDKit          3D

 72 76  0  0  0  0  0  0  0  0999 V2000
   10.2805   43.7664   33.8251 C   0  0  0  0  0  0  0  0  0  0  0  0
   11.4111   43.5918   34.3667 O   0  0  0  0  0  0  0  0  0  0  0  0
    9.3619   42.7249   33.7347 O   0  0  0  0  0  0  0  0  0  0  0  0
    9.8900   41.2267   34.2944 P   0  0  0  0  0  0  0  0  0  0  0  0
   10.3728   41.4567   35.8839 O   0  0  0  0  0  0  0  0  0  0  0  0
    9.9460   45.0737   33.2114 C   0  0  1  0  0  0  0  0  0  0  0  0
   11.0267   46.0293   33.4710 N   0  0  0  0  0  0  0  0  0  0  0  0
    9.7539   44.8544   31.6952 C   0  0  0  0  0  0  0  0  0  0  0  0
    8.7957   45.8418   31.0857 C   0  0  0  0  0  0  0  0  0  0  0  0
    7.4091   45.5998   31.1001 C   0  0  0  0  0  0  0  0  0  0  0  0
    9.2825   46.9874   30.4388 C   0  0  0  0  0  0  0  0  0  0  0  0
    6.5263   46.4981   30.4842 C   0  0  0  0  0  0  0  0  0  0  0  0
    8.3997   47.8859   29.8290 C   0  0  0  0  0  0  0  0  0  0  0  0
    7.0176   47.6568   29.8505 C   0  0  0  0  0  0  0  0  0  0  0  0
    6.1813   48.5948   29.2251 O   0  0  0  0  0  0  0  0  0  0  0  0
    4.7663   48.6965   29.3933 C   0  0  0  0  0  0  0  0  0  0  0  0
    4.4219   49.2114   30.7733 C   0  0  0  0  0  0  0  0  0  0  0  0
    4.6509   50.5621   31.1646 C   0  0  0  0  0  0  0  0  0  0  0  0
    3.8008   48.3326   31.6812 C   0  0  0  0  0  0  0  0  0  0  0  0
    5.2132   51.5431   30.2708 N   0  0  0  0  0  0  0  0  0  0  0  0
    4.2682   50.9720   32.4552 C   0  0  0  0  0  0  0  0  0  0  0  0
    3.4412   48.7606   32.9588 C   0  0  0  0  0  0  0  0  0  0  0  0
    4.8873   52.8718   30.4201 O   0  0  0  0  0  0  0  0  0  0  0  0
    6.1021   51.2372   29.4513 O   0  0  0  0  0  0  0  0  0  0  0  0
    3.6776   50.0765   33.3463 C   0  0  0  0  0  0  0  0  0  0  0  0
    8.8127   40.1842   34.2128 O   0  0  0  0  0  0  0  0  0  0  0  0
   11.2414   40.7950   33.3705 O   0  0  0  0  0  0  0  0  0  0  0  0
   10.9178   40.6922   31.9983 C   0  0  0  0  0  0  0  0  0  0  0  0
   11.5175   39.3837   31.4423 C   0  0  0  0  0  0  0  0  0  0  0  0
   12.7507   39.0887   32.0753 O   0  0  0  0  0  0  0  0  0  0  0  0
   10.6027   38.1916   31.6659 C   0  0  0  0  0  0  0  0  0  0  0  0
   12.9384   37.6819   32.0278 C   0  0  0  0  0  0  0  0  0  0  0  0
    9.6371   38.0805   30.6470 O   0  0  0  0  0  0  0  0  0  0  0  0
   11.5780   37.0215   31.6935 C   0  0  0  0  0  0  0  0  0  0  0  0
   13.4844   37.2119   33.3242 N   0  0  0  0  0  0  0  0  0  0  0  0
   11.6095   36.3201   30.4679 O   0  0  0  0  0  0  0  0  0  0  0  0
   14.4797   36.3318   33.5730 C   0  0  0  0  0  0  0  0  0  0  0  0
   13.1136   37.6278   34.5691 C   0  0  0  0  0  0  0  0  0  0  0  0
   15.2073   35.6155   32.6742 N   0  0  0  0  0  0  0  0  0  0  0  0
   14.6754   36.2305   34.9184 C   0  0  0  0  0  0  0  0  0  0  0  0
   13.8213   37.0452   35.5785 N   0  0  0  0  0  0  0  0  0  0  0  0
   16.1640   34.7604   33.1549 C   0  0  0  0  0  0  0  0  0  0  0  0
   15.6524   35.3507   35.4132 C   0  0  0  0  0  0  0  0  0  0  0  0
   16.3794   34.6318   34.5044 N   0  0  0  0  0  0  0  0  0  0  0  0
   15.8999   35.1934   36.8091 N   0  0  0  0  0  0  0  0  0  0  0  0
    8.9996   45.4381   33.6725 H   0  0  0  0  0  0  0  0  0  0  0  0
   11.0503   46.2277   34.4984 H   0  0  0  0  0  0  0  0  0  0  0  0
   10.7764   46.9370   33.0161 H   0  0  0  0  0  0  0  0  0  0  0  0
   10.7410   44.9081   31.1838 H   0  0  0  0  0  0  0  0  0  0  0  0
    9.3643   43.8357   31.4713 H   0  0  0  0  0  0  0  0  0  0  0  0
    7.0154   44.7115   31.5788 H   0  0  0  0  0  0  0  0  0  0  0  0
   10.3464   47.1868   30.4035 H   0  0  0  0  0  0  0  0  0  0  0  0
    5.4730   46.2672   30.4917 H   0  0  0  0  0  0  0  0  0  0  0  0
    8.7916   48.7678   29.3383 H   0  0  0  0  0  0  0  0  0  0  0  0
    4.3630   49.4005   28.6356 H   0  0  0  0  0  0  0  0  0  0  0  0
    4.2885   47.7164   29.1806 H   0  0  0  0  0  0  0  0  0  0  0  0
    3.5811   47.3111   31.3998 H   0  0  0  0  0  0  0  0  0  0  0  0
    4.4343   51.9921   32.7775 H   0  0  0  0  0  0  0  0  0  0  0  0
    2.9700   48.0711   33.6475 H   0  0  0  0  0  0  0  0  0  0  0  0
    3.3939   50.4071   34.3372 H   0  0  0  0  0  0  0  0  0  0  0  0
   11.3950   41.5477   31.4741 H   0  0  0  0  0  0  0  0  0  0  0  0
    9.8290   40.7408   31.7625 H   0  0  0  0  0  0  0  0  0  0  0  0
   11.6982   39.5114   30.3500 H   0  0  0  0  0  0  0  0  0  0  0  0
   10.1117   38.2604   32.6661 H   0  0  0  0  0  0  0  0  0  0  0  0
   13.6767   37.4557   31.2267 H   0  0  0  0  0  0  0  0  0  0  0  0
    8.8960   38.6950   30.8873 H   0  0  0  0  0  0  0  0  0  0  0  0
   11.2791   36.3072   32.4922 H   0  0  0  0  0  0  0  0  0  0  0  0
   11.8828   36.9598   29.7589 H   0  0  0  0  0  0  0  0  0  0  0  0
   12.3300   38.3539   34.7446 H   0  0  0  0  0  0  0  0  0  0  0  0
   16.7561   34.1785   32.4622 H   0  0  0  0  0  0  0  0  0  0  0  0
   16.6347   34.5303   37.1416 H   0  0  0  0  0  0  0  0  0  0  0  0
   15.3531   35.7360   37.5140 H   0  0  0  0  0  0  0  0  0  0  0  0
  1  2  2  0
  1  3  1  0
  3  4  1  0
  4  5  1  0
  6  1  1  0
  7  6  1  0
  6  8  1  0
  8  9  1  0
  9 10  2  0
 11  9  1  0
 10 12  1  0
 13 11  2  0
 12 14  2  0
 14 13  1  0
 14 15  1  0
 15 16  1  0
 16 17  1  0
 17 18  2  0
 19 17  1  0
 18 20  1  0
 18 21  1  0
 22 19  2  0
 20 23  1  0
 20 24  2  0
 21 25  2  0
 25 22  1  0
  4 26  2  0
  4 27  1  0
 28 27  1  0
 28 29  1  0
 29 30  1  0
 29 31  1  0
 30 32  1  0
 31 33  1  0
 31 34  1  0
 34 32  1  0
 32 35  1  0
 34 36  1  0
 37 35  1  0
 38 35  1  0
 39 37  2  0
 37 40  1  0
 41 38  2  0
 42 39  1  0
 40 43  2  0
 40 41  1  0
 44 42  2  0
 44 43  1  0
 43 45  1  0
  6 46  1  1
  7 47  1  0
  7 48  1  0
  8 49  1  0
  8 50  1  0
 10 51  1  0
 11 52  1  0
 12 53  1  0
 13 54  1  0
 16 55  1  0
 16 56  1  0
 19 57  1  0
 21 58  1  0
 22 59  1  0
 25 60  1  0
 28 61  1  0
 28 62  1  0
 29 63  1  0
 31 64  1  0
 32 65  1  0
 33 66  1  0
 34 67  1  0
 36 68  1  0
 38 69  1  0
 42 70  1  0
 45 71  1  0
 45 72  1  0
M  CHG  3   5  -1  20   1  23  -1
M  END
>  <EmbedRMS>  (59) 
0.0817847195863

$$$$

     RDKit          3D

 72 76  0  0  0  0  0  0  0  0999 V2000
   10.2804   43.7665   33.8250 C   0  0  0  0  0  0  0  0  0  0  0  0
   11.4111   43.5918   34.3666 O   0  0  0  0  0  0  0  0  0  0  0  0
    9.3616   42.7251   33.7348 O   0  0  0  0  0  0  0  0  0  0  0  0
    9.8898   41.2268   34.2939 P   0  0  0  0  0  0  0  0  0  0  0  0
   10.3738   41.4565   35.8831 O   0  0  0  0  0  0  0  0  0  0  0  0
    9.9460   45.0737   33.2113 C   0  0  1  0  0  0  0  0  0  0  0  0
   11.0268   46.0292   33.4709 N   0  0  0  0  0  0  0  0  0  0  0  0
    9.7539   44.8543   31.6950 C   0  0  0  0  0  0  0  0  0  0  0  0
    8.7955   45.8415   31.0853 C   0  0  0  0  0  0  0  0  0  0  0  0
    7.4088   45.5998   31.1009 C   0  0  0  0  0  0  0  0  0  0  0  0
    9.2823   46.9880   30.4396 C   0  0  0  0  0  0  0  0  0  0  0  0
    6.5258   46.4985   30.4861 C   0  0  0  0  0  0  0  0  0  0  0  0
    8.3998   47.8871   29.8302 C   0  0  0  0  0  0  0  0  0  0  0  0
    7.0183   47.6551   29.8469 C   0  0  0  0  0  0  0  0  0  0  0  0
    6.1788   48.5856   29.2106 O   0  0  0  0  0  0  0  0  0  0  0  0
    4.7495   48.5463   29.2192 C   0  0  0  0  0  0  0  0  0  0  0  0
    4.1664   47.5742   28.2068 C   0  0  0  0  0  0  0  0  0  0  0  0
    2.7574   47.4649   28.0323 C   0  0  0  0  0  0  0  0  0  0  0  0
    5.0128   46.8136   27.3703 C   0  0  0  0  0  0  0  0  0  0  0  0
    1.8265   48.2396   28.8107 N   0  0  0  0  0  0  0  0  0  0  0  0
    2.2497   46.6034   27.0438 C   0  0  0  0  0  0  0  0  0  0  0  0
    4.4842   45.9540   26.4071 C   0  0  0  0  0  0  0  0  0  0  0  0
    0.6379   48.6461   28.2491 O   0  0  0  0  0  0  0  0  0  0  0  0
    1.9918   48.3951   30.0374 O   0  0  0  0  0  0  0  0  0  0  0  0
    3.1063   45.8483   26.2446 C   0  0  0  0  0  0  0  0  0  0  0  0
    8.8122   40.1845   34.2134 O   0  0  0  0  0  0  0  0  0  0  0  0
   11.2400   40.7954   33.3680 O   0  0  0  0  0  0  0  0  0  0  0  0
   10.9124   40.6877   31.9967 C   0  0  0  0  0  0  0  0  0  0  0  0
   11.5169   39.3811   31.4420 C   0  0  0  0  0  0  0  0  0  0  0  0
   12.7500   39.0881   32.0760 O   0  0  0  0  0  0  0  0  0  0  0  0
   10.6042   38.1893   31.6659 C   0  0  0  0  0  0  0  0  0  0  0  0
   12.9395   37.6814   32.0280 C   0  0  0  0  0  0  0  0  0  0  0  0
    9.6353   38.0951   30.6499 O   0  0  0  0  0  0  0  0  0  0  0  0
   11.5804   37.0191   31.6934 C   0  0  0  0  0  0  0  0  0  0  0  0
   13.4851   37.2119   33.3244 N   0  0  0  0  0  0  0  0  0  0  0  0
   11.6118   36.3189   30.4673 O   0  0  0  0  0  0  0  0  0  0  0  0
   14.4801   36.3316   33.5732 C   0  0  0  0  0  0  0  0  0  0  0  0
   13.1139   37.6277   34.5692 C   0  0  0  0  0  0  0  0  0  0  0  0
   15.2076   35.6154   32.6744 N   0  0  0  0  0  0  0  0  0  0  0  0
   14.6756   36.2303   34.9186 C   0  0  0  0  0  0  0  0  0  0  0  0
   13.8215   37.0451   35.5786 N   0  0  0  0  0  0  0  0  0  0  0  0
   16.1642   34.7602   33.1551 C   0  0  0  0  0  0  0  0  0  0  0  0
   15.6526   35.3505   35.4134 C   0  0  0  0  0  0  0  0  0  0  0  0
   16.3796   34.6316   34.5045 N   0  0  0  0  0  0  0  0  0  0  0  0
   15.9001   35.1933   36.8093 N   0  0  0  0  0  0  0  0  0  0  0  0
    8.9996   45.4383   33.6723 H   0  0  0  0  0  0  0  0  0  0  0  0
   11.0504   46.2277   34.4983 H   0  0  0  0  0  0  0  0  0  0  0  0
   10.7766   46.9369   33.0159 H   0  0  0  0  0  0  0  0  0  0  0  0
   10.7410   44.9081   31.1835 H   0  0  0  0  0  0  0  0  0  0  0  0
    9.3644   43.8356   31.4711 H   0  0  0  0  0  0  0  0  0  0  0  0
    7.0151   44.7130   31.5823 H   0  0  0  0  0  0  0  0  0  0  0  0
   10.3463   47.1874   30.4047 H   0  0  0  0  0  0  0  0  0  0  0  0
    5.4683   46.2754   30.5040 H   0  0  0  0  0  0  0  0  0  0  0  0
    8.7920   48.7677   29.3373 H   0  0  0  0  0  0  0  0  0  0  0  0
    4.4018   48.3080   30.2450 H   0  0  0  0  0  0  0  0  0  0  0  0
    4.3822   49.5640   28.9699 H   0  0  0  0  0  0  0  0  0  0  0  0
    6.0887   46.8851   27.4404 H   0  0  0  0  0  0  0  0  0  0  0  0
    1.1811   46.5078   26.8982 H   0  0  0  0  0  0  0  0  0  0  0  0
    5.1473   45.3752   25.7770 H   0  0  0  0  0  0  0  0  0  0  0  0
    2.7000   45.1843   25.4925 H   0  0  0  0  0  0  0  0  0  0  0  0
   11.3807   41.5456   31.4683 H   0  0  0  0  0  0  0  0  0  0  0  0
    9.8215   40.7221   31.7644 H   0  0  0  0  0  0  0  0  0  0  0  0
   11.6986   39.5088   30.3499 H   0  0  0  0  0  0  0  0  0  0  0  0
   10.1109   38.2737   32.6630 H   0  0  0  0  0  0  0  0  0  0  0  0
   13.6783   37.4562   31.2271 H   0  0  0  0  0  0  0  0  0  0  0  0
    9.0020   37.3860   30.9348 H   0  0  0  0  0  0  0  0  0  0  0  0
   11.2807   36.3052   32.4921 H   0  0  0  0  0  0  0  0  0  0  0  0
   11.8819   36.9600   29.7584 H   0  0  0  0  0  0  0  0  0  0  0  0
   12.3303   38.3538   34.7446 H   0  0  0  0  0  0  0  0  0  0  0  0
   16.7563   34.1783   32.4624 H   0  0  0  0  0  0  0  0  0  0  0  0
   15.3532   35.7359   37.5142 H   0  0  0  0  0  0  0  0  0  0  0  0
   16.6348   34.5301   37.1418 H   0  0  0  0  0  0  0  0  0  0  0  0
  1  2  2  0
  1  3  1  0
  3  4  1  0
  4  5  1  0
  6  1  1  0
  7  6  1  0
  6  8  1  0
  8  9  1  0
  9 10  2  0
 11  9  1  0
 10 12  1  0
 13 11  2  0
 12 14  2  0
 14 13  1  0
 14 15  1  0
 15 16  1  0
 16 17  1  0
 17 18  2  0
 19 17  1  0
 18 20  1  0
 18 21  1  0
 22 19  2  0
 20 23  1  0
 20 24  2  0
 21 25  2  0
 25 22  1  0
  4 26  2  0
  4 27  1  0
 28 27  1  0
 28 29  1  0
 29 30  1  0
 29 31  1  0
 30 32  1  0
 31 33  1  0
 31 34  1  0
 34 32  1  0
 32 35  1  0
 34 36  1  0
 37 35  1  0
 38 35  1  0
 39 37  2  0
 37 40  1  0
 41 38  2  0
 42 39  1  0
 40 43  2  0
 40 41  1  0
 44 42  2  0
 44 43  1  0
 43 45  1  0
  6 46  1  1
  7 47  1  0
  7 48  1  0
  8 49  1  0
  8 50  1  0
 10 51  1  0
 11 52  1  0
 12 53  1  0
 13 54  1  0
 16 55  1  0
 16 56  1  0
 19 57  1  0
 21 58  1  0
 22 59  1  0
 25 60  1  0
 28 61  1  0
 28 62  1  0
 29 63  1  0
 31 64  1  0
 32 65  1  0
 33 66  1  0
 34 67  1  0
 36 68  1  0
 38 69  1  0
 42 70  1  0
 45 71  1  0
 45 72  1  0
M  CHG  3   5  -1  20   1  23  -1
M  END
>  <EmbedRMS>  (60) 
0.08136821264

$$$$

     RDKit          3D

 72 76  0  0  0  0  0  0  0  0999 V2000
   10.2805   43.7663   33.8249 C   0  0  0  0  0  0  0  0  0  0  0  0
   11.4111   43.5918   34.3667 O   0  0  0  0  0  0  0  0  0  0  0  0
    9.3621   42.7248   33.7343 O   0  0  0  0  0  0  0  0  0  0  0  0
    9.8903   41.2264   34.2936 P   0  0  0  0  0  0  0  0  0  0  0  0
   10.3732   41.4564   35.8831 O   0  0  0  0  0  0  0  0  0  0  0  0
    9.9460   45.0735   33.2111 C   0  0  1  0  0  0  0  0  0  0  0  0
   11.0267   46.0291   33.4708 N   0  0  0  0  0  0  0  0  0  0  0  0
    9.7540   44.8541   31.6948 C   0  0  0  0  0  0  0  0  0  0  0  0
    8.7957   45.8411   31.0848 C   0  0  0  0  0  0  0  0  0  0  0  0
    7.4089   45.6002   31.1012 C   0  0  0  0  0  0  0  0  0  0  0  0
    9.2824   46.9881   30.4399 C   0  0  0  0  0  0  0  0  0  0  0  0
    6.5263   46.4995   30.4867 C   0  0  0  0  0  0  0  0  0  0  0  0
    8.3994   47.8875   29.8313 C   0  0  0  0  0  0  0  0  0  0  0  0
    7.0181   47.6538   29.8455 C   0  0  0  0  0  0  0  0  0  0  0  0
    6.1800   48.5860   29.2128 O   0  0  0  0  0  0  0  0  0  0  0  0
    4.7591   48.4815   29.0972 C   0  0  0  0  0  0  0  0  0  0  0  0
    4.3588   47.3576   28.1643 C   0  0  0  0  0  0  0  0  0  0  0  0
    3.2130   46.5494   28.3934 C   0  0  0  0  0  0  0  0  0  0  0  0
    5.0861   47.1853   26.9709 C   0  0  0  0  0  0  0  0  0  0  0  0
    2.3911   46.7072   29.5588 N   0  0  0  0  0  0  0  0  0  0  0  0
    2.8430   45.5905   27.4360 C   0  0  0  0  0  0  0  0  0  0  0  0
    4.7130   46.2144   26.0405 C   0  0  0  0  0  0  0  0  0  0  0  0
    1.0220   46.7121   29.4244 O   0  0  0  0  0  0  0  0  0  0  0  0
    2.8820   46.5578   30.6961 O   0  0  0  0  0  0  0  0  0  0  0  0
    3.5939   45.4178   26.2729 C   0  0  0  0  0  0  0  0  0  0  0  0
    8.8128   40.1841   34.2125 O   0  0  0  0  0  0  0  0  0  0  0  0
   11.2416   40.7945   33.3692 O   0  0  0  0  0  0  0  0  0  0  0  0
   10.9178   40.6904   31.9968 C   0  0  0  0  0  0  0  0  0  0  0  0
   11.5181   39.3813   31.4408 C   0  0  0  0  0  0  0  0  0  0  0  0
   12.7497   39.0870   32.0746 O   0  0  0  0  0  0  0  0  0  0  0  0
   10.6045   38.1891   31.6655 C   0  0  0  0  0  0  0  0  0  0  0  0
   12.9344   37.6801   32.0290 C   0  0  0  0  0  0  0  0  0  0  0  0
    9.6418   38.0758   30.6441 O   0  0  0  0  0  0  0  0  0  0  0  0
   11.5741   37.0170   31.7045 C   0  0  0  0  0  0  0  0  0  0  0  0
   13.4851   37.2125   33.3241 N   0  0  0  0  0  0  0  0  0  0  0  0
   11.6079   36.3407   30.4680 O   0  0  0  0  0  0  0  0  0  0  0  0
   14.4801   36.3321   33.5727 C   0  0  0  0  0  0  0  0  0  0  0  0
   13.1140   37.6277   34.5693 C   0  0  0  0  0  0  0  0  0  0  0  0
   15.2073   35.6155   32.6739 N   0  0  0  0  0  0  0  0  0  0  0  0
   14.6758   36.2306   34.9182 C   0  0  0  0  0  0  0  0  0  0  0  0
   13.8217   37.0451   35.5785 N   0  0  0  0  0  0  0  0  0  0  0  0
   16.1639   34.7602   33.1546 C   0  0  0  0  0  0  0  0  0  0  0  0
   15.6526   35.3506   35.4130 C   0  0  0  0  0  0  0  0  0  0  0  0
   16.3794   34.6316   34.5041 N   0  0  0  0  0  0  0  0  0  0  0  0
   15.9001   35.1933   36.8089 N   0  0  0  0  0  0  0  0  0  0  0  0
    8.9996   45.4380   33.6721 H   0  0  0  0  0  0  0  0  0  0  0  0
   10.7764   46.9368   33.0159 H   0  0  0  0  0  0  0  0  0  0  0  0
   11.0502   46.2276   34.4982 H   0  0  0  0  0  0  0  0  0  0  0  0
    9.3645   43.8354   31.4710 H   0  0  0  0  0  0  0  0  0  0  0  0
   10.7411   44.9079   31.1835 H   0  0  0  0  0  0  0  0  0  0  0  0
    7.0146   44.7155   31.5859 H   0  0  0  0  0  0  0  0  0  0  0  0
   10.3462   47.1880   30.4055 H   0  0  0  0  0  0  0  0  0  0  0  0
    5.4696   46.2853   30.5172 H   0  0  0  0  0  0  0  0  0  0  0  0
    8.7915   48.7688   29.3396 H   0  0  0  0  0  0  0  0  0  0  0  0
    4.3828   49.4304   28.6614 H   0  0  0  0  0  0  0  0  0  0  0  0
    4.3150   48.3985   30.1069 H   0  0  0  0  0  0  0  0  0  0  0  0
    5.9437   47.8104   26.7545 H   0  0  0  0  0  0  0  0  0  0  0  0
    1.9715   44.9685   27.5975 H   0  0  0  0  0  0  0  0  0  0  0  0
    5.2868   46.0878   25.1315 H   0  0  0  0  0  0  0  0  0  0  0  0
    3.3020   44.6703   25.5465 H   0  0  0  0  0  0  0  0  0  0  0  0
   11.3944   41.5458   31.4719 H   0  0  0  0  0  0  0  0  0  0  0  0
    9.8289   40.7385   31.7615 H   0  0  0  0  0  0  0  0  0  0  0  0
   11.6995   39.5068   30.3484 H   0  0  0  0  0  0  0  0  0  0  0  0
   10.1090   38.2634   32.6632 H   0  0  0  0  0  0  0  0  0  0  0  0
   13.6662   37.4515   31.2224 H   0  0  0  0  0  0  0  0  0  0  0  0
    8.9009   38.6924   30.8794 H   0  0  0  0  0  0  0  0  0  0  0  0
   11.2650   36.3083   32.5087 H   0  0  0  0  0  0  0  0  0  0  0  0
   12.1372   35.5141   30.6163 H   0  0  0  0  0  0  0  0  0  0  0  0
   12.3297   38.3530   34.7450 H   0  0  0  0  0  0  0  0  0  0  0  0
   16.7558   34.1781   32.4619 H   0  0  0  0  0  0  0  0  0  0  0  0
   16.6346   34.5300   37.1414 H   0  0  0  0  0  0  0  0  0  0  0  0
   15.3533   35.7360   37.5138 H   0  0  0  0  0  0  0  0  0  0  0  0
  1  2  2  0
  1  3  1  0
  3  4  1  0
  4  5  1  0
  6  1  1  0
  7  6  1  0
  6  8  1  0
  8  9  1  0
  9 10  2  0
 11  9  1  0
 10 12  1  0
 13 11  2  0
 12 14  2  0
 14 13  1  0
 14 15  1  0
 15 16  1  0
 16 17  1  0
 17 18  2  0
 19 17  1  0
 18 20  1  0
 18 21  1  0
 22 19  2  0
 20 23  1  0
 20 24  2  0
 21 25  2  0
 25 22  1  0
  4 26  2  0
  4 27  1  0
 28 27  1  0
 28 29  1  0
 29 30  1  0
 29 31  1  0
 30 32  1  0
 31 33  1  0
 31 34  1  0
 34 32  1  0
 32 35  1  0
 34 36  1  0
 37 35  1  0
 38 35  1  0
 39 37  2  0
 37 40  1  0
 41 38  2  0
 42 39  1  0
 40 43  2  0
 40 41  1  0
 44 42  2  0
 44 43  1  0
 43 45  1  0
  6 46  1  1
  7 47  1  0
  7 48  1  0
  8 49  1  0
  8 50  1  0
 10 51  1  0
 11 52  1  0
 12 53  1  0
 13 54  1  0
 16 55  1  0
 16 56  1  0
 19 57  1  0
 21 58  1  0
 22 59  1  0
 25 60  1  0
 28 61  1  0
 28 62  1  0
 29 63  1  0
 31 64  1  0
 32 65  1  0
 33 66  1  0
 34 67  1  0
 36 68  1  0
 38 69  1  0
 42 70  1  0
 45 71  1  0
 45 72  1  0
M  CHG  3   5  -1  20   1  23  -1
M  END
>  <EmbedRMS>  (61) 
0.0826513532009

$$$$

     RDKit          3D

 72 76  0  0  0  0  0  0  0  0999 V2000
   10.2834   43.7662   33.8256 C   0  0  0  0  0  0  0  0  0  0  0  0
   11.4102   43.5930   34.3752 O   0  0  0  0  0  0  0  0  0  0  0  0
    9.3637   42.7255   33.7350 O   0  0  0  0  0  0  0  0  0  0  0  0
    9.8902   41.2267   34.2942 P   0  0  0  0  0  0  0  0  0  0  0  0
   10.3736   41.4560   35.8836 O   0  0  0  0  0  0  0  0  0  0  0  0
    9.9547   45.0694   33.2035 C   0  0  1  0  0  0  0  0  0  0  0  0
   11.0274   46.0321   33.4755 N   0  0  0  0  0  0  0  0  0  0  0  0
    9.7466   44.8480   31.6875 C   0  0  0  0  0  0  0  0  0  0  0  0
    8.7924   45.8406   31.0842 C   0  0  0  0  0  0  0  0  0  0  0  0
    7.4055   45.6018   31.0994 C   0  0  0  0  0  0  0  0  0  0  0  0
    9.2823   46.9879   30.4426 C   0  0  0  0  0  0  0  0  0  0  0  0
    6.5266   46.5036   30.4846 C   0  0  0  0  0  0  0  0  0  0  0  0
    8.4032   47.8903   29.8326 C   0  0  0  0  0  0  0  0  0  0  0  0
    7.0141   47.6520   29.8458 C   0  0  0  0  0  0  0  0  0  0  0  0
    6.0898   48.5203   29.2424 O   0  0  0  0  0  0  0  0  0  0  0  0
    6.4269   49.6770   28.4748 C   0  0  0  0  0  0  0  0  0  0  0  0
    7.0559   49.2833   27.1563 C   0  0  0  0  0  0  0  0  0  0  0  0
    8.2588   49.8674   26.6817 C   0  0  0  0  0  0  0  0  0  0  0  0
    6.4379   48.2743   26.3951 C   0  0  0  0  0  0  0  0  0  0  0  0
    8.8806   50.9688   27.3614 N   0  0  0  0  0  0  0  0  0  0  0  0
    8.8426   49.3763   25.5006 C   0  0  0  0  0  0  0  0  0  0  0  0
    7.0222   47.8133   25.2145 C   0  0  0  0  0  0  0  0  0  0  0  0
    8.1320   52.0661   27.7197 O   0  0  0  0  0  0  0  0  0  0  0  0
   10.1253   51.0410   27.4246 O   0  0  0  0  0  0  0  0  0  0  0  0
    8.2280   48.3556   24.7739 C   0  0  0  0  0  0  0  0  0  0  0  0
    8.8121   40.1850   34.2131 O   0  0  0  0  0  0  0  0  0  0  0  0
   11.2404   40.7941   33.3690 O   0  0  0  0  0  0  0  0  0  0  0  0
   10.9143   40.6898   31.9972 C   0  0  0  0  0  0  0  0  0  0  0  0
   11.5261   39.3885   31.4376 C   0  0  0  0  0  0  0  0  0  0  0  0
   12.7504   39.0888   32.0816 O   0  0  0  0  0  0  0  0  0  0  0  0
   10.6115   38.1910   31.6460 C   0  0  0  0  0  0  0  0  0  0  0  0
   12.9357   37.6812   32.0303 C   0  0  0  0  0  0  0  0  0  0  0  0
    9.6146   38.0859   30.6533 O   0  0  0  0  0  0  0  0  0  0  0  0
   11.5769   37.0148   31.7012 C   0  0  0  0  0  0  0  0  0  0  0  0
   13.4849   37.2112   33.3247 N   0  0  0  0  0  0  0  0  0  0  0  0
   11.6193   36.3261   30.4724 O   0  0  0  0  0  0  0  0  0  0  0  0
   14.4802   36.3313   33.5730 C   0  0  0  0  0  0  0  0  0  0  0  0
   13.1141   37.6268   34.5698 C   0  0  0  0  0  0  0  0  0  0  0  0
   15.2075   35.6151   32.6741 N   0  0  0  0  0  0  0  0  0  0  0  0
   14.6761   36.2300   34.9184 C   0  0  0  0  0  0  0  0  0  0  0  0
   13.8220   37.0445   35.5789 N   0  0  0  0  0  0  0  0  0  0  0  0
   16.1642   34.7600   33.1547 C   0  0  0  0  0  0  0  0  0  0  0  0
   15.6529   35.3503   35.4132 C   0  0  0  0  0  0  0  0  0  0  0  0
   16.3798   34.6314   34.5042 N   0  0  0  0  0  0  0  0  0  0  0  0
   15.9004   35.1930   36.8090 N   0  0  0  0  0  0  0  0  0  0  0  0
    9.0121   45.4317   33.6713 H   0  0  0  0  0  0  0  0  0  0  0  0
   10.7260   46.9687   33.1212 H   0  0  0  0  0  0  0  0  0  0  0  0
   11.8906   45.7658   32.9468 H   0  0  0  0  0  0  0  0  0  0  0  0
   10.7230   44.8813   31.1555 H   0  0  0  0  0  0  0  0  0  0  0  0
    9.3415   43.8328   31.4762 H   0  0  0  0  0  0  0  0  0  0  0  0
    7.0083   44.7171   31.5817 H   0  0  0  0  0  0  0  0  0  0  0  0
   10.3468   47.1857   30.4131 H   0  0  0  0  0  0  0  0  0  0  0  0
    5.4621   46.3069   30.5018 H   0  0  0  0  0  0  0  0  0  0  0  0
    8.8163   48.7671   29.3557 H   0  0  0  0  0  0  0  0  0  0  0  0
    5.4917   50.2346   28.2590 H   0  0  0  0  0  0  0  0  0  0  0  0
    7.0717   50.3380   29.0870 H   0  0  0  0  0  0  0  0  0  0  0  0
    5.5094   47.8274   26.7291 H   0  0  0  0  0  0  0  0  0  0  0  0
    9.7643   49.8052   25.1278 H   0  0  0  0  0  0  0  0  0  0  0  0
    6.5426   47.0279   24.6446 H   0  0  0  0  0  0  0  0  0  0  0  0
    8.6817   47.9934   23.8603 H   0  0  0  0  0  0  0  0  0  0  0  0
   11.3779   41.5526   31.4726 H   0  0  0  0  0  0  0  0  0  0  0  0
    9.8233   40.7191   31.7647 H   0  0  0  0  0  0  0  0  0  0  0  0
   11.7283   39.5312   30.3515 H   0  0  0  0  0  0  0  0  0  0  0  0
   10.1127   38.2734   32.6376 H   0  0  0  0  0  0  0  0  0  0  0  0
   13.6692   37.4566   31.2242 H   0  0  0  0  0  0  0  0  0  0  0  0
   10.0533   38.1119   29.7635 H   0  0  0  0  0  0  0  0  0  0  0  0
   11.2607   36.3148   32.5102 H   0  0  0  0  0  0  0  0  0  0  0  0
   12.1496   35.5023   30.6324 H   0  0  0  0  0  0  0  0  0  0  0  0
   12.3301   38.3524   34.7455 H   0  0  0  0  0  0  0  0  0  0  0  0
   16.7563   34.1781   32.4619 H   0  0  0  0  0  0  0  0  0  0  0  0
   16.6351   34.5298   37.1416 H   0  0  0  0  0  0  0  0  0  0  0  0
   15.3536   35.7357   37.5140 H   0  0  0  0  0  0  0  0  0  0  0  0
  1  2  2  0
  1  3  1  0
  3  4  1  0
  4  5  1  0
  6  1  1  0
  7  6  1  0
  6  8  1  0
  8  9  1  0
  9 10  2  0
 11  9  1  0
 10 12  1  0
 13 11  2  0
 12 14  2  0
 14 13  1  0
 14 15  1  0
 15 16  1  0
 16 17  1  0
 17 18  2  0
 19 17  1  0
 18 20  1  0
 18 21  1  0
 22 19  2  0
 20 23  1  0
 20 24  2  0
 21 25  2  0
 25 22  1  0
  4 26  2  0
  4 27  1  0
 28 27  1  0
 28 29  1  0
 29 30  1  0
 29 31  1  0
 30 32  1  0
 31 33  1  0
 31 34  1  0
 34 32  1  0
 32 35  1  0
 34 36  1  0
 37 35  1  0
 38 35  1  0
 39 37  2  0
 37 40  1  0
 41 38  2  0
 42 39  1  0
 40 43  2  0
 40 41  1  0
 44 42  2  0
 44 43  1  0
 43 45  1  0
  6 46  1  1
  7 47  1  0
  7 48  1  0
  8 49  1  0
  8 50  1  0
 10 51  1  0
 11 52  1  0
 12 53  1  0
 13 54  1  0
 16 55  1  0
 16 56  1  0
 19 57  1  0
 21 58  1  0
 22 59  1  0
 25 60  1  0
 28 61  1  0
 28 62  1  0
 29 63  1  0
 31 64  1  0
 32 65  1  0
 33 66  1  0
 34 67  1  0
 36 68  1  0
 38 69  1  0
 42 70  1  0
 45 71  1  0
 45 72  1  0
M  CHG  3   5  -1  20   1  23  -1
M  END
>  <EmbedRMS>  (62) 
0.0816299310152

$$$$

     RDKit          3D

 72 76  0  0  0  0  0  0  0  0999 V2000
   10.2839   43.7626   33.8276 C   0  0  0  0  0  0  0  0  0  0  0  0
   11.4103   43.5863   34.3767 O   0  0  0  0  0  0  0  0  0  0  0  0
    9.3633   42.7234   33.7352 O   0  0  0  0  0  0  0  0  0  0  0  0
    9.8898   41.2247   34.2940 P   0  0  0  0  0  0  0  0  0  0  0  0
   10.3725   41.4544   35.8836 O   0  0  0  0  0  0  0  0  0  0  0  0
    9.9548   45.0699   33.2063 C   0  0  1  0  0  0  0  0  0  0  0  0
   11.0198   46.0480   33.4568 N   0  0  0  0  0  0  0  0  0  0  0  0
    9.7501   44.8507   31.6923 C   0  0  0  0  0  0  0  0  0  0  0  0
    8.7942   45.8416   31.0867 C   0  0  0  0  0  0  0  0  0  0  0  0
    7.4074   45.6012   31.1004 C   0  0  0  0  0  0  0  0  0  0  0  0
    9.2833   46.9892   30.4451 C   0  0  0  0  0  0  0  0  0  0  0  0
    6.5278   46.5023   30.4848 C   0  0  0  0  0  0  0  0  0  0  0  0
    8.4037   47.8902   29.8334 C   0  0  0  0  0  0  0  0  0  0  0  0
    7.0147   47.6510   29.8459 C   0  0  0  0  0  0  0  0  0  0  0  0
    6.0901   48.5182   29.2416 O   0  0  0  0  0  0  0  0  0  0  0  0
    6.4270   49.6746   28.4732 C   0  0  0  0  0  0  0  0  0  0  0  0
    7.0560   49.2796   27.1547 C   0  0  0  0  0  0  0  0  0  0  0  0
    8.2616   49.8594   26.6786 C   0  0  0  0  0  0  0  0  0  0  0  0
    6.4341   48.2729   26.3936 C   0  0  0  0  0  0  0  0  0  0  0  0
    8.8955   50.9553   27.3558 N   0  0  0  0  0  0  0  0  0  0  0  0
    8.8437   49.3642   25.4994 C   0  0  0  0  0  0  0  0  0  0  0  0
    7.0167   47.8090   25.2134 C   0  0  0  0  0  0  0  0  0  0  0  0
   10.2686   51.0296   27.3988 O   0  0  0  0  0  0  0  0  0  0  0  0
    8.2273   51.9553   27.6899 O   0  0  0  0  0  0  0  0  0  0  0  0
    8.2250   48.3459   24.7730 C   0  0  0  0  0  0  0  0  0  0  0  0
    8.8118   40.1831   34.2121 O   0  0  0  0  0  0  0  0  0  0  0  0
   11.2413   40.7934   33.3696 O   0  0  0  0  0  0  0  0  0  0  0  0
   10.9179   40.6902   31.9971 C   0  0  0  0  0  0  0  0  0  0  0  0
   11.5181   39.3813   31.4408 C   0  0  0  0  0  0  0  0  0  0  0  0
   12.7497   39.0870   32.0745 O   0  0  0  0  0  0  0  0  0  0  0  0
   10.6045   38.1891   31.6655 C   0  0  0  0  0  0  0  0  0  0  0  0
   12.9344   37.6801   32.0290 C   0  0  0  0  0  0  0  0  0  0  0  0
    9.6418   38.0758   30.6440 O   0  0  0  0  0  0  0  0  0  0  0  0
   11.5741   37.0169   31.7045 C   0  0  0  0  0  0  0  0  0  0  0  0
   13.4851   37.2125   33.3241 N   0  0  0  0  0  0  0  0  0  0  0  0
   11.6079   36.3407   30.4679 O   0  0  0  0  0  0  0  0  0  0  0  0
   14.4801   36.3321   33.5727 C   0  0  0  0  0  0  0  0  0  0  0  0
   13.1140   37.6277   34.5692 C   0  0  0  0  0  0  0  0  0  0  0  0
   15.2073   35.6155   32.6739 N   0  0  0  0  0  0  0  0  0  0  0  0
   14.6758   36.2306   34.9182 C   0  0  0  0  0  0  0  0  0  0  0  0
   13.8217   37.0451   35.5784 N   0  0  0  0  0  0  0  0  0  0  0  0
   16.1639   34.7602   33.1546 C   0  0  0  0  0  0  0  0  0  0  0  0
   15.6526   35.3506   35.4130 C   0  0  0  0  0  0  0  0  0  0  0  0
   16.3794   34.6316   34.5041 N   0  0  0  0  0  0  0  0  0  0  0  0
   15.9001   35.1933   36.8089 N   0  0  0  0  0  0  0  0  0  0  0  0
    9.0099   45.4348   33.6670 H   0  0  0  0  0  0  0  0  0  0  0  0
   11.1134   46.1992   34.4880 H   0  0  0  0  0  0  0  0  0  0  0  0
   11.9348   45.6932   33.0923 H   0  0  0  0  0  0  0  0  0  0  0  0
    9.3508   43.8342   31.4762 H   0  0  0  0  0  0  0  0  0  0  0  0
   10.7304   44.8921   31.1674 H   0  0  0  0  0  0  0  0  0  0  0  0
    7.0107   44.7163   31.5826 H   0  0  0  0  0  0  0  0  0  0  0  0
   10.3475   47.1888   30.4177 H   0  0  0  0  0  0  0  0  0  0  0  0
    5.4635   46.3046   30.5014 H   0  0  0  0  0  0  0  0  0  0  0  0
    8.8163   48.7673   29.3565 H   0  0  0  0  0  0  0  0  0  0  0  0
    7.0701   50.3366   29.0860 H   0  0  0  0  0  0  0  0  0  0  0  0
    5.4916   50.2315   28.2567 H   0  0  0  0  0  0  0  0  0  0  0  0
    5.5038   47.8298   26.7276 H   0  0  0  0  0  0  0  0  0  0  0  0
    9.7677   49.7882   25.1269 H   0  0  0  0  0  0  0  0  0  0  0  0
    6.5340   47.0254   24.6437 H   0  0  0  0  0  0  0  0  0  0  0  0
    8.6777   47.9809   23.8600 H   0  0  0  0  0  0  0  0  0  0  0  0
   11.3949   41.5458   31.4729 H   0  0  0  0  0  0  0  0  0  0  0  0
    9.8290   40.7386   31.7615 H   0  0  0  0  0  0  0  0  0  0  0  0
   11.6994   39.5070   30.3483 H   0  0  0  0  0  0  0  0  0  0  0  0
   10.1090   38.2634   32.6632 H   0  0  0  0  0  0  0  0  0  0  0  0
   13.6662   37.4514   31.2224 H   0  0  0  0  0  0  0  0  0  0  0  0
    8.9009   38.6925   30.8793 H   0  0  0  0  0  0  0  0  0  0  0  0
   11.2650   36.3082   32.5086 H   0  0  0  0  0  0  0  0  0  0  0  0
   12.1372   35.5140   30.6163 H   0  0  0  0  0  0  0  0  0  0  0  0
   12.3297   38.3530   34.7450 H   0  0  0  0  0  0  0  0  0  0  0  0
   16.7558   34.1781   32.4619 H   0  0  0  0  0  0  0  0  0  0  0  0
   15.3533   35.7360   37.5138 H   0  0  0  0  0  0  0  0  0  0  0  0
   16.6346   34.5300   37.1414 H   0  0  0  0  0  0  0  0  0  0  0  0
  1  2  2  0
  1  3  1  0
  3  4  1  0
  4  5  1  0
  6  1  1  0
  7  6  1  0
  6  8  1  0
  8  9  1  0
  9 10  2  0
 11  9  1  0
 10 12  1  0
 13 11  2  0
 12 14  2  0
 14 13  1  0
 14 15  1  0
 15 16  1  0
 16 17  1  0
 17 18  2  0
 19 17  1  0
 18 20  1  0
 18 21  1  0
 22 19  2  0
 20 23  1  0
 20 24  2  0
 21 25  2  0
 25 22  1  0
  4 26  2  0
  4 27  1  0
 28 27  1  0
 28 29  1  0
 29 30  1  0
 29 31  1  0
 30 32  1  0
 31 33  1  0
 31 34  1  0
 34 32  1  0
 32 35  1  0
 34 36  1  0
 37 35  1  0
 38 35  1  0
 39 37  2  0
 37 40  1  0
 41 38  2  0
 42 39  1  0
 40 43  2  0
 40 41  1  0
 44 42  2  0
 44 43  1  0
 43 45  1  0
  6 46  1  1
  7 47  1  0
  7 48  1  0
  8 49  1  0
  8 50  1  0
 10 51  1  0
 11 52  1  0
 12 53  1  0
 13 54  1  0
 16 55  1  0
 16 56  1  0
 19 57  1  0
 21 58  1  0
 22 59  1  0
 25 60  1  0
 28 61  1  0
 28 62  1  0
 29 63  1  0
 31 64  1  0
 32 65  1  0
 33 66  1  0
 34 67  1  0
 36 68  1  0
 38 69  1  0
 42 70  1  0
 45 71  1  0
 45 72  1  0
M  CHG  3   5  -1  20   1  23  -1
M  END
>  <EmbedRMS>  (63) 
0.0837295248152

$$$$

     RDKit          3D

 72 76  0  0  0  0  0  0  0  0999 V2000
   10.2835   43.7662   33.8257 C   0  0  0  0  0  0  0  0  0  0  0  0
   11.4102   43.5931   34.3753 O   0  0  0  0  0  0  0  0  0  0  0  0
    9.3637   42.7255   33.7351 O   0  0  0  0  0  0  0  0  0  0  0  0
    9.8904   41.2267   34.2946 P   0  0  0  0  0  0  0  0  0  0  0  0
   10.3729   41.4561   35.8842 O   0  0  0  0  0  0  0  0  0  0  0  0
    9.9546   45.0694   33.2034 C   0  0  1  0  0  0  0  0  0  0  0  0
   11.0273   46.0321   33.4755 N   0  0  0  0  0  0  0  0  0  0  0  0
    9.7466   44.8479   31.6875 C   0  0  0  0  0  0  0  0  0  0  0  0
    8.7924   45.8405   31.0840 C   0  0  0  0  0  0  0  0  0  0  0  0
    7.4055   45.6018   31.0995 C   0  0  0  0  0  0  0  0  0  0  0  0
    9.2822   46.9879   30.4427 C   0  0  0  0  0  0  0  0  0  0  0  0
    6.5267   46.5038   30.4849 C   0  0  0  0  0  0  0  0  0  0  0  0
    8.4030   47.8905   29.8328 C   0  0  0  0  0  0  0  0  0  0  0  0
    7.0143   47.6517   29.8452 C   0  0  0  0  0  0  0  0  0  0  0  0
    6.0895   48.5187   29.2419 O   0  0  0  0  0  0  0  0  0  0  0  0
    6.4202   49.6415   28.4234 C   0  0  0  0  0  0  0  0  0  0  0  0
    7.0198   49.1954   27.1085 C   0  0  0  0  0  0  0  0  0  0  0  0
    6.3831   48.2397   26.2696 C   0  0  0  0  0  0  0  0  0  0  0  0
    8.2675   49.7210   26.7250 C   0  0  0  0  0  0  0  0  0  0  0  0
    5.0946   47.6817   26.5860 N   0  0  0  0  0  0  0  0  0  0  0  0
    7.0379   47.8115   25.1011 C   0  0  0  0  0  0  0  0  0  0  0  0
    8.8913   49.2938   25.5526 C   0  0  0  0  0  0  0  0  0  0  0  0
    4.7794   46.4065   26.1764 O   0  0  0  0  0  0  0  0  0  0  0  0
    4.1952   48.3920   27.0797 O   0  0  0  0  0  0  0  0  0  0  0  0
    8.2808   48.3365   24.7455 C   0  0  0  0  0  0  0  0  0  0  0  0
    8.8125   40.1848   34.2126 O   0  0  0  0  0  0  0  0  0  0  0  0
   11.2416   40.7948   33.3707 O   0  0  0  0  0  0  0  0  0  0  0  0
   10.9179   40.6922   31.9984 C   0  0  0  0  0  0  0  0  0  0  0  0
   11.5175   39.3838   31.4423 C   0  0  0  0  0  0  0  0  0  0  0  0
   12.7508   39.0887   32.0752 O   0  0  0  0  0  0  0  0  0  0  0  0
   10.6028   38.1916   31.6659 C   0  0  0  0  0  0  0  0  0  0  0  0
   12.9384   37.6818   32.0278 C   0  0  0  0  0  0  0  0  0  0  0  0
    9.6371   38.0806   30.6470 O   0  0  0  0  0  0  0  0  0  0  0  0
   11.5780   37.0215   31.6935 C   0  0  0  0  0  0  0  0  0  0  0  0
   13.4844   37.2119   33.3242 N   0  0  0  0  0  0  0  0  0  0  0  0
   11.6095   36.3201   30.4679 O   0  0  0  0  0  0  0  0  0  0  0  0
   14.4797   36.3318   33.5730 C   0  0  0  0  0  0  0  0  0  0  0  0
   13.1135   37.6278   34.5691 C   0  0  0  0  0  0  0  0  0  0  0  0
   15.2073   35.6155   32.6742 N   0  0  0  0  0  0  0  0  0  0  0  0
   14.6754   36.2305   34.9184 C   0  0  0  0  0  0  0  0  0  0  0  0
   13.8213   37.0452   35.5785 N   0  0  0  0  0  0  0  0  0  0  0  0
   16.1640   34.7604   33.1549 C   0  0  0  0  0  0  0  0  0  0  0  0
   15.6524   35.3507   35.4132 C   0  0  0  0  0  0  0  0  0  0  0  0
   16.3794   34.6318   34.5044 N   0  0  0  0  0  0  0  0  0  0  0  0
   15.8999   35.1934   36.8091 N   0  0  0  0  0  0  0  0  0  0  0  0
    9.0120   45.4317   33.6712 H   0  0  0  0  0  0  0  0  0  0  0  0
   11.8906   45.7658   32.9468 H   0  0  0  0  0  0  0  0  0  0  0  0
   10.7259   46.9687   33.1212 H   0  0  0  0  0  0  0  0  0  0  0  0
   10.7230   44.8813   31.1555 H   0  0  0  0  0  0  0  0  0  0  0  0
    9.3415   43.8327   31.4762 H   0  0  0  0  0  0  0  0  0  0  0  0
    7.0082   44.7172   31.5818 H   0  0  0  0  0  0  0  0  0  0  0  0
   10.3466   47.1864   30.4143 H   0  0  0  0  0  0  0  0  0  0  0  0
    5.4622   46.3071   30.5019 H   0  0  0  0  0  0  0  0  0  0  0  0
    8.8155   48.7695   29.3604 H   0  0  0  0  0  0  0  0  0  0  0  0
    7.0948   50.3258   28.9823 H   0  0  0  0  0  0  0  0  0  0  0  0
    5.4963   50.2200   28.2185 H   0  0  0  0  0  0  0  0  0  0  0  0
    8.7685   50.4565   27.3423 H   0  0  0  0  0  0  0  0  0  0  0  0
    6.5754   47.0794   24.4514 H   0  0  0  0  0  0  0  0  0  0  0  0
    9.8541   49.7017   25.2728 H   0  0  0  0  0  0  0  0  0  0  0  0
    8.7690   48.0036   23.8386 H   0  0  0  0  0  0  0  0  0  0  0  0
    9.8291   40.7409   31.7627 H   0  0  0  0  0  0  0  0  0  0  0  0
   11.3952   41.5478   31.4744 H   0  0  0  0  0  0  0  0  0  0  0  0
   11.6981   39.5115   30.3500 H   0  0  0  0  0  0  0  0  0  0  0  0
   10.1117   38.2604   32.6660 H   0  0  0  0  0  0  0  0  0  0  0  0
   13.6767   37.4556   31.2267 H   0  0  0  0  0  0  0  0  0  0  0  0
    8.8961   38.6952   30.8872 H   0  0  0  0  0  0  0  0  0  0  0  0
   11.2791   36.3072   32.4922 H   0  0  0  0  0  0  0  0  0  0  0  0
   11.8828   36.9598   29.7589 H   0  0  0  0  0  0  0  0  0  0  0  0
   12.3300   38.3539   34.7446 H   0  0  0  0  0  0  0  0  0  0  0  0
   16.7561   34.1785   32.4622 H   0  0  0  0  0  0  0  0  0  0  0  0
   15.3531   35.7360   37.5140 H   0  0  0  0  0  0  0  0  0  0  0  0
   16.6347   34.5303   37.1416 H   0  0  0  0  0  0  0  0  0  0  0  0
  1  2  2  0
  1  3  1  0
  3  4  1  0
  4  5  1  0
  6  1  1  0
  7  6  1  0
  6  8  1  0
  8  9  1  0
  9 10  2  0
 11  9  1  0
 10 12  1  0
 13 11  2  0
 12 14  2  0
 14 13  1  0
 14 15  1  0
 15 16  1  0
 16 17  1  0
 17 18  2  0
 19 17  1  0
 18 20  1  0
 18 21  1  0
 22 19  2  0
 20 23  1  0
 20 24  2  0
 21 25  2  0
 25 22  1  0
  4 26  2  0
  4 27  1  0
 28 27  1  0
 28 29  1  0
 29 30  1  0
 29 31  1  0
 30 32  1  0
 31 33  1  0
 31 34  1  0
 34 32  1  0
 32 35  1  0
 34 36  1  0
 37 35  1  0
 38 35  1  0
 39 37  2  0
 37 40  1  0
 41 38  2  0
 42 39  1  0
 40 43  2  0
 40 41  1  0
 44 42  2  0
 44 43  1  0
 43 45  1  0
  6 46  1  1
  7 47  1  0
  7 48  1  0
  8 49  1  0
  8 50  1  0
 10 51  1  0
 11 52  1  0
 12 53  1  0
 13 54  1  0
 16 55  1  0
 16 56  1  0
 19 57  1  0
 21 58  1  0
 22 59  1  0
 25 60  1  0
 28 61  1  0
 28 62  1  0
 29 63  1  0
 31 64  1  0
 32 65  1  0
 33 66  1  0
 34 67  1  0
 36 68  1  0
 38 69  1  0
 42 70  1  0
 45 71  1  0
 45 72  1  0
M  CHG  3   5  -1  20   1  23  -1
M  END
>  <EmbedRMS>  (64) 
0.0819906966973

$$$$

     RDKit          3D

 72 76  0  0  0  0  0  0  0  0999 V2000
   10.2803   43.7665   33.8250 C   0  0  0  0  0  0  0  0  0  0  0  0
   11.4110   43.5919   34.3666 O   0  0  0  0  0  0  0  0  0  0  0  0
    9.3616   42.7251   33.7348 O   0  0  0  0  0  0  0  0  0  0  0  0
    9.8896   41.2269   34.2945 P   0  0  0  0  0  0  0  0  0  0  0  0
   10.3732   41.4568   35.8838 O   0  0  0  0  0  0  0  0  0  0  0  0
    9.9458   45.0736   33.2109 C   0  0  1  0  0  0  0  0  0  0  0  0
   11.0266   46.0292   33.4705 N   0  0  0  0  0  0  0  0  0  0  0  0
    9.7537   44.8536   31.6946 C   0  0  0  0  0  0  0  0  0  0  0  0
    8.7956   45.8403   31.0838 C   0  0  0  0  0  0  0  0  0  0  0  0
    7.4087   45.6009   31.1016 C   0  0  0  0  0  0  0  0  0  0  0  0
    9.2826   46.9881   30.4407 C   0  0  0  0  0  0  0  0  0  0  0  0
    6.5284   46.5024   30.4876 C   0  0  0  0  0  0  0  0  0  0  0  0
    8.4017   47.8902   29.8326 C   0  0  0  0  0  0  0  0  0  0  0  0
    7.0143   47.6490   29.8437 C   0  0  0  0  0  0  0  0  0  0  0  0
    6.0859   48.5149   29.2449 O   0  0  0  0  0  0  0  0  0  0  0  0
    6.3874   49.5386   28.2954 C   0  0  0  0  0  0  0  0  0  0  0  0
    6.7688   48.9398   26.9605 C   0  0  0  0  0  0  0  0  0  0  0  0
    5.8101   48.3463   26.0928 C   0  0  0  0  0  0  0  0  0  0  0  0
    8.1093   49.0292   26.5397 C   0  0  0  0  0  0  0  0  0  0  0  0
    4.4099   48.2847   26.4250 N   0  0  0  0  0  0  0  0  0  0  0  0
    6.2331   47.8469   24.8465 C   0  0  0  0  0  0  0  0  0  0  0  0
    8.5069   48.5165   25.3050 C   0  0  0  0  0  0  0  0  0  0  0  0
    3.9963   47.9743   27.6986 O   0  0  0  0  0  0  0  0  0  0  0  0
    3.5516   48.3594   25.5213 O   0  0  0  0  0  0  0  0  0  0  0  0
    7.5714   47.9235   24.4614 C   0  0  0  0  0  0  0  0  0  0  0  0
    8.8122   40.1844   34.2136 O   0  0  0  0  0  0  0  0  0  0  0  0
   11.2401   40.7950   33.3698 O   0  0  0  0  0  0  0  0  0  0  0  0
   10.9143   40.6914   31.9981 C   0  0  0  0  0  0  0  0  0  0  0  0
   11.5269   39.3911   31.4385 C   0  0  0  0  0  0  0  0  0  0  0  0
   12.7519   39.0911   32.0837 O   0  0  0  0  0  0  0  0  0  0  0  0
   10.6113   38.1932   31.6451 C   0  0  0  0  0  0  0  0  0  0  0  0
   12.9413   37.6838   32.0297 C   0  0  0  0  0  0  0  0  0  0  0  0
    9.6064   38.0877   30.6599 O   0  0  0  0  0  0  0  0  0  0  0  0
   11.5822   37.0197   31.6877 C   0  0  0  0  0  0  0  0  0  0  0  0
   13.4840   37.2105   33.3254 N   0  0  0  0  0  0  0  0  0  0  0  0
   11.6179   36.3072   30.4691 O   0  0  0  0  0  0  0  0  0  0  0  0
   14.4797   36.3309   33.5738 C   0  0  0  0  0  0  0  0  0  0  0  0
   13.1137   37.6269   34.5702 C   0  0  0  0  0  0  0  0  0  0  0  0
   15.2074   35.6152   32.6747 N   0  0  0  0  0  0  0  0  0  0  0  0
   14.6756   36.2298   34.9190 C   0  0  0  0  0  0  0  0  0  0  0  0
   13.8217   37.0445   35.5793 N   0  0  0  0  0  0  0  0  0  0  0  0
   16.1643   34.7603   33.1551 C   0  0  0  0  0  0  0  0  0  0  0  0
   15.6528   35.3503   35.4136 C   0  0  0  0  0  0  0  0  0  0  0  0
   16.3798   34.6316   34.5046 N   0  0  0  0  0  0  0  0  0  0  0  0
   15.9004   35.1930   36.8094 N   0  0  0  0  0  0  0  0  0  0  0  0
    8.9994   45.4382   33.6718 H   0  0  0  0  0  0  0  0  0  0  0  0
   11.0503   46.2276   34.4979 H   0  0  0  0  0  0  0  0  0  0  0  0
   10.7762   46.9369   33.0156 H   0  0  0  0  0  0  0  0  0  0  0  0
    9.3641   43.8349   31.4713 H   0  0  0  0  0  0  0  0  0  0  0  0
   10.7409   44.9069   31.1833 H   0  0  0  0  0  0  0  0  0  0  0  0
    7.0129   44.7172   31.5868 H   0  0  0  0  0  0  0  0  0  0  0  0
   10.3463   47.1904   30.4135 H   0  0  0  0  0  0  0  0  0  0  0  0
    5.4640   46.3056   30.5073 H   0  0  0  0  0  0  0  0  0  0  0  0
    8.8124   48.7767   29.3762 H   0  0  0  0  0  0  0  0  0  0  0  0
    7.1791   50.2075   28.6950 H   0  0  0  0  0  0  0  0  0  0  0  0
    5.4907   50.1789   28.1600 H   0  0  0  0  0  0  0  0  0  0  0  0
    8.8534   49.5088   27.1618 H   0  0  0  0  0  0  0  0  0  0  0  0
    5.5215   47.3894   24.1706 H   0  0  0  0  0  0  0  0  0  0  0  0
    9.5424   48.5875   24.9980 H   0  0  0  0  0  0  0  0  0  0  0  0
    7.8816   47.5304   23.5018 H   0  0  0  0  0  0  0  0  0  0  0  0
   11.3775   41.5548   31.4741 H   0  0  0  0  0  0  0  0  0  0  0  0
    9.8233   40.7200   31.7652 H   0  0  0  0  0  0  0  0  0  0  0  0
   11.7312   39.5361   30.3532 H   0  0  0  0  0  0  0  0  0  0  0  0
   10.1203   38.2696   32.6410 H   0  0  0  0  0  0  0  0  0  0  0  0
   13.6850   37.4639   31.2321 H   0  0  0  0  0  0  0  0  0  0  0  0
   10.0250   38.1792   29.7654 H   0  0  0  0  0  0  0  0  0  0  0  0
   11.2757   36.3135   32.4908 H   0  0  0  0  0  0  0  0  0  0  0  0
   11.9838   36.9111   29.7708 H   0  0  0  0  0  0  0  0  0  0  0  0
   12.3307   38.3536   34.7458 H   0  0  0  0  0  0  0  0  0  0  0  0
   16.7566   34.1787   32.4623 H   0  0  0  0  0  0  0  0  0  0  0  0
   16.6353   34.5301   37.1419 H   0  0  0  0  0  0  0  0  0  0  0  0
   15.3535   35.7355   37.5144 H   0  0  0  0  0  0  0  0  0  0  0  0
  1  2  2  0
  1  3  1  0
  3  4  1  0
  4  5  1  0
  6  1  1  0
  7  6  1  0
  6  8  1  0
  8  9  1  0
  9 10  2  0
 11  9  1  0
 10 12  1  0
 13 11  2  0
 12 14  2  0
 14 13  1  0
 14 15  1  0
 15 16  1  0
 16 17  1  0
 17 18  2  0
 19 17  1  0
 18 20  1  0
 18 21  1  0
 22 19  2  0
 20 23  1  0
 20 24  2  0
 21 25  2  0
 25 22  1  0
  4 26  2  0
  4 27  1  0
 28 27  1  0
 28 29  1  0
 29 30  1  0
 29 31  1  0
 30 32  1  0
 31 33  1  0
 31 34  1  0
 34 32  1  0
 32 35  1  0
 34 36  1  0
 37 35  1  0
 38 35  1  0
 39 37  2  0
 37 40  1  0
 41 38  2  0
 42 39  1  0
 40 43  2  0
 40 41  1  0
 44 42  2  0
 44 43  1  0
 43 45  1  0
  6 46  1  1
  7 47  1  0
  7 48  1  0
  8 49  1  0
  8 50  1  0
 10 51  1  0
 11 52  1  0
 12 53  1  0
 13 54  1  0
 16 55  1  0
 16 56  1  0
 19 57  1  0
 21 58  1  0
 22 59  1  0
 25 60  1  0
 28 61  1  0
 28 62  1  0
 29 63  1  0
 31 64  1  0
 32 65  1  0
 33 66  1  0
 34 67  1  0
 36 68  1  0
 38 69  1  0
 42 70  1  0
 45 71  1  0
 45 72  1  0
M  CHG  3   5  -1  20   1  23  -1
M  END
>  <EmbedRMS>  (65) 
0.0806822838786

$$$$

     RDKit          3D

 72 76  0  0  0  0  0  0  0  0999 V2000
   10.2834   43.7662   33.8257 C   0  0  0  0  0  0  0  0  0  0  0  0
   11.4102   43.5930   34.3752 O   0  0  0  0  0  0  0  0  0  0  0  0
    9.3635   42.7257   33.7352 O   0  0  0  0  0  0  0  0  0  0  0  0
    9.8899   41.2270   34.2947 P   0  0  0  0  0  0  0  0  0  0  0  0
   10.3732   41.4563   35.8841 O   0  0  0  0  0  0  0  0  0  0  0  0
    9.9548   45.0696   33.2035 C   0  0  1  0  0  0  0  0  0  0  0  0
   11.0274   46.0322   33.4759 N   0  0  0  0  0  0  0  0  0  0  0  0
    9.7471   44.8484   31.6875 C   0  0  0  0  0  0  0  0  0  0  0  0
    8.7924   45.8409   31.0843 C   0  0  0  0  0  0  0  0  0  0  0  0
    7.4055   45.6009   31.0995 C   0  0  0  0  0  0  0  0  0  0  0  0
    9.2818   46.9881   30.4421 C   0  0  0  0  0  0  0  0  0  0  0  0
    6.5241   46.5011   30.4849 C   0  0  0  0  0  0  0  0  0  0  0  0
    8.4006   47.8886   29.8323 C   0  0  0  0  0  0  0  0  0  0  0  0
    7.0190   47.6560   29.8458 C   0  0  0  0  0  0  0  0  0  0  0  0
    6.1802   48.5875   29.2169 O   0  0  0  0  0  0  0  0  0  0  0  0
    4.7616   48.4736   29.1418 C   0  0  0  0  0  0  0  0  0  0  0  0
    4.2061   49.6422   28.3694 C   0  0  0  0  0  0  0  0  0  0  0  0
    4.2028   49.6800   26.9477 C   0  0  0  0  0  0  0  0  0  0  0  0
    3.6510   50.7176   29.0870 C   0  0  0  0  0  0  0  0  0  0  0  0
    4.7670   48.6215   26.1506 N   0  0  0  0  0  0  0  0  0  0  0  0
    3.6119   50.7775   26.2957 C   0  0  0  0  0  0  0  0  0  0  0  0
    3.0845   51.8034   28.4187 C   0  0  0  0  0  0  0  0  0  0  0  0
    4.2685   48.3693   24.8930 O   0  0  0  0  0  0  0  0  0  0  0  0
    5.8073   48.0339   26.5102 O   0  0  0  0  0  0  0  0  0  0  0  0
    3.0606   51.8310   27.0261 C   0  0  0  0  0  0  0  0  0  0  0  0
    8.8120   40.1851   34.2133 O   0  0  0  0  0  0  0  0  0  0  0  0
   11.2403   40.7947   33.3700 O   0  0  0  0  0  0  0  0  0  0  0  0
   10.9144   40.6914   31.9982 C   0  0  0  0  0  0  0  0  0  0  0  0
   11.5270   39.3912   31.4385 C   0  0  0  0  0  0  0  0  0  0  0  0
   12.7520   39.0911   32.0836 O   0  0  0  0  0  0  0  0  0  0  0  0
   10.6113   38.1932   31.6451 C   0  0  0  0  0  0  0  0  0  0  0  0
   12.9413   37.6838   32.0297 C   0  0  0  0  0  0  0  0  0  0  0  0
    9.6064   38.0878   30.6599 O   0  0  0  0  0  0  0  0  0  0  0  0
   11.5822   37.0197   31.6877 C   0  0  0  0  0  0  0  0  0  0  0  0
   13.4840   37.2104   33.3254 N   0  0  0  0  0  0  0  0  0  0  0  0
   11.6179   36.3072   30.4690 O   0  0  0  0  0  0  0  0  0  0  0  0
   14.4797   36.3309   33.5738 C   0  0  0  0  0  0  0  0  0  0  0  0
   13.1137   37.6269   34.5702 C   0  0  0  0  0  0  0  0  0  0  0  0
   15.2074   35.6152   32.6747 N   0  0  0  0  0  0  0  0  0  0  0  0
   14.6756   36.2298   34.9190 C   0  0  0  0  0  0  0  0  0  0  0  0
   13.8217   37.0445   35.5793 N   0  0  0  0  0  0  0  0  0  0  0  0
   16.1643   34.7603   33.1551 C   0  0  0  0  0  0  0  0  0  0  0  0
   15.6528   35.3503   35.4136 C   0  0  0  0  0  0  0  0  0  0  0  0
   16.3798   34.6316   34.5046 N   0  0  0  0  0  0  0  0  0  0  0  0
   15.9004   35.1930   36.8094 N   0  0  0  0  0  0  0  0  0  0  0  0
    9.0121   45.4318   33.6712 H   0  0  0  0  0  0  0  0  0  0  0  0
   11.8908   45.7658   32.9475 H   0  0  0  0  0  0  0  0  0  0  0  0
   10.7262   46.9688   33.1214 H   0  0  0  0  0  0  0  0  0  0  0  0
    9.3425   43.8331   31.4758 H   0  0  0  0  0  0  0  0  0  0  0  0
   10.7235   44.8824   31.1557 H   0  0  0  0  0  0  0  0  0  0  0  0
    7.0099   44.7157   31.5822 H   0  0  0  0  0  0  0  0  0  0  0  0
   10.3461   47.1864   30.4103 H   0  0  0  0  0  0  0  0  0  0  0  0
    5.4643   46.2890   30.5135 H   0  0  0  0  0  0  0  0  0  0  0  0
    8.7937   48.7703   29.3422 H   0  0  0  0  0  0  0  0  0  0  0  0
    4.3438   48.4563   30.1724 H   0  0  0  0  0  0  0  0  0  0  0  0
    4.4708   47.5205   28.6500 H   0  0  0  0  0  0  0  0  0  0  0  0
    3.6510   50.7145   30.1703 H   0  0  0  0  0  0  0  0  0  0  0  0
    3.5924   50.8268   25.2144 H   0  0  0  0  0  0  0  0  0  0  0  0
    2.6585   52.6232   28.9827 H   0  0  0  0  0  0  0  0  0  0  0  0
    2.6172   52.6729   26.5102 H   0  0  0  0  0  0  0  0  0  0  0  0
   11.3776   41.5549   31.4744 H   0  0  0  0  0  0  0  0  0  0  0  0
    9.8234   40.7201   31.7654 H   0  0  0  0  0  0  0  0  0  0  0  0
   11.7311   39.5363   30.3532 H   0  0  0  0  0  0  0  0  0  0  0  0
   10.1203   38.2696   32.6410 H   0  0  0  0  0  0  0  0  0  0  0  0
   13.6850   37.4639   31.2321 H   0  0  0  0  0  0  0  0  0  0  0  0
   10.0251   38.1793   29.7654 H   0  0  0  0  0  0  0  0  0  0  0  0
   11.2757   36.3135   32.4907 H   0  0  0  0  0  0  0  0  0  0  0  0
   11.9838   36.9111   29.7708 H   0  0  0  0  0  0  0  0  0  0  0  0
   12.3307   38.3536   34.7458 H   0  0  0  0  0  0  0  0  0  0  0  0
   16.7566   34.1787   32.4623 H   0  0  0  0  0  0  0  0  0  0  0  0
   15.3535   35.7355   37.5144 H   0  0  0  0  0  0  0  0  0  0  0  0
   16.6353   34.5301   37.1419 H   0  0  0  0  0  0  0  0  0  0  0  0
  1  2  2  0
  1  3  1  0
  3  4  1  0
  4  5  1  0
  6  1  1  0
  7  6  1  0
  6  8  1  0
  8  9  1  0
  9 10  2  0
 11  9  1  0
 10 12  1  0
 13 11  2  0
 12 14  2  0
 14 13  1  0
 14 15  1  0
 15 16  1  0
 16 17  1  0
 17 18  2  0
 19 17  1  0
 18 20  1  0
 18 21  1  0
 22 19  2  0
 20 23  1  0
 20 24  2  0
 21 25  2  0
 25 22  1  0
  4 26  2  0
  4 27  1  0
 28 27  1  0
 28 29  1  0
 29 30  1  0
 29 31  1  0
 30 32  1  0
 31 33  1  0
 31 34  1  0
 34 32  1  0
 32 35  1  0
 34 36  1  0
 37 35  1  0
 38 35  1  0
 39 37  2  0
 37 40  1  0
 41 38  2  0
 42 39  1  0
 40 43  2  0
 40 41  1  0
 44 42  2  0
 44 43  1  0
 43 45  1  0
  6 46  1  1
  7 47  1  0
  7 48  1  0
  8 49  1  0
  8 50  1  0
 10 51  1  0
 11 52  1  0
 12 53  1  0
 13 54  1  0
 16 55  1  0
 16 56  1  0
 19 57  1  0
 21 58  1  0
 22 59  1  0
 25 60  1  0
 28 61  1  0
 28 62  1  0
 29 63  1  0
 31 64  1  0
 32 65  1  0
 33 66  1  0
 34 67  1  0
 36 68  1  0
 38 69  1  0
 42 70  1  0
 45 71  1  0
 45 72  1  0
M  CHG  3   5  -1  20   1  23  -1
M  END
>  <EmbedRMS>  (66) 
0.0808167922566

$$$$

     RDKit          3D

 72 76  0  0  0  0  0  0  0  0999 V2000
   10.2804   43.7664   33.8250 C   0  0  0  0  0  0  0  0  0  0  0  0
   11.4110   43.5918   34.3666 O   0  0  0  0  0  0  0  0  0  0  0  0
    9.3618   42.7250   33.7345 O   0  0  0  0  0  0  0  0  0  0  0  0
    9.8898   41.2267   34.2940 P   0  0  0  0  0  0  0  0  0  0  0  0
   10.3735   41.4566   35.8832 O   0  0  0  0  0  0  0  0  0  0  0  0
    9.9459   45.0737   33.2112 C   0  0  1  0  0  0  0  0  0  0  0  0
   11.0266   46.0292   33.4709 N   0  0  0  0  0  0  0  0  0  0  0  0
    9.7540   44.8542   31.6949 C   0  0  0  0  0  0  0  0  0  0  0  0
    8.7957   45.8411   31.0847 C   0  0  0  0  0  0  0  0  0  0  0  0
    7.4090   45.6000   31.1010 C   0  0  0  0  0  0  0  0  0  0  0  0
    9.2824   46.9878   30.4393 C   0  0  0  0  0  0  0  0  0  0  0  0
    6.5264   46.4990   30.4860 C   0  0  0  0  0  0  0  0  0  0  0  0
    8.3995   47.8872   29.8308 C   0  0  0  0  0  0  0  0  0  0  0  0
    7.0179   47.6549   29.8473 C   0  0  0  0  0  0  0  0  0  0  0  0
    6.1790   48.5924   29.2238 O   0  0  0  0  0  0  0  0  0  0  0  0
    4.7514   48.5315   29.1826 C   0  0  0  0  0  0  0  0  0  0  0  0
    4.1442   48.7604   30.5506 C   0  0  0  0  0  0  0  0  0  0  0  0
    2.9663   48.0926   30.9767 C   0  0  0  0  0  0  0  0  0  0  0  0
    4.7037   49.7515   31.3798 C   0  0  0  0  0  0  0  0  0  0  0  0
    2.3143   47.1128   30.1561 N   0  0  0  0  0  0  0  0  0  0  0  0
    2.3994   48.4189   32.2204 C   0  0  0  0  0  0  0  0  0  0  0  0
    4.1354   50.0501   32.6191 C   0  0  0  0  0  0  0  0  0  0  0  0
    2.9805   45.9655   29.7945 O   0  0  0  0  0  0  0  0  0  0  0  0
    1.0775   47.1661   29.9957 O   0  0  0  0  0  0  0  0  0  0  0  0
    2.9859   49.3842   33.0393 C   0  0  0  0  0  0  0  0  0  0  0  0
    8.8122   40.1844   34.2133 O   0  0  0  0  0  0  0  0  0  0  0  0
   11.2402   40.7944   33.3688 O   0  0  0  0  0  0  0  0  0  0  0  0
   10.9142   40.6898   31.9970 C   0  0  0  0  0  0  0  0  0  0  0  0
   11.5260   39.3884   31.4376 C   0  0  0  0  0  0  0  0  0  0  0  0
   12.7504   39.0888   32.0816 O   0  0  0  0  0  0  0  0  0  0  0  0
   10.6114   38.1909   31.6460 C   0  0  0  0  0  0  0  0  0  0  0  0
   12.9357   37.6812   32.0303 C   0  0  0  0  0  0  0  0  0  0  0  0
    9.6145   38.0858   30.6534 O   0  0  0  0  0  0  0  0  0  0  0  0
   11.5769   37.0148   31.7012 C   0  0  0  0  0  0  0  0  0  0  0  0
   13.4849   37.2112   33.3247 N   0  0  0  0  0  0  0  0  0  0  0  0
   11.6193   36.3261   30.4724 O   0  0  0  0  0  0  0  0  0  0  0  0
   14.4802   36.3313   33.5730 C   0  0  0  0  0  0  0  0  0  0  0  0
   13.1141   37.6268   34.5698 C   0  0  0  0  0  0  0  0  0  0  0  0
   15.2075   35.6151   32.6741 N   0  0  0  0  0  0  0  0  0  0  0  0
   14.6761   36.2300   34.9184 C   0  0  0  0  0  0  0  0  0  0  0  0
   13.8220   37.0445   35.5789 N   0  0  0  0  0  0  0  0  0  0  0  0
   16.1642   34.7600   33.1547 C   0  0  0  0  0  0  0  0  0  0  0  0
   15.6529   35.3503   35.4131 C   0  0  0  0  0  0  0  0  0  0  0  0
   16.3797   34.6314   34.5042 N   0  0  0  0  0  0  0  0  0  0  0  0
   15.9004   35.1930   36.8090 N   0  0  0  0  0  0  0  0  0  0  0  0
    8.9994   45.4382   33.6721 H   0  0  0  0  0  0  0  0  0  0  0  0
   10.7764   46.9369   33.0159 H   0  0  0  0  0  0  0  0  0  0  0  0
   11.0501   46.2277   34.4983 H   0  0  0  0  0  0  0  0  0  0  0  0
    9.3646   43.8354   31.4711 H   0  0  0  0  0  0  0  0  0  0  0  0
   10.7412   44.9079   31.1836 H   0  0  0  0  0  0  0  0  0  0  0  0
    7.0146   44.7154   31.5858 H   0  0  0  0  0  0  0  0  0  0  0  0
   10.3463   47.1877   30.4050 H   0  0  0  0  0  0  0  0  0  0  0  0
    5.4696   46.2851   30.5169 H   0  0  0  0  0  0  0  0  0  0  0  0
    8.7913   48.7698   29.3412 H   0  0  0  0  0  0  0  0  0  0  0  0
    4.3947   49.3434   28.5152 H   0  0  0  0  0  0  0  0  0  0  0  0
    4.4392   47.5771   28.7181 H   0  0  0  0  0  0  0  0  0  0  0  0
    5.5815   50.3017   31.0643 H   0  0  0  0  0  0  0  0  0  0  0  0
    1.5015   47.9161   32.5577 H   0  0  0  0  0  0  0  0  0  0  0  0
    4.5816   50.8082   33.2499 H   0  0  0  0  0  0  0  0  0  0  0  0
    2.5431   49.6221   33.9978 H   0  0  0  0  0  0  0  0  0  0  0  0
   11.3777   41.5525   31.4723 H   0  0  0  0  0  0  0  0  0  0  0  0
    9.8232   40.7190   31.7645 H   0  0  0  0  0  0  0  0  0  0  0  0
   11.7283   39.5311   30.3515 H   0  0  0  0  0  0  0  0  0  0  0  0
   10.1127   38.2734   32.6376 H   0  0  0  0  0  0  0  0  0  0  0  0
   13.6692   37.4566   31.2242 H   0  0  0  0  0  0  0  0  0  0  0  0
   10.0533   38.1118   29.7636 H   0  0  0  0  0  0  0  0  0  0  0  0
   11.2607   36.3148   32.5102 H   0  0  0  0  0  0  0  0  0  0  0  0
   12.1496   35.5023   30.6324 H   0  0  0  0  0  0  0  0  0  0  0  0
   12.3301   38.3524   34.7455 H   0  0  0  0  0  0  0  0  0  0  0  0
   16.7563   34.1781   32.4619 H   0  0  0  0  0  0  0  0  0  0  0  0
   15.3536   35.7357   37.5139 H   0  0  0  0  0  0  0  0  0  0  0  0
   16.6351   34.5298   37.1416 H   0  0  0  0  0  0  0  0  0  0  0  0
  1  2  2  0
  1  3  1  0
  3  4  1  0
  4  5  1  0
  6  1  1  0
  7  6  1  0
  6  8  1  0
  8  9  1  0
  9 10  2  0
 11  9  1  0
 10 12  1  0
 13 11  2  0
 12 14  2  0
 14 13  1  0
 14 15  1  0
 15 16  1  0
 16 17  1  0
 17 18  2  0
 19 17  1  0
 18 20  1  0
 18 21  1  0
 22 19  2  0
 20 23  1  0
 20 24  2  0
 21 25  2  0
 25 22  1  0
  4 26  2  0
  4 27  1  0
 28 27  1  0
 28 29  1  0
 29 30  1  0
 29 31  1  0
 30 32  1  0
 31 33  1  0
 31 34  1  0
 34 32  1  0
 32 35  1  0
 34 36  1  0
 37 35  1  0
 38 35  1  0
 39 37  2  0
 37 40  1  0
 41 38  2  0
 42 39  1  0
 40 43  2  0
 40 41  1  0
 44 42  2  0
 44 43  1  0
 43 45  1  0
  6 46  1  1
  7 47  1  0
  7 48  1  0
  8 49  1  0
  8 50  1  0
 10 51  1  0
 11 52  1  0
 12 53  1  0
 13 54  1  0
 16 55  1  0
 16 56  1  0
 19 57  1  0
 21 58  1  0
 22 59  1  0
 25 60  1  0
 28 61  1  0
 28 62  1  0
 29 63  1  0
 31 64  1  0
 32 65  1  0
 33 66  1  0
 34 67  1  0
 36 68  1  0
 38 69  1  0
 42 70  1  0
 45 71  1  0
 45 72  1  0
M  CHG  3   5  -1  20   1  23  -1
M  END
>  <EmbedRMS>  (67) 
0.0814409696715

$$$$

     RDKit          3D

 72 76  0  0  0  0  0  0  0  0999 V2000
   10.2803   43.7665   33.8251 C   0  0  0  0  0  0  0  0  0  0  0  0
   11.4110   43.5919   34.3667 O   0  0  0  0  0  0  0  0  0  0  0  0
    9.3616   42.7251   33.7349 O   0  0  0  0  0  0  0  0  0  0  0  0
    9.8896   41.2269   34.2945 P   0  0  0  0  0  0  0  0  0  0  0  0
   10.3732   41.4568   35.8838 O   0  0  0  0  0  0  0  0  0  0  0  0
    9.9458   45.0737   33.2113 C   0  0  1  0  0  0  0  0  0  0  0  0
   11.0267   46.0292   33.4705 N   0  0  0  0  0  0  0  0  0  0  0  0
    9.7534   44.8539   31.6951 C   0  0  0  0  0  0  0  0  0  0  0  0
    8.7955   45.8411   31.0850 C   0  0  0  0  0  0  0  0  0  0  0  0
    7.4087   45.6002   31.1002 C   0  0  0  0  0  0  0  0  0  0  0  0
    9.2831   46.9874   30.4395 C   0  0  0  0  0  0  0  0  0  0  0  0
    6.5281   46.5006   30.4846 C   0  0  0  0  0  0  0  0  0  0  0  0
    8.4027   47.8885   29.8296 C   0  0  0  0  0  0  0  0  0  0  0  0
    7.0134   47.6523   29.8499 C   0  0  0  0  0  0  0  0  0  0  0  0
    6.0869   48.5261   29.2580 O   0  0  0  0  0  0  0  0  0  0  0  0
    6.4069   49.7856   28.6645 C   0  0  0  0  0  0  0  0  0  0  0  0
    6.8248   50.7866   29.7199 C   0  0  0  0  0  0  0  0  0  0  0  0
    7.9988   51.5766   29.6022 C   0  0  0  0  0  0  0  0  0  0  0  0
    6.0327   50.9068   30.8765 C   0  0  0  0  0  0  0  0  0  0  0  0
    8.7986   51.5738   28.4099 N   0  0  0  0  0  0  0  0  0  0  0  0
    8.3816   52.4028   30.6724 C   0  0  0  0  0  0  0  0  0  0  0  0
    6.4183   51.7492   31.9202 C   0  0  0  0  0  0  0  0  0  0  0  0
   10.1671   51.6784   28.5049 O   0  0  0  0  0  0  0  0  0  0  0  0
    8.2592   51.7217   27.2940 O   0  0  0  0  0  0  0  0  0  0  0  0
    7.5964   52.4873   31.8230 C   0  0  0  0  0  0  0  0  0  0  0  0
    8.8122   40.1844   34.2135 O   0  0  0  0  0  0  0  0  0  0  0  0
   11.2401   40.7950   33.3698 O   0  0  0  0  0  0  0  0  0  0  0  0
   10.9143   40.6914   31.9981 C   0  0  0  0  0  0  0  0  0  0  0  0
   11.5270   39.3911   31.4385 C   0  0  0  0  0  0  0  0  0  0  0  0
   12.7519   39.0911   32.0837 O   0  0  0  0  0  0  0  0  0  0  0  0
   10.6113   38.1932   31.6451 C   0  0  0  0  0  0  0  0  0  0  0  0
   12.9413   37.6838   32.0297 C   0  0  0  0  0  0  0  0  0  0  0  0
    9.6064   38.0878   30.6599 O   0  0  0  0  0  0  0  0  0  0  0  0
   11.5822   37.0197   31.6877 C   0  0  0  0  0  0  0  0  0  0  0  0
   13.4840   37.2104   33.3254 N   0  0  0  0  0  0  0  0  0  0  0  0
   11.6179   36.3072   30.4690 O   0  0  0  0  0  0  0  0  0  0  0  0
   14.4797   36.3309   33.5738 C   0  0  0  0  0  0  0  0  0  0  0  0
   13.1136   37.6269   34.5702 C   0  0  0  0  0  0  0  0  0  0  0  0
   15.2074   35.6152   32.6747 N   0  0  0  0  0  0  0  0  0  0  0  0
   14.6756   36.2298   34.9190 C   0  0  0  0  0  0  0  0  0  0  0  0
   13.8217   37.0445   35.5793 N   0  0  0  0  0  0  0  0  0  0  0  0
   16.1643   34.7603   33.1551 C   0  0  0  0  0  0  0  0  0  0  0  0
   15.6528   35.3503   35.4136 C   0  0  0  0  0  0  0  0  0  0  0  0
   16.3798   34.6316   34.5046 N   0  0  0  0  0  0  0  0  0  0  0  0
   15.9004   35.1930   36.8094 N   0  0  0  0  0  0  0  0  0  0  0  0
    8.9995   45.4384   33.6724 H   0  0  0  0  0  0  0  0  0  0  0  0
   10.7764   46.9369   33.0155 H   0  0  0  0  0  0  0  0  0  0  0  0
   11.0504   46.2279   34.4979 H   0  0  0  0  0  0  0  0  0  0  0  0
    9.3633   43.8353   31.4717 H   0  0  0  0  0  0  0  0  0  0  0  0
   10.7405   44.9068   31.1836 H   0  0  0  0  0  0  0  0  0  0  0  0
    7.0130   44.7158   31.5842 H   0  0  0  0  0  0  0  0  0  0  0  0
   10.3474   47.1851   30.4048 H   0  0  0  0  0  0  0  0  0  0  0  0
    5.4637   46.3042   30.5052 H   0  0  0  0  0  0  0  0  0  0  0  0
    8.8154   48.7585   29.3401 H   0  0  0  0  0  0  0  0  0  0  0  0
    7.1739   49.6274   27.8810 H   0  0  0  0  0  0  0  0  0  0  0  0
    5.4965   50.1732   28.1616 H   0  0  0  0  0  0  0  0  0  0  0  0
    5.1229   50.3280   30.9797 H   0  0  0  0  0  0  0  0  0  0  0  0
    9.2788   53.0049   30.6036 H   0  0  0  0  0  0  0  0  0  0  0  0
    5.8062   51.8230   32.8098 H   0  0  0  0  0  0  0  0  0  0  0  0
    7.8962   53.1361   32.6359 H   0  0  0  0  0  0  0  0  0  0  0  0
    9.8233   40.7201   31.7652 H   0  0  0  0  0  0  0  0  0  0  0  0
   11.3775   41.5548   31.4741 H   0  0  0  0  0  0  0  0  0  0  0  0
   11.7312   39.5361   30.3532 H   0  0  0  0  0  0  0  0  0  0  0  0
   10.1203   38.2696   32.6410 H   0  0  0  0  0  0  0  0  0  0  0  0
   13.6850   37.4639   31.2321 H   0  0  0  0  0  0  0  0  0  0  0  0
   10.0251   38.1792   29.7654 H   0  0  0  0  0  0  0  0  0  0  0  0
   11.2757   36.3135   32.4908 H   0  0  0  0  0  0  0  0  0  0  0  0
   11.9838   36.9111   29.7708 H   0  0  0  0  0  0  0  0  0  0  0  0
   12.3307   38.3536   34.7458 H   0  0  0  0  0  0  0  0  0  0  0  0
   16.7566   34.1787   32.4623 H   0  0  0  0  0  0  0  0  0  0  0  0
   16.6353   34.5301   37.1419 H   0  0  0  0  0  0  0  0  0  0  0  0
   15.3535   35.7355   37.5144 H   0  0  0  0  0  0  0  0  0  0  0  0
  1  2  2  0
  1  3  1  0
  3  4  1  0
  4  5  1  0
  6  1  1  0
  7  6  1  0
  6  8  1  0
  8  9  1  0
  9 10  2  0
 11  9  1  0
 10 12  1  0
 13 11  2  0
 12 14  2  0
 14 13  1  0
 14 15  1  0
 15 16  1  0
 16 17  1  0
 17 18  2  0
 19 17  1  0
 18 20  1  0
 18 21  1  0
 22 19  2  0
 20 23  1  0
 20 24  2  0
 21 25  2  0
 25 22  1  0
  4 26  2  0
  4 27  1  0
 28 27  1  0
 28 29  1  0
 29 30  1  0
 29 31  1  0
 30 32  1  0
 31 33  1  0
 31 34  1  0
 34 32  1  0
 32 35  1  0
 34 36  1  0
 37 35  1  0
 38 35  1  0
 39 37  2  0
 37 40  1  0
 41 38  2  0
 42 39  1  0
 40 43  2  0
 40 41  1  0
 44 42  2  0
 44 43  1  0
 43 45  1  0
  6 46  1  1
  7 47  1  0
  7 48  1  0
  8 49  1  0
  8 50  1  0
 10 51  1  0
 11 52  1  0
 12 53  1  0
 13 54  1  0
 16 55  1  0
 16 56  1  0
 19 57  1  0
 21 58  1  0
 22 59  1  0
 25 60  1  0
 28 61  1  0
 28 62  1  0
 29 63  1  0
 31 64  1  0
 32 65  1  0
 33 66  1  0
 34 67  1  0
 36 68  1  0
 38 69  1  0
 42 70  1  0
 45 71  1  0
 45 72  1  0
M  CHG  3   5  -1  20   1  23  -1
M  END
>  <EmbedRMS>  (68) 
0.0806529006412

$$$$

     RDKit          3D

 72 76  0  0  0  0  0  0  0  0999 V2000
   10.2840   43.7626   33.8275 C   0  0  0  0  0  0  0  0  0  0  0  0
   11.4104   43.5863   34.3767 O   0  0  0  0  0  0  0  0  0  0  0  0
    9.3634   42.7234   33.7351 O   0  0  0  0  0  0  0  0  0  0  0  0
    9.8899   41.2247   34.2940 P   0  0  0  0  0  0  0  0  0  0  0  0
   10.3724   41.4545   35.8837 O   0  0  0  0  0  0  0  0  0  0  0  0
    9.9549   45.0699   33.2063 C   0  0  1  0  0  0  0  0  0  0  0  0
   11.0198   46.0481   33.4571 N   0  0  0  0  0  0  0  0  0  0  0  0
    9.7506   44.8511   31.6922 C   0  0  0  0  0  0  0  0  0  0  0  0
    8.7944   45.8417   31.0867 C   0  0  0  0  0  0  0  0  0  0  0  0
    7.4076   45.6006   31.1007 C   0  0  0  0  0  0  0  0  0  0  0  0
    9.2826   46.9895   30.4450 C   0  0  0  0  0  0  0  0  0  0  0  0
    6.5257   46.5001   30.4861 C   0  0  0  0  0  0  0  0  0  0  0  0
    8.4008   47.8887   29.8338 C   0  0  0  0  0  0  0  0  0  0  0  0
    7.0195   47.6543   29.8441 C   0  0  0  0  0  0  0  0  0  0  0  0
    6.1820   48.5858   29.2090 O   0  0  0  0  0  0  0  0  0  0  0  0
    4.7694   48.4462   29.0475 C   0  0  0  0  0  0  0  0  0  0  0  0
    4.4469   47.3451   28.0612 C   0  0  0  0  0  0  0  0  0  0  0  0
    3.4929   46.3314   28.3363 C   0  0  0  0  0  0  0  0  0  0  0  0
    5.1494   47.3116   26.8427 C   0  0  0  0  0  0  0  0  0  0  0  0
    2.6738   46.3678   29.5151 N   0  0  0  0  0  0  0  0  0  0  0  0
    3.3231   45.2795   27.4190 C   0  0  0  0  0  0  0  0  0  0  0  0
    4.9530   46.2697   25.9352 C   0  0  0  0  0  0  0  0  0  0  0  0
    1.9965   47.5188   29.8459 O   0  0  0  0  0  0  0  0  0  0  0  0
    2.3893   45.3082   30.1107 O   0  0  0  0  0  0  0  0  0  0  0  0
    4.0495   45.2496   26.2278 C   0  0  0  0  0  0  0  0  0  0  0  0
    8.8119   40.1831   34.2121 O   0  0  0  0  0  0  0  0  0  0  0  0
   11.2416   40.7932   33.3699 O   0  0  0  0  0  0  0  0  0  0  0  0
   10.9186   40.6909   31.9972 C   0  0  0  0  0  0  0  0  0  0  0  0
   11.5172   39.3814   31.4407 C   0  0  0  0  0  0  0  0  0  0  0  0
   12.7493   39.0855   32.0727 O   0  0  0  0  0  0  0  0  0  0  0  0
   10.6023   38.1907   31.6665 C   0  0  0  0  0  0  0  0  0  0  0  0
   12.9319   37.6781   32.0281 C   0  0  0  0  0  0  0  0  0  0  0  0
    9.6392   38.0797   30.6452 O   0  0  0  0  0  0  0  0  0  0  0  0
   11.5715   37.0165   31.7056 C   0  0  0  0  0  0  0  0  0  0  0  0
   13.4847   37.2121   33.3235 N   0  0  0  0  0  0  0  0  0  0  0  0
   11.6187   36.3383   30.4694 O   0  0  0  0  0  0  0  0  0  0  0  0
   14.4801   36.3321   33.5724 C   0  0  0  0  0  0  0  0  0  0  0  0
   13.1137   37.6275   34.5687 C   0  0  0  0  0  0  0  0  0  0  0  0
   15.2073   35.6153   32.6738 N   0  0  0  0  0  0  0  0  0  0  0  0
   14.6759   36.2308   34.9179 C   0  0  0  0  0  0  0  0  0  0  0  0
   13.8216   37.0452   35.5781 N   0  0  0  0  0  0  0  0  0  0  0  0
   16.1640   34.7601   33.1546 C   0  0  0  0  0  0  0  0  0  0  0  0
   15.6526   35.3508   35.4129 C   0  0  0  0  0  0  0  0  0  0  0  0
   16.3794   34.6317   34.5041 N   0  0  0  0  0  0  0  0  0  0  0  0
   15.8999   35.1935   36.8088 N   0  0  0  0  0  0  0  0  0  0  0  0
    9.0098   45.4347   33.6669 H   0  0  0  0  0  0  0  0  0  0  0  0
   11.9349   45.6934   33.0928 H   0  0  0  0  0  0  0  0  0  0  0  0
   11.1131   46.1992   34.4884 H   0  0  0  0  0  0  0  0  0  0  0  0
   10.7310   44.8931   31.1675 H   0  0  0  0  0  0  0  0  0  0  0  0
    9.3519   43.8344   31.4757 H   0  0  0  0  0  0  0  0  0  0  0  0
    7.0124   44.7158   31.5845 H   0  0  0  0  0  0  0  0  0  0  0  0
   10.3466   47.1899   30.4156 H   0  0  0  0  0  0  0  0  0  0  0  0
    5.4673   46.2875   30.5208 H   0  0  0  0  0  0  0  0  0  0  0  0
    8.7938   48.7703   29.3433 H   0  0  0  0  0  0  0  0  0  0  0  0
    4.3085   48.2907   30.0429 H   0  0  0  0  0  0  0  0  0  0  0  0
    4.3706   49.4000   28.6436 H   0  0  0  0  0  0  0  0  0  0  0  0
    5.8688   48.0854   26.6039 H   0  0  0  0  0  0  0  0  0  0  0  0
    2.6049   44.4935   27.6162 H   0  0  0  0  0  0  0  0  0  0  0  0
    5.5088   46.2493   25.0067 H   0  0  0  0  0  0  0  0  0  0  0  0
    3.9021   44.4401   25.5245 H   0  0  0  0  0  0  0  0  0  0  0  0
   11.3972   41.5459   31.4735 H   0  0  0  0  0  0  0  0  0  0  0  0
    9.8300   40.7410   31.7610 H   0  0  0  0  0  0  0  0  0  0  0  0
   11.6974   39.5067   30.3480 H   0  0  0  0  0  0  0  0  0  0  0  0
   10.1076   38.2647   32.6645 H   0  0  0  0  0  0  0  0  0  0  0  0
   13.6621   37.4467   31.2208 H   0  0  0  0  0  0  0  0  0  0  0  0
    8.8975   38.6943   30.8831 H   0  0  0  0  0  0  0  0  0  0  0  0
   11.2806   36.3073   32.5170 H   0  0  0  0  0  0  0  0  0  0  0  0
   10.8492   35.7110   30.4585 H   0  0  0  0  0  0  0  0  0  0  0  0
   12.3290   38.3523   34.7444 H   0  0  0  0  0  0  0  0  0  0  0  0
   16.7559   34.1780   32.4619 H   0  0  0  0  0  0  0  0  0  0  0  0
   16.6344   34.5301   37.1414 H   0  0  0  0  0  0  0  0  0  0  0  0
   15.3532   35.7362   37.5137 H   0  0  0  0  0  0  0  0  0  0  0  0
  1  2  2  0
  1  3  1  0
  3  4  1  0
  4  5  1  0
  6  1  1  0
  7  6  1  0
  6  8  1  0
  8  9  1  0
  9 10  2  0
 11  9  1  0
 10 12  1  0
 13 11  2  0
 12 14  2  0
 14 13  1  0
 14 15  1  0
 15 16  1  0
 16 17  1  0
 17 18  2  0
 19 17  1  0
 18 20  1  0
 18 21  1  0
 22 19  2  0
 20 23  1  0
 20 24  2  0
 21 25  2  0
 25 22  1  0
  4 26  2  0
  4 27  1  0
 28 27  1  0
 28 29  1  0
 29 30  1  0
 29 31  1  0
 30 32  1  0
 31 33  1  0
 31 34  1  0
 34 32  1  0
 32 35  1  0
 34 36  1  0
 37 35  1  0
 38 35  1  0
 39 37  2  0
 37 40  1  0
 41 38  2  0
 42 39  1  0
 40 43  2  0
 40 41  1  0
 44 42  2  0
 44 43  1  0
 43 45  1  0
  6 46  1  1
  7 47  1  0
  7 48  1  0
  8 49  1  0
  8 50  1  0
 10 51  1  0
 11 52  1  0
 12 53  1  0
 13 54  1  0
 16 55  1  0
 16 56  1  0
 19 57  1  0
 21 58  1  0
 22 59  1  0
 25 60  1  0
 28 61  1  0
 28 62  1  0
 29 63  1  0
 31 64  1  0
 32 65  1  0
 33 66  1  0
 34 67  1  0
 36 68  1  0
 38 69  1  0
 42 70  1  0
 45 71  1  0
 45 72  1  0
M  CHG  3   5  -1  20   1  23  -1
M  END
>  <EmbedRMS>  (69) 
0.0838262893716

$$$$

     RDKit          3D

 72 76  0  0  0  0  0  0  0  0999 V2000
   10.2839   43.7626   33.8276 C   0  0  0  0  0  0  0  0  0  0  0  0
   11.4104   43.5863   34.3767 O   0  0  0  0  0  0  0  0  0  0  0  0
    9.3634   42.7234   33.7351 O   0  0  0  0  0  0  0  0  0  0  0  0
    9.8899   41.2247   34.2940 P   0  0  0  0  0  0  0  0  0  0  0  0
   10.3724   41.4545   35.8837 O   0  0  0  0  0  0  0  0  0  0  0  0
    9.9549   45.0699   33.2064 C   0  0  1  0  0  0  0  0  0  0  0  0
   11.0197   46.0481   33.4572 N   0  0  0  0  0  0  0  0  0  0  0  0
    9.7506   44.8511   31.6923 C   0  0  0  0  0  0  0  0  0  0  0  0
    8.7944   45.8418   31.0869 C   0  0  0  0  0  0  0  0  0  0  0  0
    7.4077   45.6005   31.1002 C   0  0  0  0  0  0  0  0  0  0  0  0
    9.2827   46.9891   30.4443 C   0  0  0  0  0  0  0  0  0  0  0  0
    6.5262   46.4998   30.4846 C   0  0  0  0  0  0  0  0  0  0  0  0
    8.4007   47.8880   29.8329 C   0  0  0  0  0  0  0  0  0  0  0  0
    7.0190   47.6556   29.8469 C   0  0  0  0  0  0  0  0  0  0  0  0
    6.1813   48.5930   29.2214 O   0  0  0  0  0  0  0  0  0  0  0  0
    4.7537   48.5346   29.1812 C   0  0  0  0  0  0  0  0  0  0  0  0
    4.1492   48.7725   30.5492 C   0  0  0  0  0  0  0  0  0  0  0  0
    2.9830   48.0942   30.9948 C   0  0  0  0  0  0  0  0  0  0  0  0
    4.7000   49.7839   31.3594 C   0  0  0  0  0  0  0  0  0  0  0  0
    2.3338   47.0929   30.1982 N   0  0  0  0  0  0  0  0  0  0  0  0
    2.4183   48.4354   32.2349 C   0  0  0  0  0  0  0  0  0  0  0  0
    4.1349   50.0955   32.5968 C   0  0  0  0  0  0  0  0  0  0  0  0
    0.9635   47.1088   30.0779 O   0  0  0  0  0  0  0  0  0  0  0  0
    2.9547   46.0666   29.8547 O   0  0  0  0  0  0  0  0  0  0  0  0
    2.9964   49.4220   33.0341 C   0  0  0  0  0  0  0  0  0  0  0  0
    8.8119   40.1831   34.2121 O   0  0  0  0  0  0  0  0  0  0  0  0
   11.2416   40.7932   33.3699 O   0  0  0  0  0  0  0  0  0  0  0  0
   10.9186   40.6909   31.9972 C   0  0  0  0  0  0  0  0  0  0  0  0
   11.5172   39.3814   31.4407 C   0  0  0  0  0  0  0  0  0  0  0  0
   12.7493   39.0855   32.0727 O   0  0  0  0  0  0  0  0  0  0  0  0
   10.6023   38.1907   31.6665 C   0  0  0  0  0  0  0  0  0  0  0  0
   12.9319   37.6781   32.0281 C   0  0  0  0  0  0  0  0  0  0  0  0
    9.6392   38.0797   30.6452 O   0  0  0  0  0  0  0  0  0  0  0  0
   11.5715   37.0165   31.7056 C   0  0  0  0  0  0  0  0  0  0  0  0
   13.4847   37.2121   33.3235 N   0  0  0  0  0  0  0  0  0  0  0  0
   11.6187   36.3383   30.4694 O   0  0  0  0  0  0  0  0  0  0  0  0
   14.4801   36.3321   33.5724 C   0  0  0  0  0  0  0  0  0  0  0  0
   13.1137   37.6275   34.5687 C   0  0  0  0  0  0  0  0  0  0  0  0
   15.2073   35.6153   32.6738 N   0  0  0  0  0  0  0  0  0  0  0  0
   14.6759   36.2308   34.9179 C   0  0  0  0  0  0  0  0  0  0  0  0
   13.8216   37.0452   35.5781 N   0  0  0  0  0  0  0  0  0  0  0  0
   16.1640   34.7602   33.1546 C   0  0  0  0  0  0  0  0  0  0  0  0
   15.6526   35.3508   35.4129 C   0  0  0  0  0  0  0  0  0  0  0  0
   16.3794   34.6317   34.5041 N   0  0  0  0  0  0  0  0  0  0  0  0
   15.8999   35.1935   36.8088 N   0  0  0  0  0  0  0  0  0  0  0  0
    9.0098   45.4347   33.6670 H   0  0  0  0  0  0  0  0  0  0  0  0
   11.1131   46.1993   34.4885 H   0  0  0  0  0  0  0  0  0  0  0  0
   11.9349   45.6934   33.0930 H   0  0  0  0  0  0  0  0  0  0  0  0
    9.3518   43.8345   31.4759 H   0  0  0  0  0  0  0  0  0  0  0  0
   10.7309   44.8931   31.1677 H   0  0  0  0  0  0  0  0  0  0  0  0
    7.0124   44.7149   31.5826 H   0  0  0  0  0  0  0  0  0  0  0  0
   10.3467   47.1894   30.4146 H   0  0  0  0  0  0  0  0  0  0  0  0
    5.4695   46.2854   30.5125 H   0  0  0  0  0  0  0  0  0  0  0  0
    8.7934   48.7707   29.3444 H   0  0  0  0  0  0  0  0  0  0  0  0
    4.4394   47.5806   28.7179 H   0  0  0  0  0  0  0  0  0  0  0  0
    4.3990   49.3453   28.5112 H   0  0  0  0  0  0  0  0  0  0  0  0
    5.5687   50.3405   31.0297 H   0  0  0  0  0  0  0  0  0  0  0  0
    1.5290   47.9271   32.5861 H   0  0  0  0  0  0  0  0  0  0  0  0
    4.5745   50.8696   33.2124 H   0  0  0  0  0  0  0  0  0  0  0  0
    2.5554   49.6704   33.9909 H   0  0  0  0  0  0  0  0  0  0  0  0
    9.8300   40.7410   31.7610 H   0  0  0  0  0  0  0  0  0  0  0  0
   11.3972   41.5459   31.4735 H   0  0  0  0  0  0  0  0  0  0  0  0
   11.6974   39.5067   30.3480 H   0  0  0  0  0  0  0  0  0  0  0  0
   10.1077   38.2647   32.6645 H   0  0  0  0  0  0  0  0  0  0  0  0
   13.6621   37.4467   31.2208 H   0  0  0  0  0  0  0  0  0  0  0  0
    8.8974   38.6943   30.8831 H   0  0  0  0  0  0  0  0  0  0  0  0
   11.2806   36.3073   32.5170 H   0  0  0  0  0  0  0  0  0  0  0  0
   10.8492   35.7110   30.4585 H   0  0  0  0  0  0  0  0  0  0  0  0
   12.3290   38.3524   34.7444 H   0  0  0  0  0  0  0  0  0  0  0  0
   16.7559   34.1780   32.4619 H   0  0  0  0  0  0  0  0  0  0  0  0
   16.6344   34.5301   37.1414 H   0  0  0  0  0  0  0  0  0  0  0  0
   15.3532   35.7362   37.5137 H   0  0  0  0  0  0  0  0  0  0  0  0
  1  2  2  0
  1  3  1  0
  3  4  1  0
  4  5  1  0
  6  1  1  0
  7  6  1  0
  6  8  1  0
  8  9  1  0
  9 10  2  0
 11  9  1  0
 10 12  1  0
 13 11  2  0
 12 14  2  0
 14 13  1  0
 14 15  1  0
 15 16  1  0
 16 17  1  0
 17 18  2  0
 19 17  1  0
 18 20  1  0
 18 21  1  0
 22 19  2  0
 20 23  1  0
 20 24  2  0
 21 25  2  0
 25 22  1  0
  4 26  2  0
  4 27  1  0
 28 27  1  0
 28 29  1  0
 29 30  1  0
 29 31  1  0
 30 32  1  0
 31 33  1  0
 31 34  1  0
 34 32  1  0
 32 35  1  0
 34 36  1  0
 37 35  1  0
 38 35  1  0
 39 37  2  0
 37 40  1  0
 41 38  2  0
 42 39  1  0
 40 43  2  0
 40 41  1  0
 44 42  2  0
 44 43  1  0
 43 45  1  0
  6 46  1  1
  7 47  1  0
  7 48  1  0
  8 49  1  0
  8 50  1  0
 10 51  1  0
 11 52  1  0
 12 53  1  0
 13 54  1  0
 16 55  1  0
 16 56  1  0
 19 57  1  0
 21 58  1  0
 22 59  1  0
 25 60  1  0
 28 61  1  0
 28 62  1  0
 29 63  1  0
 31 64  1  0
 32 65  1  0
 33 66  1  0
 34 67  1  0
 36 68  1  0
 38 69  1  0
 42 70  1  0
 45 71  1  0
 45 72  1  0
M  CHG  3   5  -1  20   1  23  -1
M  END
>  <EmbedRMS>  (70) 
0.0838219551322

$$$$

     RDKit          3D

 72 76  0  0  0  0  0  0  0  0999 V2000
   10.2834   43.7662   33.8255 C   0  0  0  0  0  0  0  0  0  0  0  0
   11.4102   43.5930   34.3752 O   0  0  0  0  0  0  0  0  0  0  0  0
    9.3636   42.7255   33.7349 O   0  0  0  0  0  0  0  0  0  0  0  0
    9.8902   41.2267   34.2942 P   0  0  0  0  0  0  0  0  0  0  0  0
   10.3736   41.4561   35.8836 O   0  0  0  0  0  0  0  0  0  0  0  0
    9.9547   45.0695   33.2034 C   0  0  1  0  0  0  0  0  0  0  0  0
   11.0273   46.0322   33.4758 N   0  0  0  0  0  0  0  0  0  0  0  0
    9.7471   44.8482   31.6873 C   0  0  0  0  0  0  0  0  0  0  0  0
    8.7925   45.8406   31.0840 C   0  0  0  0  0  0  0  0  0  0  0  0
    7.4057   45.6013   31.0998 C   0  0  0  0  0  0  0  0  0  0  0  0
    9.2817   46.9882   30.4426 C   0  0  0  0  0  0  0  0  0  0  0  0
    6.5244   46.5018   30.4860 C   0  0  0  0  0  0  0  0  0  0  0  0
    8.4003   47.8889   29.8334 C   0  0  0  0  0  0  0  0  0  0  0  0
    7.0189   47.6550   29.8437 C   0  0  0  0  0  0  0  0  0  0  0  0
    6.1831   48.5877   29.2092 O   0  0  0  0  0  0  0  0  0  0  0  0
    4.7795   48.4298   28.9967 C   0  0  0  0  0  0  0  0  0  0  0  0
    4.5031   47.3358   27.9900 C   0  0  0  0  0  0  0  0  0  0  0  0
    5.1387   47.2974   26.7197 C   0  0  0  0  0  0  0  0  0  0  0  0
    3.6140   46.3041   28.3438 C   0  0  0  0  0  0  0  0  0  0  0  0
    6.0369   48.3359   26.2881 N   0  0  0  0  0  0  0  0  0  0  0  0
    4.8948   46.2067   25.8649 C   0  0  0  0  0  0  0  0  0  0  0  0
    3.3746   45.2397   27.4741 C   0  0  0  0  0  0  0  0  0  0  0  0
    5.7557   49.6577   26.5435 O   0  0  0  0  0  0  0  0  0  0  0  0
    6.9958   48.0612   25.5372 O   0  0  0  0  0  0  0  0  0  0  0  0
    4.0181   45.1880   26.2397 C   0  0  0  0  0  0  0  0  0  0  0  0
    8.8121   40.1850   34.2131 O   0  0  0  0  0  0  0  0  0  0  0  0
   11.2404   40.7941   33.3690 O   0  0  0  0  0  0  0  0  0  0  0  0
   10.9143   40.6898   31.9972 C   0  0  0  0  0  0  0  0  0  0  0  0
   11.5261   39.3885   31.4376 C   0  0  0  0  0  0  0  0  0  0  0  0
   12.7504   39.0888   32.0816 O   0  0  0  0  0  0  0  0  0  0  0  0
   10.6114   38.1910   31.6460 C   0  0  0  0  0  0  0  0  0  0  0  0
   12.9357   37.6812   32.0303 C   0  0  0  0  0  0  0  0  0  0  0  0
    9.6145   38.0859   30.6534 O   0  0  0  0  0  0  0  0  0  0  0  0
   11.5769   37.0148   31.7012 C   0  0  0  0  0  0  0  0  0  0  0  0
   13.4849   37.2112   33.3247 N   0  0  0  0  0  0  0  0  0  0  0  0
   11.6192   36.3261   30.4724 O   0  0  0  0  0  0  0  0  0  0  0  0
   14.4802   36.3313   33.5730 C   0  0  0  0  0  0  0  0  0  0  0  0
   13.1141   37.6268   34.5698 C   0  0  0  0  0  0  0  0  0  0  0  0
   15.2075   35.6151   32.6741 N   0  0  0  0  0  0  0  0  0  0  0  0
   14.6761   36.2300   34.9184 C   0  0  0  0  0  0  0  0  0  0  0  0
   13.8220   37.0445   35.5789 N   0  0  0  0  0  0  0  0  0  0  0  0
   16.1642   34.7600   33.1547 C   0  0  0  0  0  0  0  0  0  0  0  0
   15.6529   35.3503   35.4131 C   0  0  0  0  0  0  0  0  0  0  0  0
   16.3798   34.6314   34.5042 N   0  0  0  0  0  0  0  0  0  0  0  0
   15.9004   35.1930   36.8090 N   0  0  0  0  0  0  0  0  0  0  0  0
    9.0120   45.4317   33.6710 H   0  0  0  0  0  0  0  0  0  0  0  0
   10.7261   46.9688   33.1213 H   0  0  0  0  0  0  0  0  0  0  0  0
   11.8908   45.7658   32.9474 H   0  0  0  0  0  0  0  0  0  0  0  0
    9.3425   43.8330   31.4757 H   0  0  0  0  0  0  0  0  0  0  0  0
   10.7236   44.8822   31.1555 H   0  0  0  0  0  0  0  0  0  0  0  0
    7.0098   44.7174   31.5847 H   0  0  0  0  0  0  0  0  0  0  0  0
   10.3459   47.1868   30.4110 H   0  0  0  0  0  0  0  0  0  0  0  0
    5.4657   46.2927   30.5252 H   0  0  0  0  0  0  0  0  0  0  0  0
    8.7936   48.7701   29.3427 H   0  0  0  0  0  0  0  0  0  0  0  0
    4.3654   49.3841   28.6124 H   0  0  0  0  0  0  0  0  0  0  0  0
    4.2732   48.2436   29.9687 H   0  0  0  0  0  0  0  0  0  0  0  0
    3.1118   46.3149   29.3033 H   0  0  0  0  0  0  0  0  0  0  0  0
    5.3736   46.1536   24.8952 H   0  0  0  0  0  0  0  0  0  0  0  0
    2.6929   44.4496   27.7614 H   0  0  0  0  0  0  0  0  0  0  0  0
    3.8337   44.3590   25.5686 H   0  0  0  0  0  0  0  0  0  0  0  0
    9.8233   40.7191   31.7647 H   0  0  0  0  0  0  0  0  0  0  0  0
   11.3779   41.5526   31.4726 H   0  0  0  0  0  0  0  0  0  0  0  0
   11.7283   39.5312   30.3515 H   0  0  0  0  0  0  0  0  0  0  0  0
   10.1127   38.2734   32.6376 H   0  0  0  0  0  0  0  0  0  0  0  0
   13.6692   37.4566   31.2242 H   0  0  0  0  0  0  0  0  0  0  0  0
   10.0533   38.1118   29.7636 H   0  0  0  0  0  0  0  0  0  0  0  0
   11.2607   36.3148   32.5102 H   0  0  0  0  0  0  0  0  0  0  0  0
   12.1496   35.5023   30.6324 H   0  0  0  0  0  0  0  0  0  0  0  0
   12.3301   38.3524   34.7455 H   0  0  0  0  0  0  0  0  0  0  0  0
   16.7562   34.1780   32.4619 H   0  0  0  0  0  0  0  0  0  0  0  0
   16.6351   34.5298   37.1415 H   0  0  0  0  0  0  0  0  0  0  0  0
   15.3536   35.7357   37.5139 H   0  0  0  0  0  0  0  0  0  0  0  0
  1  2  2  0
  1  3  1  0
  3  4  1  0
  4  5  1  0
  6  1  1  0
  7  6  1  0
  6  8  1  0
  8  9  1  0
  9 10  2  0
 11  9  1  0
 10 12  1  0
 13 11  2  0
 12 14  2  0
 14 13  1  0
 14 15  1  0
 15 16  1  0
 16 17  1  0
 17 18  2  0
 19 17  1  0
 18 20  1  0
 18 21  1  0
 22 19  2  0
 20 23  1  0
 20 24  2  0
 21 25  2  0
 25 22  1  0
  4 26  2  0
  4 27  1  0
 28 27  1  0
 28 29  1  0
 29 30  1  0
 29 31  1  0
 30 32  1  0
 31 33  1  0
 31 34  1  0
 34 32  1  0
 32 35  1  0
 34 36  1  0
 37 35  1  0
 38 35  1  0
 39 37  2  0
 37 40  1  0
 41 38  2  0
 42 39  1  0
 40 43  2  0
 40 41  1  0
 44 42  2  0
 44 43  1  0
 43 45  1  0
  6 46  1  1
  7 47  1  0
  7 48  1  0
  8 49  1  0
  8 50  1  0
 10 51  1  0
 11 52  1  0
 12 53  1  0
 13 54  1  0
 16 55  1  0
 16 56  1  0
 19 57  1  0
 21 58  1  0
 22 59  1  0
 25 60  1  0
 28 61  1  0
 28 62  1  0
 29 63  1  0
 31 64  1  0
 32 65  1  0
 33 66  1  0
 34 67  1  0
 36 68  1  0
 38 69  1  0
 42 70  1  0
 45 71  1  0
 45 72  1  0
M  CHG  3   5  -1  20   1  23  -1
M  END
>  <EmbedRMS>  (71) 
0.0816244779813

$$$$

     RDKit          3D

 72 76  0  0  0  0  0  0  0  0999 V2000
   10.2803   43.7665   33.8250 C   0  0  0  0  0  0  0  0  0  0  0  0
   11.4110   43.5919   34.3666 O   0  0  0  0  0  0  0  0  0  0  0  0
    9.3616   42.7252   33.7348 O   0  0  0  0  0  0  0  0  0  0  0  0
    9.8896   41.2269   34.2945 P   0  0  0  0  0  0  0  0  0  0  0  0
   10.3731   41.4568   35.8837 O   0  0  0  0  0  0  0  0  0  0  0  0
    9.9459   45.0737   33.2112 C   0  0  1  0  0  0  0  0  0  0  0  0
   11.0266   46.0293   33.4709 N   0  0  0  0  0  0  0  0  0  0  0  0
    9.7540   44.8543   31.6949 C   0  0  0  0  0  0  0  0  0  0  0  0
    8.7957   45.8413   31.0849 C   0  0  0  0  0  0  0  0  0  0  0  0
    7.4090   45.5997   31.1008 C   0  0  0  0  0  0  0  0  0  0  0  0
    9.2824   46.9877   30.4391 C   0  0  0  0  0  0  0  0  0  0  0  0
    6.5261   46.4983   30.4857 C   0  0  0  0  0  0  0  0  0  0  0  0
    8.3997   47.8871   29.8302 C   0  0  0  0  0  0  0  0  0  0  0  0
    7.0181   47.6557   29.8481 C   0  0  0  0  0  0  0  0  0  0  0  0
    6.1784   48.5933   29.2253 O   0  0  0  0  0  0  0  0  0  0  0  0
    4.7503   48.5568   29.2409 C   0  0  0  0  0  0  0  0  0  0  0  0
    4.2200   48.8580   30.6260 C   0  0  0  0  0  0  0  0  0  0  0  0
    3.2392   48.0514   31.2613 C   0  0  0  0  0  0  0  0  0  0  0  0
    4.7512   49.9616   31.3185 C   0  0  0  0  0  0  0  0  0  0  0  0
    2.5875   46.9701   30.5777 N   0  0  0  0  0  0  0  0  0  0  0  0
    2.8768   48.3287   32.5903 C   0  0  0  0  0  0  0  0  0  0  0  0
    4.3628   50.2337   32.6310 C   0  0  0  0  0  0  0  0  0  0  0  0
    2.2656   45.8225   31.2649 O   0  0  0  0  0  0  0  0  0  0  0  0
    2.0967   47.1512   29.4444 O   0  0  0  0  0  0  0  0  0  0  0  0
    3.4357   49.4121   33.2696 C   0  0  0  0  0  0  0  0  0  0  0  0
    8.8122   40.1844   34.2135 O   0  0  0  0  0  0  0  0  0  0  0  0
   11.2401   40.7950   33.3698 O   0  0  0  0  0  0  0  0  0  0  0  0
   10.9143   40.6914   31.9981 C   0  0  0  0  0  0  0  0  0  0  0  0
   11.5269   39.3912   31.4385 C   0  0  0  0  0  0  0  0  0  0  0  0
   12.7519   39.0911   32.0837 O   0  0  0  0  0  0  0  0  0  0  0  0
   10.6113   38.1932   31.6451 C   0  0  0  0  0  0  0  0  0  0  0  0
   12.9413   37.6838   32.0297 C   0  0  0  0  0  0  0  0  0  0  0  0
    9.6064   38.0877   30.6599 O   0  0  0  0  0  0  0  0  0  0  0  0
   11.5822   37.0197   31.6877 C   0  0  0  0  0  0  0  0  0  0  0  0
   13.4840   37.2104   33.3254 N   0  0  0  0  0  0  0  0  0  0  0  0
   11.6179   36.3072   30.4690 O   0  0  0  0  0  0  0  0  0  0  0  0
   14.4797   36.3309   33.5738 C   0  0  0  0  0  0  0  0  0  0  0  0
   13.1136   37.6269   34.5702 C   0  0  0  0  0  0  0  0  0  0  0  0
   15.2074   35.6152   32.6747 N   0  0  0  0  0  0  0  0  0  0  0  0
   14.6756   36.2298   34.9190 C   0  0  0  0  0  0  0  0  0  0  0  0
   13.8217   37.0445   35.5793 N   0  0  0  0  0  0  0  0  0  0  0  0
   16.1643   34.7603   33.1551 C   0  0  0  0  0  0  0  0  0  0  0  0
   15.6528   35.3503   35.4136 C   0  0  0  0  0  0  0  0  0  0  0  0
   16.3798   34.6316   34.5046 N   0  0  0  0  0  0  0  0  0  0  0  0
   15.9004   35.1930   36.8094 N   0  0  0  0  0  0  0  0  0  0  0  0
    8.9995   45.4383   33.6722 H   0  0  0  0  0  0  0  0  0  0  0  0
   11.0501   46.2278   34.4983 H   0  0  0  0  0  0  0  0  0  0  0  0
   10.7764   46.9370   33.0159 H   0  0  0  0  0  0  0  0  0  0  0  0
   10.7412   44.9080   31.1837 H   0  0  0  0  0  0  0  0  0  0  0  0
    9.3646   43.8355   31.4711 H   0  0  0  0  0  0  0  0  0  0  0  0
    7.0149   44.7142   31.5842 H   0  0  0  0  0  0  0  0  0  0  0  0
   10.3463   47.1874   30.4046 H   0  0  0  0  0  0  0  0  0  0  0  0
    5.4687   46.2791   30.5111 H   0  0  0  0  0  0  0  0  0  0  0  0
    8.7917   48.7696   29.3405 H   0  0  0  0  0  0  0  0  0  0  0  0
    4.3759   49.3402   28.5495 H   0  0  0  0  0  0  0  0  0  0  0  0
    4.4130   47.5790   28.8444 H   0  0  0  0  0  0  0  0  0  0  0  0
    5.4866   50.6018   30.8467 H   0  0  0  0  0  0  0  0  0  0  0  0
    2.1374   47.7184   33.0933 H   0  0  0  0  0  0  0  0  0  0  0  0
    4.7884   51.0787   33.1567 H   0  0  0  0  0  0  0  0  0  0  0  0
    3.1398   49.6221   34.2893 H   0  0  0  0  0  0  0  0  0  0  0  0
   11.3775   41.5548   31.4741 H   0  0  0  0  0  0  0  0  0  0  0  0
    9.8233   40.7200   31.7652 H   0  0  0  0  0  0  0  0  0  0  0  0
   11.7312   39.5362   30.3532 H   0  0  0  0  0  0  0  0  0  0  0  0
   10.1202   38.2696   32.6410 H   0  0  0  0  0  0  0  0  0  0  0  0
   13.6850   37.4639   31.2321 H   0  0  0  0  0  0  0  0  0  0  0  0
   10.0250   38.1792   29.7654 H   0  0  0  0  0  0  0  0  0  0  0  0
   11.2757   36.3135   32.4908 H   0  0  0  0  0  0  0  0  0  0  0  0
   11.9838   36.9111   29.7708 H   0  0  0  0  0  0  0  0  0  0  0  0
   12.3307   38.3536   34.7458 H   0  0  0  0  0  0  0  0  0  0  0  0
   16.7566   34.1787   32.4623 H   0  0  0  0  0  0  0  0  0  0  0  0
   15.3535   35.7355   37.5144 H   0  0  0  0  0  0  0  0  0  0  0  0
   16.6353   34.5301   37.1419 H   0  0  0  0  0  0  0  0  0  0  0  0
  1  2  2  0
  1  3  1  0
  3  4  1  0
  4  5  1  0
  6  1  1  0
  7  6  1  0
  6  8  1  0
  8  9  1  0
  9 10  2  0
 11  9  1  0
 10 12  1  0
 13 11  2  0
 12 14  2  0
 14 13  1  0
 14 15  1  0
 15 16  1  0
 16 17  1  0
 17 18  2  0
 19 17  1  0
 18 20  1  0
 18 21  1  0
 22 19  2  0
 20 23  1  0
 20 24  2  0
 21 25  2  0
 25 22  1  0
  4 26  2  0
  4 27  1  0
 28 27  1  0
 28 29  1  0
 29 30  1  0
 29 31  1  0
 30 32  1  0
 31 33  1  0
 31 34  1  0
 34 32  1  0
 32 35  1  0
 34 36  1  0
 37 35  1  0
 38 35  1  0
 39 37  2  0
 37 40  1  0
 41 38  2  0
 42 39  1  0
 40 43  2  0
 40 41  1  0
 44 42  2  0
 44 43  1  0
 43 45  1  0
  6 46  1  1
  7 47  1  0
  7 48  1  0
  8 49  1  0
  8 50  1  0
 10 51  1  0
 11 52  1  0
 12 53  1  0
 13 54  1  0
 16 55  1  0
 16 56  1  0
 19 57  1  0
 21 58  1  0
 22 59  1  0
 25 60  1  0
 28 61  1  0
 28 62  1  0
 29 63  1  0
 31 64  1  0
 32 65  1  0
 33 66  1  0
 34 67  1  0
 36 68  1  0
 38 69  1  0
 42 70  1  0
 45 71  1  0
 45 72  1  0
M  CHG  3   5  -1  20   1  23  -1
M  END
>  <EmbedRMS>  (72) 
0.0806416054261

$$$$

     RDKit          3D

 72 76  0  0  0  0  0  0  0  0999 V2000
   10.2835   43.7662   33.8256 C   0  0  0  0  0  0  0  0  0  0  0  0
   11.4102   43.5929   34.3752 O   0  0  0  0  0  0  0  0  0  0  0  0
    9.3637   42.7255   33.7349 O   0  0  0  0  0  0  0  0  0  0  0  0
    9.8902   41.2267   34.2942 P   0  0  0  0  0  0  0  0  0  0  0  0
   10.3736   41.4561   35.8836 O   0  0  0  0  0  0  0  0  0  0  0  0
    9.9548   45.0695   33.2035 C   0  0  1  0  0  0  0  0  0  0  0  0
   11.0274   46.0322   33.4759 N   0  0  0  0  0  0  0  0  0  0  0  0
    9.7470   44.8484   31.6875 C   0  0  0  0  0  0  0  0  0  0  0  0
    8.7924   45.8409   31.0843 C   0  0  0  0  0  0  0  0  0  0  0  0
    7.4055   45.6009   31.0994 C   0  0  0  0  0  0  0  0  0  0  0  0
    9.2818   46.9880   30.4420 C   0  0  0  0  0  0  0  0  0  0  0  0
    6.5241   46.5011   30.4849 C   0  0  0  0  0  0  0  0  0  0  0  0
    8.4006   47.8885   29.8321 C   0  0  0  0  0  0  0  0  0  0  0  0
    7.0190   47.6563   29.8461 C   0  0  0  0  0  0  0  0  0  0  0  0
    6.1800   48.5894   29.2201 O   0  0  0  0  0  0  0  0  0  0  0  0
    4.7593   48.4895   29.1683 C   0  0  0  0  0  0  0  0  0  0  0  0
    4.1997   49.6860   28.4432 C   0  0  0  0  0  0  0  0  0  0  0  0
    4.0125   50.9423   29.0831 C   0  0  0  0  0  0  0  0  0  0  0  0
    3.8292   49.5399   27.0938 C   0  0  0  0  0  0  0  0  0  0  0  0
    4.3829   51.1667   30.4566 N   0  0  0  0  0  0  0  0  0  0  0  0
    3.4283   51.9969   28.3582 C   0  0  0  0  0  0  0  0  0  0  0  0
    3.2661   50.6048   26.3901 C   0  0  0  0  0  0  0  0  0  0  0  0
    3.7054   52.1009   31.2062 O   0  0  0  0  0  0  0  0  0  0  0  0
    5.4126   50.6491   30.9350 O   0  0  0  0  0  0  0  0  0  0  0  0
    3.0616   51.8292   27.0223 C   0  0  0  0  0  0  0  0  0  0  0  0
    8.8121   40.1850   34.2131 O   0  0  0  0  0  0  0  0  0  0  0  0
   11.2404   40.7941   33.3690 O   0  0  0  0  0  0  0  0  0  0  0  0
   10.9143   40.6898   31.9972 C   0  0  0  0  0  0  0  0  0  0  0  0
   11.5261   39.3885   31.4376 C   0  0  0  0  0  0  0  0  0  0  0  0
   12.7504   39.0888   32.0816 O   0  0  0  0  0  0  0  0  0  0  0  0
   10.6115   38.1910   31.6460 C   0  0  0  0  0  0  0  0  0  0  0  0
   12.9357   37.6812   32.0303 C   0  0  0  0  0  0  0  0  0  0  0  0
    9.6146   38.0859   30.6534 O   0  0  0  0  0  0  0  0  0  0  0  0
   11.5769   37.0148   31.7012 C   0  0  0  0  0  0  0  0  0  0  0  0
   13.4849   37.2112   33.3247 N   0  0  0  0  0  0  0  0  0  0  0  0
   11.6193   36.3261   30.4724 O   0  0  0  0  0  0  0  0  0  0  0  0
   14.4802   36.3313   33.5730 C   0  0  0  0  0  0  0  0  0  0  0  0
   13.1141   37.6268   34.5698 C   0  0  0  0  0  0  0  0  0  0  0  0
   15.2075   35.6151   32.6741 N   0  0  0  0  0  0  0  0  0  0  0  0
   14.6761   36.2300   34.9184 C   0  0  0  0  0  0  0  0  0  0  0  0
   13.8220   37.0445   35.5789 N   0  0  0  0  0  0  0  0  0  0  0  0
   16.1642   34.7600   33.1547 C   0  0  0  0  0  0  0  0  0  0  0  0
   15.6529   35.3503   35.4131 C   0  0  0  0  0  0  0  0  0  0  0  0
   16.3798   34.6314   34.5042 N   0  0  0  0  0  0  0  0  0  0  0  0
   15.9004   35.1930   36.8090 N   0  0  0  0  0  0  0  0  0  0  0  0
    9.0121   45.4317   33.6712 H   0  0  0  0  0  0  0  0  0  0  0  0
   11.8908   45.7658   32.9475 H   0  0  0  0  0  0  0  0  0  0  0  0
   10.7261   46.9688   33.1214 H   0  0  0  0  0  0  0  0  0  0  0  0
   10.7235   44.8824   31.1557 H   0  0  0  0  0  0  0  0  0  0  0  0
    9.3425   43.8331   31.4758 H   0  0  0  0  0  0  0  0  0  0  0  0
    7.0099   44.7155   31.5819 H   0  0  0  0  0  0  0  0  0  0  0  0
   10.3461   47.1864   30.4104 H   0  0  0  0  0  0  0  0  0  0  0  0
    5.4644   46.2885   30.5125 H   0  0  0  0  0  0  0  0  0  0  0  0
    8.7937   48.7708   29.3430 H   0  0  0  0  0  0  0  0  0  0  0  0
    4.4805   47.5510   28.6404 H   0  0  0  0  0  0  0  0  0  0  0  0
    4.3331   48.4327   30.1930 H   0  0  0  0  0  0  0  0  0  0  0  0
    3.9713   48.5950   26.5835 H   0  0  0  0  0  0  0  0  0  0  0  0
    3.2707   52.9610   28.8248 H   0  0  0  0  0  0  0  0  0  0  0  0
    2.9831   50.4784   25.3529 H   0  0  0  0  0  0  0  0  0  0  0  0
    2.6211   52.6527   26.4751 H   0  0  0  0  0  0  0  0  0  0  0  0
   11.3779   41.5526   31.4727 H   0  0  0  0  0  0  0  0  0  0  0  0
    9.8233   40.7191   31.7647 H   0  0  0  0  0  0  0  0  0  0  0  0
   11.7283   39.5312   30.3515 H   0  0  0  0  0  0  0  0  0  0  0  0
   10.1127   38.2734   32.6376 H   0  0  0  0  0  0  0  0  0  0  0  0
   13.6692   37.4566   31.2242 H   0  0  0  0  0  0  0  0  0  0  0  0
   10.0533   38.1118   29.7636 H   0  0  0  0  0  0  0  0  0  0  0  0
   11.2607   36.3148   32.5102 H   0  0  0  0  0  0  0  0  0  0  0  0
   12.1496   35.5023   30.6324 H   0  0  0  0  0  0  0  0  0  0  0  0
   12.3301   38.3524   34.7455 H   0  0  0  0  0  0  0  0  0  0  0  0
   16.7563   34.1781   32.4619 H   0  0  0  0  0  0  0  0  0  0  0  0
   16.6351   34.5298   37.1416 H   0  0  0  0  0  0  0  0  0  0  0  0
   15.3536   35.7357   37.5140 H   0  0  0  0  0  0  0  0  0  0  0  0
  1  2  2  0
  1  3  1  0
  3  4  1  0
  4  5  1  0
  6  1  1  0
  7  6  1  0
  6  8  1  0
  8  9  1  0
  9 10  2  0
 11  9  1  0
 10 12  1  0
 13 11  2  0
 12 14  2  0
 14 13  1  0
 14 15  1  0
 15 16  1  0
 16 17  1  0
 17 18  2  0
 19 17  1  0
 18 20  1  0
 18 21  1  0
 22 19  2  0
 20 23  1  0
 20 24  2  0
 21 25  2  0
 25 22  1  0
  4 26  2  0
  4 27  1  0
 28 27  1  0
 28 29  1  0
 29 30  1  0
 29 31  1  0
 30 32  1  0
 31 33  1  0
 31 34  1  0
 34 32  1  0
 32 35  1  0
 34 36  1  0
 37 35  1  0
 38 35  1  0
 39 37  2  0
 37 40  1  0
 41 38  2  0
 42 39  1  0
 40 43  2  0
 40 41  1  0
 44 42  2  0
 44 43  1  0
 43 45  1  0
  6 46  1  1
  7 47  1  0
  7 48  1  0
  8 49  1  0
  8 50  1  0
 10 51  1  0
 11 52  1  0
 12 53  1  0
 13 54  1  0
 16 55  1  0
 16 56  1  0
 19 57  1  0
 21 58  1  0
 22 59  1  0
 25 60  1  0
 28 61  1  0
 28 62  1  0
 29 63  1  0
 31 64  1  0
 32 65  1  0
 33 66  1  0
 34 67  1  0
 36 68  1  0
 38 69  1  0
 42 70  1  0
 45 71  1  0
 45 72  1  0
M  CHG  3   5  -1  20   1  23  -1
M  END
>  <EmbedRMS>  (73) 
0.0816089618084

$$$$

     RDKit          3D

 72 76  0  0  0  0  0  0  0  0999 V2000
   10.2834   43.7662   33.8257 C   0  0  0  0  0  0  0  0  0  0  0  0
   11.4102   43.5931   34.3753 O   0  0  0  0  0  0  0  0  0  0  0  0
    9.3638   42.7255   33.7349 O   0  0  0  0  0  0  0  0  0  0  0  0
    9.8907   41.2265   34.2933 P   0  0  0  0  0  0  0  0  0  0  0  0
   10.3743   41.4557   35.8828 O   0  0  0  0  0  0  0  0  0  0  0  0
    9.9546   45.0695   33.2036 C   0  0  1  0  0  0  0  0  0  0  0  0
   11.0273   46.0323   33.4756 N   0  0  0  0  0  0  0  0  0  0  0  0
    9.7465   44.8481   31.6878 C   0  0  0  0  0  0  0  0  0  0  0  0
    8.7923   45.8409   31.0846 C   0  0  0  0  0  0  0  0  0  0  0  0
    7.4055   45.6012   31.0985 C   0  0  0  0  0  0  0  0  0  0  0  0
    9.2824   46.9875   30.4420 C   0  0  0  0  0  0  0  0  0  0  0  0
    6.5267   46.5028   30.4831 C   0  0  0  0  0  0  0  0  0  0  0  0
    8.4034   47.8893   29.8310 C   0  0  0  0  0  0  0  0  0  0  0  0
    7.0139   47.6541   29.8492 C   0  0  0  0  0  0  0  0  0  0  0  0
    6.0888   48.5287   29.2561 O   0  0  0  0  0  0  0  0  0  0  0  0
    6.4107   49.7877   28.6626 C   0  0  0  0  0  0  0  0  0  0  0  0
    6.8270   50.7889   29.7184 C   0  0  0  0  0  0  0  0  0  0  0  0
    8.0020   51.5778   29.6029 C   0  0  0  0  0  0  0  0  0  0  0  0
    6.0323   50.9105   30.8730 C   0  0  0  0  0  0  0  0  0  0  0  0
    8.8046   51.5736   28.4125 N   0  0  0  0  0  0  0  0  0  0  0  0
    8.3829   52.4044   30.6735 C   0  0  0  0  0  0  0  0  0  0  0  0
    6.4161   51.7533   31.9170 C   0  0  0  0  0  0  0  0  0  0  0  0
   10.1730   51.6769   28.5107 O   0  0  0  0  0  0  0  0  0  0  0  0
    8.2680   51.7215   27.2953 O   0  0  0  0  0  0  0  0  0  0  0  0
    7.5950   52.4904   31.8221 C   0  0  0  0  0  0  0  0  0  0  0  0
    8.8123   40.1851   34.2127 O   0  0  0  0  0  0  0  0  0  0  0  0
   11.2407   40.7945   33.3670 O   0  0  0  0  0  0  0  0  0  0  0  0
   10.9134   40.6866   31.9954 C   0  0  0  0  0  0  0  0  0  0  0  0
   11.5167   39.3787   31.4404 C   0  0  0  0  0  0  0  0  0  0  0  0
   12.7486   39.0849   32.0734 O   0  0  0  0  0  0  0  0  0  0  0  0
   10.6039   38.1884   31.6669 C   0  0  0  0  0  0  0  0  0  0  0  0
   12.9329   37.6776   32.0284 C   0  0  0  0  0  0  0  0  0  0  0  0
    9.6374   38.0938   30.6484 O   0  0  0  0  0  0  0  0  0  0  0  0
   11.5737   37.0141   31.7055 C   0  0  0  0  0  0  0  0  0  0  0  0
   13.4853   37.2120   33.3238 N   0  0  0  0  0  0  0  0  0  0  0  0
   11.6210   36.3379   30.4683 O   0  0  0  0  0  0  0  0  0  0  0  0
   14.4804   36.3319   33.5726 C   0  0  0  0  0  0  0  0  0  0  0  0
   13.1141   37.6275   34.5689 C   0  0  0  0  0  0  0  0  0  0  0  0
   15.2076   35.6152   32.6740 N   0  0  0  0  0  0  0  0  0  0  0  0
   14.6761   36.2306   34.9181 C   0  0  0  0  0  0  0  0  0  0  0  0
   13.8218   37.0451   35.5783 N   0  0  0  0  0  0  0  0  0  0  0  0
   16.1642   34.7600   33.1548 C   0  0  0  0  0  0  0  0  0  0  0  0
   15.6527   35.3507   35.4131 C   0  0  0  0  0  0  0  0  0  0  0  0
   16.3795   34.6315   34.5043 N   0  0  0  0  0  0  0  0  0  0  0  0
   15.9001   35.1933   36.8090 N   0  0  0  0  0  0  0  0  0  0  0  0
    9.0120   45.4318   33.6715 H   0  0  0  0  0  0  0  0  0  0  0  0
   10.7258   46.9689   33.1213 H   0  0  0  0  0  0  0  0  0  0  0  0
   11.8905   45.7660   32.9469 H   0  0  0  0  0  0  0  0  0  0  0  0
   10.7229   44.8814   31.1558 H   0  0  0  0  0  0  0  0  0  0  0  0
    9.3413   43.8330   31.4764 H   0  0  0  0  0  0  0  0  0  0  0  0
    7.0083   44.7164   31.5803 H   0  0  0  0  0  0  0  0  0  0  0  0
   10.3471   47.1838   30.4099 H   0  0  0  0  0  0  0  0  0  0  0  0
    5.4620   46.3073   30.5022 H   0  0  0  0  0  0  0  0  0  0  0  0
    8.8175   48.7593   29.3426 H   0  0  0  0  0  0  0  0  0  0  0  0
    5.5014   50.1756   28.1578 H   0  0  0  0  0  0  0  0  0  0  0  0
    7.1791   49.6287   27.8806 H   0  0  0  0  0  0  0  0  0  0  0  0
    5.1218   50.3326   30.9744 H   0  0  0  0  0  0  0  0  0  0  0  0
    9.2808   53.0058   30.6064 H   0  0  0  0  0  0  0  0  0  0  0  0
    5.8019   51.8282   32.8051 H   0  0  0  0  0  0  0  0  0  0  0  0
    7.8934   53.1396   32.6353 H   0  0  0  0  0  0  0  0  0  0  0  0
   11.3827   41.5438   31.4669 H   0  0  0  0  0  0  0  0  0  0  0  0
    9.8225   40.7225   31.7631 H   0  0  0  0  0  0  0  0  0  0  0  0
   11.6978   39.5037   30.3478 H   0  0  0  0  0  0  0  0  0  0  0  0
   10.1084   38.2787   32.6627 H   0  0  0  0  0  0  0  0  0  0  0  0
   13.6638   37.4472   31.2214 H   0  0  0  0  0  0  0  0  0  0  0  0
    8.9763   37.4191   30.9532 H   0  0  0  0  0  0  0  0  0  0  0  0
   11.2821   36.3054   32.5172 H   0  0  0  0  0  0  0  0  0  0  0  0
   10.8658   35.6935   30.4652 H   0  0  0  0  0  0  0  0  0  0  0  0
   12.3293   38.3523   34.7445 H   0  0  0  0  0  0  0  0  0  0  0  0
   16.7561   34.1778   32.4621 H   0  0  0  0  0  0  0  0  0  0  0  0
   16.6345   34.5300   37.1416 H   0  0  0  0  0  0  0  0  0  0  0  0
   15.3533   35.7361   37.5138 H   0  0  0  0  0  0  0  0  0  0  0  0
  1  2  2  0
  1  3  1  0
  3  4  1  0
  4  5  1  0
  6  1  1  0
  7  6  1  0
  6  8  1  0
  8  9  1  0
  9 10  2  0
 11  9  1  0
 10 12  1  0
 13 11  2  0
 12 14  2  0
 14 13  1  0
 14 15  1  0
 15 16  1  0
 16 17  1  0
 17 18  2  0
 19 17  1  0
 18 20  1  0
 18 21  1  0
 22 19  2  0
 20 23  1  0
 20 24  2  0
 21 25  2  0
 25 22  1  0
  4 26  2  0
  4 27  1  0
 28 27  1  0
 28 29  1  0
 29 30  1  0
 29 31  1  0
 30 32  1  0
 31 33  1  0
 31 34  1  0
 34 32  1  0
 32 35  1  0
 34 36  1  0
 37 35  1  0
 38 35  1  0
 39 37  2  0
 37 40  1  0
 41 38  2  0
 42 39  1  0
 40 43  2  0
 40 41  1  0
 44 42  2  0
 44 43  1  0
 43 45  1  0
  6 46  1  1
  7 47  1  0
  7 48  1  0
  8 49  1  0
  8 50  1  0
 10 51  1  0
 11 52  1  0
 12 53  1  0
 13 54  1  0
 16 55  1  0
 16 56  1  0
 19 57  1  0
 21 58  1  0
 22 59  1  0
 25 60  1  0
 28 61  1  0
 28 62  1  0
 29 63  1  0
 31 64  1  0
 32 65  1  0
 33 66  1  0
 34 67  1  0
 36 68  1  0
 38 69  1  0
 42 70  1  0
 45 71  1  0
 45 72  1  0
M  CHG  3   5  -1  20   1  23  -1
M  END
>  <EmbedRMS>  (74) 
0.082558234698

$$$$

     RDKit          3D

 72 76  0  0  0  0  0  0  0  0999 V2000
   10.2838   43.7627   33.8276 C   0  0  0  0  0  0  0  0  0  0  0  0
   11.4103   43.5863   34.3766 O   0  0  0  0  0  0  0  0  0  0  0  0
    9.3628   42.7238   33.7357 O   0  0  0  0  0  0  0  0  0  0  0  0
    9.8890   41.2252   34.2949 P   0  0  0  0  0  0  0  0  0  0  0  0
   10.3724   41.4548   35.8843 O   0  0  0  0  0  0  0  0  0  0  0  0
    9.9549   45.0701   33.2064 C   0  0  1  0  0  0  0  0  0  0  0  0
   11.0199   46.0481   33.4571 N   0  0  0  0  0  0  0  0  0  0  0  0
    9.7505   44.8512   31.6923 C   0  0  0  0  0  0  0  0  0  0  0  0
    8.7943   45.8419   31.0869 C   0  0  0  0  0  0  0  0  0  0  0  0
    7.4074   45.6003   31.1004 C   0  0  0  0  0  0  0  0  0  0  0  0
    9.2827   46.9894   30.4445 C   0  0  0  0  0  0  0  0  0  0  0  0
    6.5254   46.4998   30.4851 C   0  0  0  0  0  0  0  0  0  0  0  0
    8.4011   47.8884   29.8329 C   0  0  0  0  0  0  0  0  0  0  0  0
    7.0197   47.6551   29.8462 C   0  0  0  0  0  0  0  0  0  0  0  0
    6.1804   48.5872   29.2194 O   0  0  0  0  0  0  0  0  0  0  0  0
    4.7587   48.4904   29.1722 C   0  0  0  0  0  0  0  0  0  0  0  0
    4.1915   49.6972   28.4671 C   0  0  0  0  0  0  0  0  0  0  0  0
    4.4724   51.0239   28.8939 C   0  0  0  0  0  0  0  0  0  0  0  0
    3.3923   49.4982   27.3256 C   0  0  0  0  0  0  0  0  0  0  0  0
    5.2795   51.2960   30.0550 N   0  0  0  0  0  0  0  0  0  0  0  0
    3.9643   52.1042   28.1484 C   0  0  0  0  0  0  0  0  0  0  0  0
    2.8869   50.5845   26.6106 C   0  0  0  0  0  0  0  0  0  0  0  0
    5.1535   50.5361   31.1943 O   0  0  0  0  0  0  0  0  0  0  0  0
    5.9884   52.3228   30.0964 O   0  0  0  0  0  0  0  0  0  0  0  0
    3.1753   51.8846   27.0189 C   0  0  0  0  0  0  0  0  0  0  0  0
    8.8112   40.1834   34.2131 O   0  0  0  0  0  0  0  0  0  0  0  0
   11.2398   40.7938   33.3702 O   0  0  0  0  0  0  0  0  0  0  0  0
   10.9144   40.6912   31.9983 C   0  0  0  0  0  0  0  0  0  0  0  0
   11.5270   39.3911   31.4385 C   0  0  0  0  0  0  0  0  0  0  0  0
   12.7520   39.0911   32.0835 O   0  0  0  0  0  0  0  0  0  0  0  0
   10.6114   38.1931   31.6451 C   0  0  0  0  0  0  0  0  0  0  0  0
   12.9413   37.6837   32.0297 C   0  0  0  0  0  0  0  0  0  0  0  0
    9.6064   38.0877   30.6599 O   0  0  0  0  0  0  0  0  0  0  0  0
   11.5822   37.0197   31.6876 C   0  0  0  0  0  0  0  0  0  0  0  0
   13.4840   37.2104   33.3254 N   0  0  0  0  0  0  0  0  0  0  0  0
   11.6179   36.3071   30.4690 O   0  0  0  0  0  0  0  0  0  0  0  0
   14.4797   36.3309   33.5738 C   0  0  0  0  0  0  0  0  0  0  0  0
   13.1136   37.6269   34.5702 C   0  0  0  0  0  0  0  0  0  0  0  0
   15.2074   35.6152   32.6747 N   0  0  0  0  0  0  0  0  0  0  0  0
   14.6756   36.2298   34.9190 C   0  0  0  0  0  0  0  0  0  0  0  0
   13.8217   37.0445   35.5793 N   0  0  0  0  0  0  0  0  0  0  0  0
   16.1643   34.7603   33.1551 C   0  0  0  0  0  0  0  0  0  0  0  0
   15.6528   35.3503   35.4136 C   0  0  0  0  0  0  0  0  0  0  0  0
   16.3798   34.6316   34.5046 N   0  0  0  0  0  0  0  0  0  0  0  0
   15.9004   35.1930   36.8094 N   0  0  0  0  0  0  0  0  0  0  0  0
    9.0099   45.4350   33.6670 H   0  0  0  0  0  0  0  0  0  0  0  0
   11.1133   46.1992   34.4884 H   0  0  0  0  0  0  0  0  0  0  0  0
   11.9350   45.6933   33.0928 H   0  0  0  0  0  0  0  0  0  0  0  0
    9.3518   43.8345   31.4759 H   0  0  0  0  0  0  0  0  0  0  0  0
   10.7309   44.8932   31.1676 H   0  0  0  0  0  0  0  0  0  0  0  0
    7.0124   44.7146   31.5827 H   0  0  0  0  0  0  0  0  0  0  0  0
   10.3467   47.1896   30.4150 H   0  0  0  0  0  0  0  0  0  0  0  0
    5.4658   46.2860   30.5117 H   0  0  0  0  0  0  0  0  0  0  0  0
    8.7935   48.7711   29.3439 H   0  0  0  0  0  0  0  0  0  0  0  0
    4.3397   48.4315   30.1983 H   0  0  0  0  0  0  0  0  0  0  0  0
    4.4790   47.5533   28.6429 H   0  0  0  0  0  0  0  0  0  0  0  0
    3.1636   48.4976   26.9797 H   0  0  0  0  0  0  0  0  0  0  0  0
    4.1686   53.1231   28.4525 H   0  0  0  0  0  0  0  0  0  0  0  0
    2.2748   50.4171   25.7337 H   0  0  0  0  0  0  0  0  0  0  0  0
    2.7852   52.7255   26.4600 H   0  0  0  0  0  0  0  0  0  0  0  0
    9.8235   40.7202   31.7651 H   0  0  0  0  0  0  0  0  0  0  0  0
   11.3780   41.5548   31.4750 H   0  0  0  0  0  0  0  0  0  0  0  0
   11.7311   39.5363   30.3531 H   0  0  0  0  0  0  0  0  0  0  0  0
   10.1203   38.2695   32.6410 H   0  0  0  0  0  0  0  0  0  0  0  0
   13.6850   37.4638   31.2321 H   0  0  0  0  0  0  0  0  0  0  0  0
   10.0251   38.1792   29.7654 H   0  0  0  0  0  0  0  0  0  0  0  0
   11.2757   36.3135   32.4907 H   0  0  0  0  0  0  0  0  0  0  0  0
   11.9838   36.9111   29.7708 H   0  0  0  0  0  0  0  0  0  0  0  0
   12.3307   38.3536   34.7457 H   0  0  0  0  0  0  0  0  0  0  0  0
   16.7566   34.1787   32.4623 H   0  0  0  0  0  0  0  0  0  0  0  0
   15.3535   35.7355   37.5144 H   0  0  0  0  0  0  0  0  0  0  0  0
   16.6353   34.5301   37.1419 H   0  0  0  0  0  0  0  0  0  0  0  0
  1  2  2  0
  1  3  1  0
  3  4  1  0
  4  5  1  0
  6  1  1  0
  7  6  1  0
  6  8  1  0
  8  9  1  0
  9 10  2  0
 11  9  1  0
 10 12  1  0
 13 11  2  0
 12 14  2  0
 14 13  1  0
 14 15  1  0
 15 16  1  0
 16 17  1  0
 17 18  2  0
 19 17  1  0
 18 20  1  0
 18 21  1  0
 22 19  2  0
 20 23  1  0
 20 24  2  0
 21 25  2  0
 25 22  1  0
  4 26  2  0
  4 27  1  0
 28 27  1  0
 28 29  1  0
 29 30  1  0
 29 31  1  0
 30 32  1  0
 31 33  1  0
 31 34  1  0
 34 32  1  0
 32 35  1  0
 34 36  1  0
 37 35  1  0
 38 35  1  0
 39 37  2  0
 37 40  1  0
 41 38  2  0
 42 39  1  0
 40 43  2  0
 40 41  1  0
 44 42  2  0
 44 43  1  0
 43 45  1  0
  6 46  1  1
  7 47  1  0
  7 48  1  0
  8 49  1  0
  8 50  1  0
 10 51  1  0
 11 52  1  0
 12 53  1  0
 13 54  1  0
 16 55  1  0
 16 56  1  0
 19 57  1  0
 21 58  1  0
 22 59  1  0
 25 60  1  0
 28 61  1  0
 28 62  1  0
 29 63  1  0
 31 64  1  0
 32 65  1  0
 33 66  1  0
 34 67  1  0
 36 68  1  0
 38 69  1  0
 42 70  1  0
 45 71  1  0
 45 72  1  0
M  CHG  3   5  -1  20   1  23  -1
M  END
>  <EmbedRMS>  (75) 
0.0817272207288

$$$$

     RDKit          3D

 72 76  0  0  0  0  0  0  0  0999 V2000
   10.2804   43.7664   33.8249 C   0  0  0  0  0  0  0  0  0  0  0  0
   11.4111   43.5919   34.3667 O   0  0  0  0  0  0  0  0  0  0  0  0
    9.3619   42.7249   33.7346 O   0  0  0  0  0  0  0  0  0  0  0  0
    9.8900   41.2267   34.2944 P   0  0  0  0  0  0  0  0  0  0  0  0
   10.3728   41.4567   35.8838 O   0  0  0  0  0  0  0  0  0  0  0  0
    9.9460   45.0736   33.2110 C   0  0  1  0  0  0  0  0  0  0  0  0
   11.0267   46.0292   33.4707 N   0  0  0  0  0  0  0  0  0  0  0  0
    9.7541   44.8540   31.6947 C   0  0  0  0  0  0  0  0  0  0  0  0
    8.7958   45.8409   31.0844 C   0  0  0  0  0  0  0  0  0  0  0  0
    7.4089   45.6003   31.1016 C   0  0  0  0  0  0  0  0  0  0  0  0
    9.2824   46.9882   30.4401 C   0  0  0  0  0  0  0  0  0  0  0  0
    6.5259   46.4996   30.4876 C   0  0  0  0  0  0  0  0  0  0  0  0
    8.3995   47.8880   29.8321 C   0  0  0  0  0  0  0  0  0  0  0  0
    7.0185   47.6531   29.8441 C   0  0  0  0  0  0  0  0  0  0  0  0
    6.1810   48.5848   29.2103 O   0  0  0  0  0  0  0  0  0  0  0  0
    4.7778   48.4247   28.9969 C   0  0  0  0  0  0  0  0  0  0  0  0
    4.5045   47.3325   27.9870 C   0  0  0  0  0  0  0  0  0  0  0  0
    5.1272   47.3079   26.7086 C   0  0  0  0  0  0  0  0  0  0  0  0
    3.6308   46.2889   28.3442 C   0  0  0  0  0  0  0  0  0  0  0  0
    6.0095   48.3558   26.2670 N   0  0  0  0  0  0  0  0  0  0  0  0
    4.8885   46.2181   25.8525 C   0  0  0  0  0  0  0  0  0  0  0  0
    3.3958   45.2256   27.4721 C   0  0  0  0  0  0  0  0  0  0  0  0
    7.0311   48.0693   25.3908 O   0  0  0  0  0  0  0  0  0  0  0  0
    5.7647   49.5504   26.5319 O   0  0  0  0  0  0  0  0  0  0  0  0
    4.0280   45.1872   26.2314 C   0  0  0  0  0  0  0  0  0  0  0  0
    8.8127   40.1842   34.2128 O   0  0  0  0  0  0  0  0  0  0  0  0
   11.2414   40.7950   33.3705 O   0  0  0  0  0  0  0  0  0  0  0  0
   10.9178   40.6922   31.9983 C   0  0  0  0  0  0  0  0  0  0  0  0
   11.5175   39.3837   31.4423 C   0  0  0  0  0  0  0  0  0  0  0  0
   12.7507   39.0887   32.0753 O   0  0  0  0  0  0  0  0  0  0  0  0
   10.6027   38.1916   31.6658 C   0  0  0  0  0  0  0  0  0  0  0  0
   12.9384   37.6819   32.0278 C   0  0  0  0  0  0  0  0  0  0  0  0
    9.6371   38.0805   30.6470 O   0  0  0  0  0  0  0  0  0  0  0  0
   11.5780   37.0215   31.6935 C   0  0  0  0  0  0  0  0  0  0  0  0
   13.4844   37.2119   33.3242 N   0  0  0  0  0  0  0  0  0  0  0  0
   11.6095   36.3201   30.4679 O   0  0  0  0  0  0  0  0  0  0  0  0
   14.4797   36.3318   33.5730 C   0  0  0  0  0  0  0  0  0  0  0  0
   13.1135   37.6278   34.5691 C   0  0  0  0  0  0  0  0  0  0  0  0
   15.2073   35.6155   32.6742 N   0  0  0  0  0  0  0  0  0  0  0  0
   14.6754   36.2305   34.9184 C   0  0  0  0  0  0  0  0  0  0  0  0
   13.8213   37.0452   35.5785 N   0  0  0  0  0  0  0  0  0  0  0  0
   16.1640   34.7604   33.1549 C   0  0  0  0  0  0  0  0  0  0  0  0
   15.6524   35.3507   35.4132 C   0  0  0  0  0  0  0  0  0  0  0  0
   16.3794   34.6318   34.5044 N   0  0  0  0  0  0  0  0  0  0  0  0
   15.8999   35.1934   36.8091 N   0  0  0  0  0  0  0  0  0  0  0  0
    8.9995   45.4381   33.6719 H   0  0  0  0  0  0  0  0  0  0  0  0
   11.0501   46.2277   34.4981 H   0  0  0  0  0  0  0  0  0  0  0  0
   10.7765   46.9368   33.0157 H   0  0  0  0  0  0  0  0  0  0  0  0
    9.3646   43.8353   31.4710 H   0  0  0  0  0  0  0  0  0  0  0  0
   10.7412   44.9078   31.1834 H   0  0  0  0  0  0  0  0  0  0  0  0
    7.0146   44.7169   31.5888 H   0  0  0  0  0  0  0  0  0  0  0  0
   10.3462   47.1882   30.4060 H   0  0  0  0  0  0  0  0  0  0  0  0
    5.4675   46.2899   30.5289 H   0  0  0  0  0  0  0  0  0  0  0  0
    8.7915   48.7692   29.3401 H   0  0  0  0  0  0  0  0  0  0  0  0
    4.3625   49.3793   28.6142 H   0  0  0  0  0  0  0  0  0  0  0  0
    4.2713   48.2353   29.9681 H   0  0  0  0  0  0  0  0  0  0  0  0
    3.1377   46.2892   29.3085 H   0  0  0  0  0  0  0  0  0  0  0  0
    5.3575   46.1747   24.8777 H   0  0  0  0  0  0  0  0  0  0  0  0
    2.7264   44.4261   27.7623 H   0  0  0  0  0  0  0  0  0  0  0  0
    3.8472   44.3589   25.5585 H   0  0  0  0  0  0  0  0  0  0  0  0
    9.8290   40.7408   31.7624 H   0  0  0  0  0  0  0  0  0  0  0  0
   11.3950   41.5477   31.4741 H   0  0  0  0  0  0  0  0  0  0  0  0
   11.6982   39.5114   30.3500 H   0  0  0  0  0  0  0  0  0  0  0  0
   10.1117   38.2604   32.6660 H   0  0  0  0  0  0  0  0  0  0  0  0
   13.6767   37.4557   31.2267 H   0  0  0  0  0  0  0  0  0  0  0  0
    8.8960   38.6950   30.8872 H   0  0  0  0  0  0  0  0  0  0  0  0
   11.2791   36.3072   32.4922 H   0  0  0  0  0  0  0  0  0  0  0  0
   11.8828   36.9598   29.7589 H   0  0  0  0  0  0  0  0  0  0  0  0
   12.3300   38.3539   34.7446 H   0  0  0  0  0  0  0  0  0  0  0  0
   16.7561   34.1785   32.4622 H   0  0  0  0  0  0  0  0  0  0  0  0
   16.6347   34.5303   37.1416 H   0  0  0  0  0  0  0  0  0  0  0  0
   15.3531   35.7360   37.5140 H   0  0  0  0  0  0  0  0  0  0  0  0
  1  2  2  0
  1  3  1  0
  3  4  1  0
  4  5  1  0
  6  1  1  0
  7  6  1  0
  6  8  1  0
  8  9  1  0
  9 10  2  0
 11  9  1  0
 10 12  1  0
 13 11  2  0
 12 14  2  0
 14 13  1  0
 14 15  1  0
 15 16  1  0
 16 17  1  0
 17 18  2  0
 19 17  1  0
 18 20  1  0
 18 21  1  0
 22 19  2  0
 20 23  1  0
 20 24  2  0
 21 25  2  0
 25 22  1  0
  4 26  2  0
  4 27  1  0
 28 27  1  0
 28 29  1  0
 29 30  1  0
 29 31  1  0
 30 32  1  0
 31 33  1  0
 31 34  1  0
 34 32  1  0
 32 35  1  0
 34 36  1  0
 37 35  1  0
 38 35  1  0
 39 37  2  0
 37 40  1  0
 41 38  2  0
 42 39  1  0
 40 43  2  0
 40 41  1  0
 44 42  2  0
 44 43  1  0
 43 45  1  0
  6 46  1  1
  7 47  1  0
  7 48  1  0
  8 49  1  0
  8 50  1  0
 10 51  1  0
 11 52  1  0
 12 53  1  0
 13 54  1  0
 16 55  1  0
 16 56  1  0
 19 57  1  0
 21 58  1  0
 22 59  1  0
 25 60  1  0
 28 61  1  0
 28 62  1  0
 29 63  1  0
 31 64  1  0
 32 65  1  0
 33 66  1  0
 34 67  1  0
 36 68  1  0
 38 69  1  0
 42 70  1  0
 45 71  1  0
 45 72  1  0
M  CHG  3   5  -1  20   1  23  -1
M  END
>  <EmbedRMS>  (76) 
0.0818015385097

$$$$

     RDKit          3D

 72 76  0  0  0  0  0  0  0  0999 V2000
   10.2839   43.7627   33.8277 C   0  0  0  0  0  0  0  0  0  0  0  0
   11.4104   43.5864   34.3767 O   0  0  0  0  0  0  0  0  0  0  0  0
    9.3631   42.7236   33.7356 O   0  0  0  0  0  0  0  0  0  0  0  0
    9.8895   41.2250   34.2948 P   0  0  0  0  0  0  0  0  0  0  0  0
   10.3720   41.4547   35.8844 O   0  0  0  0  0  0  0  0  0  0  0  0
    9.9548   45.0700   33.2065 C   0  0  1  0  0  0  0  0  0  0  0  0
   11.0198   46.0481   33.4569 N   0  0  0  0  0  0  0  0  0  0  0  0
    9.7500   44.8509   31.6926 C   0  0  0  0  0  0  0  0  0  0  0  0
    8.7942   45.8420   31.0873 C   0  0  0  0  0  0  0  0  0  0  0  0
    7.4074   45.6006   31.0994 C   0  0  0  0  0  0  0  0  0  0  0  0
    9.2832   46.9888   30.4444 C   0  0  0  0  0  0  0  0  0  0  0  0
    6.5281   46.5012   30.4829 C   0  0  0  0  0  0  0  0  0  0  0  0
    8.4037   47.8892   29.8315 C   0  0  0  0  0  0  0  0  0  0  0  0
    7.0146   47.6533   29.8499 C   0  0  0  0  0  0  0  0  0  0  0  0
    6.0886   48.5261   29.2570 O   0  0  0  0  0  0  0  0  0  0  0  0
    6.3947   49.8111   28.7135 C   0  0  0  0  0  0  0  0  0  0  0  0
    6.7840   50.7827   29.8048 C   0  0  0  0  0  0  0  0  0  0  0  0
    5.9831   50.9829   30.9615 C   0  0  0  0  0  0  0  0  0  0  0  0
    7.9999   51.4804   29.6832 C   0  0  0  0  0  0  0  0  0  0  0  0
    4.7172   50.3199   31.1329 N   0  0  0  0  0  0  0  0  0  0  0  0
    6.4468   51.8420   31.9749 C   0  0  0  0  0  0  0  0  0  0  0  0
    8.4332   52.3397   30.6933 C   0  0  0  0  0  0  0  0  0  0  0  0
    3.8481   50.1831   30.0758 O   0  0  0  0  0  0  0  0  0  0  0  0
    4.3249   50.0067   32.2760 O   0  0  0  0  0  0  0  0  0  0  0  0
    7.6611   52.5157   31.8394 C   0  0  0  0  0  0  0  0  0  0  0  0
    8.8117   40.1832   34.2125 O   0  0  0  0  0  0  0  0  0  0  0  0
   11.2412   40.7939   33.3709 O   0  0  0  0  0  0  0  0  0  0  0  0
   10.9179   40.6920   31.9985 C   0  0  0  0  0  0  0  0  0  0  0  0
   11.5175   39.3837   31.4422 C   0  0  0  0  0  0  0  0  0  0  0  0
   12.7508   39.0887   32.0751 O   0  0  0  0  0  0  0  0  0  0  0  0
   10.6028   38.1915   31.6658 C   0  0  0  0  0  0  0  0  0  0  0  0
   12.9385   37.6818   32.0278 C   0  0  0  0  0  0  0  0  0  0  0  0
    9.6371   38.0805   30.6470 O   0  0  0  0  0  0  0  0  0  0  0  0
   11.5780   37.0215   31.6934 C   0  0  0  0  0  0  0  0  0  0  0  0
   13.4844   37.2119   33.3242 N   0  0  0  0  0  0  0  0  0  0  0  0
   11.6095   36.3201   30.4679 O   0  0  0  0  0  0  0  0  0  0  0  0
   14.4797   36.3318   33.5730 C   0  0  0  0  0  0  0  0  0  0  0  0
   13.1135   37.6278   34.5691 C   0  0  0  0  0  0  0  0  0  0  0  0
   15.2073   35.6155   32.6742 N   0  0  0  0  0  0  0  0  0  0  0  0
   14.6754   36.2305   34.9184 C   0  0  0  0  0  0  0  0  0  0  0  0
   13.8213   37.0452   35.5785 N   0  0  0  0  0  0  0  0  0  0  0  0
   16.1640   34.7604   33.1549 C   0  0  0  0  0  0  0  0  0  0  0  0
   15.6524   35.3507   35.4132 C   0  0  0  0  0  0  0  0  0  0  0  0
   16.3794   34.6318   34.5044 N   0  0  0  0  0  0  0  0  0  0  0  0
   15.8999   35.1934   36.8091 N   0  0  0  0  0  0  0  0  0  0  0  0
    9.0099   45.4349   33.6673 H   0  0  0  0  0  0  0  0  0  0  0  0
   11.1134   46.1995   34.4881 H   0  0  0  0  0  0  0  0  0  0  0  0
   11.9348   45.6933   33.0924 H   0  0  0  0  0  0  0  0  0  0  0  0
    9.3506   43.8344   31.4765 H   0  0  0  0  0  0  0  0  0  0  0  0
   10.7302   44.8921   31.1676 H   0  0  0  0  0  0  0  0  0  0  0  0
    7.0108   44.7154   31.5811 H   0  0  0  0  0  0  0  0  0  0  0  0
   10.3477   47.1863   30.4133 H   0  0  0  0  0  0  0  0  0  0  0  0
    5.4635   46.3050   30.5016 H   0  0  0  0  0  0  0  0  0  0  0  0
    8.8173   48.7570   29.3396 H   0  0  0  0  0  0  0  0  0  0  0  0
    5.4992   50.2010   28.1884 H   0  0  0  0  0  0  0  0  0  0  0  0
    7.1861   49.7102   27.9394 H   0  0  0  0  0  0  0  0  0  0  0  0
    8.6243   51.3501   28.8079 H   0  0  0  0  0  0  0  0  0  0  0  0
    5.8561   52.0039   32.8677 H   0  0  0  0  0  0  0  0  0  0  0  0
    9.3736   52.8655   30.5895 H   0  0  0  0  0  0  0  0  0  0  0  0
    8.0016   53.1796   32.6235 H   0  0  0  0  0  0  0  0  0  0  0  0
   11.3955   41.5477   31.4750 H   0  0  0  0  0  0  0  0  0  0  0  0
    9.8292   40.7409   31.7624 H   0  0  0  0  0  0  0  0  0  0  0  0
   11.6981   39.5116   30.3500 H   0  0  0  0  0  0  0  0  0  0  0  0
   10.1117   38.2603   32.6660 H   0  0  0  0  0  0  0  0  0  0  0  0
   13.6767   37.4555   31.2267 H   0  0  0  0  0  0  0  0  0  0  0  0
    8.8961   38.6951   30.8872 H   0  0  0  0  0  0  0  0  0  0  0  0
   11.2791   36.3072   32.4922 H   0  0  0  0  0  0  0  0  0  0  0  0
   11.8829   36.9598   29.7588 H   0  0  0  0  0  0  0  0  0  0  0  0
   12.3300   38.3538   34.7446 H   0  0  0  0  0  0  0  0  0  0  0  0
   16.7562   34.1785   32.4622 H   0  0  0  0  0  0  0  0  0  0  0  0
   16.6347   34.5303   37.1416 H   0  0  0  0  0  0  0  0  0  0  0  0
   15.3531   35.7360   37.5140 H   0  0  0  0  0  0  0  0  0  0  0  0
  1  2  2  0
  1  3  1  0
  3  4  1  0
  4  5  1  0
  6  1  1  0
  7  6  1  0
  6  8  1  0
  8  9  1  0
  9 10  2  0
 11  9  1  0
 10 12  1  0
 13 11  2  0
 12 14  2  0
 14 13  1  0
 14 15  1  0
 15 16  1  0
 16 17  1  0
 17 18  2  0
 19 17  1  0
 18 20  1  0
 18 21  1  0
 22 19  2  0
 20 23  1  0
 20 24  2  0
 21 25  2  0
 25 22  1  0
  4 26  2  0
  4 27  1  0
 28 27  1  0
 28 29  1  0
 29 30  1  0
 29 31  1  0
 30 32  1  0
 31 33  1  0
 31 34  1  0
 34 32  1  0
 32 35  1  0
 34 36  1  0
 37 35  1  0
 38 35  1  0
 39 37  2  0
 37 40  1  0
 41 38  2  0
 42 39  1  0
 40 43  2  0
 40 41  1  0
 44 42  2  0
 44 43  1  0
 43 45  1  0
  6 46  1  1
  7 47  1  0
  7 48  1  0
  8 49  1  0
  8 50  1  0
 10 51  1  0
 11 52  1  0
 12 53  1  0
 13 54  1  0
 16 55  1  0
 16 56  1  0
 19 57  1  0
 21 58  1  0
 22 59  1  0
 25 60  1  0
 28 61  1  0
 28 62  1  0
 29 63  1  0
 31 64  1  0
 32 65  1  0
 33 66  1  0
 34 67  1  0
 36 68  1  0
 38 69  1  0
 42 70  1  0
 45 71  1  0
 45 72  1  0
M  CHG  3   5  -1  20   1  23  -1
M  END
>  <EmbedRMS>  (77) 
0.0828733729987

$$$$

     RDKit          3D

 72 76  0  0  0  0  0  0  0  0999 V2000
   10.2834   43.7662   33.8256 C   0  0  0  0  0  0  0  0  0  0  0  0
   11.4101   43.5930   34.3752 O   0  0  0  0  0  0  0  0  0  0  0  0
    9.3635   42.7257   33.7352 O   0  0  0  0  0  0  0  0  0  0  0  0
    9.8899   41.2270   34.2947 P   0  0  0  0  0  0  0  0  0  0  0  0
   10.3732   41.4562   35.8841 O   0  0  0  0  0  0  0  0  0  0  0  0
    9.9548   45.0695   33.2034 C   0  0  1  0  0  0  0  0  0  0  0  0
   11.0274   46.0322   33.4758 N   0  0  0  0  0  0  0  0  0  0  0  0
    9.7471   44.8482   31.6874 C   0  0  0  0  0  0  0  0  0  0  0  0
    8.7926   45.8406   31.0839 C   0  0  0  0  0  0  0  0  0  0  0  0
    7.4058   45.6013   31.0999 C   0  0  0  0  0  0  0  0  0  0  0  0
    9.2817   46.9883   30.4426 C   0  0  0  0  0  0  0  0  0  0  0  0
    6.5244   46.5018   30.4861 C   0  0  0  0  0  0  0  0  0  0  0  0
    8.4003   47.8888   29.8334 C   0  0  0  0  0  0  0  0  0  0  0  0
    7.0189   47.6549   29.8436 C   0  0  0  0  0  0  0  0  0  0  0  0
    6.1831   48.5876   29.2090 O   0  0  0  0  0  0  0  0  0  0  0  0
    4.7802   48.4285   28.9931 C   0  0  0  0  0  0  0  0  0  0  0  0
    4.5079   47.3370   27.9821 C   0  0  0  0  0  0  0  0  0  0  0  0
    5.1327   47.3128   26.7048 C   0  0  0  0  0  0  0  0  0  0  0  0
    3.6330   46.2937   28.3373 C   0  0  0  0  0  0  0  0  0  0  0  0
    6.0165   48.3603   26.2653 N   0  0  0  0  0  0  0  0  0  0  0  0
    4.8947   46.2236   25.8477 C   0  0  0  0  0  0  0  0  0  0  0  0
    3.3988   45.2312   27.4642 C   0  0  0  0  0  0  0  0  0  0  0  0
    7.0394   48.0737   25.3906 O   0  0  0  0  0  0  0  0  0  0  0  0
    5.7719   49.5549   26.5304 O   0  0  0  0  0  0  0  0  0  0  0  0
    4.0330   45.1930   26.2245 C   0  0  0  0  0  0  0  0  0  0  0  0
    8.8120   40.1850   34.2132 O   0  0  0  0  0  0  0  0  0  0  0  0
   11.2403   40.7947   33.3700 O   0  0  0  0  0  0  0  0  0  0  0  0
   10.9144   40.6914   31.9982 C   0  0  0  0  0  0  0  0  0  0  0  0
   11.5270   39.3912   31.4385 C   0  0  0  0  0  0  0  0  0  0  0  0
   12.7520   39.0911   32.0836 O   0  0  0  0  0  0  0  0  0  0  0  0
   10.6113   38.1932   31.6451 C   0  0  0  0  0  0  0  0  0  0  0  0
   12.9413   37.6838   32.0297 C   0  0  0  0  0  0  0  0  0  0  0  0
    9.6064   38.0878   30.6599 O   0  0  0  0  0  0  0  0  0  0  0  0
   11.5821   37.0198   31.6877 C   0  0  0  0  0  0  0  0  0  0  0  0
   13.4840   37.2104   33.3254 N   0  0  0  0  0  0  0  0  0  0  0  0
   11.6179   36.3072   30.4690 O   0  0  0  0  0  0  0  0  0  0  0  0
   14.4797   36.3309   33.5738 C   0  0  0  0  0  0  0  0  0  0  0  0
   13.1136   37.6269   34.5702 C   0  0  0  0  0  0  0  0  0  0  0  0
   15.2074   35.6152   32.6747 N   0  0  0  0  0  0  0  0  0  0  0  0
   14.6756   36.2298   34.9190 C   0  0  0  0  0  0  0  0  0  0  0  0
   13.8217   37.0446   35.5793 N   0  0  0  0  0  0  0  0  0  0  0  0
   16.1643   34.7603   33.1551 C   0  0  0  0  0  0  0  0  0  0  0  0
   15.6528   35.3503   35.4136 C   0  0  0  0  0  0  0  0  0  0  0  0
   16.3798   34.6316   34.5046 N   0  0  0  0  0  0  0  0  0  0  0  0
   15.9004   35.1930   36.8094 N   0  0  0  0  0  0  0  0  0  0  0  0
    9.0121   45.4318   33.6710 H   0  0  0  0  0  0  0  0  0  0  0  0
   11.8908   45.7658   32.9474 H   0  0  0  0  0  0  0  0  0  0  0  0
   10.7261   46.9688   33.1213 H   0  0  0  0  0  0  0  0  0  0  0  0
   10.7236   44.8822   31.1556 H   0  0  0  0  0  0  0  0  0  0  0  0
    9.3425   43.8330   31.4757 H   0  0  0  0  0  0  0  0  0  0  0  0
    7.0098   44.7175   31.5849 H   0  0  0  0  0  0  0  0  0  0  0  0
   10.3459   47.1868   30.4110 H   0  0  0  0  0  0  0  0  0  0  0  0
    5.4658   46.2930   30.5259 H   0  0  0  0  0  0  0  0  0  0  0  0
    8.7936   48.7701   29.3426 H   0  0  0  0  0  0  0  0  0  0  0  0
    4.3661   49.3836   28.6102 H   0  0  0  0  0  0  0  0  0  0  0  0
    4.2718   48.2390   29.9633 H   0  0  0  0  0  0  0  0  0  0  0  0
    3.1382   46.2938   29.3007 H   0  0  0  0  0  0  0  0  0  0  0  0
    5.3654   46.1805   24.8737 H   0  0  0  0  0  0  0  0  0  0  0  0
    2.7283   44.4319   27.7528 H   0  0  0  0  0  0  0  0  0  0  0  0
    3.8528   44.3652   25.5508 H   0  0  0  0  0  0  0  0  0  0  0  0
   11.3776   41.5549   31.4744 H   0  0  0  0  0  0  0  0  0  0  0  0
    9.8234   40.7201   31.7654 H   0  0  0  0  0  0  0  0  0  0  0  0
   11.7312   39.5362   30.3532 H   0  0  0  0  0  0  0  0  0  0  0  0
   10.1202   38.2697   32.6410 H   0  0  0  0  0  0  0  0  0  0  0  0
   13.6850   37.4638   31.2321 H   0  0  0  0  0  0  0  0  0  0  0  0
   10.0250   38.1793   29.7654 H   0  0  0  0  0  0  0  0  0  0  0  0
   11.2757   36.3135   32.4908 H   0  0  0  0  0  0  0  0  0  0  0  0
   11.9838   36.9111   29.7708 H   0  0  0  0  0  0  0  0  0  0  0  0
   12.3307   38.3536   34.7457 H   0  0  0  0  0  0  0  0  0  0  0  0
   16.7566   34.1787   32.4623 H   0  0  0  0  0  0  0  0  0  0  0  0
   15.3535   35.7355   37.5144 H   0  0  0  0  0  0  0  0  0  0  0  0
   16.6353   34.5301   37.1419 H   0  0  0  0  0  0  0  0  0  0  0  0
  1  2  2  0
  1  3  1  0
  3  4  1  0
  4  5  1  0
  6  1  1  0
  7  6  1  0
  6  8  1  0
  8  9  1  0
  9 10  2  0
 11  9  1  0
 10 12  1  0
 13 11  2  0
 12 14  2  0
 14 13  1  0
 14 15  1  0
 15 16  1  0
 16 17  1  0
 17 18  2  0
 19 17  1  0
 18 20  1  0
 18 21  1  0
 22 19  2  0
 20 23  1  0
 20 24  2  0
 21 25  2  0
 25 22  1  0
  4 26  2  0
  4 27  1  0
 28 27  1  0
 28 29  1  0
 29 30  1  0
 29 31  1  0
 30 32  1  0
 31 33  1  0
 31 34  1  0
 34 32  1  0
 32 35  1  0
 34 36  1  0
 37 35  1  0
 38 35  1  0
 39 37  2  0
 37 40  1  0
 41 38  2  0
 42 39  1  0
 40 43  2  0
 40 41  1  0
 44 42  2  0
 44 43  1  0
 43 45  1  0
  6 46  1  1
  7 47  1  0
  7 48  1  0
  8 49  1  0
  8 50  1  0
 10 51  1  0
 11 52  1  0
 12 53  1  0
 13 54  1  0
 16 55  1  0
 16 56  1  0
 19 57  1  0
 21 58  1  0
 22 59  1  0
 25 60  1  0
 28 61  1  0
 28 62  1  0
 29 63  1  0
 31 64  1  0
 32 65  1  0
 33 66  1  0
 34 67  1  0
 36 68  1  0
 38 69  1  0
 42 70  1  0
 45 71  1  0
 45 72  1  0
M  CHG  3   5  -1  20   1  23  -1
M  END
>  <EmbedRMS>  (78) 
0.0808347786473

$$$$

     RDKit          3D

 72 76  0  0  0  0  0  0  0  0999 V2000
   10.2839   43.7626   33.8277 C   0  0  0  0  0  0  0  0  0  0  0  0
   11.4104   43.5863   34.3767 O   0  0  0  0  0  0  0  0  0  0  0  0
    9.3631   42.7236   33.7353 O   0  0  0  0  0  0  0  0  0  0  0  0
    9.8898   41.2247   34.2935 P   0  0  0  0  0  0  0  0  0  0  0  0
   10.3735   41.4542   35.8829 O   0  0  0  0  0  0  0  0  0  0  0  0
    9.9548   45.0700   33.2067 C   0  0  1  0  0  0  0  0  0  0  0  0
   11.0199   46.0481   33.4570 N   0  0  0  0  0  0  0  0  0  0  0  0
    9.7500   44.8511   31.6928 C   0  0  0  0  0  0  0  0  0  0  0  0
    8.7941   45.8423   31.0880 C   0  0  0  0  0  0  0  0  0  0  0  0
    7.4075   45.6005   31.0992 C   0  0  0  0  0  0  0  0  0  0  0  0
    9.2830   46.9885   30.4439 C   0  0  0  0  0  0  0  0  0  0  0  0
    6.5285   46.5008   30.4819 C   0  0  0  0  0  0  0  0  0  0  0  0
    8.4033   47.8885   29.8304 C   0  0  0  0  0  0  0  0  0  0  0  0
    7.0146   47.6546   29.8514 C   0  0  0  0  0  0  0  0  0  0  0  0
    6.0871   48.5241   29.2563 O   0  0  0  0  0  0  0  0  0  0  0  0
    6.3467   49.8656   28.8392 C   0  0  0  0  0  0  0  0  0  0  0  0
    6.5330   50.7759   30.0328 C   0  0  0  0  0  0  0  0  0  0  0  0
    5.4524   51.1581   30.8790 C   0  0  0  0  0  0  0  0  0  0  0  0
    7.8139   51.3067   30.2780 C   0  0  0  0  0  0  0  0  0  0  0  0
    4.0983   50.7190   30.6528 N   0  0  0  0  0  0  0  0  0  0  0  0
    5.7020   52.0388   31.9477 C   0  0  0  0  0  0  0  0  0  0  0  0
    8.0376   52.1691   31.3508 C   0  0  0  0  0  0  0  0  0  0  0  0
    3.0460   51.5104   31.0531 O   0  0  0  0  0  0  0  0  0  0  0  0
    3.8526   49.5716   30.2307 O   0  0  0  0  0  0  0  0  0  0  0  0
    6.9848   52.5316   32.1860 C   0  0  0  0  0  0  0  0  0  0  0  0
    8.8115   40.1834   34.2126 O   0  0  0  0  0  0  0  0  0  0  0  0
   11.2402   40.7936   33.3673 O   0  0  0  0  0  0  0  0  0  0  0  0
   10.9134   40.6864   31.9955 C   0  0  0  0  0  0  0  0  0  0  0  0
   11.5166   39.3786   31.4404 C   0  0  0  0  0  0  0  0  0  0  0  0
   12.7486   39.0848   32.0734 O   0  0  0  0  0  0  0  0  0  0  0  0
   10.6039   38.1883   31.6669 C   0  0  0  0  0  0  0  0  0  0  0  0
   12.9329   37.6775   32.0284 C   0  0  0  0  0  0  0  0  0  0  0  0
    9.6373   38.0938   30.6484 O   0  0  0  0  0  0  0  0  0  0  0  0
   11.5737   37.0140   31.7055 C   0  0  0  0  0  0  0  0  0  0  0  0
   13.4853   37.2120   33.3238 N   0  0  0  0  0  0  0  0  0  0  0  0
   11.6210   36.3379   30.4683 O   0  0  0  0  0  0  0  0  0  0  0  0
   14.4804   36.3319   33.5726 C   0  0  0  0  0  0  0  0  0  0  0  0
   13.1141   37.6275   34.5689 C   0  0  0  0  0  0  0  0  0  0  0  0
   15.2076   35.6152   32.6740 N   0  0  0  0  0  0  0  0  0  0  0  0
   14.6761   36.2307   34.9181 C   0  0  0  0  0  0  0  0  0  0  0  0
   13.8218   37.0451   35.5783 N   0  0  0  0  0  0  0  0  0  0  0  0
   16.1642   34.7600   33.1548 C   0  0  0  0  0  0  0  0  0  0  0  0
   15.6528   35.3507   35.4131 C   0  0  0  0  0  0  0  0  0  0  0  0
   16.3795   34.6315   34.5043 N   0  0  0  0  0  0  0  0  0  0  0  0
   15.9000   35.1933   36.8090 N   0  0  0  0  0  0  0  0  0  0  0  0
    9.0100   45.4349   33.6676 H   0  0  0  0  0  0  0  0  0  0  0  0
   11.1136   46.1993   34.4883 H   0  0  0  0  0  0  0  0  0  0  0  0
   11.9349   45.6933   33.0925 H   0  0  0  0  0  0  0  0  0  0  0  0
   10.7302   44.8925   31.1678 H   0  0  0  0  0  0  0  0  0  0  0  0
    9.3506   43.8346   31.4766 H   0  0  0  0  0  0  0  0  0  0  0  0
    7.0108   44.7149   31.5802 H   0  0  0  0  0  0  0  0  0  0  0  0
   10.3478   47.1839   30.4092 H   0  0  0  0  0  0  0  0  0  0  0  0
    5.4641   46.3037   30.4992 H   0  0  0  0  0  0  0  0  0  0  0  0
    8.8190   48.7456   29.3250 H   0  0  0  0  0  0  0  0  0  0  0  0
    7.2222   49.8867   28.1556 H   0  0  0  0  0  0  0  0  0  0  0  0
    5.4860   50.2296   28.2400 H   0  0  0  0  0  0  0  0  0  0  0  0
    8.6465   51.0632   29.6310 H   0  0  0  0  0  0  0  0  0  0  0  0
    4.8984   52.3420   32.6067 H   0  0  0  0  0  0  0  0  0  0  0  0
    9.0295   52.5638   31.5296 H   0  0  0  0  0  0  0  0  0  0  0  0
    7.1603   53.2043   33.0157 H   0  0  0  0  0  0  0  0  0  0  0  0
   11.3831   41.5437   31.4675 H   0  0  0  0  0  0  0  0  0  0  0  0
    9.8226   40.7225   31.7629 H   0  0  0  0  0  0  0  0  0  0  0  0
   11.6978   39.5037   30.3478 H   0  0  0  0  0  0  0  0  0  0  0  0
   10.1084   38.2785   32.6626 H   0  0  0  0  0  0  0  0  0  0  0  0
   13.6638   37.4471   31.2214 H   0  0  0  0  0  0  0  0  0  0  0  0
    8.9763   37.4190   30.9531 H   0  0  0  0  0  0  0  0  0  0  0  0
   11.2821   36.3053   32.5171 H   0  0  0  0  0  0  0  0  0  0  0  0
   10.8658   35.6935   30.4652 H   0  0  0  0  0  0  0  0  0  0  0  0
   12.3293   38.3523   34.7444 H   0  0  0  0  0  0  0  0  0  0  0  0
   16.7561   34.1778   32.4621 H   0  0  0  0  0  0  0  0  0  0  0  0
   16.6345   34.5300   37.1416 H   0  0  0  0  0  0  0  0  0  0  0  0
   15.3533   35.7361   37.5138 H   0  0  0  0  0  0  0  0  0  0  0  0
  1  2  2  0
  1  3  1  0
  3  4  1  0
  4  5  1  0
  6  1  1  0
  7  6  1  0
  6  8  1  0
  8  9  1  0
  9 10  2  0
 11  9  1  0
 10 12  1  0
 13 11  2  0
 12 14  2  0
 14 13  1  0
 14 15  1  0
 15 16  1  0
 16 17  1  0
 17 18  2  0
 19 17  1  0
 18 20  1  0
 18 21  1  0
 22 19  2  0
 20 23  1  0
 20 24  2  0
 21 25  2  0
 25 22  1  0
  4 26  2  0
  4 27  1  0
 28 27  1  0
 28 29  1  0
 29 30  1  0
 29 31  1  0
 30 32  1  0
 31 33  1  0
 31 34  1  0
 34 32  1  0
 32 35  1  0
 34 36  1  0
 37 35  1  0
 38 35  1  0
 39 37  2  0
 37 40  1  0
 41 38  2  0
 42 39  1  0
 40 43  2  0
 40 41  1  0
 44 42  2  0
 44 43  1  0
 43 45  1  0
  6 46  1  1
  7 47  1  0
  7 48  1  0
  8 49  1  0
  8 50  1  0
 10 51  1  0
 11 52  1  0
 12 53  1  0
 13 54  1  0
 16 55  1  0
 16 56  1  0
 19 57  1  0
 21 58  1  0
 22 59  1  0
 25 60  1  0
 28 61  1  0
 28 62  1  0
 29 63  1  0
 31 64  1  0
 32 65  1  0
 33 66  1  0
 34 67  1  0
 36 68  1  0
 38 69  1  0
 42 70  1  0
 45 71  1  0
 45 72  1  0
M  CHG  3   5  -1  20   1  23  -1
M  END
>  <EmbedRMS>  (79) 
0.0834391247195

$$$$

     RDKit          3D

 72 76  0  0  0  0  0  0  0  0999 V2000
   10.2804   43.7664   33.8250 C   0  0  0  0  0  0  0  0  0  0  0  0
   11.4110   43.5919   34.3667 O   0  0  0  0  0  0  0  0  0  0  0  0
    9.3619   42.7249   33.7344 O   0  0  0  0  0  0  0  0  0  0  0  0
    9.8903   41.2265   34.2931 P   0  0  0  0  0  0  0  0  0  0  0  0
   10.3742   41.4563   35.8824 O   0  0  0  0  0  0  0  0  0  0  0  0
    9.9459   45.0736   33.2112 C   0  0  1  0  0  0  0  0  0  0  0  0
   11.0267   46.0291   33.4706 N   0  0  0  0  0  0  0  0  0  0  0  0
    9.7535   44.8539   31.6950 C   0  0  0  0  0  0  0  0  0  0  0  0
    8.7955   45.8412   31.0848 C   0  0  0  0  0  0  0  0  0  0  0  0
    7.4085   45.6005   31.1007 C   0  0  0  0  0  0  0  0  0  0  0  0
    9.2831   46.9879   30.4397 C   0  0  0  0  0  0  0  0  0  0  0  0
    6.5278   46.5009   30.4853 C   0  0  0  0  0  0  0  0  0  0  0  0
    8.4024   47.8893   29.8301 C   0  0  0  0  0  0  0  0  0  0  0  0
    7.0139   47.6509   29.8482 C   0  0  0  0  0  0  0  0  0  0  0  0
    6.0914   48.5225   29.2515 O   0  0  0  0  0  0  0  0  0  0  0  0
    6.4401   49.7313   28.5823 C   0  0  0  0  0  0  0  0  0  0  0  0
    5.1876   50.4121   28.0960 C   0  0  0  0  0  0  0  0  0  0  0  0
    4.4080   51.2523   28.9354 C   0  0  0  0  0  0  0  0  0  0  0  0
    4.7980   50.2245   26.7573 C   0  0  0  0  0  0  0  0  0  0  0  0
    4.7410   51.4640   30.3200 N   0  0  0  0  0  0  0  0  0  0  0  0
    3.2847   51.9056   28.3946 C   0  0  0  0  0  0  0  0  0  0  0  0
    3.6715   50.8698   26.2461 C   0  0  0  0  0  0  0  0  0  0  0  0
    5.1917   50.4256   31.1011 O   0  0  0  0  0  0  0  0  0  0  0  0
    4.4678   52.5513   30.8696 O   0  0  0  0  0  0  0  0  0  0  0  0
    2.9194   51.7128   27.0616 C   0  0  0  0  0  0  0  0  0  0  0  0
    8.8124   40.1844   34.2130 O   0  0  0  0  0  0  0  0  0  0  0  0
   11.2405   40.7948   33.3669 O   0  0  0  0  0  0  0  0  0  0  0  0
   10.9133   40.6866   31.9953 C   0  0  0  0  0  0  0  0  0  0  0  0
   11.5166   39.3787   31.4404 C   0  0  0  0  0  0  0  0  0  0  0  0
   12.7485   39.0849   32.0735 O   0  0  0  0  0  0  0  0  0  0  0  0
   10.6039   38.1884   31.6669 C   0  0  0  0  0  0  0  0  0  0  0  0
   12.9329   37.6776   32.0284 C   0  0  0  0  0  0  0  0  0  0  0  0
    9.6373   38.0938   30.6484 O   0  0  0  0  0  0  0  0  0  0  0  0
   11.5737   37.0140   31.7055 C   0  0  0  0  0  0  0  0  0  0  0  0
   13.4853   37.2120   33.3238 N   0  0  0  0  0  0  0  0  0  0  0  0
   11.6210   36.3379   30.4683 O   0  0  0  0  0  0  0  0  0  0  0  0
   14.4804   36.3319   33.5726 C   0  0  0  0  0  0  0  0  0  0  0  0
   13.1141   37.6275   34.5689 C   0  0  0  0  0  0  0  0  0  0  0  0
   15.2076   35.6152   32.6740 N   0  0  0  0  0  0  0  0  0  0  0  0
   14.6761   36.2306   34.9181 C   0  0  0  0  0  0  0  0  0  0  0  0
   13.8218   37.0451   35.5783 N   0  0  0  0  0  0  0  0  0  0  0  0
   16.1642   34.7600   33.1548 C   0  0  0  0  0  0  0  0  0  0  0  0
   15.6528   35.3507   35.4131 C   0  0  0  0  0  0  0  0  0  0  0  0
   16.3795   34.6315   34.5043 N   0  0  0  0  0  0  0  0  0  0  0  0
   15.9001   35.1933   36.8090 N   0  0  0  0  0  0  0  0  0  0  0  0
    8.9995   45.4382   33.6724 H   0  0  0  0  0  0  0  0  0  0  0  0
   11.0504   46.2277   34.4980 H   0  0  0  0  0  0  0  0  0  0  0  0
   10.7764   46.9368   33.0157 H   0  0  0  0  0  0  0  0  0  0  0  0
    9.3635   43.8353   31.4715 H   0  0  0  0  0  0  0  0  0  0  0  0
   10.7406   44.9070   31.1835 H   0  0  0  0  0  0  0  0  0  0  0  0
    7.0130   44.7162   31.5851 H   0  0  0  0  0  0  0  0  0  0  0  0
   10.3474   47.1862   30.4062 H   0  0  0  0  0  0  0  0  0  0  0  0
    5.4634   46.3044   30.5052 H   0  0  0  0  0  0  0  0  0  0  0  0
    8.8122   48.7643   29.3446 H   0  0  0  0  0  0  0  0  0  0  0  0
    7.0025   50.4065   29.2625 H   0  0  0  0  0  0  0  0  0  0  0  0
    7.1075   49.4941   27.7248 H   0  0  0  0  0  0  0  0  0  0  0  0
    5.3725   49.5802   26.1029 H   0  0  0  0  0  0  0  0  0  0  0  0
    2.6782   52.5546   29.0136 H   0  0  0  0  0  0  0  0  0  0  0  0
    3.3841   50.7194   25.2135 H   0  0  0  0  0  0  0  0  0  0  0  0
    2.0480   52.2151   26.6616 H   0  0  0  0  0  0  0  0  0  0  0  0
   11.3826   41.5437   31.4666 H   0  0  0  0  0  0  0  0  0  0  0  0
    9.8224   40.7224   31.7629 H   0  0  0  0  0  0  0  0  0  0  0  0
   11.6979   39.5036   30.3478 H   0  0  0  0  0  0  0  0  0  0  0  0
   10.1084   38.2786   32.6627 H   0  0  0  0  0  0  0  0  0  0  0  0
   13.6638   37.4473   31.2214 H   0  0  0  0  0  0  0  0  0  0  0  0
    8.9763   37.4190   30.9532 H   0  0  0  0  0  0  0  0  0  0  0  0
   11.2821   36.3054   32.5172 H   0  0  0  0  0  0  0  0  0  0  0  0
   10.8658   35.6935   30.4652 H   0  0  0  0  0  0  0  0  0  0  0  0
   12.3293   38.3523   34.7445 H   0  0  0  0  0  0  0  0  0  0  0  0
   16.7561   34.1778   32.4621 H   0  0  0  0  0  0  0  0  0  0  0  0
   15.3533   35.7361   37.5138 H   0  0  0  0  0  0  0  0  0  0  0  0
   16.6345   34.5300   37.1416 H   0  0  0  0  0  0  0  0  0  0  0  0
  1  2  2  0
  1  3  1  0
  3  4  1  0
  4  5  1  0
  6  1  1  0
  7  6  1  0
  6  8  1  0
  8  9  1  0
  9 10  2  0
 11  9  1  0
 10 12  1  0
 13 11  2  0
 12 14  2  0
 14 13  1  0
 14 15  1  0
 15 16  1  0
 16 17  1  0
 17 18  2  0
 19 17  1  0
 18 20  1  0
 18 21  1  0
 22 19  2  0
 20 23  1  0
 20 24  2  0
 21 25  2  0
 25 22  1  0
  4 26  2  0
  4 27  1  0
 28 27  1  0
 28 29  1  0
 29 30  1  0
 29 31  1  0
 30 32  1  0
 31 33  1  0
 31 34  1  0
 34 32  1  0
 32 35  1  0
 34 36  1  0
 37 35  1  0
 38 35  1  0
 39 37  2  0
 37 40  1  0
 41 38  2  0
 42 39  1  0
 40 43  2  0
 40 41  1  0
 44 42  2  0
 44 43  1  0
 43 45  1  0
  6 46  1  1
  7 47  1  0
  7 48  1  0
  8 49  1  0
  8 50  1  0
 10 51  1  0
 11 52  1  0
 12 53  1  0
 13 54  1  0
 16 55  1  0
 16 56  1  0
 19 57  1  0
 21 58  1  0
 22 59  1  0
 25 60  1  0
 28 61  1  0
 28 62  1  0
 29 63  1  0
 31 64  1  0
 32 65  1  0
 33 66  1  0
 34 67  1  0
 36 68  1  0
 38 69  1  0
 42 70  1  0
 45 71  1  0
 45 72  1  0
M  CHG  3   5  -1  20   1  23  -1
M  END
>  <EmbedRMS>  (80) 
0.0823850158282

$$$$

     RDKit          3D

 72 76  0  0  0  0  0  0  0  0999 V2000
   10.2804   43.7665   33.8250 C   0  0  0  0  0  0  0  0  0  0  0  0
   11.4111   43.5918   34.3666 O   0  0  0  0  0  0  0  0  0  0  0  0
    9.3616   42.7252   33.7348 O   0  0  0  0  0  0  0  0  0  0  0  0
    9.8898   41.2268   34.2939 P   0  0  0  0  0  0  0  0  0  0  0  0
   10.3738   41.4566   35.8831 O   0  0  0  0  0  0  0  0  0  0  0  0
    9.9460   45.0737   33.2113 C   0  0  1  0  0  0  0  0  0  0  0  0
   11.0268   46.0292   33.4709 N   0  0  0  0  0  0  0  0  0  0  0  0
    9.7539   44.8543   31.6950 C   0  0  0  0  0  0  0  0  0  0  0  0
    8.7955   45.8415   31.0853 C   0  0  0  0  0  0  0  0  0  0  0  0
    7.4088   45.5998   31.1009 C   0  0  0  0  0  0  0  0  0  0  0  0
    9.2823   46.9880   30.4396 C   0  0  0  0  0  0  0  0  0  0  0  0
    6.5258   46.4985   30.4861 C   0  0  0  0  0  0  0  0  0  0  0  0
    8.3998   47.8871   29.8302 C   0  0  0  0  0  0  0  0  0  0  0  0
    7.0183   47.6552   29.8470 C   0  0  0  0  0  0  0  0  0  0  0  0
    6.1788   48.5857   29.2106 O   0  0  0  0  0  0  0  0  0  0  0  0
    4.7495   48.5468   29.2197 C   0  0  0  0  0  0  0  0  0  0  0  0
    4.1666   47.5773   28.2056 C   0  0  0  0  0  0  0  0  0  0  0  0
    2.7592   47.4783   28.0271 C   0  0  0  0  0  0  0  0  0  0  0  0
    5.0105   46.8118   27.3711 C   0  0  0  0  0  0  0  0  0  0  0  0
    1.8385   48.2585   28.8107 N   0  0  0  0  0  0  0  0  0  0  0  0
    2.2467   46.6214   27.0363 C   0  0  0  0  0  0  0  0  0  0  0  0
    4.4785   45.9570   26.4053 C   0  0  0  0  0  0  0  0  0  0  0  0
    1.9825   48.3517   30.1750 O   0  0  0  0  0  0  0  0  0  0  0  0
    0.7944   48.6999   28.2874 O   0  0  0  0  0  0  0  0  0  0  0  0
    3.1001   45.8613   26.2385 C   0  0  0  0  0  0  0  0  0  0  0  0
    8.8122   40.1845   34.2134 O   0  0  0  0  0  0  0  0  0  0  0  0
   11.2400   40.7955   33.3680 O   0  0  0  0  0  0  0  0  0  0  0  0
   10.9125   40.6876   31.9967 C   0  0  0  0  0  0  0  0  0  0  0  0
   11.5171   39.3810   31.4423 C   0  0  0  0  0  0  0  0  0  0  0  0
   12.7500   39.0880   32.0766 O   0  0  0  0  0  0  0  0  0  0  0  0
   10.6043   38.1892   31.6660 C   0  0  0  0  0  0  0  0  0  0  0  0
   12.9396   37.6813   32.0286 C   0  0  0  0  0  0  0  0  0  0  0  0
    9.6355   38.0951   30.6499 O   0  0  0  0  0  0  0  0  0  0  0  0
   11.5804   37.0190   31.6937 C   0  0  0  0  0  0  0  0  0  0  0  0
   13.4854   37.2115   33.3251 N   0  0  0  0  0  0  0  0  0  0  0  0
   11.6120   36.3189   30.4676 O   0  0  0  0  0  0  0  0  0  0  0  0
   14.4805   36.3312   33.5733 C   0  0  0  0  0  0  0  0  0  0  0  0
   13.1149   37.6268   34.5704 C   0  0  0  0  0  0  0  0  0  0  0  0
   15.2077   35.6152   32.6739 N   0  0  0  0  0  0  0  0  0  0  0  0
   14.6767   36.2293   34.9186 C   0  0  0  0  0  0  0  0  0  0  0  0
   13.8231   37.0437   35.5796 N   0  0  0  0  0  0  0  0  0  0  0  0
   16.1646   34.7598   33.1539 C   0  0  0  0  0  0  0  0  0  0  0  0
   15.6529   35.3502   35.4119 C   0  0  0  0  0  0  0  0  0  0  0  0
   16.3804   34.6307   34.5031 N   0  0  0  0  0  0  0  0  0  0  0  0
   15.8934   35.1994   36.8087 N   0  0  0  0  0  0  0  0  0  0  0  0
    8.9996   45.4383   33.6723 H   0  0  0  0  0  0  0  0  0  0  0  0
   10.7766   46.9369   33.0159 H   0  0  0  0  0  0  0  0  0  0  0  0
   11.0504   46.2277   34.4983 H   0  0  0  0  0  0  0  0  0  0  0  0
    9.3644   43.8356   31.4711 H   0  0  0  0  0  0  0  0  0  0  0  0
   10.7410   44.9081   31.1835 H   0  0  0  0  0  0  0  0  0  0  0  0
    7.0151   44.7130   31.5823 H   0  0  0  0  0  0  0  0  0  0  0  0
   10.3463   47.1874   30.4047 H   0  0  0  0  0  0  0  0  0  0  0  0
    5.4683   46.2754   30.5039 H   0  0  0  0  0  0  0  0  0  0  0  0
    8.7920   48.7677   29.3373 H   0  0  0  0  0  0  0  0  0  0  0  0
    4.3824   49.5651   28.9727 H   0  0  0  0  0  0  0  0  0  0  0  0
    4.4016   48.3070   30.2447 H   0  0  0  0  0  0  0  0  0  0  0  0
    6.0866   46.8760   27.4449 H   0  0  0  0  0  0  0  0  0  0  0  0
    1.1774   46.5350   26.8887 H   0  0  0  0  0  0  0  0  0  0  0  0
    5.1394   45.3742   25.7765 H   0  0  0  0  0  0  0  0  0  0  0  0
    2.6912   45.2012   25.4843 H   0  0  0  0  0  0  0  0  0  0  0  0
   11.3807   41.5455   31.4682 H   0  0  0  0  0  0  0  0  0  0  0  0
    9.8215   40.7220   31.7644 H   0  0  0  0  0  0  0  0  0  0  0  0
   11.6990   39.5086   30.3501 H   0  0  0  0  0  0  0  0  0  0  0  0
   10.1108   38.2737   32.6631 H   0  0  0  0  0  0  0  0  0  0  0  0
   13.6783   37.4562   31.2277 H   0  0  0  0  0  0  0  0  0  0  0  0
    9.0021   37.3859   30.9348 H   0  0  0  0  0  0  0  0  0  0  0  0
   11.2807   36.3052   32.4924 H   0  0  0  0  0  0  0  0  0  0  0  0
   11.8823   36.9599   29.7588 H   0  0  0  0  0  0  0  0  0  0  0  0
   12.3314   38.3529   34.7464 H   0  0  0  0  0  0  0  0  0  0  0  0
   16.7564   34.1782   32.4607 H   0  0  0  0  0  0  0  0  0  0  0  0
   16.6243   34.5406   37.1578 H   0  0  0  0  0  0  0  0  0  0  0  0
   16.6242   34.5407   37.1581 H   0  0  0  0  0  0  0  0  0  0  0  0
  1  2  2  0
  1  3  1  0
  3  4  1  0
  4  5  1  0
  6  1  1  0
  7  6  1  0
  6  8  1  0
  8  9  1  0
  9 10  2  0
 11  9  1  0
 10 12  1  0
 13 11  2  0
 12 14  2  0
 14 13  1  0
 14 15  1  0
 15 16  1  0
 16 17  1  0
 17 18  2  0
 19 17  1  0
 18 20  1  0
 18 21  1  0
 22 19  2  0
 20 23  1  0
 20 24  2  0
 21 25  2  0
 25 22  1  0
  4 26  2  0
  4 27  1  0
 28 27  1  0
 28 29  1  0
 29 30  1  0
 29 31  1  0
 30 32  1  0
 31 33  1  0
 31 34  1  0
 34 32  1  0
 32 35  1  0
 34 36  1  0
 37 35  1  0
 38 35  1  0
 39 37  2  0
 37 40  1  0
 41 38  2  0
 42 39  1  0
 40 43  2  0
 40 41  1  0
 44 42  2  0
 44 43  1  0
 43 45  1  0
  6 46  1  1
  7 47  1  0
  7 48  1  0
  8 49  1  0
  8 50  1  0
 10 51  1  0
 11 52  1  0
 12 53  1  0
 13 54  1  0
 16 55  1  0
 16 56  1  0
 19 57  1  0
 21 58  1  0
 22 59  1  0
 25 60  1  0
 28 61  1  0
 28 62  1  0
 29 63  1  0
 31 64  1  0
 32 65  1  0
 33 66  1  0
 34 67  1  0
 36 68  1  0
 38 69  1  0
 42 70  1  0
 45 71  1  0
 45 72  1  0
M  CHG  3   5  -1  20   1  23  -1
M  END
>  <EmbedRMS>  (81) 
0.0815908974369

$$$$

     RDKit          3D

 72 76  0  0  0  0  0  0  0  0999 V2000
   10.2834   43.7662   33.8257 C   0  0  0  0  0  0  0  0  0  0  0  0
   11.4102   43.5930   34.3752 O   0  0  0  0  0  0  0  0  0  0  0  0
    9.3636   42.7255   33.7349 O   0  0  0  0  0  0  0  0  0  0  0  0
    9.8905   41.2266   34.2934 P   0  0  0  0  0  0  0  0  0  0  0  0
   10.3744   41.4557   35.8827 O   0  0  0  0  0  0  0  0  0  0  0  0
    9.9546   45.0695   33.2036 C   0  0  1  0  0  0  0  0  0  0  0  0
   11.0274   46.0321   33.4756 N   0  0  0  0  0  0  0  0  0  0  0  0
    9.7465   44.8481   31.6877 C   0  0  0  0  0  0  0  0  0  0  0  0
    8.7923   45.8409   31.0844 C   0  0  0  0  0  0  0  0  0  0  0  0
    7.4054   45.6016   31.0991 C   0  0  0  0  0  0  0  0  0  0  0  0
    9.2824   46.9880   30.4423 C   0  0  0  0  0  0  0  0  0  0  0  0
    6.5264   46.5032   30.4840 C   0  0  0  0  0  0  0  0  0  0  0  0
    8.4032   47.8902   29.8316 C   0  0  0  0  0  0  0  0  0  0  0  0
    7.0144   47.6525   29.8473 C   0  0  0  0  0  0  0  0  0  0  0  0
    6.0937   48.5230   29.2466 O   0  0  0  0  0  0  0  0  0  0  0  0
    6.4460   49.7157   28.5494 C   0  0  0  0  0  0  0  0  0  0  0  0
    5.2017   50.3639   27.9946 C   0  0  0  0  0  0  0  0  0  0  0  0
    4.3147   49.6771   27.1191 C   0  0  0  0  0  0  0  0  0  0  0  0
    4.8919   51.6781   28.3924 C   0  0  0  0  0  0  0  0  0  0  0  0
    4.5681   48.3329   26.6686 N   0  0  0  0  0  0  0  0  0  0  0  0
    3.1381   50.3212   26.6957 C   0  0  0  0  0  0  0  0  0  0  0  0
    3.7264   52.3022   27.9467 C   0  0  0  0  0  0  0  0  0  0  0  0
    3.5150   47.5021   26.3616 O   0  0  0  0  0  0  0  0  0  0  0  0
    5.7260   47.9555   26.3970 O   0  0  0  0  0  0  0  0  0  0  0  0
    2.8496   51.6240   27.1033 C   0  0  0  0  0  0  0  0  0  0  0  0
    8.8122   40.1850   34.2128 O   0  0  0  0  0  0  0  0  0  0  0  0
   11.2403   40.7946   33.3668 O   0  0  0  0  0  0  0  0  0  0  0  0
   10.9126   40.6859   31.9954 C   0  0  0  0  0  0  0  0  0  0  0  0
   11.5175   39.3787   31.4405 C   0  0  0  0  0  0  0  0  0  0  0  0
   12.7490   39.0864   32.0752 O   0  0  0  0  0  0  0  0  0  0  0  0
   10.6061   38.1868   31.6656 C   0  0  0  0  0  0  0  0  0  0  0  0
   12.9356   37.6796   32.0292 C   0  0  0  0  0  0  0  0  0  0  0  0
    9.6399   38.0903   30.6471 O   0  0  0  0  0  0  0  0  0  0  0  0
   11.5765   37.0145   31.7044 C   0  0  0  0  0  0  0  0  0  0  0  0
   13.4858   37.2125   33.3244 N   0  0  0  0  0  0  0  0  0  0  0  0
   11.6101   36.3397   30.4673 O   0  0  0  0  0  0  0  0  0  0  0  0
   14.4805   36.3319   33.5729 C   0  0  0  0  0  0  0  0  0  0  0  0
   13.1143   37.6276   34.5694 C   0  0  0  0  0  0  0  0  0  0  0  0
   15.2076   35.6153   32.6741 N   0  0  0  0  0  0  0  0  0  0  0  0
   14.6760   36.2304   34.9184 C   0  0  0  0  0  0  0  0  0  0  0  0
   13.8219   37.0449   35.5786 N   0  0  0  0  0  0  0  0  0  0  0  0
   16.1641   34.7600   33.1548 C   0  0  0  0  0  0  0  0  0  0  0  0
   15.6528   35.3505   35.4132 C   0  0  0  0  0  0  0  0  0  0  0  0
   16.3795   34.6314   34.5043 N   0  0  0  0  0  0  0  0  0  0  0  0
   15.9002   35.1932   36.8091 N   0  0  0  0  0  0  0  0  0  0  0  0
    9.0121   45.4318   33.6714 H   0  0  0  0  0  0  0  0  0  0  0  0
   10.7260   46.9687   33.1214 H   0  0  0  0  0  0  0  0  0  0  0  0
   11.8906   45.7658   32.9469 H   0  0  0  0  0  0  0  0  0  0  0  0
   10.7229   44.8814   31.1557 H   0  0  0  0  0  0  0  0  0  0  0  0
    9.3414   43.8330   31.4763 H   0  0  0  0  0  0  0  0  0  0  0  0
    7.0082   44.7167   31.5812 H   0  0  0  0  0  0  0  0  0  0  0  0
   10.3470   47.1851   30.4118 H   0  0  0  0  0  0  0  0  0  0  0  0
    5.4618   46.3070   30.5012 H   0  0  0  0  0  0  0  0  0  0  0  0
    8.8141   48.7659   29.3484 H   0  0  0  0  0  0  0  0  0  0  0  0
    7.1459   49.4870   27.7185 H   0  0  0  0  0  0  0  0  0  0  0  0
    6.9720   50.4003   29.2503 H   0  0  0  0  0  0  0  0  0  0  0  0
    5.5501   52.2230   29.0580 H   0  0  0  0  0  0  0  0  0  0  0  0
    2.4462   49.8174   26.0328 H   0  0  0  0  0  0  0  0  0  0  0  0
    3.4998   53.3127   28.2617 H   0  0  0  0  0  0  0  0  0  0  0  0
    1.9441   52.1093   26.7625 H   0  0  0  0  0  0  0  0  0  0  0  0
    9.8215   40.7200   31.7636 H   0  0  0  0  0  0  0  0  0  0  0  0
   11.3803   41.5437   31.4664 H   0  0  0  0  0  0  0  0  0  0  0  0
   11.6998   39.5041   30.3482 H   0  0  0  0  0  0  0  0  0  0  0  0
   10.1086   38.2767   32.6603 H   0  0  0  0  0  0  0  0  0  0  0  0
   13.6680   37.4520   31.2229 H   0  0  0  0  0  0  0  0  0  0  0  0
    9.0016   37.3868   30.9350 H   0  0  0  0  0  0  0  0  0  0  0  0
   11.2666   36.3062   32.5083 H   0  0  0  0  0  0  0  0  0  0  0  0
   12.1389   35.5126   30.6150 H   0  0  0  0  0  0  0  0  0  0  0  0
   12.3300   38.3529   34.7449 H   0  0  0  0  0  0  0  0  0  0  0  0
   16.7560   34.1779   32.4621 H   0  0  0  0  0  0  0  0  0  0  0  0
   16.6347   34.5299   37.1416 H   0  0  0  0  0  0  0  0  0  0  0  0
   15.3534   35.7359   37.5140 H   0  0  0  0  0  0  0  0  0  0  0  0
  1  2  2  0
  1  3  1  0
  3  4  1  0
  4  5  1  0
  6  1  1  0
  7  6  1  0
  6  8  1  0
  8  9  1  0
  9 10  2  0
 11  9  1  0
 10 12  1  0
 13 11  2  0
 12 14  2  0
 14 13  1  0
 14 15  1  0
 15 16  1  0
 16 17  1  0
 17 18  2  0
 19 17  1  0
 18 20  1  0
 18 21  1  0
 22 19  2  0
 20 23  1  0
 20 24  2  0
 21 25  2  0
 25 22  1  0
  4 26  2  0
  4 27  1  0
 28 27  1  0
 28 29  1  0
 29 30  1  0
 29 31  1  0
 30 32  1  0
 31 33  1  0
 31 34  1  0
 34 32  1  0
 32 35  1  0
 34 36  1  0
 37 35  1  0
 38 35  1  0
 39 37  2  0
 37 40  1  0
 41 38  2  0
 42 39  1  0
 40 43  2  0
 40 41  1  0
 44 42  2  0
 44 43  1  0
 43 45  1  0
  6 46  1  1
  7 47  1  0
  7 48  1  0
  8 49  1  0
  8 50  1  0
 10 51  1  0
 11 52  1  0
 12 53  1  0
 13 54  1  0
 16 55  1  0
 16 56  1  0
 19 57  1  0
 21 58  1  0
 22 59  1  0
 25 60  1  0
 28 61  1  0
 28 62  1  0
 29 63  1  0
 31 64  1  0
 32 65  1  0
 33 66  1  0
 34 67  1  0
 36 68  1  0
 38 69  1  0
 42 70  1  0
 45 71  1  0
 45 72  1  0
M  CHG  3   5  -1  20   1  23  -1
M  END
>  <EmbedRMS>  (82) 
0.0823987076313

$$$$

     RDKit          3D

 72 76  0  0  0  0  0  0  0  0999 V2000
   10.2839   43.7626   33.8276 C   0  0  0  0  0  0  0  0  0  0  0  0
   11.4103   43.5863   34.3767 O   0  0  0  0  0  0  0  0  0  0  0  0
    9.3631   42.7235   33.7354 O   0  0  0  0  0  0  0  0  0  0  0  0
    9.8895   41.2249   34.2944 P   0  0  0  0  0  0  0  0  0  0  0  0
   10.3727   41.4546   35.8838 O   0  0  0  0  0  0  0  0  0  0  0  0
    9.9548   45.0699   33.2064 C   0  0  1  0  0  0  0  0  0  0  0  0
   11.0198   46.0480   33.4568 N   0  0  0  0  0  0  0  0  0  0  0  0
    9.7500   44.8508   31.6924 C   0  0  0  0  0  0  0  0  0  0  0  0
    8.7942   45.8418   31.0870 C   0  0  0  0  0  0  0  0  0  0  0  0
    7.4072   45.6010   31.1001 C   0  0  0  0  0  0  0  0  0  0  0  0
    9.2834   46.9892   30.4448 C   0  0  0  0  0  0  0  0  0  0  0  0
    6.5276   46.5019   30.4842 C   0  0  0  0  0  0  0  0  0  0  0  0
    8.4037   47.8901   29.8323 C   0  0  0  0  0  0  0  0  0  0  0  0
    7.0149   47.6515   29.8475 C   0  0  0  0  0  0  0  0  0  0  0  0
    6.0939   48.5215   29.2462 O   0  0  0  0  0  0  0  0  0  0  0  0
    6.4460   49.7173   28.5558 C   0  0  0  0  0  0  0  0  0  0  0  0
    5.1981   50.3747   28.0271 C   0  0  0  0  0  0  0  0  0  0  0  0
    4.6042   49.9910   26.7949 C   0  0  0  0  0  0  0  0  0  0  0  0
    4.6228   51.4200   28.7723 C   0  0  0  0  0  0  0  0  0  0  0  0
    5.1316   48.9129   25.9996 N   0  0  0  0  0  0  0  0  0  0  0  0
    3.4749   50.6926   26.3330 C   0  0  0  0  0  0  0  0  0  0  0  0
    3.4934   52.0917   28.3029 C   0  0  0  0  0  0  0  0  0  0  0  0
    5.5974   47.7635   26.5943 O   0  0  0  0  0  0  0  0  0  0  0  0
    5.0196   48.9403   24.7564 O   0  0  0  0  0  0  0  0  0  0  0  0
    2.9238   51.7323   27.0832 C   0  0  0  0  0  0  0  0  0  0  0  0
    8.8114   40.1833   34.2130 O   0  0  0  0  0  0  0  0  0  0  0  0
   11.2402   40.7930   33.3696 O   0  0  0  0  0  0  0  0  0  0  0  0
   10.9151   40.6903   31.9975 C   0  0  0  0  0  0  0  0  0  0  0  0
   11.5252   39.3885   31.4375 C   0  0  0  0  0  0  0  0  0  0  0  0
   12.7500   39.0873   32.0798 O   0  0  0  0  0  0  0  0  0  0  0  0
   10.6092   38.1925   31.6469 C   0  0  0  0  0  0  0  0  0  0  0  0
   12.9332   37.6792   32.0294 C   0  0  0  0  0  0  0  0  0  0  0  0
    9.6122   38.0894   30.6542 O   0  0  0  0  0  0  0  0  0  0  0  0
   11.5743   37.0144   31.7024 C   0  0  0  0  0  0  0  0  0  0  0  0
   13.4844   37.2107   33.3241 N   0  0  0  0  0  0  0  0  0  0  0  0
   11.6297   36.3238   30.4740 O   0  0  0  0  0  0  0  0  0  0  0  0
   14.4802   36.3313   33.5726 C   0  0  0  0  0  0  0  0  0  0  0  0
   13.1138   37.6266   34.5692 C   0  0  0  0  0  0  0  0  0  0  0  0
   15.2075   35.6149   32.6739 N   0  0  0  0  0  0  0  0  0  0  0  0
   14.6761   36.2303   34.9181 C   0  0  0  0  0  0  0  0  0  0  0  0
   13.8220   37.0447   35.5784 N   0  0  0  0  0  0  0  0  0  0  0  0
   16.1643   34.7600   33.1547 C   0  0  0  0  0  0  0  0  0  0  0  0
   15.6529   35.3505   35.4130 C   0  0  0  0  0  0  0  0  0  0  0  0
   16.3798   34.6315   34.5042 N   0  0  0  0  0  0  0  0  0  0  0  0
   15.9003   35.1932   36.8090 N   0  0  0  0  0  0  0  0  0  0  0  0
    9.0099   45.4349   33.6672 H   0  0  0  0  0  0  0  0  0  0  0  0
   11.9348   45.6932   33.0923 H   0  0  0  0  0  0  0  0  0  0  0  0
   11.1135   46.1992   34.4881 H   0  0  0  0  0  0  0  0  0  0  0  0
   10.7303   44.8921   31.1675 H   0  0  0  0  0  0  0  0  0  0  0  0
    9.3507   43.8343   31.4764 H   0  0  0  0  0  0  0  0  0  0  0  0
    7.0107   44.7159   31.5820 H   0  0  0  0  0  0  0  0  0  0  0  0
   10.3477   47.1881   30.4162 H   0  0  0  0  0  0  0  0  0  0  0  0
    5.4632   46.3047   30.5010 H   0  0  0  0  0  0  0  0  0  0  0  0
    8.8143   48.7658   29.3488 H   0  0  0  0  0  0  0  0  0  0  0  0
    7.1443   49.4953   27.7204 H   0  0  0  0  0  0  0  0  0  0  0  0
    6.9744   50.4009   29.2563 H   0  0  0  0  0  0  0  0  0  0  0  0
    5.0538   51.7219   29.7191 H   0  0  0  0  0  0  0  0  0  0  0  0
    3.0080   50.4214   25.3945 H   0  0  0  0  0  0  0  0  0  0  0  0
    3.0621   52.8964   28.8844 H   0  0  0  0  0  0  0  0  0  0  0  0
    2.0499   52.2574   26.7196 H   0  0  0  0  0  0  0  0  0  0  0  0
   11.3805   41.5528   31.4740 H   0  0  0  0  0  0  0  0  0  0  0  0
    9.8243   40.7216   31.7641 H   0  0  0  0  0  0  0  0  0  0  0  0
   11.7265   39.5311   30.3512 H   0  0  0  0  0  0  0  0  0  0  0  0
   10.1110   38.2746   32.6387 H   0  0  0  0  0  0  0  0  0  0  0  0
   13.6652   37.4518   31.2226 H   0  0  0  0  0  0  0  0  0  0  0  0
   10.0511   38.1143   29.7644 H   0  0  0  0  0  0  0  0  0  0  0  0
   11.2762   36.3141   32.5189 H   0  0  0  0  0  0  0  0  0  0  0  0
   10.8593   35.6977   30.4640 H   0  0  0  0  0  0  0  0  0  0  0  0
   12.3294   38.3518   34.7449 H   0  0  0  0  0  0  0  0  0  0  0  0
   16.7564   34.1779   32.4620 H   0  0  0  0  0  0  0  0  0  0  0  0
   16.6348   34.5300   37.1416 H   0  0  0  0  0  0  0  0  0  0  0  0
   15.3534   35.7359   37.5138 H   0  0  0  0  0  0  0  0  0  0  0  0
  1  2  2  0
  1  3  1  0
  3  4  1  0
  4  5  1  0
  6  1  1  0
  7  6  1  0
  6  8  1  0
  8  9  1  0
  9 10  2  0
 11  9  1  0
 10 12  1  0
 13 11  2  0
 12 14  2  0
 14 13  1  0
 14 15  1  0
 15 16  1  0
 16 17  1  0
 17 18  2  0
 19 17  1  0
 18 20  1  0
 18 21  1  0
 22 19  2  0
 20 23  1  0
 20 24  2  0
 21 25  2  0
 25 22  1  0
  4 26  2  0
  4 27  1  0
 28 27  1  0
 28 29  1  0
 29 30  1  0
 29 31  1  0
 30 32  1  0
 31 33  1  0
 31 34  1  0
 34 32  1  0
 32 35  1  0
 34 36  1  0
 37 35  1  0
 38 35  1  0
 39 37  2  0
 37 40  1  0
 41 38  2  0
 42 39  1  0
 40 43  2  0
 40 41  1  0
 44 42  2  0
 44 43  1  0
 43 45  1  0
  6 46  1  1
  7 47  1  0
  7 48  1  0
  8 49  1  0
  8 50  1  0
 10 51  1  0
 11 52  1  0
 12 53  1  0
 13 54  1  0
 16 55  1  0
 16 56  1  0
 19 57  1  0
 21 58  1  0
 22 59  1  0
 25 60  1  0
 28 61  1  0
 28 62  1  0
 29 63  1  0
 31 64  1  0
 32 65  1  0
 33 66  1  0
 34 67  1  0
 36 68  1  0
 38 69  1  0
 42 70  1  0
 45 71  1  0
 45 72  1  0
M  CHG  3   5  -1  20   1  23  -1
M  END
>  <EmbedRMS>  (83) 
0.0827190527936

$$$$

     RDKit          3D

 72 76  0  0  0  0  0  0  0  0999 V2000
   10.2837   43.7628   33.8277 C   0  0  0  0  0  0  0  0  0  0  0  0
   11.4103   43.5864   34.3766 O   0  0  0  0  0  0  0  0  0  0  0  0
    9.3628   42.7238   33.7358 O   0  0  0  0  0  0  0  0  0  0  0  0
    9.8893   41.2251   34.2943 P   0  0  0  0  0  0  0  0  0  0  0  0
   10.3731   41.4545   35.8837 O   0  0  0  0  0  0  0  0  0  0  0  0
    9.9548   45.0700   33.2064 C   0  0  1  0  0  0  0  0  0  0  0  0
   11.0198   46.0481   33.4568 N   0  0  0  0  0  0  0  0  0  0  0  0
    9.7501   44.8508   31.6925 C   0  0  0  0  0  0  0  0  0  0  0  0
    8.7942   45.8417   31.0870 C   0  0  0  0  0  0  0  0  0  0  0  0
    7.4074   45.6008   31.0997 C   0  0  0  0  0  0  0  0  0  0  0  0
    9.2831   46.9889   30.4447 C   0  0  0  0  0  0  0  0  0  0  0  0
    6.5281   46.5019   30.4837 C   0  0  0  0  0  0  0  0  0  0  0  0
    8.4033   47.8893   29.8324 C   0  0  0  0  0  0  0  0  0  0  0  0
    7.0149   47.6526   29.8483 C   0  0  0  0  0  0  0  0  0  0  0  0
    6.0891   48.5250   29.2536 O   0  0  0  0  0  0  0  0  0  0  0  0
    6.4081   49.7574   28.6034 C   0  0  0  0  0  0  0  0  0  0  0  0
    6.8942   50.7982   29.5899 C   0  0  0  0  0  0  0  0  0  0  0  0
    7.8972   51.7459   29.2568 C   0  0  0  0  0  0  0  0  0  0  0  0
    6.2487   50.8989   30.8373 C   0  0  0  0  0  0  0  0  0  0  0  0
    8.5545   51.7340   27.9815 N   0  0  0  0  0  0  0  0  0  0  0  0
    8.2372   52.7458   30.1837 C   0  0  0  0  0  0  0  0  0  0  0  0
    6.6115   51.8892   31.7514 C   0  0  0  0  0  0  0  0  0  0  0  0
    9.2904   50.6377   27.5975 O   0  0  0  0  0  0  0  0  0  0  0  0
    8.6852   52.7994   27.3444 O   0  0  0  0  0  0  0  0  0  0  0  0
    7.6049   52.8104   31.4257 C   0  0  0  0  0  0  0  0  0  0  0  0
    8.8113   40.1835   34.2130 O   0  0  0  0  0  0  0  0  0  0  0  0
   11.2397   40.7943   33.3684 O   0  0  0  0  0  0  0  0  0  0  0  0
   10.9125   40.6875   31.9969 C   0  0  0  0  0  0  0  0  0  0  0  0
   11.5169   39.3810   31.4420 C   0  0  0  0  0  0  0  0  0  0  0  0
   12.7500   39.0880   32.0758 O   0  0  0  0  0  0  0  0  0  0  0  0
   10.6043   38.1892   31.6659 C   0  0  0  0  0  0  0  0  0  0  0  0
   12.9395   37.6813   32.0279 C   0  0  0  0  0  0  0  0  0  0  0  0
    9.6353   38.0951   30.6499 O   0  0  0  0  0  0  0  0  0  0  0  0
   11.5804   37.0190   31.6934 C   0  0  0  0  0  0  0  0  0  0  0  0
   13.4851   37.2118   33.3244 N   0  0  0  0  0  0  0  0  0  0  0  0
   11.6118   36.3188   30.4673 O   0  0  0  0  0  0  0  0  0  0  0  0
   14.4801   36.3316   33.5732 C   0  0  0  0  0  0  0  0  0  0  0  0
   13.1139   37.6277   34.5692 C   0  0  0  0  0  0  0  0  0  0  0  0
   15.2076   35.6154   32.6744 N   0  0  0  0  0  0  0  0  0  0  0  0
   14.6756   36.2303   34.9186 C   0  0  0  0  0  0  0  0  0  0  0  0
   13.8215   37.0451   35.5786 N   0  0  0  0  0  0  0  0  0  0  0  0
   16.1642   34.7602   33.1551 C   0  0  0  0  0  0  0  0  0  0  0  0
   15.6526   35.3505   35.4134 C   0  0  0  0  0  0  0  0  0  0  0  0
   16.3796   34.6316   34.5045 N   0  0  0  0  0  0  0  0  0  0  0  0
   15.9001   35.1933   36.8093 N   0  0  0  0  0  0  0  0  0  0  0  0
    9.0098   45.4351   33.6671 H   0  0  0  0  0  0  0  0  0  0  0  0
   11.1134   46.1994   34.4881 H   0  0  0  0  0  0  0  0  0  0  0  0
   11.9348   45.6933   33.0924 H   0  0  0  0  0  0  0  0  0  0  0  0
   10.7304   44.8922   31.1676 H   0  0  0  0  0  0  0  0  0  0  0  0
    9.3509   43.8343   31.4764 H   0  0  0  0  0  0  0  0  0  0  0  0
    7.0107   44.7157   31.5817 H   0  0  0  0  0  0  0  0  0  0  0  0
   10.3474   47.1881   30.4161 H   0  0  0  0  0  0  0  0  0  0  0  0
    5.4636   46.3054   30.5022 H   0  0  0  0  0  0  0  0  0  0  0  0
    8.8143   48.7626   29.3506 H   0  0  0  0  0  0  0  0  0  0  0  0
    5.4802   50.1453   28.1340 H   0  0  0  0  0  0  0  0  0  0  0  0
    7.1235   49.5634   27.7820 H   0  0  0  0  0  0  0  0  0  0  0  0
    5.4554   50.2113   31.1033 H   0  0  0  0  0  0  0  0  0  0  0  0
    9.0014   53.4742   29.9426 H   0  0  0  0  0  0  0  0  0  0  0  0
    6.1128   51.9489   32.7101 H   0  0  0  0  0  0  0  0  0  0  0  0
    7.8801   53.5817   32.1335 H   0  0  0  0  0  0  0  0  0  0  0  0
    9.8216   40.7222   31.7644 H   0  0  0  0  0  0  0  0  0  0  0  0
   11.3811   41.5456   31.4692 H   0  0  0  0  0  0  0  0  0  0  0  0
   11.6985   39.5089   30.3498 H   0  0  0  0  0  0  0  0  0  0  0  0
   10.1109   38.2736   32.6630 H   0  0  0  0  0  0  0  0  0  0  0  0
   13.6783   37.4561   31.2271 H   0  0  0  0  0  0  0  0  0  0  0  0
    9.0020   37.3859   30.9348 H   0  0  0  0  0  0  0  0  0  0  0  0
   11.2808   36.3052   32.4921 H   0  0  0  0  0  0  0  0  0  0  0  0
   11.8819   36.9599   29.7584 H   0  0  0  0  0  0  0  0  0  0  0  0
   12.3303   38.3538   34.7445 H   0  0  0  0  0  0  0  0  0  0  0  0
   16.7564   34.1783   32.4624 H   0  0  0  0  0  0  0  0  0  0  0  0
   16.6348   34.5301   37.1418 H   0  0  0  0  0  0  0  0  0  0  0  0
   15.3532   35.7359   37.5142 H   0  0  0  0  0  0  0  0  0  0  0  0
  1  2  2  0
  1  3  1  0
  3  4  1  0
  4  5  1  0
  6  1  1  0
  7  6  1  0
  6  8  1  0
  8  9  1  0
  9 10  2  0
 11  9  1  0
 10 12  1  0
 13 11  2  0
 12 14  2  0
 14 13  1  0
 14 15  1  0
 15 16  1  0
 16 17  1  0
 17 18  2  0
 19 17  1  0
 18 20  1  0
 18 21  1  0
 22 19  2  0
 20 23  1  0
 20 24  2  0
 21 25  2  0
 25 22  1  0
  4 26  2  0
  4 27  1  0
 28 27  1  0
 28 29  1  0
 29 30  1  0
 29 31  1  0
 30 32  1  0
 31 33  1  0
 31 34  1  0
 34 32  1  0
 32 35  1  0
 34 36  1  0
 37 35  1  0
 38 35  1  0
 39 37  2  0
 37 40  1  0
 41 38  2  0
 42 39  1  0
 40 43  2  0
 40 41  1  0
 44 42  2  0
 44 43  1  0
 43 45  1  0
  6 46  1  1
  7 47  1  0
  7 48  1  0
  8 49  1  0
  8 50  1  0
 10 51  1  0
 11 52  1  0
 12 53  1  0
 13 54  1  0
 16 55  1  0
 16 56  1  0
 19 57  1  0
 21 58  1  0
 22 59  1  0
 25 60  1  0
 28 61  1  0
 28 62  1  0
 29 63  1  0
 31 64  1  0
 32 65  1  0
 33 66  1  0
 34 67  1  0
 36 68  1  0
 38 69  1  0
 42 70  1  0
 45 71  1  0
 45 72  1  0
M  CHG  3   5  -1  20   1  23  -1
M  END
>  <EmbedRMS>  (84) 
0.082471863094

$$$$

     RDKit          3D

 72 76  0  0  0  0  0  0  0  0999 V2000
   10.2834   43.7663   33.8257 C   0  0  0  0  0  0  0  0  0  0  0  0
   11.4102   43.5930   34.3752 O   0  0  0  0  0  0  0  0  0  0  0  0
    9.3635   42.7257   33.7352 O   0  0  0  0  0  0  0  0  0  0  0  0
    9.8899   41.2270   34.2947 P   0  0  0  0  0  0  0  0  0  0  0  0
   10.3732   41.4563   35.8841 O   0  0  0  0  0  0  0  0  0  0  0  0
    9.9547   45.0696   33.2036 C   0  0  1  0  0  0  0  0  0  0  0  0
   11.0273   46.0323   33.4760 N   0  0  0  0  0  0  0  0  0  0  0  0
    9.7471   44.8484   31.6876 C   0  0  0  0  0  0  0  0  0  0  0  0
    8.7925   45.8410   31.0845 C   0  0  0  0  0  0  0  0  0  0  0  0
    7.4058   45.6008   31.0991 C   0  0  0  0  0  0  0  0  0  0  0  0
    9.2817   46.9877   30.4415 C   0  0  0  0  0  0  0  0  0  0  0  0
    6.5246   46.5005   30.4842 C   0  0  0  0  0  0  0  0  0  0  0  0
    8.4005   47.8879   29.8316 C   0  0  0  0  0  0  0  0  0  0  0  0
    7.0186   47.6575   29.8475 C   0  0  0  0  0  0  0  0  0  0  0  0
    6.1805   48.5961   29.2238 O   0  0  0  0  0  0  0  0  0  0  0  0
    4.7524   48.5605   29.2366 C   0  0  0  0  0  0  0  0  0  0  0  0
    4.2191   48.8603   30.6205 C   0  0  0  0  0  0  0  0  0  0  0  0
    3.2335   48.0552   31.2479 C   0  0  0  0  0  0  0  0  0  0  0  0
    4.7520   49.9591   31.3191 C   0  0  0  0  0  0  0  0  0  0  0  0
    2.5805   46.9834   30.5503 N   0  0  0  0  0  0  0  0  0  0  0  0
    2.8644   48.3302   32.5764 C   0  0  0  0  0  0  0  0  0  0  0  0
    4.3587   50.2283   32.6308 C   0  0  0  0  0  0  0  0  0  0  0  0
    2.0438   47.2021   29.3024 O   0  0  0  0  0  0  0  0  0  0  0  0
    2.2945   45.9285   31.1534 O   0  0  0  0  0  0  0  0  0  0  0  0
    3.4248   49.4087   33.2622 C   0  0  0  0  0  0  0  0  0  0  0  0
    8.8120   40.1851   34.2133 O   0  0  0  0  0  0  0  0  0  0  0  0
   11.2403   40.7947   33.3700 O   0  0  0  0  0  0  0  0  0  0  0  0
   10.9144   40.6914   31.9982 C   0  0  0  0  0  0  0  0  0  0  0  0
   11.5270   39.3912   31.4385 C   0  0  0  0  0  0  0  0  0  0  0  0
   12.7520   39.0911   32.0836 O   0  0  0  0  0  0  0  0  0  0  0  0
   10.6113   38.1932   31.6451 C   0  0  0  0  0  0  0  0  0  0  0  0
   12.9413   37.6838   32.0297 C   0  0  0  0  0  0  0  0  0  0  0  0
    9.6064   38.0878   30.6599 O   0  0  0  0  0  0  0  0  0  0  0  0
   11.5822   37.0198   31.6877 C   0  0  0  0  0  0  0  0  0  0  0  0
   13.4840   37.2104   33.3254 N   0  0  0  0  0  0  0  0  0  0  0  0
   11.6179   36.3072   30.4690 O   0  0  0  0  0  0  0  0  0  0  0  0
   14.4797   36.3309   33.5738 C   0  0  0  0  0  0  0  0  0  0  0  0
   13.1137   37.6269   34.5702 C   0  0  0  0  0  0  0  0  0  0  0  0
   15.2074   35.6152   32.6747 N   0  0  0  0  0  0  0  0  0  0  0  0
   14.6756   36.2298   34.9190 C   0  0  0  0  0  0  0  0  0  0  0  0
   13.8217   37.0445   35.5793 N   0  0  0  0  0  0  0  0  0  0  0  0
   16.1643   34.7603   33.1551 C   0  0  0  0  0  0  0  0  0  0  0  0
   15.6528   35.3503   35.4136 C   0  0  0  0  0  0  0  0  0  0  0  0
   16.3798   34.6316   34.5046 N   0  0  0  0  0  0  0  0  0  0  0  0
   15.9004   35.1930   36.8094 N   0  0  0  0  0  0  0  0  0  0  0  0
    9.0120   45.4319   33.6713 H   0  0  0  0  0  0  0  0  0  0  0  0
   11.8907   45.7659   32.9476 H   0  0  0  0  0  0  0  0  0  0  0  0
   10.7260   46.9689   33.1215 H   0  0  0  0  0  0  0  0  0  0  0  0
    9.3425   43.8332   31.4759 H   0  0  0  0  0  0  0  0  0  0  0  0
   10.7235   44.8825   31.1558 H   0  0  0  0  0  0  0  0  0  0  0  0
    7.0102   44.7148   31.5804 H   0  0  0  0  0  0  0  0  0  0  0  0
   10.3460   47.1859   30.4096 H   0  0  0  0  0  0  0  0  0  0  0  0
    5.4670   46.2822   30.5083 H   0  0  0  0  0  0  0  0  0  0  0  0
    8.7938   48.7704   29.3430 H   0  0  0  0  0  0  0  0  0  0  0  0
    4.4148   47.5825   28.8402 H   0  0  0  0  0  0  0  0  0  0  0  0
    4.3797   49.3445   28.5449 H   0  0  0  0  0  0  0  0  0  0  0  0
    5.4920   50.5980   30.8527 H   0  0  0  0  0  0  0  0  0  0  0  0
    2.1194   47.7216   33.0734 H   0  0  0  0  0  0  0  0  0  0  0  0
    4.7855   51.0696   33.1614 H   0  0  0  0  0  0  0  0  0  0  0  0
    3.1247   49.6167   34.2811 H   0  0  0  0  0  0  0  0  0  0  0  0
    9.8234   40.7201   31.7654 H   0  0  0  0  0  0  0  0  0  0  0  0
   11.3776   41.5549   31.4744 H   0  0  0  0  0  0  0  0  0  0  0  0
   11.7311   39.5363   30.3532 H   0  0  0  0  0  0  0  0  0  0  0  0
   10.1203   38.2696   32.6410 H   0  0  0  0  0  0  0  0  0  0  0  0
   13.6850   37.4639   31.2321 H   0  0  0  0  0  0  0  0  0  0  0  0
   10.0251   38.1793   29.7654 H   0  0  0  0  0  0  0  0  0  0  0  0
   11.2757   36.3135   32.4907 H   0  0  0  0  0  0  0  0  0  0  0  0
   11.9838   36.9111   29.7708 H   0  0  0  0  0  0  0  0  0  0  0  0
   12.3307   38.3536   34.7458 H   0  0  0  0  0  0  0  0  0  0  0  0
   16.7566   34.1787   32.4623 H   0  0  0  0  0  0  0  0  0  0  0  0
   15.3535   35.7355   37.5144 H   0  0  0  0  0  0  0  0  0  0  0  0
   16.6353   34.5301   37.1419 H   0  0  0  0  0  0  0  0  0  0  0  0
  1  2  2  0
  1  3  1  0
  3  4  1  0
  4  5  1  0
  6  1  1  0
  7  6  1  0
  6  8  1  0
  8  9  1  0
  9 10  2  0
 11  9  1  0
 10 12  1  0
 13 11  2  0
 12 14  2  0
 14 13  1  0
 14 15  1  0
 15 16  1  0
 16 17  1  0
 17 18  2  0
 19 17  1  0
 18 20  1  0
 18 21  1  0
 22 19  2  0
 20 23  1  0
 20 24  2  0
 21 25  2  0
 25 22  1  0
  4 26  2  0
  4 27  1  0
 28 27  1  0
 28 29  1  0
 29 30  1  0
 29 31  1  0
 30 32  1  0
 31 33  1  0
 31 34  1  0
 34 32  1  0
 32 35  1  0
 34 36  1  0
 37 35  1  0
 38 35  1  0
 39 37  2  0
 37 40  1  0
 41 38  2  0
 42 39  1  0
 40 43  2  0
 40 41  1  0
 44 42  2  0
 44 43  1  0
 43 45  1  0
  6 46  1  1
  7 47  1  0
  7 48  1  0
  8 49  1  0
  8 50  1  0
 10 51  1  0
 11 52  1  0
 12 53  1  0
 13 54  1  0
 16 55  1  0
 16 56  1  0
 19 57  1  0
 21 58  1  0
 22 59  1  0
 25 60  1  0
 28 61  1  0
 28 62  1  0
 29 63  1  0
 31 64  1  0
 32 65  1  0
 33 66  1  0
 34 67  1  0
 36 68  1  0
 38 69  1  0
 42 70  1  0
 45 71  1  0
 45 72  1  0
M  CHG  3   5  -1  20   1  23  -1
M  END
>  <EmbedRMS>  (85) 
0.0808161920411

$$$$

     RDKit          3D

 72 76  0  0  0  0  0  0  0  0999 V2000
   10.2805   43.7664   33.8249 C   0  0  0  0  0  0  0  0  0  0  0  0
   11.4111   43.5919   34.3667 O   0  0  0  0  0  0  0  0  0  0  0  0
    9.3622   42.7247   33.7342 O   0  0  0  0  0  0  0  0  0  0  0  0
    9.8904   41.2264   34.2936 P   0  0  0  0  0  0  0  0  0  0  0  0
   10.3731   41.4565   35.8832 O   0  0  0  0  0  0  0  0  0  0  0  0
    9.9459   45.0736   33.2111 C   0  0  1  0  0  0  0  0  0  0  0  0
   11.0265   46.0293   33.4708 N   0  0  0  0  0  0  0  0  0  0  0  0
    9.7541   44.8540   31.6947 C   0  0  0  0  0  0  0  0  0  0  0  0
    8.7957   45.8408   31.0842 C   0  0  0  0  0  0  0  0  0  0  0  0
    7.4089   45.6000   31.1014 C   0  0  0  0  0  0  0  0  0  0  0  0
    9.2824   46.9879   30.4396 C   0  0  0  0  0  0  0  0  0  0  0  0
    6.5258   46.4989   30.4870 C   0  0  0  0  0  0  0  0  0  0  0  0
    8.3997   47.8880   29.8317 C   0  0  0  0  0  0  0  0  0  0  0  0
    7.0185   47.6542   29.8455 C   0  0  0  0  0  0  0  0  0  0  0  0
    6.1777   48.5936   29.2242 O   0  0  0  0  0  0  0  0  0  0  0  0
    4.7630   48.4568   29.0681 C   0  0  0  0  0  0  0  0  0  0  0  0
    3.9797   48.8226   30.3181 C   0  0  0  0  0  0  0  0  0  0  0  0
    2.5557   48.8116   30.3126 C   0  0  0  0  0  0  0  0  0  0  0  0
    4.6485   49.2496   31.4865 C   0  0  0  0  0  0  0  0  0  0  0  0
    1.7970   48.4357   29.1483 N   0  0  0  0  0  0  0  0  0  0  0  0
    1.8585   49.2160   31.4647 C   0  0  0  0  0  0  0  0  0  0  0  0
    3.9340   49.6313   32.6222 C   0  0  0  0  0  0  0  0  0  0  0  0
    0.5799   49.0297   28.9044 O   0  0  0  0  0  0  0  0  0  0  0  0
    2.1324   47.4542   28.4551 O   0  0  0  0  0  0  0  0  0  0  0  0
    2.5426   49.6138   32.6119 C   0  0  0  0  0  0  0  0  0  0  0  0
    8.8129   40.1841   34.2124 O   0  0  0  0  0  0  0  0  0  0  0  0
   11.2419   40.7944   33.3695 O   0  0  0  0  0  0  0  0  0  0  0  0
   10.9186   40.6911   31.9970 C   0  0  0  0  0  0  0  0  0  0  0  0
   11.5172   39.3814   31.4407 C   0  0  0  0  0  0  0  0  0  0  0  0
   12.7492   39.0856   32.0729 O   0  0  0  0  0  0  0  0  0  0  0  0
   10.6023   38.1908   31.6665 C   0  0  0  0  0  0  0  0  0  0  0  0
   12.9319   37.6781   32.0281 C   0  0  0  0  0  0  0  0  0  0  0  0
    9.6392   38.0797   30.6452 O   0  0  0  0  0  0  0  0  0  0  0  0
   11.5715   37.0165   31.7056 C   0  0  0  0  0  0  0  0  0  0  0  0
   13.4846   37.2121   33.3235 N   0  0  0  0  0  0  0  0  0  0  0  0
   11.6187   36.3384   30.4695 O   0  0  0  0  0  0  0  0  0  0  0  0
   14.4801   36.3321   33.5724 C   0  0  0  0  0  0  0  0  0  0  0  0
   13.1137   37.6275   34.5688 C   0  0  0  0  0  0  0  0  0  0  0  0
   15.2073   35.6153   32.6738 N   0  0  0  0  0  0  0  0  0  0  0  0
   14.6759   36.2308   34.9179 C   0  0  0  0  0  0  0  0  0  0  0  0
   13.8216   37.0452   35.5781 N   0  0  0  0  0  0  0  0  0  0  0  0
   16.1640   34.7601   33.1546 C   0  0  0  0  0  0  0  0  0  0  0  0
   15.6526   35.3508   35.4129 C   0  0  0  0  0  0  0  0  0  0  0  0
   16.3794   34.6317   34.5041 N   0  0  0  0  0  0  0  0  0  0  0  0
   15.8999   35.1934   36.8088 N   0  0  0  0  0  0  0  0  0  0  0  0
    8.9994   45.4380   33.6719 H   0  0  0  0  0  0  0  0  0  0  0  0
   11.0500   46.2277   34.4982 H   0  0  0  0  0  0  0  0  0  0  0  0
   10.7762   46.9369   33.0159 H   0  0  0  0  0  0  0  0  0  0  0  0
    9.3647   43.8352   31.4710 H   0  0  0  0  0  0  0  0  0  0  0  0
   10.7413   44.9078   31.1835 H   0  0  0  0  0  0  0  0  0  0  0  0
    7.0146   44.7172   31.5895 H   0  0  0  0  0  0  0  0  0  0  0  0
   10.3462   47.1881   30.4060 H   0  0  0  0  0  0  0  0  0  0  0  0
    5.4659   46.2911   30.5308 H   0  0  0  0  0  0  0  0  0  0  0  0
    8.7916   48.7712   29.3433 H   0  0  0  0  0  0  0  0  0  0  0  0
    4.4457   49.1388   28.2515 H   0  0  0  0  0  0  0  0  0  0  0  0
    4.5349   47.4206   28.7450 H   0  0  0  0  0  0  0  0  0  0  0  0
    5.7265   49.3075   31.5310 H   0  0  0  0  0  0  0  0  0  0  0  0
    0.7759   49.2130   31.4778 H   0  0  0  0  0  0  0  0  0  0  0  0
    4.4626   49.9521   33.5107 H   0  0  0  0  0  0  0  0  0  0  0  0
    1.9917   49.9159   33.4933 H   0  0  0  0  0  0  0  0  0  0  0  0
    9.8298   40.7409   31.7611 H   0  0  0  0  0  0  0  0  0  0  0  0
   11.3967   41.5459   31.4726 H   0  0  0  0  0  0  0  0  0  0  0  0
   11.6975   39.5066   30.3481 H   0  0  0  0  0  0  0  0  0  0  0  0
   10.1077   38.2647   32.6646 H   0  0  0  0  0  0  0  0  0  0  0  0
   13.6621   37.4468   31.2209 H   0  0  0  0  0  0  0  0  0  0  0  0
    8.8974   38.6942   30.8832 H   0  0  0  0  0  0  0  0  0  0  0  0
   11.2806   36.3073   32.5170 H   0  0  0  0  0  0  0  0  0  0  0  0
   10.8492   35.7110   30.4586 H   0  0  0  0  0  0  0  0  0  0  0  0
   12.3290   38.3524   34.7444 H   0  0  0  0  0  0  0  0  0  0  0  0
   16.7559   34.1780   32.4619 H   0  0  0  0  0  0  0  0  0  0  0  0
   16.6344   34.5301   37.1414 H   0  0  0  0  0  0  0  0  0  0  0  0
   15.3532   35.7362   37.5137 H   0  0  0  0  0  0  0  0  0  0  0  0
  1  2  2  0
  1  3  1  0
  3  4  1  0
  4  5  1  0
  6  1  1  0
  7  6  1  0
  6  8  1  0
  8  9  1  0
  9 10  2  0
 11  9  1  0
 10 12  1  0
 13 11  2  0
 12 14  2  0
 14 13  1  0
 14 15  1  0
 15 16  1  0
 16 17  1  0
 17 18  2  0
 19 17  1  0
 18 20  1  0
 18 21  1  0
 22 19  2  0
 20 23  1  0
 20 24  2  0
 21 25  2  0
 25 22  1  0
  4 26  2  0
  4 27  1  0
 28 27  1  0
 28 29  1  0
 29 30  1  0
 29 31  1  0
 30 32  1  0
 31 33  1  0
 31 34  1  0
 34 32  1  0
 32 35  1  0
 34 36  1  0
 37 35  1  0
 38 35  1  0
 39 37  2  0
 37 40  1  0
 41 38  2  0
 42 39  1  0
 40 43  2  0
 40 41  1  0
 44 42  2  0
 44 43  1  0
 43 45  1  0
  6 46  1  1
  7 47  1  0
  7 48  1  0
  8 49  1  0
  8 50  1  0
 10 51  1  0
 11 52  1  0
 12 53  1  0
 13 54  1  0
 16 55  1  0
 16 56  1  0
 19 57  1  0
 21 58  1  0
 22 59  1  0
 25 60  1  0
 28 61  1  0
 28 62  1  0
 29 63  1  0
 31 64  1  0
 32 65  1  0
 33 66  1  0
 34 67  1  0
 36 68  1  0
 38 69  1  0
 42 70  1  0
 45 71  1  0
 45 72  1  0
M  CHG  3   5  -1  20   1  23  -1
M  END
>  <EmbedRMS>  (86) 
0.082766197582

$$$$

     RDKit          3D

 72 76  0  0  0  0  0  0  0  0999 V2000
   10.2804   43.7664   33.8250 C   0  0  0  0  0  0  0  0  0  0  0  0
   11.4111   43.5919   34.3667 O   0  0  0  0  0  0  0  0  0  0  0  0
    9.3619   42.7249   33.7346 O   0  0  0  0  0  0  0  0  0  0  0  0
    9.8900   41.2267   34.2944 P   0  0  0  0  0  0  0  0  0  0  0  0
   10.3728   41.4567   35.8839 O   0  0  0  0  0  0  0  0  0  0  0  0
    9.9460   45.0736   33.2112 C   0  0  1  0  0  0  0  0  0  0  0  0
   11.0267   46.0292   33.4708 N   0  0  0  0  0  0  0  0  0  0  0  0
    9.7540   44.8542   31.6948 C   0  0  0  0  0  0  0  0  0  0  0  0
    8.7956   45.8412   31.0848 C   0  0  0  0  0  0  0  0  0  0  0  0
    7.4087   45.5999   31.1012 C   0  0  0  0  0  0  0  0  0  0  0  0
    9.2825   46.9881   30.4396 C   0  0  0  0  0  0  0  0  0  0  0  0
    6.5256   46.4989   30.4864 C   0  0  0  0  0  0  0  0  0  0  0  0
    8.3998   47.8878   29.8309 C   0  0  0  0  0  0  0  0  0  0  0  0
    7.0186   47.6543   29.8464 C   0  0  0  0  0  0  0  0  0  0  0  0
    6.1778   48.5856   29.2197 O   0  0  0  0  0  0  0  0  0  0  0  0
    4.7567   48.4785   29.1599 C   0  0  0  0  0  0  0  0  0  0  0  0
    4.1876   49.6847   28.4531 C   0  0  0  0  0  0  0  0  0  0  0  0
    3.2897   49.5779   27.3589 C   0  0  0  0  0  0  0  0  0  0  0  0
    4.5924   50.9614   28.8840 C   0  0  0  0  0  0  0  0  0  0  0  0
    2.7578   48.3115   26.9406 N   0  0  0  0  0  0  0  0  0  0  0  0
    2.8799   50.7443   26.6891 C   0  0  0  0  0  0  0  0  0  0  0  0
    4.1592   52.1093   28.2186 C   0  0  0  0  0  0  0  0  0  0  0  0
    2.1904   47.4664   27.8663 O   0  0  0  0  0  0  0  0  0  0  0  0
    2.5881   48.0767   25.7263 O   0  0  0  0  0  0  0  0  0  0  0  0
    3.3132   52.0003   27.1165 C   0  0  0  0  0  0  0  0  0  0  0  0
    8.8127   40.1842   34.2128 O   0  0  0  0  0  0  0  0  0  0  0  0
   11.2414   40.7950   33.3705 O   0  0  0  0  0  0  0  0  0  0  0  0
   10.9178   40.6921   31.9983 C   0  0  0  0  0  0  0  0  0  0  0  0
   11.5175   39.3837   31.4423 C   0  0  0  0  0  0  0  0  0  0  0  0
   12.7507   39.0887   32.0753 O   0  0  0  0  0  0  0  0  0  0  0  0
   10.6028   38.1916   31.6659 C   0  0  0  0  0  0  0  0  0  0  0  0
   12.9384   37.6819   32.0278 C   0  0  0  0  0  0  0  0  0  0  0  0
    9.6371   38.0805   30.6470 O   0  0  0  0  0  0  0  0  0  0  0  0
   11.5780   37.0215   31.6935 C   0  0  0  0  0  0  0  0  0  0  0  0
   13.4844   37.2119   33.3242 N   0  0  0  0  0  0  0  0  0  0  0  0
   11.6095   36.3201   30.4679 O   0  0  0  0  0  0  0  0  0  0  0  0
   14.4797   36.3318   33.5730 C   0  0  0  0  0  0  0  0  0  0  0  0
   13.1136   37.6278   34.5691 C   0  0  0  0  0  0  0  0  0  0  0  0
   15.2073   35.6155   32.6742 N   0  0  0  0  0  0  0  0  0  0  0  0
   14.6754   36.2305   34.9184 C   0  0  0  0  0  0  0  0  0  0  0  0
   13.8213   37.0452   35.5785 N   0  0  0  0  0  0  0  0  0  0  0  0
   16.1640   34.7604   33.1549 C   0  0  0  0  0  0  0  0  0  0  0  0
   15.6524   35.3507   35.4132 C   0  0  0  0  0  0  0  0  0  0  0  0
   16.3794   34.6317   34.5044 N   0  0  0  0  0  0  0  0  0  0  0  0
   15.9000   35.1934   36.8091 N   0  0  0  0  0  0  0  0  0  0  0  0
    8.9996   45.4381   33.6722 H   0  0  0  0  0  0  0  0  0  0  0  0
   11.0502   46.2277   34.4982 H   0  0  0  0  0  0  0  0  0  0  0  0
   10.7765   46.9369   33.0159 H   0  0  0  0  0  0  0  0  0  0  0  0
   10.7411   44.9079   31.1835 H   0  0  0  0  0  0  0  0  0  0  0  0
    9.3645   43.8354   31.4711 H   0  0  0  0  0  0  0  0  0  0  0  0
    7.0146   44.7150   31.5859 H   0  0  0  0  0  0  0  0  0  0  0  0
   10.3463   47.1879   30.4054 H   0  0  0  0  0  0  0  0  0  0  0  0
    5.4659   46.2856   30.5158 H   0  0  0  0  0  0  0  0  0  0  0  0
    8.7916   48.7698   29.3403 H   0  0  0  0  0  0  0  0  0  0  0  0
    4.3427   48.4457   30.1908 H   0  0  0  0  0  0  0  0  0  0  0  0
    4.5020   47.5351   28.6380 H   0  0  0  0  0  0  0  0  0  0  0  0
    5.2622   51.0670   29.7290 H   0  0  0  0  0  0  0  0  0  0  0  0
    2.1994   50.6812   25.8493 H   0  0  0  0  0  0  0  0  0  0  0  0
    4.4867   53.0849   28.5540 H   0  0  0  0  0  0  0  0  0  0  0  0
    2.9816   52.8916   26.5995 H   0  0  0  0  0  0  0  0  0  0  0  0
    9.8290   40.7408   31.7625 H   0  0  0  0  0  0  0  0  0  0  0  0
   11.3950   41.5477   31.4741 H   0  0  0  0  0  0  0  0  0  0  0  0
   11.6982   39.5114   30.3500 H   0  0  0  0  0  0  0  0  0  0  0  0
   10.1117   38.2603   32.6661 H   0  0  0  0  0  0  0  0  0  0  0  0
   13.6767   37.4557   31.2267 H   0  0  0  0  0  0  0  0  0  0  0  0
    8.8960   38.6950   30.8873 H   0  0  0  0  0  0  0  0  0  0  0  0
   11.2792   36.3072   32.4922 H   0  0  0  0  0  0  0  0  0  0  0  0
   11.8828   36.9598   29.7589 H   0  0  0  0  0  0  0  0  0  0  0  0
   12.3300   38.3539   34.7446 H   0  0  0  0  0  0  0  0  0  0  0  0
   16.7561   34.1785   32.4621 H   0  0  0  0  0  0  0  0  0  0  0  0
   15.3531   35.7360   37.5140 H   0  0  0  0  0  0  0  0  0  0  0  0
   16.6347   34.5302   37.1416 H   0  0  0  0  0  0  0  0  0  0  0  0
  1  2  2  0
  1  3  1  0
  3  4  1  0
  4  5  1  0
  6  1  1  0
  7  6  1  0
  6  8  1  0
  8  9  1  0
  9 10  2  0
 11  9  1  0
 10 12  1  0
 13 11  2  0
 12 14  2  0
 14 13  1  0
 14 15  1  0
 15 16  1  0
 16 17  1  0
 17 18  2  0
 19 17  1  0
 18 20  1  0
 18 21  1  0
 22 19  2  0
 20 23  1  0
 20 24  2  0
 21 25  2  0
 25 22  1  0
  4 26  2  0
  4 27  1  0
 28 27  1  0
 28 29  1  0
 29 30  1  0
 29 31  1  0
 30 32  1  0
 31 33  1  0
 31 34  1  0
 34 32  1  0
 32 35  1  0
 34 36  1  0
 37 35  1  0
 38 35  1  0
 39 37  2  0
 37 40  1  0
 41 38  2  0
 42 39  1  0
 40 43  2  0
 40 41  1  0
 44 42  2  0
 44 43  1  0
 43 45  1  0
  6 46  1  1
  7 47  1  0
  7 48  1  0
  8 49  1  0
  8 50  1  0
 10 51  1  0
 11 52  1  0
 12 53  1  0
 13 54  1  0
 16 55  1  0
 16 56  1  0
 19 57  1  0
 21 58  1  0
 22 59  1  0
 25 60  1  0
 28 61  1  0
 28 62  1  0
 29 63  1  0
 31 64  1  0
 32 65  1  0
 33 66  1  0
 34 67  1  0
 36 68  1  0
 38 69  1  0
 42 70  1  0
 45 71  1  0
 45 72  1  0
M  CHG  3   5  -1  20   1  23  -1
M  END
>  <EmbedRMS>  (87) 
0.0817839062141

$$$$

     RDKit          3D

 72 76  0  0  0  0  0  0  0  0999 V2000
   10.2803   43.7665   33.8250 C   0  0  0  0  0  0  0  0  0  0  0  0
   11.4110   43.5919   34.3666 O   0  0  0  0  0  0  0  0  0  0  0  0
    9.3616   42.7251   33.7349 O   0  0  0  0  0  0  0  0  0  0  0  0
    9.8899   41.2268   34.2939 P   0  0  0  0  0  0  0  0  0  0  0  0
   10.3738   41.4565   35.8831 O   0  0  0  0  0  0  0  0  0  0  0  0
    9.9459   45.0736   33.2111 C   0  0  1  0  0  0  0  0  0  0  0  0
   11.0267   46.0291   33.4705 N   0  0  0  0  0  0  0  0  0  0  0  0
    9.7535   44.8538   31.6949 C   0  0  0  0  0  0  0  0  0  0  0  0
    8.7955   45.8409   31.0846 C   0  0  0  0  0  0  0  0  0  0  0  0
    7.4086   45.6008   31.1011 C   0  0  0  0  0  0  0  0  0  0  0  0
    9.2830   46.9878   30.4401 C   0  0  0  0  0  0  0  0  0  0  0  0
    6.5280   46.5014   30.4860 C   0  0  0  0  0  0  0  0  0  0  0  0
    8.4024   47.8895   29.8312 C   0  0  0  0  0  0  0  0  0  0  0  0
    7.0137   47.6502   29.8464 C   0  0  0  0  0  0  0  0  0  0  0  0
    6.0879   48.5176   29.2439 O   0  0  0  0  0  0  0  0  0  0  0  0
    6.4231   49.6745   28.4757 C   0  0  0  0  0  0  0  0  0  0  0  0
    7.0506   49.2810   27.1563 C   0  0  0  0  0  0  0  0  0  0  0  0
    8.2522   49.8662   26.6798 C   0  0  0  0  0  0  0  0  0  0  0  0
    6.4324   48.2713   26.3963 C   0  0  0  0  0  0  0  0  0  0  0  0
    8.8740   50.9683   27.3583 N   0  0  0  0  0  0  0  0  0  0  0  0
    8.8347   49.3755   25.4980 C   0  0  0  0  0  0  0  0  0  0  0  0
    7.0154   47.8106   25.2149 C   0  0  0  0  0  0  0  0  0  0  0  0
    8.1249   52.0649   27.7177 O   0  0  0  0  0  0  0  0  0  0  0  0
   10.1187   51.0418   27.4195 O   0  0  0  0  0  0  0  0  0  0  0  0
    8.2201   48.3540   24.7724 C   0  0  0  0  0  0  0  0  0  0  0  0
    8.8123   40.1845   34.2134 O   0  0  0  0  0  0  0  0  0  0  0  0
   11.2400   40.7954   33.3680 O   0  0  0  0  0  0  0  0  0  0  0  0
   10.9124   40.6877   31.9967 C   0  0  0  0  0  0  0  0  0  0  0  0
   11.5169   39.3811   31.4420 C   0  0  0  0  0  0  0  0  0  0  0  0
   12.7500   39.0881   32.0760 O   0  0  0  0  0  0  0  0  0  0  0  0
   10.6043   38.1893   31.6659 C   0  0  0  0  0  0  0  0  0  0  0  0
   12.9395   37.6814   32.0280 C   0  0  0  0  0  0  0  0  0  0  0  0
    9.6353   38.0951   30.6499 O   0  0  0  0  0  0  0  0  0  0  0  0
   11.5804   37.0191   31.6934 C   0  0  0  0  0  0  0  0  0  0  0  0
   13.4851   37.2119   33.3244 N   0  0  0  0  0  0  0  0  0  0  0  0
   11.6118   36.3189   30.4673 O   0  0  0  0  0  0  0  0  0  0  0  0
   14.4801   36.3316   33.5732 C   0  0  0  0  0  0  0  0  0  0  0  0
   13.1139   37.6277   34.5692 C   0  0  0  0  0  0  0  0  0  0  0  0
   15.2076   35.6154   32.6744 N   0  0  0  0  0  0  0  0  0  0  0  0
   14.6756   36.2303   34.9186 C   0  0  0  0  0  0  0  0  0  0  0  0
   13.8215   37.0451   35.5786 N   0  0  0  0  0  0  0  0  0  0  0  0
   16.1642   34.7602   33.1551 C   0  0  0  0  0  0  0  0  0  0  0  0
   15.6526   35.3505   35.4134 C   0  0  0  0  0  0  0  0  0  0  0  0
   16.3796   34.6316   34.5045 N   0  0  0  0  0  0  0  0  0  0  0  0
   15.9001   35.1933   36.8093 N   0  0  0  0  0  0  0  0  0  0  0  0
    8.9995   45.4383   33.6722 H   0  0  0  0  0  0  0  0  0  0  0  0
   10.7765   46.9368   33.0155 H   0  0  0  0  0  0  0  0  0  0  0  0
   11.0504   46.2278   34.4979 H   0  0  0  0  0  0  0  0  0  0  0  0
    9.3636   43.8352   31.4715 H   0  0  0  0  0  0  0  0  0  0  0  0
   10.7406   44.9069   31.1834 H   0  0  0  0  0  0  0  0  0  0  0  0
    7.0130   44.7166   31.5856 H   0  0  0  0  0  0  0  0  0  0  0  0
   10.3471   47.1871   30.4079 H   0  0  0  0  0  0  0  0  0  0  0  0
    5.4637   46.3038   30.5047 H   0  0  0  0  0  0  0  0  0  0  0  0
    8.8142   48.7663   29.3532 H   0  0  0  0  0  0  0  0  0  0  0  0
    7.0683   50.3360   29.0869 H   0  0  0  0  0  0  0  0  0  0  0  0
    5.4872   50.2314   28.2611 H   0  0  0  0  0  0  0  0  0  0  0  0
    5.5048   47.8236   26.7318 H   0  0  0  0  0  0  0  0  0  0  0  0
    9.7554   49.8051   25.1237 H   0  0  0  0  0  0  0  0  0  0  0  0
    6.5357   47.0246   24.6459 H   0  0  0  0  0  0  0  0  0  0  0  0
    8.6727   47.9920   23.8582 H   0  0  0  0  0  0  0  0  0  0  0  0
   11.3807   41.5456   31.4683 H   0  0  0  0  0  0  0  0  0  0  0  0
    9.8215   40.7221   31.7644 H   0  0  0  0  0  0  0  0  0  0  0  0
   11.6986   39.5088   30.3499 H   0  0  0  0  0  0  0  0  0  0  0  0
   10.1109   38.2737   32.6630 H   0  0  0  0  0  0  0  0  0  0  0  0
   13.6783   37.4562   31.2271 H   0  0  0  0  0  0  0  0  0  0  0  0
    9.0020   37.3860   30.9348 H   0  0  0  0  0  0  0  0  0  0  0  0
   11.2807   36.3053   32.4921 H   0  0  0  0  0  0  0  0  0  0  0  0
   11.8819   36.9600   29.7584 H   0  0  0  0  0  0  0  0  0  0  0  0
   12.3303   38.3538   34.7446 H   0  0  0  0  0  0  0  0  0  0  0  0
   16.7563   34.1783   32.4623 H   0  0  0  0  0  0  0  0  0  0  0  0
   16.6348   34.5301   37.1418 H   0  0  0  0  0  0  0  0  0  0  0  0
   15.3532   35.7359   37.5142 H   0  0  0  0  0  0  0  0  0  0  0  0
  1  2  2  0
  1  3  1  0
  3  4  1  0
  4  5  1  0
  6  1  1  0
  7  6  1  0
  6  8  1  0
  8  9  1  0
  9 10  2  0
 11  9  1  0
 10 12  1  0
 13 11  2  0
 12 14  2  0
 14 13  1  0
 14 15  1  0
 15 16  1  0
 16 17  1  0
 17 18  2  0
 19 17  1  0
 18 20  1  0
 18 21  1  0
 22 19  2  0
 20 23  1  0
 20 24  2  0
 21 25  2  0
 25 22  1  0
  4 26  2  0
  4 27  1  0
 28 27  1  0
 28 29  1  0
 29 30  1  0
 29 31  1  0
 30 32  1  0
 31 33  1  0
 31 34  1  0
 34 32  1  0
 32 35  1  0
 34 36  1  0
 37 35  1  0
 38 35  1  0
 39 37  2  0
 37 40  1  0
 41 38  2  0
 42 39  1  0
 40 43  2  0
 40 41  1  0
 44 42  2  0
 44 43  1  0
 43 45  1  0
  6 46  1  1
  7 47  1  0
  7 48  1  0
  8 49  1  0
  8 50  1  0
 10 51  1  0
 11 52  1  0
 12 53  1  0
 13 54  1  0
 16 55  1  0
 16 56  1  0
 19 57  1  0
 21 58  1  0
 22 59  1  0
 25 60  1  0
 28 61  1  0
 28 62  1  0
 29 63  1  0
 31 64  1  0
 32 65  1  0
 33 66  1  0
 34 67  1  0
 36 68  1  0
 38 69  1  0
 42 70  1  0
 45 71  1  0
 45 72  1  0
M  CHG  3   5  -1  20   1  23  -1
M  END
>  <EmbedRMS>  (88) 
0.0813969616408

$$$$

     RDKit          3D

 72 76  0  0  0  0  0  0  0  0999 V2000
   10.2836   43.7661   33.8256 C   0  0  0  0  0  0  0  0  0  0  0  0
   11.4103   43.5930   34.3753 O   0  0  0  0  0  0  0  0  0  0  0  0
    9.3641   42.7253   33.7346 O   0  0  0  0  0  0  0  0  0  0  0  0
    9.8908   41.2265   34.2938 P   0  0  0  0  0  0  0  0  0  0  0  0
   10.3732   41.4559   35.8835 O   0  0  0  0  0  0  0  0  0  0  0  0
    9.9548   45.0695   33.2038 C   0  0  1  0  0  0  0  0  0  0  0  0
   11.0273   46.0322   33.4761 N   0  0  0  0  0  0  0  0  0  0  0  0
    9.7470   44.8486   31.6879 C   0  0  0  0  0  0  0  0  0  0  0  0
    8.7925   45.8415   31.0853 C   0  0  0  0  0  0  0  0  0  0  0  0
    7.4059   45.6008   31.0984 C   0  0  0  0  0  0  0  0  0  0  0  0
    9.2818   46.9874   30.4412 C   0  0  0  0  0  0  0  0  0  0  0  0
    6.5249   46.5003   30.4827 C   0  0  0  0  0  0  0  0  0  0  0  0
    8.4004   47.8867   29.8303 C   0  0  0  0  0  0  0  0  0  0  0  0
    7.0180   47.6586   29.8499 C   0  0  0  0  0  0  0  0  0  0  0  0
    6.1833   48.5975   29.2237 O   0  0  0  0  0  0  0  0  0  0  0  0
    4.7682   48.7002   29.3897 C   0  0  0  0  0  0  0  0  0  0  0  0
    4.4219   49.2150   30.7692 C   0  0  0  0  0  0  0  0  0  0  0  0
    4.6513   50.5655   31.1611 C   0  0  0  0  0  0  0  0  0  0  0  0
    3.7986   48.3366   31.6760 C   0  0  0  0  0  0  0  0  0  0  0  0
    5.2157   51.5463   30.2684 N   0  0  0  0  0  0  0  0  0  0  0  0
    4.2667   50.9755   32.4511 C   0  0  0  0  0  0  0  0  0  0  0  0
    3.4372   48.7646   32.9531 C   0  0  0  0  0  0  0  0  0  0  0  0
    4.8903   52.8752   30.4173 O   0  0  0  0  0  0  0  0  0  0  0  0
    6.1059   51.2399   29.4506 O   0  0  0  0  0  0  0  0  0  0  0  0
    3.6739   50.0802   33.3412 C   0  0  0  0  0  0  0  0  0  0  0  0
    8.8127   40.1848   34.2122 O   0  0  0  0  0  0  0  0  0  0  0  0
   11.2420   40.7941   33.3697 O   0  0  0  0  0  0  0  0  0  0  0  0
   10.9187   40.6911   31.9971 C   0  0  0  0  0  0  0  0  0  0  0  0
   11.5172   39.3815   31.4407 C   0  0  0  0  0  0  0  0  0  0  0  0
   12.7493   39.0855   32.0728 O   0  0  0  0  0  0  0  0  0  0  0  0
   10.6023   38.1908   31.6665 C   0  0  0  0  0  0  0  0  0  0  0  0
   12.9319   37.6781   32.0281 C   0  0  0  0  0  0  0  0  0  0  0  0
    9.6392   38.0798   30.6452 O   0  0  0  0  0  0  0  0  0  0  0  0
   11.5715   37.0165   31.7056 C   0  0  0  0  0  0  0  0  0  0  0  0
   13.4847   37.2121   33.3235 N   0  0  0  0  0  0  0  0  0  0  0  0
   11.6187   36.3384   30.4695 O   0  0  0  0  0  0  0  0  0  0  0  0
   14.4801   36.3321   33.5724 C   0  0  0  0  0  0  0  0  0  0  0  0
   13.1137   37.6275   34.5687 C   0  0  0  0  0  0  0  0  0  0  0  0
   15.2073   35.6153   32.6738 N   0  0  0  0  0  0  0  0  0  0  0  0
   14.6759   36.2308   34.9179 C   0  0  0  0  0  0  0  0  0  0  0  0
   13.8216   37.0452   35.5781 N   0  0  0  0  0  0  0  0  0  0  0  0
   16.1640   34.7602   33.1546 C   0  0  0  0  0  0  0  0  0  0  0  0
   15.6526   35.3508   35.4129 C   0  0  0  0  0  0  0  0  0  0  0  0
   16.3794   34.6317   34.5041 N   0  0  0  0  0  0  0  0  0  0  0  0
   15.8999   35.1935   36.8088 N   0  0  0  0  0  0  0  0  0  0  0  0
    9.0121   45.4316   33.6717 H   0  0  0  0  0  0  0  0  0  0  0  0
   11.8908   45.7660   32.9477 H   0  0  0  0  0  0  0  0  0  0  0  0
   10.7259   46.9688   33.1218 H   0  0  0  0  0  0  0  0  0  0  0  0
    9.3423   43.8334   31.4760 H   0  0  0  0  0  0  0  0  0  0  0  0
   10.7234   44.8826   31.1560 H   0  0  0  0  0  0  0  0  0  0  0  0
    7.0106   44.7121   31.5750 H   0  0  0  0  0  0  0  0  0  0  0  0
   10.3461   47.1853   30.4085 H   0  0  0  0  0  0  0  0  0  0  0  0
    5.4713   46.2704   30.4888 H   0  0  0  0  0  0  0  0  0  0  0  0
    8.7937   48.7687   29.3407 H   0  0  0  0  0  0  0  0  0  0  0  0
    4.3666   49.4047   28.6315 H   0  0  0  0  0  0  0  0  0  0  0  0
    4.2900   47.7205   29.1760 H   0  0  0  0  0  0  0  0  0  0  0  0
    3.5787   47.3152   31.3940 H   0  0  0  0  0  0  0  0  0  0  0  0
    4.4329   51.9954   32.7739 H   0  0  0  0  0  0  0  0  0  0  0  0
    2.9644   48.0753   33.6408 H   0  0  0  0  0  0  0  0  0  0  0  0
    3.3888   50.4109   34.3316 H   0  0  0  0  0  0  0  0  0  0  0  0
    9.8300   40.7410   31.7613 H   0  0  0  0  0  0  0  0  0  0  0  0
   11.3969   41.5460   31.4729 H   0  0  0  0  0  0  0  0  0  0  0  0
   11.6975   39.5067   30.3481 H   0  0  0  0  0  0  0  0  0  0  0  0
   10.1077   38.2648   32.6645 H   0  0  0  0  0  0  0  0  0  0  0  0
   13.6621   37.4467   31.2209 H   0  0  0  0  0  0  0  0  0  0  0  0
    8.8975   38.6944   30.8831 H   0  0  0  0  0  0  0  0  0  0  0  0
   11.2806   36.3073   32.5170 H   0  0  0  0  0  0  0  0  0  0  0  0
   10.8492   35.7110   30.4586 H   0  0  0  0  0  0  0  0  0  0  0  0
   12.3290   38.3524   34.7444 H   0  0  0  0  0  0  0  0  0  0  0  0
   16.7559   34.1780   32.4619 H   0  0  0  0  0  0  0  0  0  0  0  0
   16.6344   34.5301   37.1414 H   0  0  0  0  0  0  0  0  0  0  0  0
   15.3531   35.7362   37.5137 H   0  0  0  0  0  0  0  0  0  0  0  0
  1  2  2  0
  1  3  1  0
  3  4  1  0
  4  5  1  0
  6  1  1  0
  7  6  1  0
  6  8  1  0
  8  9  1  0
  9 10  2  0
 11  9  1  0
 10 12  1  0
 13 11  2  0
 12 14  2  0
 14 13  1  0
 14 15  1  0
 15 16  1  0
 16 17  1  0
 17 18  2  0
 19 17  1  0
 18 20  1  0
 18 21  1  0
 22 19  2  0
 20 23  1  0
 20 24  2  0
 21 25  2  0
 25 22  1  0
  4 26  2  0
  4 27  1  0
 28 27  1  0
 28 29  1  0
 29 30  1  0
 29 31  1  0
 30 32  1  0
 31 33  1  0
 31 34  1  0
 34 32  1  0
 32 35  1  0
 34 36  1  0
 37 35  1  0
 38 35  1  0
 39 37  2  0
 37 40  1  0
 41 38  2  0
 42 39  1  0
 40 43  2  0
 40 41  1  0
 44 42  2  0
 44 43  1  0
 43 45  1  0
  6 46  1  1
  7 47  1  0
  7 48  1  0
  8 49  1  0
  8 50  1  0
 10 51  1  0
 11 52  1  0
 12 53  1  0
 13 54  1  0
 16 55  1  0
 16 56  1  0
 19 57  1  0
 21 58  1  0
 22 59  1  0
 25 60  1  0
 28 61  1  0
 28 62  1  0
 29 63  1  0
 31 64  1  0
 32 65  1  0
 33 66  1  0
 34 67  1  0
 36 68  1  0
 38 69  1  0
 42 70  1  0
 45 71  1  0
 45 72  1  0
M  CHG  3   5  -1  20   1  23  -1
M  END
>  <EmbedRMS>  (89) 
0.0829253758368

$$$$

     RDKit          3D

 72 76  0  0  0  0  0  0  0  0999 V2000
   10.2804   43.7664   33.8251 C   0  0  0  0  0  0  0  0  0  0  0  0
   11.4111   43.5918   34.3666 O   0  0  0  0  0  0  0  0  0  0  0  0
    9.3617   42.7251   33.7349 O   0  0  0  0  0  0  0  0  0  0  0  0
    9.8896   41.2269   34.2945 P   0  0  0  0  0  0  0  0  0  0  0  0
   10.3732   41.4568   35.8838 O   0  0  0  0  0  0  0  0  0  0  0  0
    9.9459   45.0736   33.2113 C   0  0  1  0  0  0  0  0  0  0  0  0
   11.0268   46.0291   33.4706 N   0  0  0  0  0  0  0  0  0  0  0  0
    9.7534   44.8539   31.6951 C   0  0  0  0  0  0  0  0  0  0  0  0
    8.7954   45.8415   31.0853 C   0  0  0  0  0  0  0  0  0  0  0  0
    7.4086   45.6006   31.1007 C   0  0  0  0  0  0  0  0  0  0  0  0
    9.2830   46.9876   30.4396 C   0  0  0  0  0  0  0  0  0  0  0  0
    6.5281   46.5006   30.4846 C   0  0  0  0  0  0  0  0  0  0  0  0
    8.4026   47.8890   29.8299 C   0  0  0  0  0  0  0  0  0  0  0  0
    7.0133   47.6516   29.8488 C   0  0  0  0  0  0  0  0  0  0  0  0
    6.0874   48.5185   29.2433 O   0  0  0  0  0  0  0  0  0  0  0  0
    6.4069   49.7760   28.6422 C   0  0  0  0  0  0  0  0  0  0  0  0
    6.9589   49.6477   27.2321 C   0  0  0  0  0  0  0  0  0  0  0  0
    7.2586   50.8067   26.4608 C   0  0  0  0  0  0  0  0  0  0  0  0
    7.1174   48.3778   26.6347 C   0  0  0  0  0  0  0  0  0  0  0  0
    7.0799   52.1384   26.9778 N   0  0  0  0  0  0  0  0  0  0  0  0
    7.7078   50.6568   25.1369 C   0  0  0  0  0  0  0  0  0  0  0  0
    7.5796   48.2551   25.3242 C   0  0  0  0  0  0  0  0  0  0  0  0
    6.7174   53.1587   26.1285 O   0  0  0  0  0  0  0  0  0  0  0  0
    7.4229   52.4242   28.1427 O   0  0  0  0  0  0  0  0  0  0  0  0
    7.8749   49.3913   24.5773 C   0  0  0  0  0  0  0  0  0  0  0  0
    8.8122   40.1844   34.2135 O   0  0  0  0  0  0  0  0  0  0  0  0
   11.2401   40.7949   33.3698 O   0  0  0  0  0  0  0  0  0  0  0  0
   10.9143   40.6914   31.9981 C   0  0  0  0  0  0  0  0  0  0  0  0
   11.5270   39.3911   31.4385 C   0  0  0  0  0  0  0  0  0  0  0  0
   12.7519   39.0911   32.0837 O   0  0  0  0  0  0  0  0  0  0  0  0
   10.6113   38.1932   31.6451 C   0  0  0  0  0  0  0  0  0  0  0  0
   12.9413   37.6838   32.0297 C   0  0  0  0  0  0  0  0  0  0  0  0
    9.6064   38.0877   30.6599 O   0  0  0  0  0  0  0  0  0  0  0  0
   11.5822   37.0197   31.6877 C   0  0  0  0  0  0  0  0  0  0  0  0
   13.4840   37.2104   33.3254 N   0  0  0  0  0  0  0  0  0  0  0  0
   11.6179   36.3072   30.4690 O   0  0  0  0  0  0  0  0  0  0  0  0
   14.4797   36.3309   33.5738 C   0  0  0  0  0  0  0  0  0  0  0  0
   13.1137   37.6269   34.5702 C   0  0  0  0  0  0  0  0  0  0  0  0
   15.2074   35.6152   32.6747 N   0  0  0  0  0  0  0  0  0  0  0  0
   14.6756   36.2298   34.9190 C   0  0  0  0  0  0  0  0  0  0  0  0
   13.8217   37.0445   35.5793 N   0  0  0  0  0  0  0  0  0  0  0  0
   16.1643   34.7603   33.1551 C   0  0  0  0  0  0  0  0  0  0  0  0
   15.6528   35.3503   35.4136 C   0  0  0  0  0  0  0  0  0  0  0  0
   16.3798   34.6315   34.5046 N   0  0  0  0  0  0  0  0  0  0  0  0
   15.9004   35.1930   36.8094 N   0  0  0  0  0  0  0  0  0  0  0  0
    8.9997   45.4383   33.6725 H   0  0  0  0  0  0  0  0  0  0  0  0
   10.7766   46.9367   33.0154 H   0  0  0  0  0  0  0  0  0  0  0  0
   11.0505   46.2278   34.4979 H   0  0  0  0  0  0  0  0  0  0  0  0
    9.3631   43.8354   31.4716 H   0  0  0  0  0  0  0  0  0  0  0  0
   10.7404   44.9069   31.1835 H   0  0  0  0  0  0  0  0  0  0  0  0
    7.0131   44.7159   31.5843 H   0  0  0  0  0  0  0  0  0  0  0  0
   10.3475   47.1840   30.4029 H   0  0  0  0  0  0  0  0  0  0  0  0
    5.4639   46.3022   30.5020 H   0  0  0  0  0  0  0  0  0  0  0  0
    8.8157   48.7554   29.3327 H   0  0  0  0  0  0  0  0  0  0  0  0
    5.4726   50.3736   28.5928 H   0  0  0  0  0  0  0  0  0  0  0  0
    7.1164   50.3195   29.2990 H   0  0  0  0  0  0  0  0  0  0  0  0
    6.8730   47.4693   27.1660 H   0  0  0  0  0  0  0  0  0  0  0  0
    7.9407   51.5273   24.5367 H   0  0  0  0  0  0  0  0  0  0  0  0
    7.6992   47.2738   24.8830 H   0  0  0  0  0  0  0  0  0  0  0  0
    8.2281   49.2922   23.5589 H   0  0  0  0  0  0  0  0  0  0  0  0
    9.8234   40.7201   31.7652 H   0  0  0  0  0  0  0  0  0  0  0  0
   11.3775   41.5548   31.4741 H   0  0  0  0  0  0  0  0  0  0  0  0
   11.7312   39.5361   30.3532 H   0  0  0  0  0  0  0  0  0  0  0  0
   10.1203   38.2696   32.6410 H   0  0  0  0  0  0  0  0  0  0  0  0
   13.6850   37.4639   31.2321 H   0  0  0  0  0  0  0  0  0  0  0  0
   10.0250   38.1792   29.7654 H   0  0  0  0  0  0  0  0  0  0  0  0
   11.2757   36.3135   32.4907 H   0  0  0  0  0  0  0  0  0  0  0  0
   11.9839   36.9111   29.7708 H   0  0  0  0  0  0  0  0  0  0  0  0
   12.3307   38.3537   34.7458 H   0  0  0  0  0  0  0  0  0  0  0  0
   16.7565   34.1786   32.4623 H   0  0  0  0  0  0  0  0  0  0  0  0
   15.3535   35.7355   37.5144 H   0  0  0  0  0  0  0  0  0  0  0  0
   16.6353   34.5301   37.1419 H   0  0  0  0  0  0  0  0  0  0  0  0
  1  2  2  0
  1  3  1  0
  3  4  1  0
  4  5  1  0
  6  1  1  0
  7  6  1  0
  6  8  1  0
  8  9  1  0
  9 10  2  0
 11  9  1  0
 10 12  1  0
 13 11  2  0
 12 14  2  0
 14 13  1  0
 14 15  1  0
 15 16  1  0
 16 17  1  0
 17 18  2  0
 19 17  1  0
 18 20  1  0
 18 21  1  0
 22 19  2  0
 20 23  1  0
 20 24  2  0
 21 25  2  0
 25 22  1  0
  4 26  2  0
  4 27  1  0
 28 27  1  0
 28 29  1  0
 29 30  1  0
 29 31  1  0
 30 32  1  0
 31 33  1  0
 31 34  1  0
 34 32  1  0
 32 35  1  0
 34 36  1  0
 37 35  1  0
 38 35  1  0
 39 37  2  0
 37 40  1  0
 41 38  2  0
 42 39  1  0
 40 43  2  0
 40 41  1  0
 44 42  2  0
 44 43  1  0
 43 45  1  0
  6 46  1  1
  7 47  1  0
  7 48  1  0
  8 49  1  0
  8 50  1  0
 10 51  1  0
 11 52  1  0
 12 53  1  0
 13 54  1  0
 16 55  1  0
 16 56  1  0
 19 57  1  0
 21 58  1  0
 22 59  1  0
 25 60  1  0
 28 61  1  0
 28 62  1  0
 29 63  1  0
 31 64  1  0
 32 65  1  0
 33 66  1  0
 34 67  1  0
 36 68  1  0
 38 69  1  0
 42 70  1  0
 45 71  1  0
 45 72  1  0
M  CHG  3   5  -1  20   1  23  -1
M  END
>  <EmbedRMS>  (90) 
0.0806454518668

$$$$

     RDKit          3D

 72 76  0  0  0  0  0  0  0  0999 V2000
   10.2834   43.7662   33.8257 C   0  0  0  0  0  0  0  0  0  0  0  0
   11.4102   43.5930   34.3752 O   0  0  0  0  0  0  0  0  0  0  0  0
    9.3635   42.7257   33.7352 O   0  0  0  0  0  0  0  0  0  0  0  0
    9.8899   41.2270   34.2947 P   0  0  0  0  0  0  0  0  0  0  0  0
   10.3732   41.4562   35.8841 O   0  0  0  0  0  0  0  0  0  0  0  0
    9.9548   45.0696   33.2035 C   0  0  1  0  0  0  0  0  0  0  0  0
   11.0274   46.0322   33.4759 N   0  0  0  0  0  0  0  0  0  0  0  0
    9.7470   44.8484   31.6875 C   0  0  0  0  0  0  0  0  0  0  0  0
    8.7924   45.8409   31.0843 C   0  0  0  0  0  0  0  0  0  0  0  0
    7.4055   45.6009   31.0995 C   0  0  0  0  0  0  0  0  0  0  0  0
    9.2818   46.9881   30.4420 C   0  0  0  0  0  0  0  0  0  0  0  0
    6.5241   46.5011   30.4850 C   0  0  0  0  0  0  0  0  0  0  0  0
    8.4006   47.8886   29.8323 C   0  0  0  0  0  0  0  0  0  0  0  0
    7.0191   47.6560   29.8458 C   0  0  0  0  0  0  0  0  0  0  0  0
    6.1804   48.5874   29.2169 O   0  0  0  0  0  0  0  0  0  0  0  0
    4.7618   48.4712   29.1358 C   0  0  0  0  0  0  0  0  0  0  0  0
    4.2037   49.6277   28.3439 C   0  0  0  0  0  0  0  0  0  0  0  0
    4.6242   49.9093   27.0139 C   0  0  0  0  0  0  0  0  0  0  0  0
    3.2663   50.4771   28.9612 C   0  0  0  0  0  0  0  0  0  0  0  0
    5.5775   49.0832   26.3188 N   0  0  0  0  0  0  0  0  0  0  0  0
    4.1113   51.0448   26.3612 C   0  0  0  0  0  0  0  0  0  0  0  0
    2.7596   51.5891   28.2879 C   0  0  0  0  0  0  0  0  0  0  0  0
    6.3961   49.6372   25.3614 O   0  0  0  0  0  0  0  0  0  0  0  0
    5.5677   47.8426   26.4517 O   0  0  0  0  0  0  0  0  0  0  0  0
    3.1839   51.8744   26.9923 C   0  0  0  0  0  0  0  0  0  0  0  0
    8.8120   40.1851   34.2133 O   0  0  0  0  0  0  0  0  0  0  0  0
   11.2403   40.7947   33.3700 O   0  0  0  0  0  0  0  0  0  0  0  0
   10.9145   40.6914   31.9982 C   0  0  0  0  0  0  0  0  0  0  0  0
   11.5270   39.3912   31.4385 C   0  0  0  0  0  0  0  0  0  0  0  0
   12.7520   39.0911   32.0836 O   0  0  0  0  0  0  0  0  0  0  0  0
   10.6113   38.1932   31.6451 C   0  0  0  0  0  0  0  0  0  0  0  0
   12.9413   37.6838   32.0297 C   0  0  0  0  0  0  0  0  0  0  0  0
    9.6064   38.0878   30.6599 O   0  0  0  0  0  0  0  0  0  0  0  0
   11.5822   37.0198   31.6877 C   0  0  0  0  0  0  0  0  0  0  0  0
   13.4840   37.2104   33.3254 N   0  0  0  0  0  0  0  0  0  0  0  0
   11.6179   36.3072   30.4690 O   0  0  0  0  0  0  0  0  0  0  0  0
   14.4797   36.3309   33.5738 C   0  0  0  0  0  0  0  0  0  0  0  0
   13.1136   37.6269   34.5702 C   0  0  0  0  0  0  0  0  0  0  0  0
   15.2074   35.6152   32.6747 N   0  0  0  0  0  0  0  0  0  0  0  0
   14.6756   36.2298   34.9190 C   0  0  0  0  0  0  0  0  0  0  0  0
   13.8217   37.0445   35.5793 N   0  0  0  0  0  0  0  0  0  0  0  0
   16.1643   34.7603   33.1551 C   0  0  0  0  0  0  0  0  0  0  0  0
   15.6528   35.3503   35.4136 C   0  0  0  0  0  0  0  0  0  0  0  0
   16.3798   34.6316   34.5046 N   0  0  0  0  0  0  0  0  0  0  0  0
   15.9004   35.1930   36.8094 N   0  0  0  0  0  0  0  0  0  0  0  0
    9.0121   45.4318   33.6712 H   0  0  0  0  0  0  0  0  0  0  0  0
   10.7262   46.9688   33.1214 H   0  0  0  0  0  0  0  0  0  0  0  0
   11.8908   45.7658   32.9475 H   0  0  0  0  0  0  0  0  0  0  0  0
   10.7235   44.8824   31.1557 H   0  0  0  0  0  0  0  0  0  0  0  0
    9.3424   43.8331   31.4758 H   0  0  0  0  0  0  0  0  0  0  0  0
    7.0098   44.7158   31.5823 H   0  0  0  0  0  0  0  0  0  0  0  0
   10.3461   47.1864   30.4103 H   0  0  0  0  0  0  0  0  0  0  0  0
    5.4642   46.2892   30.5138 H   0  0  0  0  0  0  0  0  0  0  0  0
    8.7936   48.7703   29.3420 H   0  0  0  0  0  0  0  0  0  0  0  0
    4.4781   47.5161   28.6460 H   0  0  0  0  0  0  0  0  0  0  0  0
    4.3424   48.4558   30.1657 H   0  0  0  0  0  0  0  0  0  0  0  0
    2.9296   50.2853   29.9725 H   0  0  0  0  0  0  0  0  0  0  0  0
    4.4194   51.2815   25.3508 H   0  0  0  0  0  0  0  0  0  0  0  0
    2.0404   52.2349   28.7751 H   0  0  0  0  0  0  0  0  0  0  0  0
    2.7922   52.7402   26.4740 H   0  0  0  0  0  0  0  0  0  0  0  0
    9.8235   40.7201   31.7654 H   0  0  0  0  0  0  0  0  0  0  0  0
   11.3777   41.5549   31.4744 H   0  0  0  0  0  0  0  0  0  0  0  0
   11.7311   39.5363   30.3532 H   0  0  0  0  0  0  0  0  0  0  0  0
   10.1203   38.2696   32.6410 H   0  0  0  0  0  0  0  0  0  0  0  0
   13.6850   37.4639   31.2321 H   0  0  0  0  0  0  0  0  0  0  0  0
   10.0251   38.1793   29.7654 H   0  0  0  0  0  0  0  0  0  0  0  0
   11.2757   36.3135   32.4907 H   0  0  0  0  0  0  0  0  0  0  0  0
   11.9838   36.9111   29.7708 H   0  0  0  0  0  0  0  0  0  0  0  0
   12.3307   38.3536   34.7457 H   0  0  0  0  0  0  0  0  0  0  0  0
   16.7566   34.1787   32.4623 H   0  0  0  0  0  0  0  0  0  0  0  0
   16.6353   34.5301   37.1419 H   0  0  0  0  0  0  0  0  0  0  0  0
   15.3535   35.7355   37.5144 H   0  0  0  0  0  0  0  0  0  0  0  0
  1  2  2  0
  1  3  1  0
  3  4  1  0
  4  5  1  0
  6  1  1  0
  7  6  1  0
  6  8  1  0
  8  9  1  0
  9 10  2  0
 11  9  1  0
 10 12  1  0
 13 11  2  0
 12 14  2  0
 14 13  1  0
 14 15  1  0
 15 16  1  0
 16 17  1  0
 17 18  2  0
 19 17  1  0
 18 20  1  0
 18 21  1  0
 22 19  2  0
 20 23  1  0
 20 24  2  0
 21 25  2  0
 25 22  1  0
  4 26  2  0
  4 27  1  0
 28 27  1  0
 28 29  1  0
 29 30  1  0
 29 31  1  0
 30 32  1  0
 31 33  1  0
 31 34  1  0
 34 32  1  0
 32 35  1  0
 34 36  1  0
 37 35  1  0
 38 35  1  0
 39 37  2  0
 37 40  1  0
 41 38  2  0
 42 39  1  0
 40 43  2  0
 40 41  1  0
 44 42  2  0
 44 43  1  0
 43 45  1  0
  6 46  1  1
  7 47  1  0
  7 48  1  0
  8 49  1  0
  8 50  1  0
 10 51  1  0
 11 52  1  0
 12 53  1  0
 13 54  1  0
 16 55  1  0
 16 56  1  0
 19 57  1  0
 21 58  1  0
 22 59  1  0
 25 60  1  0
 28 61  1  0
 28 62  1  0
 29 63  1  0
 31 64  1  0
 32 65  1  0
 33 66  1  0
 34 67  1  0
 36 68  1  0
 38 69  1  0
 42 70  1  0
 45 71  1  0
 45 72  1  0
M  CHG  3   5  -1  20   1  23  -1
M  END
>  <EmbedRMS>  (91) 
0.0808182170631

$$$$

     RDKit          3D

 72 76  0  0  0  0  0  0  0  0999 V2000
   10.2805   43.7663   33.8250 C   0  0  0  0  0  0  0  0  0  0  0  0
   11.4111   43.5919   34.3667 O   0  0  0  0  0  0  0  0  0  0  0  0
    9.3622   42.7247   33.7343 O   0  0  0  0  0  0  0  0  0  0  0  0
    9.8904   41.2264   34.2937 P   0  0  0  0  0  0  0  0  0  0  0  0
   10.3732   41.4564   35.8832 O   0  0  0  0  0  0  0  0  0  0  0  0
    9.9459   45.0735   33.2112 C   0  0  1  0  0  0  0  0  0  0  0  0
   11.0266   46.0291   33.4706 N   0  0  0  0  0  0  0  0  0  0  0  0
    9.7535   44.8538   31.6950 C   0  0  0  0  0  0  0  0  0  0  0  0
    8.7955   45.8411   31.0848 C   0  0  0  0  0  0  0  0  0  0  0  0
    7.4085   45.6005   31.1007 C   0  0  0  0  0  0  0  0  0  0  0  0
    9.2831   46.9879   30.4398 C   0  0  0  0  0  0  0  0  0  0  0  0
    6.5278   46.5009   30.4853 C   0  0  0  0  0  0  0  0  0  0  0  0
    8.4025   47.8893   29.8302 C   0  0  0  0  0  0  0  0  0  0  0  0
    7.0139   47.6509   29.8482 C   0  0  0  0  0  0  0  0  0  0  0  0
    6.0915   48.5225   29.2515 O   0  0  0  0  0  0  0  0  0  0  0  0
    6.4403   49.7317   28.5829 C   0  0  0  0  0  0  0  0  0  0  0  0
    5.1878   50.4124   28.0962 C   0  0  0  0  0  0  0  0  0  0  0  0
    4.4072   51.2515   28.9357 C   0  0  0  0  0  0  0  0  0  0  0  0
    4.7995   50.2258   26.7570 C   0  0  0  0  0  0  0  0  0  0  0  0
    4.7391   51.4623   30.3207 N   0  0  0  0  0  0  0  0  0  0  0  0
    3.2841   51.9048   28.3945 C   0  0  0  0  0  0  0  0  0  0  0  0
    3.6731   50.8712   26.2454 C   0  0  0  0  0  0  0  0  0  0  0  0
    5.1900   50.4235   31.1013 O   0  0  0  0  0  0  0  0  0  0  0  0
    4.4648   52.5490   30.8710 O   0  0  0  0  0  0  0  0  0  0  0  0
    2.9200   51.7131   27.0611 C   0  0  0  0  0  0  0  0  0  0  0  0
    8.8129   40.1841   34.2125 O   0  0  0  0  0  0  0  0  0  0  0  0
   11.2419   40.7944   33.3695 O   0  0  0  0  0  0  0  0  0  0  0  0
   10.9186   40.6911   31.9970 C   0  0  0  0  0  0  0  0  0  0  0  0
   11.5172   39.3814   31.4407 C   0  0  0  0  0  0  0  0  0  0  0  0
   12.7492   39.0856   32.0729 O   0  0  0  0  0  0  0  0  0  0  0  0
   10.6023   38.1908   31.6665 C   0  0  0  0  0  0  0  0  0  0  0  0
   12.9319   37.6781   32.0281 C   0  0  0  0  0  0  0  0  0  0  0  0
    9.6392   38.0797   30.6452 O   0  0  0  0  0  0  0  0  0  0  0  0
   11.5715   37.0165   31.7056 C   0  0  0  0  0  0  0  0  0  0  0  0
   13.4847   37.2121   33.3235 N   0  0  0  0  0  0  0  0  0  0  0  0
   11.6187   36.3383   30.4695 O   0  0  0  0  0  0  0  0  0  0  0  0
   14.4801   36.3321   33.5724 C   0  0  0  0  0  0  0  0  0  0  0  0
   13.1137   37.6276   34.5688 C   0  0  0  0  0  0  0  0  0  0  0  0
   15.2073   35.6153   32.6738 N   0  0  0  0  0  0  0  0  0  0  0  0
   14.6759   36.2308   34.9179 C   0  0  0  0  0  0  0  0  0  0  0  0
   13.8216   37.0452   35.5781 N   0  0  0  0  0  0  0  0  0  0  0  0
   16.1640   34.7602   33.1546 C   0  0  0  0  0  0  0  0  0  0  0  0
   15.6526   35.3508   35.4129 C   0  0  0  0  0  0  0  0  0  0  0  0
   16.3794   34.6317   34.5041 N   0  0  0  0  0  0  0  0  0  0  0  0
   15.8999   35.1935   36.8088 N   0  0  0  0  0  0  0  0  0  0  0  0
    8.9995   45.4380   33.6724 H   0  0  0  0  0  0  0  0  0  0  0  0
   10.7763   46.9368   33.0157 H   0  0  0  0  0  0  0  0  0  0  0  0
   11.0504   46.2276   34.4980 H   0  0  0  0  0  0  0  0  0  0  0  0
   10.7406   44.9069   31.1835 H   0  0  0  0  0  0  0  0  0  0  0  0
    9.3634   43.8353   31.4715 H   0  0  0  0  0  0  0  0  0  0  0  0
    7.0129   44.7162   31.5851 H   0  0  0  0  0  0  0  0  0  0  0  0
   10.3474   47.1862   30.4063 H   0  0  0  0  0  0  0  0  0  0  0  0
    5.4634   46.3044   30.5051 H   0  0  0  0  0  0  0  0  0  0  0  0
    8.8123   48.7643   29.3447 H   0  0  0  0  0  0  0  0  0  0  0  0
    7.1082   49.4949   27.7256 H   0  0  0  0  0  0  0  0  0  0  0  0
    7.0022   50.4067   29.2636 H   0  0  0  0  0  0  0  0  0  0  0  0
    5.3748   49.5825   26.1024 H   0  0  0  0  0  0  0  0  0  0  0  0
    2.6767   52.5529   29.0136 H   0  0  0  0  0  0  0  0  0  0  0  0
    3.3866   50.7216   25.2124 H   0  0  0  0  0  0  0  0  0  0  0  0
    2.0486   52.2153   26.6608 H   0  0  0  0  0  0  0  0  0  0  0  0
    9.8298   40.7409   31.7611 H   0  0  0  0  0  0  0  0  0  0  0  0
   11.3967   41.5459   31.4726 H   0  0  0  0  0  0  0  0  0  0  0  0
   11.6975   39.5066   30.3481 H   0  0  0  0  0  0  0  0  0  0  0  0
   10.1077   38.2647   32.6646 H   0  0  0  0  0  0  0  0  0  0  0  0
   13.6621   37.4468   31.2209 H   0  0  0  0  0  0  0  0  0  0  0  0
    8.8974   38.6942   30.8832 H   0  0  0  0  0  0  0  0  0  0  0  0
   11.2806   36.3073   32.5170 H   0  0  0  0  0  0  0  0  0  0  0  0
   10.8493   35.7110   30.4586 H   0  0  0  0  0  0  0  0  0  0  0  0
   12.3290   38.3524   34.7444 H   0  0  0  0  0  0  0  0  0  0  0  0
   16.7559   34.1780   32.4619 H   0  0  0  0  0  0  0  0  0  0  0  0
   15.3532   35.7362   37.5137 H   0  0  0  0  0  0  0  0  0  0  0  0
   16.6344   34.5301   37.1414 H   0  0  0  0  0  0  0  0  0  0  0  0
  1  2  2  0
  1  3  1  0
  3  4  1  0
  4  5  1  0
  6  1  1  0
  7  6  1  0
  6  8  1  0
  8  9  1  0
  9 10  2  0
 11  9  1  0
 10 12  1  0
 13 11  2  0
 12 14  2  0
 14 13  1  0
 14 15  1  0
 15 16  1  0
 16 17  1  0
 17 18  2  0
 19 17  1  0
 18 20  1  0
 18 21  1  0
 22 19  2  0
 20 23  1  0
 20 24  2  0
 21 25  2  0
 25 22  1  0
  4 26  2  0
  4 27  1  0
 28 27  1  0
 28 29  1  0
 29 30  1  0
 29 31  1  0
 30 32  1  0
 31 33  1  0
 31 34  1  0
 34 32  1  0
 32 35  1  0
 34 36  1  0
 37 35  1  0
 38 35  1  0
 39 37  2  0
 37 40  1  0
 41 38  2  0
 42 39  1  0
 40 43  2  0
 40 41  1  0
 44 42  2  0
 44 43  1  0
 43 45  1  0
  6 46  1  1
  7 47  1  0
  7 48  1  0
  8 49  1  0
  8 50  1  0
 10 51  1  0
 11 52  1  0
 12 53  1  0
 13 54  1  0
 16 55  1  0
 16 56  1  0
 19 57  1  0
 21 58  1  0
 22 59  1  0
 25 60  1  0
 28 61  1  0
 28 62  1  0
 29 63  1  0
 31 64  1  0
 32 65  1  0
 33 66  1  0
 34 67  1  0
 36 68  1  0
 38 69  1  0
 42 70  1  0
 45 71  1  0
 45 72  1  0
M  CHG  3   5  -1  20   1  23  -1
M  END
>  <EmbedRMS>  (92) 
0.0827687096096

$$$$

     RDKit          3D

 72 76  0  0  0  0  0  0  0  0999 V2000
   10.2834   43.7662   33.8257 C   0  0  0  0  0  0  0  0  0  0  0  0
   11.4101   43.5930   34.3752 O   0  0  0  0  0  0  0  0  0  0  0  0
    9.3635   42.7257   33.7352 O   0  0  0  0  0  0  0  0  0  0  0  0
    9.8899   41.2270   34.2948 P   0  0  0  0  0  0  0  0  0  0  0  0
   10.3732   41.4562   35.8841 O   0  0  0  0  0  0  0  0  0  0  0  0
    9.9546   45.0695   33.2035 C   0  0  1  0  0  0  0  0  0  0  0  0
   11.0274   46.0321   33.4755 N   0  0  0  0  0  0  0  0  0  0  0  0
    9.7466   44.8479   31.6875 C   0  0  0  0  0  0  0  0  0  0  0  0
    8.7924   45.8406   31.0841 C   0  0  0  0  0  0  0  0  0  0  0  0
    7.4055   45.6017   31.0993 C   0  0  0  0  0  0  0  0  0  0  0  0
    9.2823   46.9879   30.4426 C   0  0  0  0  0  0  0  0  0  0  0  0
    6.5266   46.5036   30.4845 C   0  0  0  0  0  0  0  0  0  0  0  0
    8.4032   47.8904   29.8327 C   0  0  0  0  0  0  0  0  0  0  0  0
    7.0141   47.6521   29.8459 C   0  0  0  0  0  0  0  0  0  0  0  0
    6.0898   48.5206   29.2427 O   0  0  0  0  0  0  0  0  0  0  0  0
    6.4272   49.6784   28.4768 C   0  0  0  0  0  0  0  0  0  0  0  0
    7.0561   49.2860   27.1574 C   0  0  0  0  0  0  0  0  0  0  0  0
    8.2618   49.8665   26.6826 C   0  0  0  0  0  0  0  0  0  0  0  0
    6.4339   48.2811   26.3942 C   0  0  0  0  0  0  0  0  0  0  0  0
    8.8960   50.9608   27.3621 N   0  0  0  0  0  0  0  0  0  0  0  0
    8.8438   49.3738   25.5023 C   0  0  0  0  0  0  0  0  0  0  0  0
    7.0164   47.8196   25.2130 C   0  0  0  0  0  0  0  0  0  0  0  0
   10.2691   51.0347   27.4054 O   0  0  0  0  0  0  0  0  0  0  0  0
    8.2281   51.9603   27.6982 O   0  0  0  0  0  0  0  0  0  0  0  0
    8.2248   48.3571   24.7737 C   0  0  0  0  0  0  0  0  0  0  0  0
    8.8120   40.1850   34.2133 O   0  0  0  0  0  0  0  0  0  0  0  0
   11.2403   40.7947   33.3700 O   0  0  0  0  0  0  0  0  0  0  0  0
   10.9145   40.6914   31.9982 C   0  0  0  0  0  0  0  0  0  0  0  0
   11.5270   39.3912   31.4385 C   0  0  0  0  0  0  0  0  0  0  0  0
   12.7520   39.0911   32.0836 O   0  0  0  0  0  0  0  0  0  0  0  0
   10.6113   38.1932   31.6451 C   0  0  0  0  0  0  0  0  0  0  0  0
   12.9413   37.6838   32.0297 C   0  0  0  0  0  0  0  0  0  0  0  0
    9.6064   38.0878   30.6599 O   0  0  0  0  0  0  0  0  0  0  0  0
   11.5822   37.0197   31.6877 C   0  0  0  0  0  0  0  0  0  0  0  0
   13.4840   37.2104   33.3254 N   0  0  0  0  0  0  0  0  0  0  0  0
   11.6179   36.3072   30.4691 O   0  0  0  0  0  0  0  0  0  0  0  0
   14.4797   36.3309   33.5738 C   0  0  0  0  0  0  0  0  0  0  0  0
   13.1137   37.6269   34.5702 C   0  0  0  0  0  0  0  0  0  0  0  0
   15.2074   35.6152   32.6747 N   0  0  0  0  0  0  0  0  0  0  0  0
   14.6756   36.2298   34.9190 C   0  0  0  0  0  0  0  0  0  0  0  0
   13.8217   37.0445   35.5793 N   0  0  0  0  0  0  0  0  0  0  0  0
   16.1643   34.7603   33.1551 C   0  0  0  0  0  0  0  0  0  0  0  0
   15.6528   35.3503   35.4136 C   0  0  0  0  0  0  0  0  0  0  0  0
   16.3798   34.6316   34.5046 N   0  0  0  0  0  0  0  0  0  0  0  0
   15.9004   35.1930   36.8094 N   0  0  0  0  0  0  0  0  0  0  0  0
    9.0121   45.4318   33.6712 H   0  0  0  0  0  0  0  0  0  0  0  0
   10.7260   46.9687   33.1212 H   0  0  0  0  0  0  0  0  0  0  0  0
   11.8906   45.7658   32.9468 H   0  0  0  0  0  0  0  0  0  0  0  0
   10.7230   44.8813   31.1555 H   0  0  0  0  0  0  0  0  0  0  0  0
    9.3414   43.8328   31.4762 H   0  0  0  0  0  0  0  0  0  0  0  0
    7.0083   44.7170   31.5816 H   0  0  0  0  0  0  0  0  0  0  0  0
   10.3468   47.1857   30.4131 H   0  0  0  0  0  0  0  0  0  0  0  0
    5.4621   46.3069   30.5017 H   0  0  0  0  0  0  0  0  0  0  0  0
    8.8163   48.7672   29.3559 H   0  0  0  0  0  0  0  0  0  0  0  0
    5.4919   50.2361   28.2614 H   0  0  0  0  0  0  0  0  0  0  0  0
    7.0705   50.3389   29.0909 H   0  0  0  0  0  0  0  0  0  0  0  0
    5.5035   47.8374   26.7273 H   0  0  0  0  0  0  0  0  0  0  0  0
    9.7678   49.7984   25.1306 H   0  0  0  0  0  0  0  0  0  0  0  0
    6.5335   47.0373   24.6417 H   0  0  0  0  0  0  0  0  0  0  0  0
    8.6774   47.9940   23.8600 H   0  0  0  0  0  0  0  0  0  0  0  0
   11.3777   41.5549   31.4744 H   0  0  0  0  0  0  0  0  0  0  0  0
    9.8235   40.7201   31.7654 H   0  0  0  0  0  0  0  0  0  0  0  0
   11.7311   39.5362   30.3532 H   0  0  0  0  0  0  0  0  0  0  0  0
   10.1203   38.2696   32.6410 H   0  0  0  0  0  0  0  0  0  0  0  0
   13.6850   37.4638   31.2321 H   0  0  0  0  0  0  0  0  0  0  0  0
   10.0250   38.1792   29.7654 H   0  0  0  0  0  0  0  0  0  0  0  0
   11.2757   36.3135   32.4908 H   0  0  0  0  0  0  0  0  0  0  0  0
   11.9838   36.9111   29.7708 H   0  0  0  0  0  0  0  0  0  0  0  0
   12.3307   38.3536   34.7458 H   0  0  0  0  0  0  0  0  0  0  0  0
   16.7566   34.1787   32.4622 H   0  0  0  0  0  0  0  0  0  0  0  0
   15.3535   35.7355   37.5144 H   0  0  0  0  0  0  0  0  0  0  0  0
   16.6353   34.5301   37.1418 H   0  0  0  0  0  0  0  0  0  0  0  0
  1  2  2  0
  1  3  1  0
  3  4  1  0
  4  5  1  0
  6  1  1  0
  7  6  1  0
  6  8  1  0
  8  9  1  0
  9 10  2  0
 11  9  1  0
 10 12  1  0
 13 11  2  0
 12 14  2  0
 14 13  1  0
 14 15  1  0
 15 16  1  0
 16 17  1  0
 17 18  2  0
 19 17  1  0
 18 20  1  0
 18 21  1  0
 22 19  2  0
 20 23  1  0
 20 24  2  0
 21 25  2  0
 25 22  1  0
  4 26  2  0
  4 27  1  0
 28 27  1  0
 28 29  1  0
 29 30  1  0
 29 31  1  0
 30 32  1  0
 31 33  1  0
 31 34  1  0
 34 32  1  0
 32 35  1  0
 34 36  1  0
 37 35  1  0
 38 35  1  0
 39 37  2  0
 37 40  1  0
 41 38  2  0
 42 39  1  0
 40 43  2  0
 40 41  1  0
 44 42  2  0
 44 43  1  0
 43 45  1  0
  6 46  1  1
  7 47  1  0
  7 48  1  0
  8 49  1  0
  8 50  1  0
 10 51  1  0
 11 52  1  0
 12 53  1  0
 13 54  1  0
 16 55  1  0
 16 56  1  0
 19 57  1  0
 21 58  1  0
 22 59  1  0
 25 60  1  0
 28 61  1  0
 28 62  1  0
 29 63  1  0
 31 64  1  0
 32 65  1  0
 33 66  1  0
 34 67  1  0
 36 68  1  0
 38 69  1  0
 42 70  1  0
 45 71  1  0
 45 72  1  0
M  CHG  3   5  -1  20   1  23  -1
M  END
>  <EmbedRMS>  (93) 
0.0808377705004

$$$$

     RDKit          3D

 72 76  0  0  0  0  0  0  0  0999 V2000
   10.2839   43.7626   33.8276 C   0  0  0  0  0  0  0  0  0  0  0  0
   11.4104   43.5863   34.3767 O   0  0  0  0  0  0  0  0  0  0  0  0
    9.3633   42.7234   33.7352 O   0  0  0  0  0  0  0  0  0  0  0  0
    9.8898   41.2247   34.2940 P   0  0  0  0  0  0  0  0  0  0  0  0
   10.3724   41.4544   35.8837 O   0  0  0  0  0  0  0  0  0  0  0  0
    9.9548   45.0699   33.2065 C   0  0  1  0  0  0  0  0  0  0  0  0
   11.0198   46.0480   33.4569 N   0  0  0  0  0  0  0  0  0  0  0  0
    9.7501   44.8508   31.6924 C   0  0  0  0  0  0  0  0  0  0  0  0
    8.7942   45.8419   31.0870 C   0  0  0  0  0  0  0  0  0  0  0  0
    7.4073   45.6010   31.1001 C   0  0  0  0  0  0  0  0  0  0  0  0
    9.2834   46.9892   30.4447 C   0  0  0  0  0  0  0  0  0  0  0  0
    6.5276   46.5018   30.4841 C   0  0  0  0  0  0  0  0  0  0  0  0
    8.4037   47.8901   29.8323 C   0  0  0  0  0  0  0  0  0  0  0  0
    7.0149   47.6516   29.8477 C   0  0  0  0  0  0  0  0  0  0  0  0
    6.0935   48.5228   29.2488 O   0  0  0  0  0  0  0  0  0  0  0  0
    6.4435   49.7310   28.5790 C   0  0  0  0  0  0  0  0  0  0  0  0
    5.1919   50.4108   28.0889 C   0  0  0  0  0  0  0  0  0  0  0  0
    4.4101   51.2518   28.9253 C   0  0  0  0  0  0  0  0  0  0  0  0
    4.8056   50.2212   26.7495 C   0  0  0  0  0  0  0  0  0  0  0  0
    4.7397   51.4654   30.3104 N   0  0  0  0  0  0  0  0  0  0  0  0
    3.2879   51.9040   28.3810 C   0  0  0  0  0  0  0  0  0  0  0  0
    3.6800   50.8655   26.2348 C   0  0  0  0  0  0  0  0  0  0  0  0
    5.1890   50.4281   31.0939 O   0  0  0  0  0  0  0  0  0  0  0  0
    4.4647   52.5532   30.8580 O   0  0  0  0  0  0  0  0  0  0  0  0
    2.9258   51.7093   27.0474 C   0  0  0  0  0  0  0  0  0  0  0  0
    8.8118   40.1831   34.2121 O   0  0  0  0  0  0  0  0  0  0  0  0
   11.2413   40.7934   33.3696 O   0  0  0  0  0  0  0  0  0  0  0  0
   10.9179   40.6902   31.9971 C   0  0  0  0  0  0  0  0  0  0  0  0
   11.5181   39.3813   31.4408 C   0  0  0  0  0  0  0  0  0  0  0  0
   12.7498   39.0869   32.0745 O   0  0  0  0  0  0  0  0  0  0  0  0
   10.6045   38.1891   31.6655 C   0  0  0  0  0  0  0  0  0  0  0  0
   12.9344   37.6801   32.0290 C   0  0  0  0  0  0  0  0  0  0  0  0
    9.6418   38.0758   30.6440 O   0  0  0  0  0  0  0  0  0  0  0  0
   11.5741   37.0169   31.7045 C   0  0  0  0  0  0  0  0  0  0  0  0
   13.4851   37.2125   33.3241 N   0  0  0  0  0  0  0  0  0  0  0  0
   11.6079   36.3407   30.4679 O   0  0  0  0  0  0  0  0  0  0  0  0
   14.4801   36.3321   33.5727 C   0  0  0  0  0  0  0  0  0  0  0  0
   13.1140   37.6277   34.5692 C   0  0  0  0  0  0  0  0  0  0  0  0
   15.2073   35.6155   32.6739 N   0  0  0  0  0  0  0  0  0  0  0  0
   14.6758   36.2306   34.9182 C   0  0  0  0  0  0  0  0  0  0  0  0
   13.8217   37.0451   35.5784 N   0  0  0  0  0  0  0  0  0  0  0  0
   16.1639   34.7602   33.1546 C   0  0  0  0  0  0  0  0  0  0  0  0
   15.6526   35.3506   35.4130 C   0  0  0  0  0  0  0  0  0  0  0  0
   16.3794   34.6316   34.5041 N   0  0  0  0  0  0  0  0  0  0  0  0
   15.9000   35.1933   36.8089 N   0  0  0  0  0  0  0  0  0  0  0  0
    9.0099   45.4348   33.6672 H   0  0  0  0  0  0  0  0  0  0  0  0
   11.9348   45.6932   33.0924 H   0  0  0  0  0  0  0  0  0  0  0  0
   11.1135   46.1992   34.4882 H   0  0  0  0  0  0  0  0  0  0  0  0
    9.3507   43.8344   31.4763 H   0  0  0  0  0  0  0  0  0  0  0  0
   10.7303   44.8922   31.1675 H   0  0  0  0  0  0  0  0  0  0  0  0
    7.0107   44.7159   31.5822 H   0  0  0  0  0  0  0  0  0  0  0  0
   10.3477   47.1880   30.4159 H   0  0  0  0  0  0  0  0  0  0  0  0
    5.4632   46.3051   30.5018 H   0  0  0  0  0  0  0  0  0  0  0  0
    8.8142   48.7653   29.3478 H   0  0  0  0  0  0  0  0  0  0  0  0
    7.1131   49.4929   27.7234 H   0  0  0  0  0  0  0  0  0  0  0  0
    7.0041   50.4071   29.2598 H   0  0  0  0  0  0  0  0  0  0  0  0
    5.3818   49.5762   26.0973 H   0  0  0  0  0  0  0  0  0  0  0  0
    2.6796   52.5537   28.9977 H   0  0  0  0  0  0  0  0  0  0  0  0
    3.3951   50.7136   25.2017 H   0  0  0  0  0  0  0  0  0  0  0  0
    2.0551   52.2108   26.6447 H   0  0  0  0  0  0  0  0  0  0  0  0
   11.3949   41.5458   31.4729 H   0  0  0  0  0  0  0  0  0  0  0  0
    9.8290   40.7386   31.7615 H   0  0  0  0  0  0  0  0  0  0  0  0
   11.6994   39.5070   30.3483 H   0  0  0  0  0  0  0  0  0  0  0  0
   10.1090   38.2633   32.6632 H   0  0  0  0  0  0  0  0  0  0  0  0
   13.6662   37.4514   31.2224 H   0  0  0  0  0  0  0  0  0  0  0  0
    8.9009   38.6924   30.8793 H   0  0  0  0  0  0  0  0  0  0  0  0
   11.2650   36.3082   32.5086 H   0  0  0  0  0  0  0  0  0  0  0  0
   12.1372   35.5140   30.6162 H   0  0  0  0  0  0  0  0  0  0  0  0
   12.3297   38.3530   34.7449 H   0  0  0  0  0  0  0  0  0  0  0  0
   16.7558   34.1781   32.4619 H   0  0  0  0  0  0  0  0  0  0  0  0
   16.6346   34.5300   37.1414 H   0  0  0  0  0  0  0  0  0  0  0  0
   15.3533   35.7360   37.5138 H   0  0  0  0  0  0  0  0  0  0  0  0
  1  2  2  0
  1  3  1  0
  3  4  1  0
  4  5  1  0
  6  1  1  0
  7  6  1  0
  6  8  1  0
  8  9  1  0
  9 10  2  0
 11  9  1  0
 10 12  1  0
 13 11  2  0
 12 14  2  0
 14 13  1  0
 14 15  1  0
 15 16  1  0
 16 17  1  0
 17 18  2  0
 19 17  1  0
 18 20  1  0
 18 21  1  0
 22 19  2  0
 20 23  1  0
 20 24  2  0
 21 25  2  0
 25 22  1  0
  4 26  2  0
  4 27  1  0
 28 27  1  0
 28 29  1  0
 29 30  1  0
 29 31  1  0
 30 32  1  0
 31 33  1  0
 31 34  1  0
 34 32  1  0
 32 35  1  0
 34 36  1  0
 37 35  1  0
 38 35  1  0
 39 37  2  0
 37 40  1  0
 41 38  2  0
 42 39  1  0
 40 43  2  0
 40 41  1  0
 44 42  2  0
 44 43  1  0
 43 45  1  0
  6 46  1  1
  7 47  1  0
  7 48  1  0
  8 49  1  0
  8 50  1  0
 10 51  1  0
 11 52  1  0
 12 53  1  0
 13 54  1  0
 16 55  1  0
 16 56  1  0
 19 57  1  0
 21 58  1  0
 22 59  1  0
 25 60  1  0
 28 61  1  0
 28 62  1  0
 29 63  1  0
 31 64  1  0
 32 65  1  0
 33 66  1  0
 34 67  1  0
 36 68  1  0
 38 69  1  0
 42 70  1  0
 45 71  1  0
 45 72  1  0
M  CHG  3   5  -1  20   1  23  -1
M  END
>  <EmbedRMS>  (94) 
0.0837220328403

$$$$

     RDKit          3D

 72 76  0  0  0  0  0  0  0  0999 V2000
   10.2836   43.7660   33.8256 C   0  0  0  0  0  0  0  0  0  0  0  0
   11.4103   43.5930   34.3753 O   0  0  0  0  0  0  0  0  0  0  0  0
    9.3641   42.7252   33.7347 O   0  0  0  0  0  0  0  0  0  0  0  0
    9.8908   41.2264   34.2939 P   0  0  0  0  0  0  0  0  0  0  0  0
   10.3732   41.4558   35.8835 O   0  0  0  0  0  0  0  0  0  0  0  0
    9.9547   45.0694   33.2037 C   0  0  1  0  0  0  0  0  0  0  0  0
   11.0274   46.0321   33.4757 N   0  0  0  0  0  0  0  0  0  0  0  0
    9.7465   44.8481   31.6878 C   0  0  0  0  0  0  0  0  0  0  0  0
    8.7922   45.8412   31.0849 C   0  0  0  0  0  0  0  0  0  0  0  0
    7.4055   45.6016   31.0990 C   0  0  0  0  0  0  0  0  0  0  0  0
    9.2824   46.9876   30.4420 C   0  0  0  0  0  0  0  0  0  0  0  0
    6.5266   46.5027   30.4831 C   0  0  0  0  0  0  0  0  0  0  0  0
    8.4034   47.8897   29.8312 C   0  0  0  0  0  0  0  0  0  0  0  0
    7.0138   47.6534   29.8482 C   0  0  0  0  0  0  0  0  0  0  0  0
    6.0893   48.5210   29.2415 O   0  0  0  0  0  0  0  0  0  0  0  0
    6.4108   49.7779   28.6402 C   0  0  0  0  0  0  0  0  0  0  0  0
    6.9617   49.6480   27.2303 C   0  0  0  0  0  0  0  0  0  0  0  0
    7.2530   50.8069   26.4591 C   0  0  0  0  0  0  0  0  0  0  0  0
    7.1248   48.3787   26.6333 C   0  0  0  0  0  0  0  0  0  0  0  0
    7.0707   52.1337   26.9852 N   0  0  0  0  0  0  0  0  0  0  0  0
    7.6997   50.6606   25.1334 C   0  0  0  0  0  0  0  0  0  0  0  0
    7.5840   48.2581   25.3213 C   0  0  0  0  0  0  0  0  0  0  0  0
    7.5296   52.4599   28.2397 O   0  0  0  0  0  0  0  0  0  0  0  0
    6.6672   53.0494   26.2386 O   0  0  0  0  0  0  0  0  0  0  0  0
    7.8715   49.3959   24.5732 C   0  0  0  0  0  0  0  0  0  0  0  0
    8.8127   40.1847   34.2122 O   0  0  0  0  0  0  0  0  0  0  0  0
   11.2421   40.7941   33.3697 O   0  0  0  0  0  0  0  0  0  0  0  0
   10.9187   40.6911   31.9971 C   0  0  0  0  0  0  0  0  0  0  0  0
   11.5172   39.3815   31.4407 C   0  0  0  0  0  0  0  0  0  0  0  0
   12.7493   39.0855   32.0728 O   0  0  0  0  0  0  0  0  0  0  0  0
   10.6023   38.1908   31.6665 C   0  0  0  0  0  0  0  0  0  0  0  0
   12.9319   37.6781   32.0281 C   0  0  0  0  0  0  0  0  0  0  0  0
    9.6392   38.0798   30.6452 O   0  0  0  0  0  0  0  0  0  0  0  0
   11.5715   37.0165   31.7056 C   0  0  0  0  0  0  0  0  0  0  0  0
   13.4847   37.2121   33.3235 N   0  0  0  0  0  0  0  0  0  0  0  0
   11.6187   36.3383   30.4695 O   0  0  0  0  0  0  0  0  0  0  0  0
   14.4801   36.3321   33.5724 C   0  0  0  0  0  0  0  0  0  0  0  0
   13.1137   37.6275   34.5687 C   0  0  0  0  0  0  0  0  0  0  0  0
   15.2073   35.6153   32.6738 N   0  0  0  0  0  0  0  0  0  0  0  0
   14.6759   36.2308   34.9179 C   0  0  0  0  0  0  0  0  0  0  0  0
   13.8216   37.0452   35.5781 N   0  0  0  0  0  0  0  0  0  0  0  0
   16.1640   34.7602   33.1546 C   0  0  0  0  0  0  0  0  0  0  0  0
   15.6526   35.3508   35.4129 C   0  0  0  0  0  0  0  0  0  0  0  0
   16.3794   34.6317   34.5041 N   0  0  0  0  0  0  0  0  0  0  0  0
   15.8999   35.1935   36.8088 N   0  0  0  0  0  0  0  0  0  0  0  0
    9.0122   45.4316   33.6717 H   0  0  0  0  0  0  0  0  0  0  0  0
   11.8906   45.7657   32.9469 H   0  0  0  0  0  0  0  0  0  0  0  0
   10.7260   46.9687   33.1213 H   0  0  0  0  0  0  0  0  0  0  0  0
   10.7228   44.8814   31.1557 H   0  0  0  0  0  0  0  0  0  0  0  0
    9.3411   43.8331   31.4763 H   0  0  0  0  0  0  0  0  0  0  0  0
    7.0084   44.7164   31.5805 H   0  0  0  0  0  0  0  0  0  0  0  0
   10.3472   47.1826   30.4079 H   0  0  0  0  0  0  0  0  0  0  0  0
    5.4623   46.3052   30.4990 H   0  0  0  0  0  0  0  0  0  0  0  0
    8.8178   48.7561   29.3350 H   0  0  0  0  0  0  0  0  0  0  0  0
    7.1208   50.3207   29.2962 H   0  0  0  0  0  0  0  0  0  0  0  0
    5.4774   50.3772   28.5911 H   0  0  0  0  0  0  0  0  0  0  0  0
    6.8862   47.4694   27.1658 H   0  0  0  0  0  0  0  0  0  0  0  0
    7.9260   51.5334   24.5338 H   0  0  0  0  0  0  0  0  0  0  0  0
    7.7072   47.2774   24.8800 H   0  0  0  0  0  0  0  0  0  0  0  0
    8.2223   49.2985   23.5538 H   0  0  0  0  0  0  0  0  0  0  0  0
    9.8300   40.7410   31.7613 H   0  0  0  0  0  0  0  0  0  0  0  0
   11.3968   41.5460   31.4729 H   0  0  0  0  0  0  0  0  0  0  0  0
   11.6975   39.5067   30.3481 H   0  0  0  0  0  0  0  0  0  0  0  0
   10.1077   38.2648   32.6645 H   0  0  0  0  0  0  0  0  0  0  0  0
   13.6621   37.4467   31.2209 H   0  0  0  0  0  0  0  0  0  0  0  0
    8.8975   38.6944   30.8831 H   0  0  0  0  0  0  0  0  0  0  0  0
   11.2806   36.3073   32.5170 H   0  0  0  0  0  0  0  0  0  0  0  0
   10.8492   35.7110   30.4586 H   0  0  0  0  0  0  0  0  0  0  0  0
   12.3290   38.3523   34.7444 H   0  0  0  0  0  0  0  0  0  0  0  0
   16.7559   34.1780   32.4619 H   0  0  0  0  0  0  0  0  0  0  0  0
   16.6344   34.5301   37.1414 H   0  0  0  0  0  0  0  0  0  0  0  0
   15.3531   35.7362   37.5137 H   0  0  0  0  0  0  0  0  0  0  0  0
  1  2  2  0
  1  3  1  0
  3  4  1  0
  4  5  1  0
  6  1  1  0
  7  6  1  0
  6  8  1  0
  8  9  1  0
  9 10  2  0
 11  9  1  0
 10 12  1  0
 13 11  2  0
 12 14  2  0
 14 13  1  0
 14 15  1  0
 15 16  1  0
 16 17  1  0
 17 18  2  0
 19 17  1  0
 18 20  1  0
 18 21  1  0
 22 19  2  0
 20 23  1  0
 20 24  2  0
 21 25  2  0
 25 22  1  0
  4 26  2  0
  4 27  1  0
 28 27  1  0
 28 29  1  0
 29 30  1  0
 29 31  1  0
 30 32  1  0
 31 33  1  0
 31 34  1  0
 34 32  1  0
 32 35  1  0
 34 36  1  0
 37 35  1  0
 38 35  1  0
 39 37  2  0
 37 40  1  0
 41 38  2  0
 42 39  1  0
 40 43  2  0
 40 41  1  0
 44 42  2  0
 44 43  1  0
 43 45  1  0
  6 46  1  1
  7 47  1  0
  7 48  1  0
  8 49  1  0
  8 50  1  0
 10 51  1  0
 11 52  1  0
 12 53  1  0
 13 54  1  0
 16 55  1  0
 16 56  1  0
 19 57  1  0
 21 58  1  0
 22 59  1  0
 25 60  1  0
 28 61  1  0
 28 62  1  0
 29 63  1  0
 31 64  1  0
 32 65  1  0
 33 66  1  0
 34 67  1  0
 36 68  1  0
 38 69  1  0
 42 70  1  0
 45 71  1  0
 45 72  1  0
M  CHG  3   5  -1  20   1  23  -1
M  END
>  <EmbedRMS>  (95) 
0.0829364700069

$$$$

     RDKit          3D

 72 76  0  0  0  0  0  0  0  0999 V2000
   10.2834   43.7662   33.8256 C   0  0  0  0  0  0  0  0  0  0  0  0
   11.4101   43.5930   34.3752 O   0  0  0  0  0  0  0  0  0  0  0  0
    9.3636   42.7256   33.7348 O   0  0  0  0  0  0  0  0  0  0  0  0
    9.8905   41.2266   34.2933 P   0  0  0  0  0  0  0  0  0  0  0  0
   10.3743   41.4557   35.8827 O   0  0  0  0  0  0  0  0  0  0  0  0
    9.9547   45.0696   33.2036 C   0  0  1  0  0  0  0  0  0  0  0  0
   11.0272   46.0323   33.4760 N   0  0  0  0  0  0  0  0  0  0  0  0
    9.7471   44.8485   31.6876 C   0  0  0  0  0  0  0  0  0  0  0  0
    8.7925   45.8410   31.0845 C   0  0  0  0  0  0  0  0  0  0  0  0
    7.4058   45.6008   31.0991 C   0  0  0  0  0  0  0  0  0  0  0  0
    9.2817   46.9877   30.4415 C   0  0  0  0  0  0  0  0  0  0  0  0
    6.5246   46.5005   30.4843 C   0  0  0  0  0  0  0  0  0  0  0  0
    8.4005   47.8879   29.8315 C   0  0  0  0  0  0  0  0  0  0  0  0
    7.0185   47.6575   29.8476 C   0  0  0  0  0  0  0  0  0  0  0  0
    6.1804   48.5962   29.2241 O   0  0  0  0  0  0  0  0  0  0  0  0
    4.7523   48.5619   29.2391 C   0  0  0  0  0  0  0  0  0  0  0  0
    4.2216   48.8633   30.6236 C   0  0  0  0  0  0  0  0  0  0  0  0
    3.2376   48.0586   31.2541 C   0  0  0  0  0  0  0  0  0  0  0  0
    4.7554   49.9632   31.3197 C   0  0  0  0  0  0  0  0  0  0  0  0
    2.5836   46.9856   30.5593 N   0  0  0  0  0  0  0  0  0  0  0  0
    2.8711   48.3352   32.5831 C   0  0  0  0  0  0  0  0  0  0  0  0
    4.3648   50.2339   32.6319 C   0  0  0  0  0  0  0  0  0  0  0  0
    2.0437   47.2025   29.3125 O   0  0  0  0  0  0  0  0  0  0  0  0
    2.2997   45.9313   31.1644 O   0  0  0  0  0  0  0  0  0  0  0  0
    3.4326   49.4148   33.2663 C   0  0  0  0  0  0  0  0  0  0  0  0
    8.8121   40.1851   34.2128 O   0  0  0  0  0  0  0  0  0  0  0  0
   11.2403   40.7946   33.3668 O   0  0  0  0  0  0  0  0  0  0  0  0
   10.9125   40.6859   31.9954 C   0  0  0  0  0  0  0  0  0  0  0  0
   11.5175   39.3787   31.4405 C   0  0  0  0  0  0  0  0  0  0  0  0
   12.7490   39.0864   32.0752 O   0  0  0  0  0  0  0  0  0  0  0  0
   10.6061   38.1868   31.6656 C   0  0  0  0  0  0  0  0  0  0  0  0
   12.9355   37.6796   32.0292 C   0  0  0  0  0  0  0  0  0  0  0  0
    9.6399   38.0903   30.6471 O   0  0  0  0  0  0  0  0  0  0  0  0
   11.5765   37.0145   31.7044 C   0  0  0  0  0  0  0  0  0  0  0  0
   13.4858   37.2124   33.3244 N   0  0  0  0  0  0  0  0  0  0  0  0
   11.6101   36.3397   30.4673 O   0  0  0  0  0  0  0  0  0  0  0  0
   14.4805   36.3319   33.5729 C   0  0  0  0  0  0  0  0  0  0  0  0
   13.1143   37.6276   34.5694 C   0  0  0  0  0  0  0  0  0  0  0  0
   15.2076   35.6153   32.6741 N   0  0  0  0  0  0  0  0  0  0  0  0
   14.6760   36.2304   34.9184 C   0  0  0  0  0  0  0  0  0  0  0  0
   13.8219   37.0449   35.5786 N   0  0  0  0  0  0  0  0  0  0  0  0
   16.1641   34.7600   33.1548 C   0  0  0  0  0  0  0  0  0  0  0  0
   15.6528   35.3505   35.4132 C   0  0  0  0  0  0  0  0  0  0  0  0
   16.3795   34.6314   34.5043 N   0  0  0  0  0  0  0  0  0  0  0  0
   15.9002   35.1931   36.8091 N   0  0  0  0  0  0  0  0  0  0  0  0
    9.0119   45.4318   33.6713 H   0  0  0  0  0  0  0  0  0  0  0  0
   10.7259   46.9689   33.1216 H   0  0  0  0  0  0  0  0  0  0  0  0
   11.8907   45.7660   32.9477 H   0  0  0  0  0  0  0  0  0  0  0  0
    9.3426   43.8332   31.4758 H   0  0  0  0  0  0  0  0  0  0  0  0
   10.7236   44.8826   31.1559 H   0  0  0  0  0  0  0  0  0  0  0  0
    7.0102   44.7148   31.5804 H   0  0  0  0  0  0  0  0  0  0  0  0
   10.3460   47.1859   30.4095 H   0  0  0  0  0  0  0  0  0  0  0  0
    5.4670   46.2823   30.5084 H   0  0  0  0  0  0  0  0  0  0  0  0
    8.7937   48.7704   29.3429 H   0  0  0  0  0  0  0  0  0  0  0  0
    4.3792   49.3457   28.5474 H   0  0  0  0  0  0  0  0  0  0  0  0
    4.4131   47.5840   28.8438 H   0  0  0  0  0  0  0  0  0  0  0  0
    5.4943   50.6017   30.8510 H   0  0  0  0  0  0  0  0  0  0  0  0
    2.1273   47.7270   33.0824 H   0  0  0  0  0  0  0  0  0  0  0  0
    4.7925   51.0760   33.1606 H   0  0  0  0  0  0  0  0  0  0  0  0
    3.1345   49.6240   34.2856 H   0  0  0  0  0  0  0  0  0  0  0  0
    9.8215   40.7199   31.7636 H   0  0  0  0  0  0  0  0  0  0  0  0
   11.3803   41.5437   31.4663 H   0  0  0  0  0  0  0  0  0  0  0  0
   11.6999   39.5041   30.3482 H   0  0  0  0  0  0  0  0  0  0  0  0
   10.1085   38.2767   32.6603 H   0  0  0  0  0  0  0  0  0  0  0  0
   13.6680   37.4520   31.2229 H   0  0  0  0  0  0  0  0  0  0  0  0
    9.0016   37.3868   30.9350 H   0  0  0  0  0  0  0  0  0  0  0  0
   11.2666   36.3062   32.5083 H   0  0  0  0  0  0  0  0  0  0  0  0
   12.1389   35.5126   30.6150 H   0  0  0  0  0  0  0  0  0  0  0  0
   12.3300   38.3529   34.7449 H   0  0  0  0  0  0  0  0  0  0  0  0
   16.7560   34.1779   32.4621 H   0  0  0  0  0  0  0  0  0  0  0  0
   16.6347   34.5298   37.1416 H   0  0  0  0  0  0  0  0  0  0  0  0
   15.3534   35.7359   37.5140 H   0  0  0  0  0  0  0  0  0  0  0  0
  1  2  2  0
  1  3  1  0
  3  4  1  0
  4  5  1  0
  6  1  1  0
  7  6  1  0
  6  8  1  0
  8  9  1  0
  9 10  2  0
 11  9  1  0
 10 12  1  0
 13 11  2  0
 12 14  2  0
 14 13  1  0
 14 15  1  0
 15 16  1  0
 16 17  1  0
 17 18  2  0
 19 17  1  0
 18 20  1  0
 18 21  1  0
 22 19  2  0
 20 23  1  0
 20 24  2  0
 21 25  2  0
 25 22  1  0
  4 26  2  0
  4 27  1  0
 28 27  1  0
 28 29  1  0
 29 30  1  0
 29 31  1  0
 30 32  1  0
 31 33  1  0
 31 34  1  0
 34 32  1  0
 32 35  1  0
 34 36  1  0
 37 35  1  0
 38 35  1  0
 39 37  2  0
 37 40  1  0
 41 38  2  0
 42 39  1  0
 40 43  2  0
 40 41  1  0
 44 42  2  0
 44 43  1  0
 43 45  1  0
  6 46  1  1
  7 47  1  0
  7 48  1  0
  8 49  1  0
  8 50  1  0
 10 51  1  0
 11 52  1  0
 12 53  1  0
 13 54  1  0
 16 55  1  0
 16 56  1  0
 19 57  1  0
 21 58  1  0
 22 59  1  0
 25 60  1  0
 28 61  1  0
 28 62  1  0
 29 63  1  0
 31 64  1  0
 32 65  1  0
 33 66  1  0
 34 67  1  0
 36 68  1  0
 38 69  1  0
 42 70  1  0
 45 71  1  0
 45 72  1  0
M  CHG  3   5  -1  20   1  23  -1
M  END
>  <EmbedRMS>  (96) 
0.0823835022277

$$$$

     RDKit          3D

 72 76  0  0  0  0  0  0  0  0999 V2000
   10.2834   43.7662   33.8257 C   0  0  0  0  0  0  0  0  0  0  0  0
   11.4101   43.5930   34.3752 O   0  0  0  0  0  0  0  0  0  0  0  0
    9.3635   42.7257   33.7352 O   0  0  0  0  0  0  0  0  0  0  0  0
    9.8899   41.2270   34.2948 P   0  0  0  0  0  0  0  0  0  0  0  0
   10.3732   41.4562   35.8841 O   0  0  0  0  0  0  0  0  0  0  0  0
    9.9546   45.0695   33.2034 C   0  0  1  0  0  0  0  0  0  0  0  0
   11.0274   46.0321   33.4755 N   0  0  0  0  0  0  0  0  0  0  0  0
    9.7467   44.8479   31.6875 C   0  0  0  0  0  0  0  0  0  0  0  0
    8.7924   45.8405   31.0840 C   0  0  0  0  0  0  0  0  0  0  0  0
    7.4055   45.6018   31.0995 C   0  0  0  0  0  0  0  0  0  0  0  0
    9.2822   46.9879   30.4426 C   0  0  0  0  0  0  0  0  0  0  0  0
    6.5267   46.5038   30.4850 C   0  0  0  0  0  0  0  0  0  0  0  0
    8.4030   47.8905   29.8327 C   0  0  0  0  0  0  0  0  0  0  0  0
    7.0143   47.6518   29.8454 C   0  0  0  0  0  0  0  0  0  0  0  0
    6.0894   48.5190   29.2424 O   0  0  0  0  0  0  0  0  0  0  0  0
    6.4208   49.6442   28.4274 C   0  0  0  0  0  0  0  0  0  0  0  0
    7.0249   49.2029   27.1133 C   0  0  0  0  0  0  0  0  0  0  0  0
    6.4012   48.2356   26.2800 C   0  0  0  0  0  0  0  0  0  0  0  0
    8.2647   49.7446   26.7264 C   0  0  0  0  0  0  0  0  0  0  0  0
    5.1212   47.6642   26.6062 N   0  0  0  0  0  0  0  0  0  0  0  0
    7.0593   47.8134   25.1102 C   0  0  0  0  0  0  0  0  0  0  0  0
    8.8924   49.3230   25.5540 C   0  0  0  0  0  0  0  0  0  0  0  0
    4.1124   48.4477   27.1162 O   0  0  0  0  0  0  0  0  0  0  0  0
    4.8594   46.4882   26.2787 O   0  0  0  0  0  0  0  0  0  0  0  0
    8.2938   48.3551   24.7505 C   0  0  0  0  0  0  0  0  0  0  0  0
    8.8120   40.1850   34.2133 O   0  0  0  0  0  0  0  0  0  0  0  0
   11.2403   40.7947   33.3700 O   0  0  0  0  0  0  0  0  0  0  0  0
   10.9145   40.6914   31.9982 C   0  0  0  0  0  0  0  0  0  0  0  0
   11.5270   39.3912   31.4385 C   0  0  0  0  0  0  0  0  0  0  0  0
   12.7520   39.0911   32.0836 O   0  0  0  0  0  0  0  0  0  0  0  0
   10.6114   38.1932   31.6451 C   0  0  0  0  0  0  0  0  0  0  0  0
   12.9413   37.6838   32.0297 C   0  0  0  0  0  0  0  0  0  0  0  0
    9.6065   38.0878   30.6599 O   0  0  0  0  0  0  0  0  0  0  0  0
   11.5822   37.0197   31.6877 C   0  0  0  0  0  0  0  0  0  0  0  0
   13.4840   37.2104   33.3254 N   0  0  0  0  0  0  0  0  0  0  0  0
   11.6179   36.3072   30.4690 O   0  0  0  0  0  0  0  0  0  0  0  0
   14.4797   36.3309   33.5738 C   0  0  0  0  0  0  0  0  0  0  0  0
   13.1136   37.6269   34.5702 C   0  0  0  0  0  0  0  0  0  0  0  0
   15.2074   35.6152   32.6747 N   0  0  0  0  0  0  0  0  0  0  0  0
   14.6756   36.2298   34.9190 C   0  0  0  0  0  0  0  0  0  0  0  0
   13.8217   37.0445   35.5793 N   0  0  0  0  0  0  0  0  0  0  0  0
   16.1643   34.7603   33.1551 C   0  0  0  0  0  0  0  0  0  0  0  0
   15.6528   35.3503   35.4136 C   0  0  0  0  0  0  0  0  0  0  0  0
   16.3798   34.6316   34.5046 N   0  0  0  0  0  0  0  0  0  0  0  0
   15.9004   35.1930   36.8094 N   0  0  0  0  0  0  0  0  0  0  0  0
    9.0120   45.4318   33.6712 H   0  0  0  0  0  0  0  0  0  0  0  0
   11.8906   45.7658   32.9468 H   0  0  0  0  0  0  0  0  0  0  0  0
   10.7260   46.9687   33.1212 H   0  0  0  0  0  0  0  0  0  0  0  0
   10.7230   44.8813   31.1555 H   0  0  0  0  0  0  0  0  0  0  0  0
    9.3415   43.8328   31.4762 H   0  0  0  0  0  0  0  0  0  0  0  0
    7.0083   44.7171   31.5818 H   0  0  0  0  0  0  0  0  0  0  0  0
   10.3466   47.1863   30.4140 H   0  0  0  0  0  0  0  0  0  0  0  0
    5.4622   46.3072   30.5019 H   0  0  0  0  0  0  0  0  0  0  0  0
    8.8155   48.7693   29.3597 H   0  0  0  0  0  0  0  0  0  0  0  0
    5.4970   50.2222   28.2214 H   0  0  0  0  0  0  0  0  0  0  0  0
    7.0929   50.3280   28.9900 H   0  0  0  0  0  0  0  0  0  0  0  0
    8.7564   50.4886   27.3410 H   0  0  0  0  0  0  0  0  0  0  0  0
    6.6055   47.0725   24.4640 H   0  0  0  0  0  0  0  0  0  0  0  0
    9.8488   49.7436   25.2713 H   0  0  0  0  0  0  0  0  0  0  0  0
    8.7849   48.0267   23.8435 H   0  0  0  0  0  0  0  0  0  0  0  0
    9.8235   40.7201   31.7654 H   0  0  0  0  0  0  0  0  0  0  0  0
   11.3777   41.5549   31.4744 H   0  0  0  0  0  0  0  0  0  0  0  0
   11.7312   39.5363   30.3532 H   0  0  0  0  0  0  0  0  0  0  0  0
   10.1202   38.2696   32.6410 H   0  0  0  0  0  0  0  0  0  0  0  0
   13.6850   37.4638   31.2321 H   0  0  0  0  0  0  0  0  0  0  0  0
   10.0251   38.1793   29.7654 H   0  0  0  0  0  0  0  0  0  0  0  0
   11.2757   36.3135   32.4907 H   0  0  0  0  0  0  0  0  0  0  0  0
   11.9838   36.9111   29.7708 H   0  0  0  0  0  0  0  0  0  0  0  0
   12.3307   38.3536   34.7458 H   0  0  0  0  0  0  0  0  0  0  0  0
   16.7566   34.1786   32.4623 H   0  0  0  0  0  0  0  0  0  0  0  0
   15.3535   35.7355   37.5144 H   0  0  0  0  0  0  0  0  0  0  0  0
   16.6353   34.5300   37.1419 H   0  0  0  0  0  0  0  0  0  0  0  0
  1  2  2  0
  1  3  1  0
  3  4  1  0
  4  5  1  0
  6  1  1  0
  7  6  1  0
  6  8  1  0
  8  9  1  0
  9 10  2  0
 11  9  1  0
 10 12  1  0
 13 11  2  0
 12 14  2  0
 14 13  1  0
 14 15  1  0
 15 16  1  0
 16 17  1  0
 17 18  2  0
 19 17  1  0
 18 20  1  0
 18 21  1  0
 22 19  2  0
 20 23  1  0
 20 24  2  0
 21 25  2  0
 25 22  1  0
  4 26  2  0
  4 27  1  0
 28 27  1  0
 28 29  1  0
 29 30  1  0
 29 31  1  0
 30 32  1  0
 31 33  1  0
 31 34  1  0
 34 32  1  0
 32 35  1  0
 34 36  1  0
 37 35  1  0
 38 35  1  0
 39 37  2  0
 37 40  1  0
 41 38  2  0
 42 39  1  0
 40 43  2  0
 40 41  1  0
 44 42  2  0
 44 43  1  0
 43 45  1  0
  6 46  1  1
  7 47  1  0
  7 48  1  0
  8 49  1  0
  8 50  1  0
 10 51  1  0
 11 52  1  0
 12 53  1  0
 13 54  1  0
 16 55  1  0
 16 56  1  0
 19 57  1  0
 21 58  1  0
 22 59  1  0
 25 60  1  0
 28 61  1  0
 28 62  1  0
 29 63  1  0
 31 64  1  0
 32 65  1  0
 33 66  1  0
 34 67  1  0
 36 68  1  0
 38 69  1  0
 42 70  1  0
 45 71  1  0
 45 72  1  0
M  CHG  3   5  -1  20   1  23  -1
M  END
>  <EmbedRMS>  (97) 
0.0808451587609

$$$$

     RDKit          3D

 72 76  0  0  0  0  0  0  0  0999 V2000
   10.2838   43.7627   33.8276 C   0  0  0  0  0  0  0  0  0  0  0  0
   11.4103   43.5864   34.3767 O   0  0  0  0  0  0  0  0  0  0  0  0
    9.3631   42.7236   33.7355 O   0  0  0  0  0  0  0  0  0  0  0  0
    9.8895   41.2250   34.2948 P   0  0  0  0  0  0  0  0  0  0  0  0
   10.3720   41.4547   35.8844 O   0  0  0  0  0  0  0  0  0  0  0  0
    9.9549   45.0699   33.2061 C   0  0  1  0  0  0  0  0  0  0  0  0
   11.0197   46.0481   33.4569 N   0  0  0  0  0  0  0  0  0  0  0  0
    9.7507   44.8508   31.6920 C   0  0  0  0  0  0  0  0  0  0  0  0
    8.7946   45.8412   31.0860 C   0  0  0  0  0  0  0  0  0  0  0  0
    7.4078   45.6011   31.1011 C   0  0  0  0  0  0  0  0  0  0  0  0
    9.2827   46.9896   30.4454 C   0  0  0  0  0  0  0  0  0  0  0  0
    6.5258   46.5013   30.4870 C   0  0  0  0  0  0  0  0  0  0  0  0
    8.4006   47.8891   29.8354 C   0  0  0  0  0  0  0  0  0  0  0  0
    7.0194   47.6527   29.8420 C   0  0  0  0  0  0  0  0  0  0  0  0
    6.1851   48.5870   29.2084 O   0  0  0  0  0  0  0  0  0  0  0  0
    4.8154   48.3829   28.8575 C   0  0  0  0  0  0  0  0  0  0  0  0
    4.6914   47.4043   27.7108 C   0  0  0  0  0  0  0  0  0  0  0  0
    5.0722   47.7354   26.3784 C   0  0  0  0  0  0  0  0  0  0  0  0
    4.1247   46.1408   27.9657 C   0  0  0  0  0  0  0  0  0  0  0  0
    5.5897   49.0319   26.0198 N   0  0  0  0  0  0  0  0  0  0  0  0
    4.8902   46.7811   25.3604 C   0  0  0  0  0  0  0  0  0  0  0  0
    3.9651   45.2083   26.9411 C   0  0  0  0  0  0  0  0  0  0  0  0
    5.3891   49.5219   24.7495 O   0  0  0  0  0  0  0  0  0  0  0  0
    6.3404   49.6640   26.7893 O   0  0  0  0  0  0  0  0  0  0  0  0
    4.3504   45.5264   25.6419 C   0  0  0  0  0  0  0  0  0  0  0  0
    8.8117   40.1832   34.2125 O   0  0  0  0  0  0  0  0  0  0  0  0
   11.2411   40.7939   33.3710 O   0  0  0  0  0  0  0  0  0  0  0  0
   10.9179   40.6920   31.9985 C   0  0  0  0  0  0  0  0  0  0  0  0
   11.5175   39.3837   31.4422 C   0  0  0  0  0  0  0  0  0  0  0  0
   12.7508   39.0887   32.0751 O   0  0  0  0  0  0  0  0  0  0  0  0
   10.6028   38.1915   31.6658 C   0  0  0  0  0  0  0  0  0  0  0  0
   12.9385   37.6818   32.0277 C   0  0  0  0  0  0  0  0  0  0  0  0
    9.6371   38.0805   30.6470 O   0  0  0  0  0  0  0  0  0  0  0  0
   11.5780   37.0215   31.6934 C   0  0  0  0  0  0  0  0  0  0  0  0
   13.4844   37.2119   33.3241 N   0  0  0  0  0  0  0  0  0  0  0  0
   11.6095   36.3201   30.4678 O   0  0  0  0  0  0  0  0  0  0  0  0
   14.4797   36.3318   33.5730 C   0  0  0  0  0  0  0  0  0  0  0  0
   13.1135   37.6278   34.5691 C   0  0  0  0  0  0  0  0  0  0  0  0
   15.2073   35.6155   32.6742 N   0  0  0  0  0  0  0  0  0  0  0  0
   14.6754   36.2305   34.9184 C   0  0  0  0  0  0  0  0  0  0  0  0
   13.8213   37.0452   35.5784 N   0  0  0  0  0  0  0  0  0  0  0  0
   16.1640   34.7604   33.1549 C   0  0  0  0  0  0  0  0  0  0  0  0
   15.6524   35.3507   35.4132 C   0  0  0  0  0  0  0  0  0  0  0  0
   16.3794   34.6318   34.5044 N   0  0  0  0  0  0  0  0  0  0  0  0
   15.8999   35.1934   36.8091 N   0  0  0  0  0  0  0  0  0  0  0  0
    9.0098   45.4348   33.6665 H   0  0  0  0  0  0  0  0  0  0  0  0
   11.1131   46.1993   34.4882 H   0  0  0  0  0  0  0  0  0  0  0  0
   11.9349   45.6933   33.0927 H   0  0  0  0  0  0  0  0  0  0  0  0
   10.7311   44.8927   31.1674 H   0  0  0  0  0  0  0  0  0  0  0  0
    9.3519   43.8341   31.4757 H   0  0  0  0  0  0  0  0  0  0  0  0
    7.0120   44.7191   31.5895 H   0  0  0  0  0  0  0  0  0  0  0  0
   10.3466   47.1905   30.4166 H   0  0  0  0  0  0  0  0  0  0  0  0
    5.4680   46.2989   30.5409 H   0  0  0  0  0  0  0  0  0  0  0  0
    8.7934   48.7713   29.3459 H   0  0  0  0  0  0  0  0  0  0  0  0
    4.3735   49.3540   28.5508 H   0  0  0  0  0  0  0  0  0  0  0  0
    4.2404   48.0571   29.7504 H   0  0  0  0  0  0  0  0  0  0  0  0
    3.7920   45.8744   28.9604 H   0  0  0  0  0  0  0  0  0  0  0  0
    5.1744   47.0073   24.3405 H   0  0  0  0  0  0  0  0  0  0  0  0
    3.5334   44.2389   27.1545 H   0  0  0  0  0  0  0  0  0  0  0  0
    4.2217   44.8022   24.8477 H   0  0  0  0  0  0  0  0  0  0  0  0
   11.3955   41.5477   31.4751 H   0  0  0  0  0  0  0  0  0  0  0  0
    9.8292   40.7410   31.7624 H   0  0  0  0  0  0  0  0  0  0  0  0
   11.6981   39.5116   30.3500 H   0  0  0  0  0  0  0  0  0  0  0  0
   10.1117   38.2603   32.6660 H   0  0  0  0  0  0  0  0  0  0  0  0
   13.6767   37.4555   31.2267 H   0  0  0  0  0  0  0  0  0  0  0  0
    8.8961   38.6951   30.8872 H   0  0  0  0  0  0  0  0  0  0  0  0
   11.2792   36.3072   32.4922 H   0  0  0  0  0  0  0  0  0  0  0  0
   11.8827   36.9598   29.7588 H   0  0  0  0  0  0  0  0  0  0  0  0
   12.3300   38.3538   34.7446 H   0  0  0  0  0  0  0  0  0  0  0  0
   16.7561   34.1785   32.4622 H   0  0  0  0  0  0  0  0  0  0  0  0
   16.6347   34.5303   37.1416 H   0  0  0  0  0  0  0  0  0  0  0  0
   15.3531   35.7360   37.5140 H   0  0  0  0  0  0  0  0  0  0  0  0
  1  2  2  0
  1  3  1  0
  3  4  1  0
  4  5  1  0
  6  1  1  0
  7  6  1  0
  6  8  1  0
  8  9  1  0
  9 10  2  0
 11  9  1  0
 10 12  1  0
 13 11  2  0
 12 14  2  0
 14 13  1  0
 14 15  1  0
 15 16  1  0
 16 17  1  0
 17 18  2  0
 19 17  1  0
 18 20  1  0
 18 21  1  0
 22 19  2  0
 20 23  1  0
 20 24  2  0
 21 25  2  0
 25 22  1  0
  4 26  2  0
  4 27  1  0
 28 27  1  0
 28 29  1  0
 29 30  1  0
 29 31  1  0
 30 32  1  0
 31 33  1  0
 31 34  1  0
 34 32  1  0
 32 35  1  0
 34 36  1  0
 37 35  1  0
 38 35  1  0
 39 37  2  0
 37 40  1  0
 41 38  2  0
 42 39  1  0
 40 43  2  0
 40 41  1  0
 44 42  2  0
 44 43  1  0
 43 45  1  0
  6 46  1  1
  7 47  1  0
  7 48  1  0
  8 49  1  0
  8 50  1  0
 10 51  1  0
 11 52  1  0
 12 53  1  0
 13 54  1  0
 16 55  1  0
 16 56  1  0
 19 57  1  0
 21 58  1  0
 22 59  1  0
 25 60  1  0
 28 61  1  0
 28 62  1  0
 29 63  1  0
 31 64  1  0
 32 65  1  0
 33 66  1  0
 34 67  1  0
 36 68  1  0
 38 69  1  0
 42 70  1  0
 45 71  1  0
 45 72  1  0
M  CHG  3   5  -1  20   1  23  -1
M  END
>  <EmbedRMS>  (98) 
0.0828922543368

$$$$

     RDKit          3D

 72 76  0  0  0  0  0  0  0  0999 V2000
   10.2804   43.7664   33.8250 C   0  0  0  0  0  0  0  0  0  0  0  0
   11.4111   43.5918   34.3667 O   0  0  0  0  0  0  0  0  0  0  0  0
    9.3618   42.7249   33.7346 O   0  0  0  0  0  0  0  0  0  0  0  0
    9.8899   41.2266   34.2940 P   0  0  0  0  0  0  0  0  0  0  0  0
   10.3735   41.4566   35.8832 O   0  0  0  0  0  0  0  0  0  0  0  0
    9.9459   45.0736   33.2112 C   0  0  1  0  0  0  0  0  0  0  0  0
   11.0267   46.0291   33.4706 N   0  0  0  0  0  0  0  0  0  0  0  0
    9.7535   44.8539   31.6950 C   0  0  0  0  0  0  0  0  0  0  0  0
    8.7955   45.8412   31.0848 C   0  0  0  0  0  0  0  0  0  0  0  0
    7.4085   45.6005   31.1007 C   0  0  0  0  0  0  0  0  0  0  0  0
    9.2831   46.9879   30.4398 C   0  0  0  0  0  0  0  0  0  0  0  0
    6.5278   46.5009   30.4854 C   0  0  0  0  0  0  0  0  0  0  0  0
    8.4024   47.8894   29.8302 C   0  0  0  0  0  0  0  0  0  0  0  0
    7.0138   47.6509   29.8481 C   0  0  0  0  0  0  0  0  0  0  0  0
    6.0915   48.5218   29.2498 O   0  0  0  0  0  0  0  0  0  0  0  0
    6.4416   49.7240   28.5668 C   0  0  0  0  0  0  0  0  0  0  0  0
    5.1960   50.3736   28.0147 C   0  0  0  0  0  0  0  0  0  0  0  0
    4.8688   51.7329   28.2593 C   0  0  0  0  0  0  0  0  0  0  0  0
    4.3148   49.5839   27.2533 C   0  0  0  0  0  0  0  0  0  0  0  0
    5.7749   52.6167   28.9373 N   0  0  0  0  0  0  0  0  0  0  0  0
    3.6423   52.2395   27.7941 C   0  0  0  0  0  0  0  0  0  0  0  0
    3.1107   50.1102   26.7831 C   0  0  0  0  0  0  0  0  0  0  0  0
    7.0855   52.7019   28.5271 O   0  0  0  0  0  0  0  0  0  0  0  0
    5.3336   53.4761   29.7278 O   0  0  0  0  0  0  0  0  0  0  0  0
    2.7701   51.4325   27.0623 C   0  0  0  0  0  0  0  0  0  0  0  0
    8.8123   40.1844   34.2134 O   0  0  0  0  0  0  0  0  0  0  0  0
   11.2402   40.7944   33.3689 O   0  0  0  0  0  0  0  0  0  0  0  0
   10.9142   40.6898   31.9971 C   0  0  0  0  0  0  0  0  0  0  0  0
   11.5260   39.3884   31.4376 C   0  0  0  0  0  0  0  0  0  0  0  0
   12.7504   39.0888   32.0816 O   0  0  0  0  0  0  0  0  0  0  0  0
   10.6114   38.1909   31.6460 C   0  0  0  0  0  0  0  0  0  0  0  0
   12.9357   37.6812   32.0303 C   0  0  0  0  0  0  0  0  0  0  0  0
    9.6145   38.0858   30.6534 O   0  0  0  0  0  0  0  0  0  0  0  0
   11.5769   37.0148   31.7012 C   0  0  0  0  0  0  0  0  0  0  0  0
   13.4849   37.2112   33.3247 N   0  0  0  0  0  0  0  0  0  0  0  0
   11.6193   36.3261   30.4724 O   0  0  0  0  0  0  0  0  0  0  0  0
   14.4802   36.3313   33.5730 C   0  0  0  0  0  0  0  0  0  0  0  0
   13.1141   37.6268   34.5698 C   0  0  0  0  0  0  0  0  0  0  0  0
   15.2075   35.6151   32.6741 N   0  0  0  0  0  0  0  0  0  0  0  0
   14.6761   36.2300   34.9184 C   0  0  0  0  0  0  0  0  0  0  0  0
   13.8220   37.0445   35.5789 N   0  0  0  0  0  0  0  0  0  0  0  0
   16.1642   34.7600   33.1547 C   0  0  0  0  0  0  0  0  0  0  0  0
   15.6529   35.3503   35.4131 C   0  0  0  0  0  0  0  0  0  0  0  0
   16.3798   34.6314   34.5042 N   0  0  0  0  0  0  0  0  0  0  0  0
   15.9004   35.1930   36.8090 N   0  0  0  0  0  0  0  0  0  0  0  0
    8.9996   45.4382   33.6724 H   0  0  0  0  0  0  0  0  0  0  0  0
   10.7764   46.9368   33.0157 H   0  0  0  0  0  0  0  0  0  0  0  0
   11.0505   46.2276   34.4980 H   0  0  0  0  0  0  0  0  0  0  0  0
   10.7406   44.9069   31.1835 H   0  0  0  0  0  0  0  0  0  0  0  0
    9.3635   43.8353   31.4715 H   0  0  0  0  0  0  0  0  0  0  0  0
    7.0130   44.7161   31.5849 H   0  0  0  0  0  0  0  0  0  0  0  0
   10.3474   47.1863   30.4064 H   0  0  0  0  0  0  0  0  0  0  0  0
    5.4634   46.3040   30.5046 H   0  0  0  0  0  0  0  0  0  0  0  0
    8.8122   48.7646   29.3450 H   0  0  0  0  0  0  0  0  0  0  0  0
    6.9717   50.3858   29.2798 H   0  0  0  0  0  0  0  0  0  0  0  0
    7.1205   49.4860   27.7197 H   0  0  0  0  0  0  0  0  0  0  0  0
    4.5537   48.5492   27.0385 H   0  0  0  0  0  0  0  0  0  0  0  0
    3.3741   53.2727   27.9760 H   0  0  0  0  0  0  0  0  0  0  0  0
    2.4370   49.4886   26.2074 H   0  0  0  0  0  0  0  0  0  0  0  0
    1.8340   51.8374   26.7000 H   0  0  0  0  0  0  0  0  0  0  0  0
    9.8232   40.7190   31.7645 H   0  0  0  0  0  0  0  0  0  0  0  0
   11.3777   41.5525   31.4723 H   0  0  0  0  0  0  0  0  0  0  0  0
   11.7283   39.5311   30.3515 H   0  0  0  0  0  0  0  0  0  0  0  0
   10.1127   38.2733   32.6376 H   0  0  0  0  0  0  0  0  0  0  0  0
   13.6692   37.4566   31.2242 H   0  0  0  0  0  0  0  0  0  0  0  0
   10.0533   38.1118   29.7635 H   0  0  0  0  0  0  0  0  0  0  0  0
   11.2607   36.3148   32.5102 H   0  0  0  0  0  0  0  0  0  0  0  0
   12.1496   35.5023   30.6324 H   0  0  0  0  0  0  0  0  0  0  0  0
   12.3301   38.3524   34.7455 H   0  0  0  0  0  0  0  0  0  0  0  0
   16.7562   34.1781   32.4619 H   0  0  0  0  0  0  0  0  0  0  0  0
   16.6351   34.5298   37.1416 H   0  0  0  0  0  0  0  0  0  0  0  0
   15.3536   35.7357   37.5139 H   0  0  0  0  0  0  0  0  0  0  0  0
  1  2  2  0
  1  3  1  0
  3  4  1  0
  4  5  1  0
  6  1  1  0
  7  6  1  0
  6  8  1  0
  8  9  1  0
  9 10  2  0
 11  9  1  0
 10 12  1  0
 13 11  2  0
 12 14  2  0
 14 13  1  0
 14 15  1  0
 15 16  1  0
 16 17  1  0
 17 18  2  0
 19 17  1  0
 18 20  1  0
 18 21  1  0
 22 19  2  0
 20 23  1  0
 20 24  2  0
 21 25  2  0
 25 22  1  0
  4 26  2  0
  4 27  1  0
 28 27  1  0
 28 29  1  0
 29 30  1  0
 29 31  1  0
 30 32  1  0
 31 33  1  0
 31 34  1  0
 34 32  1  0
 32 35  1  0
 34 36  1  0
 37 35  1  0
 38 35  1  0
 39 37  2  0
 37 40  1  0
 41 38  2  0
 42 39  1  0
 40 43  2  0
 40 41  1  0
 44 42  2  0
 44 43  1  0
 43 45  1  0
  6 46  1  1
  7 47  1  0
  7 48  1  0
  8 49  1  0
  8 50  1  0
 10 51  1  0
 11 52  1  0
 12 53  1  0
 13 54  1  0
 16 55  1  0
 16 56  1  0
 19 57  1  0
 21 58  1  0
 22 59  1  0
 25 60  1  0
 28 61  1  0
 28 62  1  0
 29 63  1  0
 31 64  1  0
 32 65  1  0
 33 66  1  0
 34 67  1  0
 36 68  1  0
 38 69  1  0
 42 70  1  0
 45 71  1  0
 45 72  1  0
M  CHG  3   5  -1  20   1  23  -1
M  END
>  <EmbedRMS>  (99) 
0.0814449368501

$$$$

     RDKit          3D

 72 76  0  0  0  0  0  0  0  0999 V2000
   10.2803   43.7664   33.8249 C   0  0  0  0  0  0  0  0  0  0  0  0
   11.4109   43.5919   34.3666 O   0  0  0  0  0  0  0  0  0  0  0  0
    9.3617   42.7250   33.7344 O   0  0  0  0  0  0  0  0  0  0  0  0
    9.8901   41.2265   34.2931 P   0  0  0  0  0  0  0  0  0  0  0  0
   10.3742   41.4563   35.8823 O   0  0  0  0  0  0  0  0  0  0  0  0
    9.9459   45.0736   33.2109 C   0  0  1  0  0  0  0  0  0  0  0  0
   11.0266   46.0292   33.4707 N   0  0  0  0  0  0  0  0  0  0  0  0
    9.7542   44.8539   31.6945 C   0  0  0  0  0  0  0  0  0  0  0  0
    8.7960   45.8406   31.0838 C   0  0  0  0  0  0  0  0  0  0  0  0
    7.4091   45.6007   31.1019 C   0  0  0  0  0  0  0  0  0  0  0  0
    9.2824   46.9883   30.4403 C   0  0  0  0  0  0  0  0  0  0  0  0
    6.5260   46.5005   30.4885 C   0  0  0  0  0  0  0  0  0  0  0  0
    8.3993   47.8883   29.8332 C   0  0  0  0  0  0  0  0  0  0  0  0
    7.0182   47.6520   29.8425 C   0  0  0  0  0  0  0  0  0  0  0  0
    6.1827   48.5864   29.2107 O   0  0  0  0  0  0  0  0  0  0  0  0
    4.8112   48.3840   28.8660 C   0  0  0  0  0  0  0  0  0  0  0  0
    4.6804   47.4044   27.7208 C   0  0  0  0  0  0  0  0  0  0  0  0
    5.0567   47.7332   26.3865 C   0  0  0  0  0  0  0  0  0  0  0  0
    4.1115   46.1427   27.9793 C   0  0  0  0  0  0  0  0  0  0  0  0
    5.5755   49.0283   26.0244 N   0  0  0  0  0  0  0  0  0  0  0  0
    4.8684   46.7782   25.3703 C   0  0  0  0  0  0  0  0  0  0  0  0
    3.9457   45.2095   26.9563 C   0  0  0  0  0  0  0  0  0  0  0  0
    5.3707   49.5172   24.7543 O   0  0  0  0  0  0  0  0  0  0  0  0
    6.3305   49.6597   26.7902 O   0  0  0  0  0  0  0  0  0  0  0  0
    4.3267   45.5251   25.6553 C   0  0  0  0  0  0  0  0  0  0  0  0
    8.8123   40.1844   34.2130 O   0  0  0  0  0  0  0  0  0  0  0  0
   11.2401   40.7949   33.3666 O   0  0  0  0  0  0  0  0  0  0  0  0
   10.9124   40.6859   31.9952 C   0  0  0  0  0  0  0  0  0  0  0  0
   11.5175   39.3786   31.4405 C   0  0  0  0  0  0  0  0  0  0  0  0
   12.7490   39.0864   32.0753 O   0  0  0  0  0  0  0  0  0  0  0  0
   10.6060   38.1868   31.6656 C   0  0  0  0  0  0  0  0  0  0  0  0
   12.9355   37.6796   32.0292 C   0  0  0  0  0  0  0  0  0  0  0  0
    9.6399   38.0903   30.6471 O   0  0  0  0  0  0  0  0  0  0  0  0
   11.5765   37.0145   31.7044 C   0  0  0  0  0  0  0  0  0  0  0  0
   13.4858   37.2125   33.3244 N   0  0  0  0  0  0  0  0  0  0  0  0
   11.6101   36.3397   30.4673 O   0  0  0  0  0  0  0  0  0  0  0  0
   14.4805   36.3319   33.5729 C   0  0  0  0  0  0  0  0  0  0  0  0
   13.1143   37.6276   34.5694 C   0  0  0  0  0  0  0  0  0  0  0  0
   15.2076   35.6153   32.6741 N   0  0  0  0  0  0  0  0  0  0  0  0
   14.6760   36.2304   34.9184 C   0  0  0  0  0  0  0  0  0  0  0  0
   13.8219   37.0449   35.5786 N   0  0  0  0  0  0  0  0  0  0  0  0
   16.1641   34.7600   33.1548 C   0  0  0  0  0  0  0  0  0  0  0  0
   15.6528   35.3505   35.4132 C   0  0  0  0  0  0  0  0  0  0  0  0
   16.3795   34.6314   34.5043 N   0  0  0  0  0  0  0  0  0  0  0  0
   15.9002   35.1931   36.8091 N   0  0  0  0  0  0  0  0  0  0  0  0
    8.9994   45.4382   33.6717 H   0  0  0  0  0  0  0  0  0  0  0  0
   10.7765   46.9369   33.0157 H   0  0  0  0  0  0  0  0  0  0  0  0
   11.0500   46.2277   34.4981 H   0  0  0  0  0  0  0  0  0  0  0  0
   10.7414   44.9077   31.1834 H   0  0  0  0  0  0  0  0  0  0  0  0
    9.3648   43.8351   31.4708 H   0  0  0  0  0  0  0  0  0  0  0  0
    7.0144   44.7195   31.5927 H   0  0  0  0  0  0  0  0  0  0  0  0
   10.3462   47.1888   30.4067 H   0  0  0  0  0  0  0  0  0  0  0  0
    5.4684   46.2982   30.5446 H   0  0  0  0  0  0  0  0  0  0  0  0
    8.7912   48.7702   29.3424 H   0  0  0  0  0  0  0  0  0  0  0  0
    4.3695   49.3555   28.5602 H   0  0  0  0  0  0  0  0  0  0  0  0
    4.2396   48.0600   29.7619 H   0  0  0  0  0  0  0  0  0  0  0  0
    3.7818   45.8782   28.9755 H   0  0  0  0  0  0  0  0  0  0  0  0
    5.1492   47.0026   24.3491 H   0  0  0  0  0  0  0  0  0  0  0  0
    3.5124   44.2414   27.1724 H   0  0  0  0  0  0  0  0  0  0  0  0
    4.1933   44.8004   24.8624 H   0  0  0  0  0  0  0  0  0  0  0  0
    9.8214   40.7199   31.7634 H   0  0  0  0  0  0  0  0  0  0  0  0
   11.3802   41.5436   31.4660 H   0  0  0  0  0  0  0  0  0  0  0  0
   11.6999   39.5040   30.3482 H   0  0  0  0  0  0  0  0  0  0  0  0
   10.1085   38.2766   32.6603 H   0  0  0  0  0  0  0  0  0  0  0  0
   13.6680   37.4521   31.2229 H   0  0  0  0  0  0  0  0  0  0  0  0
    9.0016   37.3868   30.9349 H   0  0  0  0  0  0  0  0  0  0  0  0
   11.2666   36.3062   32.5083 H   0  0  0  0  0  0  0  0  0  0  0  0
   12.1390   35.5126   30.6150 H   0  0  0  0  0  0  0  0  0  0  0  0
   12.3300   38.3529   34.7450 H   0  0  0  0  0  0  0  0  0  0  0  0
   16.7560   34.1779   32.4621 H   0  0  0  0  0  0  0  0  0  0  0  0
   15.3534   35.7359   37.5140 H   0  0  0  0  0  0  0  0  0  0  0  0
   16.6347   34.5298   37.1416 H   0  0  0  0  0  0  0  0  0  0  0  0
  1  2  2  0
  1  3  1  0
  3  4  1  0
  4  5  1  0
  6  1  1  0
  7  6  1  0
  6  8  1  0
  8  9  1  0
  9 10  2  0
 11  9  1  0
 10 12  1  0
 13 11  2  0
 12 14  2  0
 14 13  1  0
 14 15  1  0
 15 16  1  0
 16 17  1  0
 17 18  2  0
 19 17  1  0
 18 20  1  0
 18 21  1  0
 22 19  2  0
 20 23  1  0
 20 24  2  0
 21 25  2  0
 25 22  1  0
  4 26  2  0
  4 27  1  0
 28 27  1  0
 28 29  1  0
 29 30  1  0
 29 31  1  0
 30 32  1  0
 31 33  1  0
 31 34  1  0
 34 32  1  0
 32 35  1  0
 34 36  1  0
 37 35  1  0
 38 35  1  0
 39 37  2  0
 37 40  1  0
 41 38  2  0
 42 39  1  0
 40 43  2  0
 40 41  1  0
 44 42  2  0
 44 43  1  0
 43 45  1  0
  6 46  1  1
  7 47  1  0
  7 48  1  0
  8 49  1  0
  8 50  1  0
 10 51  1  0
 11 52  1  0
 12 53  1  0
 13 54  1  0
 16 55  1  0
 16 56  1  0
 19 57  1  0
 21 58  1  0
 22 59  1  0
 25 60  1  0
 28 61  1  0
 28 62  1  0
 29 63  1  0
 31 64  1  0
 32 65  1  0
 33 66  1  0
 34 67  1  0
 36 68  1  0
 38 69  1  0
 42 70  1  0
 45 71  1  0
 45 72  1  0
M  CHG  3   5  -1  20   1  23  -1
M  END
>  <EmbedRMS>  (100) 
0.0822404978104

$$$$

     RDKit          3D

 72 76  0  0  0  0  0  0  0  0999 V2000
   10.2835   43.7661   33.8257 C   0  0  0  0  0  0  0  0  0  0  0  0
   11.4102   43.5930   34.3753 O   0  0  0  0  0  0  0  0  0  0  0  0
    9.3638   42.7255   33.7349 O   0  0  0  0  0  0  0  0  0  0  0  0
    9.8903   41.2267   34.2942 P   0  0  0  0  0  0  0  0  0  0  0  0
   10.3735   41.4561   35.8837 O   0  0  0  0  0  0  0  0  0  0  0  0
    9.9546   45.0695   33.2036 C   0  0  1  0  0  0  0  0  0  0  0  0
   11.0274   46.0321   33.4756 N   0  0  0  0  0  0  0  0  0  0  0  0
    9.7465   44.8481   31.6877 C   0  0  0  0  0  0  0  0  0  0  0  0
    8.7923   45.8409   31.0844 C   0  0  0  0  0  0  0  0  0  0  0  0
    7.4054   45.6015   31.0990 C   0  0  0  0  0  0  0  0  0  0  0  0
    9.2824   46.9879   30.4422 C   0  0  0  0  0  0  0  0  0  0  0  0
    6.5264   46.5031   30.4838 C   0  0  0  0  0  0  0  0  0  0  0  0
    8.4032   47.8902   29.8315 C   0  0  0  0  0  0  0  0  0  0  0  0
    7.0143   47.6527   29.8478 C   0  0  0  0  0  0  0  0  0  0  0  0
    6.0933   48.5253   29.2505 O   0  0  0  0  0  0  0  0  0  0  0  0
    6.4424   49.7389   28.5888 C   0  0  0  0  0  0  0  0  0  0  0  0
    5.1910   50.4404   28.1229 C   0  0  0  0  0  0  0  0  0  0  0  0
    4.1368   50.7785   29.0150 C   0  0  0  0  0  0  0  0  0  0  0  0
    5.0500   50.7303   26.7528 C   0  0  0  0  0  0  0  0  0  0  0  0
    4.2196   50.5127   30.4278 N   0  0  0  0  0  0  0  0  0  0  0  0
    2.9690   51.3717   28.5002 C   0  0  0  0  0  0  0  0  0  0  0  0
    3.8889   51.3326   26.2670 C   0  0  0  0  0  0  0  0  0  0  0  0
    5.3940   50.7133   31.1148 O   0  0  0  0  0  0  0  0  0  0  0  0
    3.1853   50.2494   31.0757 O   0  0  0  0  0  0  0  0  0  0  0  0
    2.8492   51.6492   27.1382 C   0  0  0  0  0  0  0  0  0  0  0  0
    8.8122   40.1850   34.2131 O   0  0  0  0  0  0  0  0  0  0  0  0
   11.2407   40.7939   33.3694 O   0  0  0  0  0  0  0  0  0  0  0  0
   10.9151   40.6905   31.9974 C   0  0  0  0  0  0  0  0  0  0  0  0
   11.5252   39.3886   31.4375 C   0  0  0  0  0  0  0  0  0  0  0  0
   12.7500   39.0874   32.0799 O   0  0  0  0  0  0  0  0  0  0  0  0
   10.6092   38.1926   31.6470 C   0  0  0  0  0  0  0  0  0  0  0  0
   12.9332   37.6792   32.0294 C   0  0  0  0  0  0  0  0  0  0  0  0
    9.6122   38.0895   30.6542 O   0  0  0  0  0  0  0  0  0  0  0  0
   11.5743   37.0145   31.7024 C   0  0  0  0  0  0  0  0  0  0  0  0
   13.4844   37.2108   33.3241 N   0  0  0  0  0  0  0  0  0  0  0  0
   11.6297   36.3239   30.4740 O   0  0  0  0  0  0  0  0  0  0  0  0
   14.4802   36.3313   33.5727 C   0  0  0  0  0  0  0  0  0  0  0  0
   13.1139   37.6266   34.5692 C   0  0  0  0  0  0  0  0  0  0  0  0
   15.2075   35.6149   32.6739 N   0  0  0  0  0  0  0  0  0  0  0  0
   14.6761   36.2303   34.9181 C   0  0  0  0  0  0  0  0  0  0  0  0
   13.8220   37.0447   35.5785 N   0  0  0  0  0  0  0  0  0  0  0  0
   16.1643   34.7600   33.1547 C   0  0  0  0  0  0  0  0  0  0  0  0
   15.6529   35.3505   35.4130 C   0  0  0  0  0  0  0  0  0  0  0  0
   16.3798   34.6315   34.5042 N   0  0  0  0  0  0  0  0  0  0  0  0
   15.9003   35.1932   36.8090 N   0  0  0  0  0  0  0  0  0  0  0  0
    9.0121   45.4317   33.6715 H   0  0  0  0  0  0  0  0  0  0  0  0
   11.8906   45.7658   32.9469 H   0  0  0  0  0  0  0  0  0  0  0  0
   10.7259   46.9687   33.1213 H   0  0  0  0  0  0  0  0  0  0  0  0
    9.3413   43.8329   31.4763 H   0  0  0  0  0  0  0  0  0  0  0  0
   10.7229   44.8814   31.1557 H   0  0  0  0  0  0  0  0  0  0  0  0
    7.0082   44.7168   31.5813 H   0  0  0  0  0  0  0  0  0  0  0  0
   10.3471   47.1847   30.4112 H   0  0  0  0  0  0  0  0  0  0  0  0
    5.4617   46.3077   30.5024 H   0  0  0  0  0  0  0  0  0  0  0  0
    8.8143   48.7649   29.3467 H   0  0  0  0  0  0  0  0  0  0  0  0
    7.0063   50.4059   29.2737 H   0  0  0  0  0  0  0  0  0  0  0  0
    7.1080   49.5023   27.7300 H   0  0  0  0  0  0  0  0  0  0  0  0
    5.8383   50.4830   26.0524 H   0  0  0  0  0  0  0  0  0  0  0  0
    2.1518   51.6342   29.1603 H   0  0  0  0  0  0  0  0  0  0  0  0
    3.7931   51.5487   25.2107 H   0  0  0  0  0  0  0  0  0  0  0  0
    1.9480   52.1128   26.7579 H   0  0  0  0  0  0  0  0  0  0  0  0
   11.3802   41.5529   31.4733 H   0  0  0  0  0  0  0  0  0  0  0  0
    9.8243   40.7216   31.7643 H   0  0  0  0  0  0  0  0  0  0  0  0
   11.7266   39.5311   30.3513 H   0  0  0  0  0  0  0  0  0  0  0  0
   10.1110   38.2747   32.6387 H   0  0  0  0  0  0  0  0  0  0  0  0
   13.6652   37.4519   31.2226 H   0  0  0  0  0  0  0  0  0  0  0  0
   10.0511   38.1143   29.7645 H   0  0  0  0  0  0  0  0  0  0  0  0
   11.2762   36.3141   32.5189 H   0  0  0  0  0  0  0  0  0  0  0  0
   10.8593   35.6978   30.4640 H   0  0  0  0  0  0  0  0  0  0  0  0
   12.3295   38.3518   34.7449 H   0  0  0  0  0  0  0  0  0  0  0  0
   16.7564   34.1779   32.4620 H   0  0  0  0  0  0  0  0  0  0  0  0
   15.3534   35.7359   37.5138 H   0  0  0  0  0  0  0  0  0  0  0  0
   16.6349   34.5300   37.1416 H   0  0  0  0  0  0  0  0  0  0  0  0
  1  2  2  0
  1  3  1  0
  3  4  1  0
  4  5  1  0
  6  1  1  0
  7  6  1  0
  6  8  1  0
  8  9  1  0
  9 10  2  0
 11  9  1  0
 10 12  1  0
 13 11  2  0
 12 14  2  0
 14 13  1  0
 14 15  1  0
 15 16  1  0
 16 17  1  0
 17 18  2  0
 19 17  1  0
 18 20  1  0
 18 21  1  0
 22 19  2  0
 20 23  1  0
 20 24  2  0
 21 25  2  0
 25 22  1  0
  4 26  2  0
  4 27  1  0
 28 27  1  0
 28 29  1  0
 29 30  1  0
 29 31  1  0
 30 32  1  0
 31 33  1  0
 31 34  1  0
 34 32  1  0
 32 35  1  0
 34 36  1  0
 37 35  1  0
 38 35  1  0
 39 37  2  0
 37 40  1  0
 41 38  2  0
 42 39  1  0
 40 43  2  0
 40 41  1  0
 44 42  2  0
 44 43  1  0
 43 45  1  0
  6 46  1  1
  7 47  1  0
  7 48  1  0
  8 49  1  0
  8 50  1  0
 10 51  1  0
 11 52  1  0
 12 53  1  0
 13 54  1  0
 16 55  1  0
 16 56  1  0
 19 57  1  0
 21 58  1  0
 22 59  1  0
 25 60  1  0
 28 61  1  0
 28 62  1  0
 29 63  1  0
 31 64  1  0
 32 65  1  0
 33 66  1  0
 34 67  1  0
 36 68  1  0
 38 69  1  0
 42 70  1  0
 45 71  1  0
 45 72  1  0
M  CHG  3   5  -1  20   1  23  -1
M  END
>  <EmbedRMS>  (101) 
0.0818207500686

$$$$

     RDKit          3D

 72 76  0  0  0  0  0  0  0  0999 V2000
   10.2805   43.7663   33.8249 C   0  0  0  0  0  0  0  0  0  0  0  0
   11.4111   43.5919   34.3667 O   0  0  0  0  0  0  0  0  0  0  0  0
    9.3622   42.7247   33.7342 O   0  0  0  0  0  0  0  0  0  0  0  0
    9.8904   41.2264   34.2936 P   0  0  0  0  0  0  0  0  0  0  0  0
   10.3731   41.4565   35.8831 O   0  0  0  0  0  0  0  0  0  0  0  0
    9.9460   45.0735   33.2111 C   0  0  1  0  0  0  0  0  0  0  0  0
   11.0267   46.0291   33.4708 N   0  0  0  0  0  0  0  0  0  0  0  0
    9.7540   44.8541   31.6948 C   0  0  0  0  0  0  0  0  0  0  0  0
    8.7957   45.8411   31.0848 C   0  0  0  0  0  0  0  0  0  0  0  0
    7.4089   45.6001   31.1012 C   0  0  0  0  0  0  0  0  0  0  0  0
    9.2824   46.9881   30.4399 C   0  0  0  0  0  0  0  0  0  0  0  0
    6.5263   46.4995   30.4867 C   0  0  0  0  0  0  0  0  0  0  0  0
    8.3994   47.8875   29.8313 C   0  0  0  0  0  0  0  0  0  0  0  0
    7.0180   47.6538   29.8455 C   0  0  0  0  0  0  0  0  0  0  0  0
    6.1800   48.5859   29.2128 O   0  0  0  0  0  0  0  0  0  0  0  0
    4.7591   48.4813   29.0970 C   0  0  0  0  0  0  0  0  0  0  0  0
    4.3591   47.3574   28.1641 C   0  0  0  0  0  0  0  0  0  0  0  0
    3.2133   46.5492   28.3929 C   0  0  0  0  0  0  0  0  0  0  0  0
    5.0866   47.1852   26.9708 C   0  0  0  0  0  0  0  0  0  0  0  0
    2.3910   46.7070   29.5582 N   0  0  0  0  0  0  0  0  0  0  0  0
    2.8435   45.5902   27.4354 C   0  0  0  0  0  0  0  0  0  0  0  0
    4.7138   46.2142   26.0404 C   0  0  0  0  0  0  0  0  0  0  0  0
    1.0220   46.7119   29.4234 O   0  0  0  0  0  0  0  0  0  0  0  0
    2.8817   46.5575   30.6955 O   0  0  0  0  0  0  0  0  0  0  0  0
    3.5946   45.4176   26.2725 C   0  0  0  0  0  0  0  0  0  0  0  0
    8.8128   40.1841   34.2124 O   0  0  0  0  0  0  0  0  0  0  0  0
   11.2419   40.7944   33.3695 O   0  0  0  0  0  0  0  0  0  0  0  0
   10.9185   40.6911   31.9969 C   0  0  0  0  0  0  0  0  0  0  0  0
   11.5172   39.3814   31.4407 C   0  0  0  0  0  0  0  0  0  0  0  0
   12.7492   39.0856   32.0729 O   0  0  0  0  0  0  0  0  0  0  0  0
   10.6023   38.1908   31.6665 C   0  0  0  0  0  0  0  0  0  0  0  0
   12.9319   37.6781   32.0281 C   0  0  0  0  0  0  0  0  0  0  0  0
    9.6392   38.0797   30.6452 O   0  0  0  0  0  0  0  0  0  0  0  0
   11.5715   37.0165   31.7056 C   0  0  0  0  0  0  0  0  0  0  0  0
   13.4846   37.2121   33.3235 N   0  0  0  0  0  0  0  0  0  0  0  0
   11.6187   36.3384   30.4695 O   0  0  0  0  0  0  0  0  0  0  0  0
   14.4801   36.3321   33.5724 C   0  0  0  0  0  0  0  0  0  0  0  0
   13.1137   37.6275   34.5688 C   0  0  0  0  0  0  0  0  0  0  0  0
   15.2073   35.6153   32.6738 N   0  0  0  0  0  0  0  0  0  0  0  0
   14.6759   36.2308   34.9179 C   0  0  0  0  0  0  0  0  0  0  0  0
   13.8216   37.0452   35.5781 N   0  0  0  0  0  0  0  0  0  0  0  0
   16.1640   34.7602   33.1546 C   0  0  0  0  0  0  0  0  0  0  0  0
   15.6526   35.3508   35.4129 C   0  0  0  0  0  0  0  0  0  0  0  0
   16.3794   34.6317   34.5041 N   0  0  0  0  0  0  0  0  0  0  0  0
   15.8999   35.1935   36.8088 N   0  0  0  0  0  0  0  0  0  0  0  0
    8.9996   45.4380   33.6721 H   0  0  0  0  0  0  0  0  0  0  0  0
   11.0502   46.2276   34.4982 H   0  0  0  0  0  0  0  0  0  0  0  0
   10.7764   46.9368   33.0159 H   0  0  0  0  0  0  0  0  0  0  0  0
   10.7412   44.9079   31.1835 H   0  0  0  0  0  0  0  0  0  0  0  0
    9.3645   43.8354   31.4710 H   0  0  0  0  0  0  0  0  0  0  0  0
    7.0146   44.7154   31.5859 H   0  0  0  0  0  0  0  0  0  0  0  0
   10.3462   47.1880   30.4055 H   0  0  0  0  0  0  0  0  0  0  0  0
    5.4696   46.2853   30.5173 H   0  0  0  0  0  0  0  0  0  0  0  0
    8.7915   48.7688   29.3396 H   0  0  0  0  0  0  0  0  0  0  0  0
    4.3827   49.4302   28.6613 H   0  0  0  0  0  0  0  0  0  0  0  0
    4.3149   48.3982   30.1067 H   0  0  0  0  0  0  0  0  0  0  0  0
    5.9442   47.8103   26.7546 H   0  0  0  0  0  0  0  0  0  0  0  0
    1.9720   44.9682   27.5967 H   0  0  0  0  0  0  0  0  0  0  0  0
    5.2878   46.0877   25.1315 H   0  0  0  0  0  0  0  0  0  0  0  0
    3.3029   44.6701   25.5461 H   0  0  0  0  0  0  0  0  0  0  0  0
    9.8298   40.7409   31.7611 H   0  0  0  0  0  0  0  0  0  0  0  0
   11.3967   41.5459   31.4726 H   0  0  0  0  0  0  0  0  0  0  0  0
   11.6975   39.5066   30.3481 H   0  0  0  0  0  0  0  0  0  0  0  0
   10.1076   38.2648   32.6645 H   0  0  0  0  0  0  0  0  0  0  0  0
   13.6621   37.4468   31.2209 H   0  0  0  0  0  0  0  0  0  0  0  0
    8.8974   38.6943   30.8831 H   0  0  0  0  0  0  0  0  0  0  0  0
   11.2806   36.3073   32.5170 H   0  0  0  0  0  0  0  0  0  0  0  0
   10.8492   35.7110   30.4586 H   0  0  0  0  0  0  0  0  0  0  0  0
   12.3290   38.3524   34.7444 H   0  0  0  0  0  0  0  0  0  0  0  0
   16.7559   34.1780   32.4619 H   0  0  0  0  0  0  0  0  0  0  0  0
   16.6344   34.5301   37.1414 H   0  0  0  0  0  0  0  0  0  0  0  0
   15.3532   35.7362   37.5137 H   0  0  0  0  0  0  0  0  0  0  0  0
  1  2  2  0
  1  3  1  0
  3  4  1  0
  4  5  1  0
  6  1  1  0
  7  6  1  0
  6  8  1  0
  8  9  1  0
  9 10  2  0
 11  9  1  0
 10 12  1  0
 13 11  2  0
 12 14  2  0
 14 13  1  0
 14 15  1  0
 15 16  1  0
 16 17  1  0
 17 18  2  0
 19 17  1  0
 18 20  1  0
 18 21  1  0
 22 19  2  0
 20 23  1  0
 20 24  2  0
 21 25  2  0
 25 22  1  0
  4 26  2  0
  4 27  1  0
 28 27  1  0
 28 29  1  0
 29 30  1  0
 29 31  1  0
 30 32  1  0
 31 33  1  0
 31 34  1  0
 34 32  1  0
 32 35  1  0
 34 36  1  0
 37 35  1  0
 38 35  1  0
 39 37  2  0
 37 40  1  0
 41 38  2  0
 42 39  1  0
 40 43  2  0
 40 41  1  0
 44 42  2  0
 44 43  1  0
 43 45  1  0
  6 46  1  1
  7 47  1  0
  7 48  1  0
  8 49  1  0
  8 50  1  0
 10 51  1  0
 11 52  1  0
 12 53  1  0
 13 54  1  0
 16 55  1  0
 16 56  1  0
 19 57  1  0
 21 58  1  0
 22 59  1  0
 25 60  1  0
 28 61  1  0
 28 62  1  0
 29 63  1  0
 31 64  1  0
 32 65  1  0
 33 66  1  0
 34 67  1  0
 36 68  1  0
 38 69  1  0
 42 70  1  0
 45 71  1  0
 45 72  1  0
M  CHG  3   5  -1  20   1  23  -1
M  END
>  <EmbedRMS>  (102) 
0.0827617906538

$$$$

     RDKit          3D

 72 76  0  0  0  0  0  0  0  0999 V2000
   10.2804   43.7664   33.8251 C   0  0  0  0  0  0  0  0  0  0  0  0
   11.4111   43.5919   34.3667 O   0  0  0  0  0  0  0  0  0  0  0  0
    9.3619   42.7249   33.7347 O   0  0  0  0  0  0  0  0  0  0  0  0
    9.8900   41.2267   34.2944 P   0  0  0  0  0  0  0  0  0  0  0  0
   10.3728   41.4567   35.8839 O   0  0  0  0  0  0  0  0  0  0  0  0
    9.9459   45.0736   33.2112 C   0  0  1  0  0  0  0  0  0  0  0  0
   11.0267   46.0291   33.4706 N   0  0  0  0  0  0  0  0  0  0  0  0
    9.7535   44.8538   31.6950 C   0  0  0  0  0  0  0  0  0  0  0  0
    8.7955   45.8411   31.0848 C   0  0  0  0  0  0  0  0  0  0  0  0
    7.4085   45.6005   31.1007 C   0  0  0  0  0  0  0  0  0  0  0  0
    9.2831   46.9879   30.4397 C   0  0  0  0  0  0  0  0  0  0  0  0
    6.5278   46.5009   30.4853 C   0  0  0  0  0  0  0  0  0  0  0  0
    8.4025   47.8893   29.8301 C   0  0  0  0  0  0  0  0  0  0  0  0
    7.0139   47.6509   29.8483 C   0  0  0  0  0  0  0  0  0  0  0  0
    6.0914   48.5224   29.2518 O   0  0  0  0  0  0  0  0  0  0  0  0
    6.4387   49.7357   28.5885 C   0  0  0  0  0  0  0  0  0  0  0  0
    5.1853   50.4345   28.1230 C   0  0  0  0  0  0  0  0  0  0  0  0
    4.1399   50.7938   29.0191 C   0  0  0  0  0  0  0  0  0  0  0  0
    5.0328   50.7007   26.7492 C   0  0  0  0  0  0  0  0  0  0  0  0
    4.2275   50.5545   30.4366 N   0  0  0  0  0  0  0  0  0  0  0  0
    2.9704   51.3816   28.5039 C   0  0  0  0  0  0  0  0  0  0  0  0
    3.8698   51.2990   26.2634 C   0  0  0  0  0  0  0  0  0  0  0  0
    3.0823   50.3357   31.1675 O   0  0  0  0  0  0  0  0  0  0  0  0
    5.3067   50.6999   31.0457 O   0  0  0  0  0  0  0  0  0  0  0  0
    2.8394   51.6352   27.1382 C   0  0  0  0  0  0  0  0  0  0  0  0
    8.8127   40.1842   34.2128 O   0  0  0  0  0  0  0  0  0  0  0  0
   11.2414   40.7950   33.3705 O   0  0  0  0  0  0  0  0  0  0  0  0
   10.9178   40.6922   31.9983 C   0  0  0  0  0  0  0  0  0  0  0  0
   11.5175   39.3837   31.4423 C   0  0  0  0  0  0  0  0  0  0  0  0
   12.7507   39.0887   32.0753 O   0  0  0  0  0  0  0  0  0  0  0  0
   10.6027   38.1916   31.6659 C   0  0  0  0  0  0  0  0  0  0  0  0
   12.9384   37.6819   32.0278 C   0  0  0  0  0  0  0  0  0  0  0  0
    9.6371   38.0805   30.6470 O   0  0  0  0  0  0  0  0  0  0  0  0
   11.5780   37.0215   31.6935 C   0  0  0  0  0  0  0  0  0  0  0  0
   13.4844   37.2120   33.3242 N   0  0  0  0  0  0  0  0  0  0  0  0
   11.6095   36.3201   30.4679 O   0  0  0  0  0  0  0  0  0  0  0  0
   14.4797   36.3318   33.5730 C   0  0  0  0  0  0  0  0  0  0  0  0
   13.1135   37.6278   34.5691 C   0  0  0  0  0  0  0  0  0  0  0  0
   15.2073   35.6155   32.6742 N   0  0  0  0  0  0  0  0  0  0  0  0
   14.6754   36.2305   34.9184 C   0  0  0  0  0  0  0  0  0  0  0  0
   13.8213   37.0452   35.5785 N   0  0  0  0  0  0  0  0  0  0  0  0
   16.1640   34.7604   33.1549 C   0  0  0  0  0  0  0  0  0  0  0  0
   15.6524   35.3507   35.4132 C   0  0  0  0  0  0  0  0  0  0  0  0
   16.3794   34.6318   34.5044 N   0  0  0  0  0  0  0  0  0  0  0  0
   15.9000   35.1934   36.8091 N   0  0  0  0  0  0  0  0  0  0  0  0
    8.9996   45.4381   33.6724 H   0  0  0  0  0  0  0  0  0  0  0  0
   10.7764   46.9368   33.0157 H   0  0  0  0  0  0  0  0  0  0  0  0
   11.0504   46.2277   34.4980 H   0  0  0  0  0  0  0  0  0  0  0  0
    9.3634   43.8352   31.4716 H   0  0  0  0  0  0  0  0  0  0  0  0
   10.7406   44.9069   31.1835 H   0  0  0  0  0  0  0  0  0  0  0  0
    7.0129   44.7162   31.5851 H   0  0  0  0  0  0  0  0  0  0  0  0
   10.3474   47.1861   30.4061 H   0  0  0  0  0  0  0  0  0  0  0  0
    5.4633   46.3045   30.5053 H   0  0  0  0  0  0  0  0  0  0  0  0
    8.8122   48.7641   29.3443 H   0  0  0  0  0  0  0  0  0  0  0  0
    7.1038   49.4986   27.7294 H   0  0  0  0  0  0  0  0  0  0  0  0
    7.0027   50.4040   29.2723 H   0  0  0  0  0  0  0  0  0  0  0  0
    5.8133   50.4374   26.0460 H   0  0  0  0  0  0  0  0  0  0  0  0
    2.1601   51.6598   29.1657 H   0  0  0  0  0  0  0  0  0  0  0  0
    3.7651   51.4966   25.2043 H   0  0  0  0  0  0  0  0  0  0  0  0
    1.9365   52.0955   26.7579 H   0  0  0  0  0  0  0  0  0  0  0  0
    9.8290   40.7408   31.7625 H   0  0  0  0  0  0  0  0  0  0  0  0
   11.3950   41.5477   31.4741 H   0  0  0  0  0  0  0  0  0  0  0  0
   11.6982   39.5114   30.3500 H   0  0  0  0  0  0  0  0  0  0  0  0
   10.1117   38.2604   32.6661 H   0  0  0  0  0  0  0  0  0  0  0  0
   13.6767   37.4557   31.2267 H   0  0  0  0  0  0  0  0  0  0  0  0
    8.8960   38.6950   30.8873 H   0  0  0  0  0  0  0  0  0  0  0  0
   11.2792   36.3072   32.4922 H   0  0  0  0  0  0  0  0  0  0  0  0
   11.8828   36.9598   29.7589 H   0  0  0  0  0  0  0  0  0  0  0  0
   12.3300   38.3539   34.7446 H   0  0  0  0  0  0  0  0  0  0  0  0
   16.7561   34.1785   32.4622 H   0  0  0  0  0  0  0  0  0  0  0  0
   15.3531   35.7360   37.5140 H   0  0  0  0  0  0  0  0  0  0  0  0
   16.6347   34.5303   37.1416 H   0  0  0  0  0  0  0  0  0  0  0  0
  1  2  2  0
  1  3  1  0
  3  4  1  0
  4  5  1  0
  6  1  1  0
  7  6  1  0
  6  8  1  0
  8  9  1  0
  9 10  2  0
 11  9  1  0
 10 12  1  0
 13 11  2  0
 12 14  2  0
 14 13  1  0
 14 15  1  0
 15 16  1  0
 16 17  1  0
 17 18  2  0
 19 17  1  0
 18 20  1  0
 18 21  1  0
 22 19  2  0
 20 23  1  0
 20 24  2  0
 21 25  2  0
 25 22  1  0
  4 26  2  0
  4 27  1  0
 28 27  1  0
 28 29  1  0
 29 30  1  0
 29 31  1  0
 30 32  1  0
 31 33  1  0
 31 34  1  0
 34 32  1  0
 32 35  1  0
 34 36  1  0
 37 35  1  0
 38 35  1  0
 39 37  2  0
 37 40  1  0
 41 38  2  0
 42 39  1  0
 40 43  2  0
 40 41  1  0
 44 42  2  0
 44 43  1  0
 43 45  1  0
  6 46  1  1
  7 47  1  0
  7 48  1  0
  8 49  1  0
  8 50  1  0
 10 51  1  0
 11 52  1  0
 12 53  1  0
 13 54  1  0
 16 55  1  0
 16 56  1  0
 19 57  1  0
 21 58  1  0
 22 59  1  0
 25 60  1  0
 28 61  1  0
 28 62  1  0
 29 63  1  0
 31 64  1  0
 32 65  1  0
 33 66  1  0
 34 67  1  0
 36 68  1  0
 38 69  1  0
 42 70  1  0
 45 71  1  0
 45 72  1  0
M  CHG  3   5  -1  20   1  23  -1
M  END
>  <EmbedRMS>  (103) 
0.0818010957356

$$$$

     RDKit          3D

 72 76  0  0  0  0  0  0  0  0999 V2000
   10.2803   43.7665   33.8251 C   0  0  0  0  0  0  0  0  0  0  0  0
   11.4110   43.5919   34.3666 O   0  0  0  0  0  0  0  0  0  0  0  0
    9.3616   42.7251   33.7349 O   0  0  0  0  0  0  0  0  0  0  0  0
    9.8899   41.2268   34.2940 P   0  0  0  0  0  0  0  0  0  0  0  0
   10.3739   41.4565   35.8831 O   0  0  0  0  0  0  0  0  0  0  0  0
    9.9458   45.0736   33.2112 C   0  0  1  0  0  0  0  0  0  0  0  0
   11.0267   46.0291   33.4706 N   0  0  0  0  0  0  0  0  0  0  0  0
    9.7535   44.8539   31.6950 C   0  0  0  0  0  0  0  0  0  0  0  0
    8.7955   45.8411   31.0848 C   0  0  0  0  0  0  0  0  0  0  0  0
    7.4085   45.6005   31.1008 C   0  0  0  0  0  0  0  0  0  0  0  0
    9.2831   46.9879   30.4398 C   0  0  0  0  0  0  0  0  0  0  0  0
    6.5278   46.5010   30.4855 C   0  0  0  0  0  0  0  0  0  0  0  0
    8.4024   47.8894   29.8302 C   0  0  0  0  0  0  0  0  0  0  0  0
    7.0139   47.6508   29.8481 C   0  0  0  0  0  0  0  0  0  0  0  0
    6.0916   48.5207   29.2491 O   0  0  0  0  0  0  0  0  0  0  0  0
    6.4418   49.7143   28.5524 C   0  0  0  0  0  0  0  0  0  0  0  0
    5.1959   50.3632   28.0021 C   0  0  0  0  0  0  0  0  0  0  0  0
    4.3062   49.6774   27.1285 C   0  0  0  0  0  0  0  0  0  0  0  0
    4.8872   51.6769   28.4025 C   0  0  0  0  0  0  0  0  0  0  0  0
    4.5584   48.3338   26.6755 N   0  0  0  0  0  0  0  0  0  0  0  0
    3.1282   50.3220   26.7096 C   0  0  0  0  0  0  0  0  0  0  0  0
    3.7202   52.3014   27.9613 C   0  0  0  0  0  0  0  0  0  0  0  0
    3.5044   47.5033   26.3707 O   0  0  0  0  0  0  0  0  0  0  0  0
    5.7155   47.9568   26.4000 O   0  0  0  0  0  0  0  0  0  0  0  0
    2.8409   51.6241   27.1198 C   0  0  0  0  0  0  0  0  0  0  0  0
    8.8123   40.1845   34.2134 O   0  0  0  0  0  0  0  0  0  0  0  0
   11.2400   40.7954   33.3680 O   0  0  0  0  0  0  0  0  0  0  0  0
   10.9124   40.6877   31.9967 C   0  0  0  0  0  0  0  0  0  0  0  0
   11.5169   39.3811   31.4420 C   0  0  0  0  0  0  0  0  0  0  0  0
   12.7500   39.0881   32.0760 O   0  0  0  0  0  0  0  0  0  0  0  0
   10.6043   38.1893   31.6659 C   0  0  0  0  0  0  0  0  0  0  0  0
   12.9395   37.6814   32.0280 C   0  0  0  0  0  0  0  0  0  0  0  0
    9.6353   38.0951   30.6499 O   0  0  0  0  0  0  0  0  0  0  0  0
   11.5804   37.0191   31.6934 C   0  0  0  0  0  0  0  0  0  0  0  0
   13.4851   37.2119   33.3244 N   0  0  0  0  0  0  0  0  0  0  0  0
   11.6118   36.3189   30.4674 O   0  0  0  0  0  0  0  0  0  0  0  0
   14.4801   36.3316   33.5732 C   0  0  0  0  0  0  0  0  0  0  0  0
   13.1139   37.6277   34.5692 C   0  0  0  0  0  0  0  0  0  0  0  0
   15.2076   35.6154   32.6744 N   0  0  0  0  0  0  0  0  0  0  0  0
   14.6756   36.2303   34.9186 C   0  0  0  0  0  0  0  0  0  0  0  0
   13.8215   37.0450   35.5786 N   0  0  0  0  0  0  0  0  0  0  0  0
   16.1642   34.7602   33.1551 C   0  0  0  0  0  0  0  0  0  0  0  0
   15.6526   35.3505   35.4134 C   0  0  0  0  0  0  0  0  0  0  0  0
   16.3796   34.6316   34.5046 N   0  0  0  0  0  0  0  0  0  0  0  0
   15.9000   35.1933   36.8093 N   0  0  0  0  0  0  0  0  0  0  0  0
    8.9995   45.4383   33.6723 H   0  0  0  0  0  0  0  0  0  0  0  0
   11.0504   46.2277   34.4980 H   0  0  0  0  0  0  0  0  0  0  0  0
   10.7764   46.9368   33.0156 H   0  0  0  0  0  0  0  0  0  0  0  0
    9.3634   43.8353   31.4716 H   0  0  0  0  0  0  0  0  0  0  0  0
   10.7406   44.9069   31.1835 H   0  0  0  0  0  0  0  0  0  0  0  0
    7.0130   44.7161   31.5849 H   0  0  0  0  0  0  0  0  0  0  0  0
   10.3473   47.1864   30.4066 H   0  0  0  0  0  0  0  0  0  0  0  0
    5.4634   46.3039   30.5043 H   0  0  0  0  0  0  0  0  0  0  0  0
    8.8120   48.7650   29.3458 H   0  0  0  0  0  0  0  0  0  0  0  0
    6.9697   50.3982   29.2527 H   0  0  0  0  0  0  0  0  0  0  0  0
    7.1394   49.4868   27.7193 H   0  0  0  0  0  0  0  0  0  0  0  0
    5.5474   52.2210   29.0667 H   0  0  0  0  0  0  0  0  0  0  0  0
    2.4343   49.8189   26.0482 H   0  0  0  0  0  0  0  0  0  0  0  0
    3.4945   53.3114   28.2782 H   0  0  0  0  0  0  0  0  0  0  0  0
    1.9342   52.1097   26.7824 H   0  0  0  0  0  0  0  0  0  0  0  0
    9.8215   40.7221   31.7644 H   0  0  0  0  0  0  0  0  0  0  0  0
   11.3807   41.5456   31.4683 H   0  0  0  0  0  0  0  0  0  0  0  0
   11.6986   39.5088   30.3499 H   0  0  0  0  0  0  0  0  0  0  0  0
   10.1109   38.2737   32.6630 H   0  0  0  0  0  0  0  0  0  0  0  0
   13.6783   37.4562   31.2271 H   0  0  0  0  0  0  0  0  0  0  0  0
    9.0020   37.3860   30.9348 H   0  0  0  0  0  0  0  0  0  0  0  0
   11.2807   36.3053   32.4922 H   0  0  0  0  0  0  0  0  0  0  0  0
   11.8819   36.9599   29.7584 H   0  0  0  0  0  0  0  0  0  0  0  0
   12.3303   38.3538   34.7445 H   0  0  0  0  0  0  0  0  0  0  0  0
   16.7564   34.1783   32.4624 H   0  0  0  0  0  0  0  0  0  0  0  0
   16.6347   34.5301   37.1419 H   0  0  0  0  0  0  0  0  0  0  0  0
   15.3532   35.7359   37.5142 H   0  0  0  0  0  0  0  0  0  0  0  0
  1  2  2  0
  1  3  1  0
  3  4  1  0
  4  5  1  0
  6  1  1  0
  7  6  1  0
  6  8  1  0
  8  9  1  0
  9 10  2  0
 11  9  1  0
 10 12  1  0
 13 11  2  0
 12 14  2  0
 14 13  1  0
 14 15  1  0
 15 16  1  0
 16 17  1  0
 17 18  2  0
 19 17  1  0
 18 20  1  0
 18 21  1  0
 22 19  2  0
 20 23  1  0
 20 24  2  0
 21 25  2  0
 25 22  1  0
  4 26  2  0
  4 27  1  0
 28 27  1  0
 28 29  1  0
 29 30  1  0
 29 31  1  0
 30 32  1  0
 31 33  1  0
 31 34  1  0
 34 32  1  0
 32 35  1  0
 34 36  1  0
 37 35  1  0
 38 35  1  0
 39 37  2  0
 37 40  1  0
 41 38  2  0
 42 39  1  0
 40 43  2  0
 40 41  1  0
 44 42  2  0
 44 43  1  0
 43 45  1  0
  6 46  1  1
  7 47  1  0
  7 48  1  0
  8 49  1  0
  8 50  1  0
 10 51  1  0
 11 52  1  0
 12 53  1  0
 13 54  1  0
 16 55  1  0
 16 56  1  0
 19 57  1  0
 21 58  1  0
 22 59  1  0
 25 60  1  0
 28 61  1  0
 28 62  1  0
 29 63  1  0
 31 64  1  0
 32 65  1  0
 33 66  1  0
 34 67  1  0
 36 68  1  0
 38 69  1  0
 42 70  1  0
 45 71  1  0
 45 72  1  0
M  CHG  3   5  -1  20   1  23  -1
M  END
>  <EmbedRMS>  (104) 
0.0813927077118

$$$$

     RDKit          3D

 72 76  0  0  0  0  0  0  0  0999 V2000
   10.2839   43.7626   33.8276 C   0  0  0  0  0  0  0  0  0  0  0  0
   11.4104   43.5863   34.3767 O   0  0  0  0  0  0  0  0  0  0  0  0
    9.3633   42.7234   33.7352 O   0  0  0  0  0  0  0  0  0  0  0  0
    9.8898   41.2247   34.2940 P   0  0  0  0  0  0  0  0  0  0  0  0
   10.3724   41.4544   35.8836 O   0  0  0  0  0  0  0  0  0  0  0  0
    9.9549   45.0700   33.2065 C   0  0  1  0  0  0  0  0  0  0  0  0
   11.0197   46.0482   33.4572 N   0  0  0  0  0  0  0  0  0  0  0  0
    9.7505   44.8513   31.6924 C   0  0  0  0  0  0  0  0  0  0  0  0
    8.7944   45.8421   31.0873 C   0  0  0  0  0  0  0  0  0  0  0  0
    7.4077   45.6002   31.0999 C   0  0  0  0  0  0  0  0  0  0  0  0
    9.2827   46.9889   30.4439 C   0  0  0  0  0  0  0  0  0  0  0  0
    6.5259   46.4992   30.4841 C   0  0  0  0  0  0  0  0  0  0  0  0
    8.4010   47.8875   29.8320 C   0  0  0  0  0  0  0  0  0  0  0  0
    7.0191   47.6566   29.8483 C   0  0  0  0  0  0  0  0  0  0  0  0
    6.1818   48.5949   29.2242 O   0  0  0  0  0  0  0  0  0  0  0  0
    4.7547   48.5975   29.2828 C   0  0  0  0  0  0  0  0  0  0  0  0
    4.2704   48.9273   30.6772 C   0  0  0  0  0  0  0  0  0  0  0  0
    4.7202   50.0760   31.3848 C   0  0  0  0  0  0  0  0  0  0  0  0
    3.3723   48.0438   31.3041 C   0  0  0  0  0  0  0  0  0  0  0  0
    5.6166   51.0354   30.7954 N   0  0  0  0  0  0  0  0  0  0  0  0
    4.2906   50.2751   32.7089 C   0  0  0  0  0  0  0  0  0  0  0  0
    2.9463   48.2701   32.6132 C   0  0  0  0  0  0  0  0  0  0  0  0
    6.4924   51.7366   31.5921 O   0  0  0  0  0  0  0  0  0  0  0  0
    5.5005   51.3656   29.5976 O   0  0  0  0  0  0  0  0  0  0  0  0
    3.4092   49.3800   33.3163 C   0  0  0  0  0  0  0  0  0  0  0  0
    8.8118   40.1831   34.2121 O   0  0  0  0  0  0  0  0  0  0  0  0
   11.2413   40.7934   33.3696 O   0  0  0  0  0  0  0  0  0  0  0  0
   10.9179   40.6902   31.9971 C   0  0  0  0  0  0  0  0  0  0  0  0
   11.5181   39.3813   31.4408 C   0  0  0  0  0  0  0  0  0  0  0  0
   12.7497   39.0870   32.0745 O   0  0  0  0  0  0  0  0  0  0  0  0
   10.6045   38.1891   31.6655 C   0  0  0  0  0  0  0  0  0  0  0  0
   12.9344   37.6801   32.0290 C   0  0  0  0  0  0  0  0  0  0  0  0
    9.6418   38.0758   30.6440 O   0  0  0  0  0  0  0  0  0  0  0  0
   11.5741   37.0169   31.7045 C   0  0  0  0  0  0  0  0  0  0  0  0
   13.4851   37.2125   33.3241 N   0  0  0  0  0  0  0  0  0  0  0  0
   11.6079   36.3406   30.4680 O   0  0  0  0  0  0  0  0  0  0  0  0
   14.4801   36.3321   33.5727 C   0  0  0  0  0  0  0  0  0  0  0  0
   13.1140   37.6277   34.5692 C   0  0  0  0  0  0  0  0  0  0  0  0
   15.2073   35.6155   32.6739 N   0  0  0  0  0  0  0  0  0  0  0  0
   14.6758   36.2306   34.9182 C   0  0  0  0  0  0  0  0  0  0  0  0
   13.8217   37.0451   35.5784 N   0  0  0  0  0  0  0  0  0  0  0  0
   16.1639   34.7602   33.1546 C   0  0  0  0  0  0  0  0  0  0  0  0
   15.6526   35.3506   35.4130 C   0  0  0  0  0  0  0  0  0  0  0  0
   16.3794   34.6316   34.5041 N   0  0  0  0  0  0  0  0  0  0  0  0
   15.9001   35.1933   36.8089 N   0  0  0  0  0  0  0  0  0  0  0  0
    9.0098   45.4348   33.6671 H   0  0  0  0  0  0  0  0  0  0  0  0
   11.9349   45.6934   33.0930 H   0  0  0  0  0  0  0  0  0  0  0  0
   11.1131   46.1993   34.4886 H   0  0  0  0  0  0  0  0  0  0  0  0
    9.3518   43.8346   31.4759 H   0  0  0  0  0  0  0  0  0  0  0  0
   10.7309   44.8934   31.1678 H   0  0  0  0  0  0  0  0  0  0  0  0
    7.0128   44.7132   31.5799 H   0  0  0  0  0  0  0  0  0  0  0  0
   10.3467   47.1890   30.4140 H   0  0  0  0  0  0  0  0  0  0  0  0
    5.4693   46.2775   30.5030 H   0  0  0  0  0  0  0  0  0  0  0  0
    8.7935   48.7704   29.3437 H   0  0  0  0  0  0  0  0  0  0  0  0
    4.3686   49.3625   28.5785 H   0  0  0  0  0  0  0  0  0  0  0  0
    4.3641   47.6213   28.9222 H   0  0  0  0  0  0  0  0  0  0  0  0
    3.0086   47.1667   30.7832 H   0  0  0  0  0  0  0  0  0  0  0  0
    4.6260   51.1386   33.2693 H   0  0  0  0  0  0  0  0  0  0  0  0
    2.2603   47.5790   33.0856 H   0  0  0  0  0  0  0  0  0  0  0  0
    3.0805   49.5508   34.3333 H   0  0  0  0  0  0  0  0  0  0  0  0
   11.3949   41.5458   31.4729 H   0  0  0  0  0  0  0  0  0  0  0  0
    9.8290   40.7386   31.7614 H   0  0  0  0  0  0  0  0  0  0  0  0
   11.6994   39.5070   30.3483 H   0  0  0  0  0  0  0  0  0  0  0  0
   10.1090   38.2634   32.6632 H   0  0  0  0  0  0  0  0  0  0  0  0
   13.6662   37.4514   31.2224 H   0  0  0  0  0  0  0  0  0  0  0  0
    8.9010   38.6925   30.8792 H   0  0  0  0  0  0  0  0  0  0  0  0
   11.2650   36.3082   32.5086 H   0  0  0  0  0  0  0  0  0  0  0  0
   12.1372   35.5140   30.6163 H   0  0  0  0  0  0  0  0  0  0  0  0
   12.3297   38.3530   34.7450 H   0  0  0  0  0  0  0  0  0  0  0  0
   16.7558   34.1781   32.4619 H   0  0  0  0  0  0  0  0  0  0  0  0
   15.3533   35.7360   37.5138 H   0  0  0  0  0  0  0  0  0  0  0  0
   16.6346   34.5300   37.1414 H   0  0  0  0  0  0  0  0  0  0  0  0
  1  2  2  0
  1  3  1  0
  3  4  1  0
  4  5  1  0
  6  1  1  0
  7  6  1  0
  6  8  1  0
  8  9  1  0
  9 10  2  0
 11  9  1  0
 10 12  1  0
 13 11  2  0
 12 14  2  0
 14 13  1  0
 14 15  1  0
 15 16  1  0
 16 17  1  0
 17 18  2  0
 19 17  1  0
 18 20  1  0
 18 21  1  0
 22 19  2  0
 20 23  1  0
 20 24  2  0
 21 25  2  0
 25 22  1  0
  4 26  2  0
  4 27  1  0
 28 27  1  0
 28 29  1  0
 29 30  1  0
 29 31  1  0
 30 32  1  0
 31 33  1  0
 31 34  1  0
 34 32  1  0
 32 35  1  0
 34 36  1  0
 37 35  1  0
 38 35  1  0
 39 37  2  0
 37 40  1  0
 41 38  2  0
 42 39  1  0
 40 43  2  0
 40 41  1  0
 44 42  2  0
 44 43  1  0
 43 45  1  0
  6 46  1  1
  7 47  1  0
  7 48  1  0
  8 49  1  0
  8 50  1  0
 10 51  1  0
 11 52  1  0
 12 53  1  0
 13 54  1  0
 16 55  1  0
 16 56  1  0
 19 57  1  0
 21 58  1  0
 22 59  1  0
 25 60  1  0
 28 61  1  0
 28 62  1  0
 29 63  1  0
 31 64  1  0
 32 65  1  0
 33 66  1  0
 34 67  1  0
 36 68  1  0
 38 69  1  0
 42 70  1  0
 45 71  1  0
 45 72  1  0
M  CHG  3   5  -1  20   1  23  -1
M  END
>  <EmbedRMS>  (105) 
0.0837048197571

$$$$

     RDKit          3D

 72 76  0  0  0  0  0  0  0  0999 V2000
   10.2835   43.7662   33.8257 C   0  0  0  0  0  0  0  0  0  0  0  0
   11.4102   43.5930   34.3753 O   0  0  0  0  0  0  0  0  0  0  0  0
    9.3638   42.7255   33.7348 O   0  0  0  0  0  0  0  0  0  0  0  0
    9.8907   41.2265   34.2933 P   0  0  0  0  0  0  0  0  0  0  0  0
   10.3743   41.4557   35.8828 O   0  0  0  0  0  0  0  0  0  0  0  0
    9.9546   45.0695   33.2036 C   0  0  1  0  0  0  0  0  0  0  0  0
   11.0274   46.0322   33.4757 N   0  0  0  0  0  0  0  0  0  0  0  0
    9.7466   44.8481   31.6877 C   0  0  0  0  0  0  0  0  0  0  0  0
    8.7923   45.8409   31.0844 C   0  0  0  0  0  0  0  0  0  0  0  0
    7.4054   45.6015   31.0991 C   0  0  0  0  0  0  0  0  0  0  0  0
    9.2824   46.9879   30.4422 C   0  0  0  0  0  0  0  0  0  0  0  0
    6.5264   46.5031   30.4839 C   0  0  0  0  0  0  0  0  0  0  0  0
    8.4032   47.8902   29.8315 C   0  0  0  0  0  0  0  0  0  0  0  0
    7.0143   47.6527   29.8476 C   0  0  0  0  0  0  0  0  0  0  0  0
    6.0933   48.5249   29.2496 O   0  0  0  0  0  0  0  0  0  0  0  0
    6.4438   49.7331   28.5800 C   0  0  0  0  0  0  0  0  0  0  0  0
    5.1920   50.4167   28.0937 C   0  0  0  0  0  0  0  0  0  0  0  0
    4.3818   51.2145   28.9480 C   0  0  0  0  0  0  0  0  0  0  0  0
    4.8332   50.2758   26.7406 C   0  0  0  0  0  0  0  0  0  0  0  0
    4.6814   51.3899   30.3457 N   0  0  0  0  0  0  0  0  0  0  0  0
    3.2610   51.8709   28.4080 C   0  0  0  0  0  0  0  0  0  0  0  0
    3.7076   50.9236   26.2307 C   0  0  0  0  0  0  0  0  0  0  0  0
    4.3005   52.5450   30.9895 O   0  0  0  0  0  0  0  0  0  0  0  0
    5.1342   50.4475   31.0268 O   0  0  0  0  0  0  0  0  0  0  0  0
    2.9260   51.7233   27.0614 C   0  0  0  0  0  0  0  0  0  0  0  0
    8.8123   40.1850   34.2127 O   0  0  0  0  0  0  0  0  0  0  0  0
   11.2407   40.7945   33.3670 O   0  0  0  0  0  0  0  0  0  0  0  0
   10.9134   40.6866   31.9954 C   0  0  0  0  0  0  0  0  0  0  0  0
   11.5167   39.3787   31.4404 C   0  0  0  0  0  0  0  0  0  0  0  0
   12.7486   39.0849   32.0735 O   0  0  0  0  0  0  0  0  0  0  0  0
   10.6039   38.1884   31.6669 C   0  0  0  0  0  0  0  0  0  0  0  0
   12.9329   37.6776   32.0284 C   0  0  0  0  0  0  0  0  0  0  0  0
    9.6374   38.0938   30.6484 O   0  0  0  0  0  0  0  0  0  0  0  0
   11.5737   37.0141   31.7055 C   0  0  0  0  0  0  0  0  0  0  0  0
   13.4853   37.2120   33.3238 N   0  0  0  0  0  0  0  0  0  0  0  0
   11.6210   36.3379   30.4683 O   0  0  0  0  0  0  0  0  0  0  0  0
   14.4804   36.3319   33.5726 C   0  0  0  0  0  0  0  0  0  0  0  0
   13.1141   37.6275   34.5689 C   0  0  0  0  0  0  0  0  0  0  0  0
   15.2076   35.6152   32.6740 N   0  0  0  0  0  0  0  0  0  0  0  0
   14.6761   36.2306   34.9181 C   0  0  0  0  0  0  0  0  0  0  0  0
   13.8218   37.0451   35.5783 N   0  0  0  0  0  0  0  0  0  0  0  0
   16.1642   34.7600   33.1548 C   0  0  0  0  0  0  0  0  0  0  0  0
   15.6528   35.3506   35.4131 C   0  0  0  0  0  0  0  0  0  0  0  0
   16.3795   34.6315   34.5043 N   0  0  0  0  0  0  0  0  0  0  0  0
   15.9000   35.1933   36.8090 N   0  0  0  0  0  0  0  0  0  0  0  0
    9.0121   45.4317   33.6715 H   0  0  0  0  0  0  0  0  0  0  0  0
   11.8906   45.7658   32.9470 H   0  0  0  0  0  0  0  0  0  0  0  0
   10.7260   46.9688   33.1214 H   0  0  0  0  0  0  0  0  0  0  0  0
   10.7230   44.8815   31.1557 H   0  0  0  0  0  0  0  0  0  0  0  0
    9.3414   43.8330   31.4763 H   0  0  0  0  0  0  0  0  0  0  0  0
    7.0083   44.7168   31.5813 H   0  0  0  0  0  0  0  0  0  0  0  0
   10.3470   47.1849   30.4113 H   0  0  0  0  0  0  0  0  0  0  0  0
    5.4617   46.3074   30.5023 H   0  0  0  0  0  0  0  0  0  0  0  0
    8.8142   48.7651   29.3470 H   0  0  0  0  0  0  0  0  0  0  0  0
    7.0060   50.4087   29.2599 H   0  0  0  0  0  0  0  0  0  0  0  0
    7.1118   49.4929   27.7238 H   0  0  0  0  0  0  0  0  0  0  0  0
    5.4302   49.6655   26.0738 H   0  0  0  0  0  0  0  0  0  0  0  0
    2.6318   52.4878   29.0369 H   0  0  0  0  0  0  0  0  0  0  0  0
    3.4439   50.8087   25.1872 H   0  0  0  0  0  0  0  0  0  0  0  0
    2.0554   52.2277   26.6624 H   0  0  0  0  0  0  0  0  0  0  0  0
    9.8226   40.7225   31.7631 H   0  0  0  0  0  0  0  0  0  0  0  0
   11.3828   41.5438   31.4669 H   0  0  0  0  0  0  0  0  0  0  0  0
   11.6979   39.5037   30.3478 H   0  0  0  0  0  0  0  0  0  0  0  0
   10.1084   38.2787   32.6627 H   0  0  0  0  0  0  0  0  0  0  0  0
   13.6638   37.4472   31.2214 H   0  0  0  0  0  0  0  0  0  0  0  0
    8.9763   37.4191   30.9532 H   0  0  0  0  0  0  0  0  0  0  0  0
   11.2821   36.3054   32.5171 H   0  0  0  0  0  0  0  0  0  0  0  0
   10.8658   35.6935   30.4652 H   0  0  0  0  0  0  0  0  0  0  0  0
   12.3293   38.3523   34.7444 H   0  0  0  0  0  0  0  0  0  0  0  0
   16.7561   34.1778   32.4621 H   0  0  0  0  0  0  0  0  0  0  0  0
   16.6345   34.5300   37.1416 H   0  0  0  0  0  0  0  0  0  0  0  0
   15.3533   35.7361   37.5138 H   0  0  0  0  0  0  0  0  0  0  0  0
  1  2  2  0
  1  3  1  0
  3  4  1  0
  4  5  1  0
  6  1  1  0
  7  6  1  0
  6  8  1  0
  8  9  1  0
  9 10  2  0
 11  9  1  0
 10 12  1  0
 13 11  2  0
 12 14  2  0
 14 13  1  0
 14 15  1  0
 15 16  1  0
 16 17  1  0
 17 18  2  0
 19 17  1  0
 18 20  1  0
 18 21  1  0
 22 19  2  0
 20 23  1  0
 20 24  2  0
 21 25  2  0
 25 22  1  0
  4 26  2  0
  4 27  1  0
 28 27  1  0
 28 29  1  0
 29 30  1  0
 29 31  1  0
 30 32  1  0
 31 33  1  0
 31 34  1  0
 34 32  1  0
 32 35  1  0
 34 36  1  0
 37 35  1  0
 38 35  1  0
 39 37  2  0
 37 40  1  0
 41 38  2  0
 42 39  1  0
 40 43  2  0
 40 41  1  0
 44 42  2  0
 44 43  1  0
 43 45  1  0
  6 46  1  1
  7 47  1  0
  7 48  1  0
  8 49  1  0
  8 50  1  0
 10 51  1  0
 11 52  1  0
 12 53  1  0
 13 54  1  0
 16 55  1  0
 16 56  1  0
 19 57  1  0
 21 58  1  0
 22 59  1  0
 25 60  1  0
 28 61  1  0
 28 62  1  0
 29 63  1  0
 31 64  1  0
 32 65  1  0
 33 66  1  0
 34 67  1  0
 36 68  1  0
 38 69  1  0
 42 70  1  0
 45 71  1  0
 45 72  1  0
M  CHG  3   5  -1  20   1  23  -1
M  END
>  <EmbedRMS>  (106) 
0.0825601061976

$$$$

     RDKit          3D

 72 76  0  0  0  0  0  0  0  0999 V2000
   10.2835   43.7661   33.8257 C   0  0  0  0  0  0  0  0  0  0  0  0
   11.4102   43.5930   34.3753 O   0  0  0  0  0  0  0  0  0  0  0  0
    9.3638   42.7255   33.7349 O   0  0  0  0  0  0  0  0  0  0  0  0
    9.8903   41.2267   34.2942 P   0  0  0  0  0  0  0  0  0  0  0  0
   10.3735   41.4561   35.8837 O   0  0  0  0  0  0  0  0  0  0  0  0
    9.9547   45.0695   33.2036 C   0  0  1  0  0  0  0  0  0  0  0  0
   11.0274   46.0321   33.4757 N   0  0  0  0  0  0  0  0  0  0  0  0
    9.7466   44.8481   31.6877 C   0  0  0  0  0  0  0  0  0  0  0  0
    8.7923   45.8409   31.0844 C   0  0  0  0  0  0  0  0  0  0  0  0
    7.4054   45.6015   31.0990 C   0  0  0  0  0  0  0  0  0  0  0  0
    9.2824   46.9879   30.4422 C   0  0  0  0  0  0  0  0  0  0  0  0
    6.5263   46.5031   30.4839 C   0  0  0  0  0  0  0  0  0  0  0  0
    8.4032   47.8902   29.8315 C   0  0  0  0  0  0  0  0  0  0  0  0
    7.0143   47.6527   29.8476 C   0  0  0  0  0  0  0  0  0  0  0  0
    6.0937   48.5247   29.2485 O   0  0  0  0  0  0  0  0  0  0  0  0
    6.4464   49.7307   28.5717 C   0  0  0  0  0  0  0  0  0  0  0  0
    5.2245   50.4517   28.0449 C   0  0  0  0  0  0  0  0  0  0  0  0
    5.3392   51.4423   27.0321 C   0  0  0  0  0  0  0  0  0  0  0  0
    3.9460   50.1401   28.5529 C   0  0  0  0  0  0  0  0  0  0  0  0
    6.6183   51.8440   26.5070 N   0  0  0  0  0  0  0  0  0  0  0  0
    4.1734   52.0447   26.5241 C   0  0  0  0  0  0  0  0  0  0  0  0
    2.8050   50.7628   28.0454 C   0  0  0  0  0  0  0  0  0  0  0  0
    7.7041   51.9880   27.3393 O   0  0  0  0  0  0  0  0  0  0  0  0
    6.7165   52.2268   25.3226 O   0  0  0  0  0  0  0  0  0  0  0  0
    2.9176   51.7068   27.0280 C   0  0  0  0  0  0  0  0  0  0  0  0
    8.8122   40.1850   34.2131 O   0  0  0  0  0  0  0  0  0  0  0  0
   11.2407   40.7939   33.3693 O   0  0  0  0  0  0  0  0  0  0  0  0
   10.9152   40.6905   31.9974 C   0  0  0  0  0  0  0  0  0  0  0  0
   11.5252   39.3886   31.4375 C   0  0  0  0  0  0  0  0  0  0  0  0
   12.7500   39.0874   32.0799 O   0  0  0  0  0  0  0  0  0  0  0  0
   10.6092   38.1926   31.6470 C   0  0  0  0  0  0  0  0  0  0  0  0
   12.9332   37.6792   32.0294 C   0  0  0  0  0  0  0  0  0  0  0  0
    9.6122   38.0895   30.6543 O   0  0  0  0  0  0  0  0  0  0  0  0
   11.5743   37.0145   31.7024 C   0  0  0  0  0  0  0  0  0  0  0  0
   13.4844   37.2107   33.3241 N   0  0  0  0  0  0  0  0  0  0  0  0
   11.6297   36.3239   30.4740 O   0  0  0  0  0  0  0  0  0  0  0  0
   14.4802   36.3313   33.5727 C   0  0  0  0  0  0  0  0  0  0  0  0
   13.1138   37.6266   34.5692 C   0  0  0  0  0  0  0  0  0  0  0  0
   15.2075   35.6149   32.6739 N   0  0  0  0  0  0  0  0  0  0  0  0
   14.6761   36.2303   34.9182 C   0  0  0  0  0  0  0  0  0  0  0  0
   13.8220   37.0447   35.5785 N   0  0  0  0  0  0  0  0  0  0  0  0
   16.1643   34.7600   33.1547 C   0  0  0  0  0  0  0  0  0  0  0  0
   15.6529   35.3505   35.4130 C   0  0  0  0  0  0  0  0  0  0  0  0
   16.3798   34.6315   34.5042 N   0  0  0  0  0  0  0  0  0  0  0  0
   15.9003   35.1932   36.8090 N   0  0  0  0  0  0  0  0  0  0  0  0
    9.0121   45.4317   33.6715 H   0  0  0  0  0  0  0  0  0  0  0  0
   11.8906   45.7658   32.9470 H   0  0  0  0  0  0  0  0  0  0  0  0
   10.7260   46.9687   33.1214 H   0  0  0  0  0  0  0  0  0  0  0  0
   10.7229   44.8814   31.1557 H   0  0  0  0  0  0  0  0  0  0  0  0
    9.3414   43.8330   31.4763 H   0  0  0  0  0  0  0  0  0  0  0  0
    7.0082   44.7167   31.5812 H   0  0  0  0  0  0  0  0  0  0  0  0
   10.3471   47.1849   30.4114 H   0  0  0  0  0  0  0  0  0  0  0  0
    5.4617   46.3073   30.5019 H   0  0  0  0  0  0  0  0  0  0  0  0
    8.8141   48.7654   29.3472 H   0  0  0  0  0  0  0  0  0  0  0  0
    6.9851   50.4040   29.2723 H   0  0  0  0  0  0  0  0  0  0  0  0
    7.1090   49.4674   27.7189 H   0  0  0  0  0  0  0  0  0  0  0  0
    3.8213   49.4113   29.3434 H   0  0  0  0  0  0  0  0  0  0  0  0
    4.2391   52.7958   25.7471 H   0  0  0  0  0  0  0  0  0  0  0  0
    1.8298   50.5096   28.4411 H   0  0  0  0  0  0  0  0  0  0  0  0
    2.0301   52.1856   26.6345 H   0  0  0  0  0  0  0  0  0  0  0  0
   11.3802   41.5529   31.4733 H   0  0  0  0  0  0  0  0  0  0  0  0
    9.8243   40.7216   31.7643 H   0  0  0  0  0  0  0  0  0  0  0  0
   11.7266   39.5311   30.3513 H   0  0  0  0  0  0  0  0  0  0  0  0
   10.1110   38.2747   32.6387 H   0  0  0  0  0  0  0  0  0  0  0  0
   13.6652   37.4519   31.2226 H   0  0  0  0  0  0  0  0  0  0  0  0
   10.0511   38.1143   29.7645 H   0  0  0  0  0  0  0  0  0  0  0  0
   11.2762   36.3141   32.5189 H   0  0  0  0  0  0  0  0  0  0  0  0
   10.8593   35.6978   30.4640 H   0  0  0  0  0  0  0  0  0  0  0  0
   12.3294   38.3518   34.7449 H   0  0  0  0  0  0  0  0  0  0  0  0
   16.7564   34.1780   32.4620 H   0  0  0  0  0  0  0  0  0  0  0  0
   15.3534   35.7359   37.5138 H   0  0  0  0  0  0  0  0  0  0  0  0
   16.6349   34.5300   37.1415 H   0  0  0  0  0  0  0  0  0  0  0  0
  1  2  2  0
  1  3  1  0
  3  4  1  0
  4  5  1  0
  6  1  1  0
  7  6  1  0
  6  8  1  0
  8  9  1  0
  9 10  2  0
 11  9  1  0
 10 12  1  0
 13 11  2  0
 12 14  2  0
 14 13  1  0
 14 15  1  0
 15 16  1  0
 16 17  1  0
 17 18  2  0
 19 17  1  0
 18 20  1  0
 18 21  1  0
 22 19  2  0
 20 23  1  0
 20 24  2  0
 21 25  2  0
 25 22  1  0
  4 26  2  0
  4 27  1  0
 28 27  1  0
 28 29  1  0
 29 30  1  0
 29 31  1  0
 30 32  1  0
 31 33  1  0
 31 34  1  0
 34 32  1  0
 32 35  1  0
 34 36  1  0
 37 35  1  0
 38 35  1  0
 39 37  2  0
 37 40  1  0
 41 38  2  0
 42 39  1  0
 40 43  2  0
 40 41  1  0
 44 42  2  0
 44 43  1  0
 43 45  1  0
  6 46  1  1
  7 47  1  0
  7 48  1  0
  8 49  1  0
  8 50  1  0
 10 51  1  0
 11 52  1  0
 12 53  1  0
 13 54  1  0
 16 55  1  0
 16 56  1  0
 19 57  1  0
 21 58  1  0
 22 59  1  0
 25 60  1  0
 28 61  1  0
 28 62  1  0
 29 63  1  0
 31 64  1  0
 32 65  1  0
 33 66  1  0
 34 67  1  0
 36 68  1  0
 38 69  1  0
 42 70  1  0
 45 71  1  0
 45 72  1  0
M  CHG  3   5  -1  20   1  23  -1
M  END
>  <EmbedRMS>  (107) 
0.0818171740811

$$$$

     RDKit          3D

 72 76  0  0  0  0  0  0  0  0999 V2000
   10.2834   43.7662   33.8256 C   0  0  0  0  0  0  0  0  0  0  0  0
   11.4101   43.5930   34.3752 O   0  0  0  0  0  0  0  0  0  0  0  0
    9.3636   42.7255   33.7349 O   0  0  0  0  0  0  0  0  0  0  0  0
    9.8905   41.2266   34.2934 P   0  0  0  0  0  0  0  0  0  0  0  0
   10.3743   41.4557   35.8827 O   0  0  0  0  0  0  0  0  0  0  0  0
    9.9546   45.0695   33.2035 C   0  0  1  0  0  0  0  0  0  0  0  0
   11.0274   46.0321   33.4756 N   0  0  0  0  0  0  0  0  0  0  0  0
    9.7466   44.8480   31.6875 C   0  0  0  0  0  0  0  0  0  0  0  0
    8.7924   45.8406   31.0842 C   0  0  0  0  0  0  0  0  0  0  0  0
    7.4055   45.6018   31.0994 C   0  0  0  0  0  0  0  0  0  0  0  0
    9.2823   46.9879   30.4426 C   0  0  0  0  0  0  0  0  0  0  0  0
    6.5266   46.5036   30.4845 C   0  0  0  0  0  0  0  0  0  0  0  0
    8.4032   47.8903   29.8326 C   0  0  0  0  0  0  0  0  0  0  0  0
    7.0141   47.6521   29.8458 C   0  0  0  0  0  0  0  0  0  0  0  0
    6.0898   48.5204   29.2424 O   0  0  0  0  0  0  0  0  0  0  0  0
    6.4270   49.6771   28.4748 C   0  0  0  0  0  0  0  0  0  0  0  0
    7.0560   49.2834   27.1563 C   0  0  0  0  0  0  0  0  0  0  0  0
    8.2589   49.8676   26.6817 C   0  0  0  0  0  0  0  0  0  0  0  0
    6.4380   48.2744   26.3952 C   0  0  0  0  0  0  0  0  0  0  0  0
    8.8807   50.9690   27.3614 N   0  0  0  0  0  0  0  0  0  0  0  0
    8.8426   49.3766   25.5006 C   0  0  0  0  0  0  0  0  0  0  0  0
    7.0223   47.8134   25.2146 C   0  0  0  0  0  0  0  0  0  0  0  0
    8.1320   52.0663   27.7198 O   0  0  0  0  0  0  0  0  0  0  0  0
   10.1253   51.0414   27.4244 O   0  0  0  0  0  0  0  0  0  0  0  0
    8.2281   48.3559   24.7739 C   0  0  0  0  0  0  0  0  0  0  0  0
    8.8122   40.1851   34.2128 O   0  0  0  0  0  0  0  0  0  0  0  0
   11.2403   40.7946   33.3668 O   0  0  0  0  0  0  0  0  0  0  0  0
   10.9126   40.6859   31.9954 C   0  0  0  0  0  0  0  0  0  0  0  0
   11.5175   39.3787   31.4405 C   0  0  0  0  0  0  0  0  0  0  0  0
   12.7490   39.0864   32.0752 O   0  0  0  0  0  0  0  0  0  0  0  0
   10.6061   38.1868   31.6656 C   0  0  0  0  0  0  0  0  0  0  0  0
   12.9356   37.6796   32.0292 C   0  0  0  0  0  0  0  0  0  0  0  0
    9.6399   38.0903   30.6471 O   0  0  0  0  0  0  0  0  0  0  0  0
   11.5765   37.0145   31.7044 C   0  0  0  0  0  0  0  0  0  0  0  0
   13.4858   37.2125   33.3244 N   0  0  0  0  0  0  0  0  0  0  0  0
   11.6101   36.3397   30.4673 O   0  0  0  0  0  0  0  0  0  0  0  0
   14.4805   36.3319   33.5729 C   0  0  0  0  0  0  0  0  0  0  0  0
   13.1143   37.6276   34.5694 C   0  0  0  0  0  0  0  0  0  0  0  0
   15.2076   35.6153   32.6741 N   0  0  0  0  0  0  0  0  0  0  0  0
   14.6760   36.2304   34.9184 C   0  0  0  0  0  0  0  0  0  0  0  0
   13.8219   37.0449   35.5786 N   0  0  0  0  0  0  0  0  0  0  0  0
   16.1641   34.7600   33.1548 C   0  0  0  0  0  0  0  0  0  0  0  0
   15.6528   35.3505   35.4132 C   0  0  0  0  0  0  0  0  0  0  0  0
   16.3795   34.6314   34.5043 N   0  0  0  0  0  0  0  0  0  0  0  0
   15.9002   35.1931   36.8091 N   0  0  0  0  0  0  0  0  0  0  0  0
    9.0121   45.4318   33.6713 H   0  0  0  0  0  0  0  0  0  0  0  0
   10.7260   46.9687   33.1212 H   0  0  0  0  0  0  0  0  0  0  0  0
   11.8906   45.7658   32.9469 H   0  0  0  0  0  0  0  0  0  0  0  0
   10.7230   44.8814   31.1556 H   0  0  0  0  0  0  0  0  0  0  0  0
    9.3415   43.8328   31.4762 H   0  0  0  0  0  0  0  0  0  0  0  0
    7.0083   44.7171   31.5817 H   0  0  0  0  0  0  0  0  0  0  0  0
   10.3468   47.1857   30.4130 H   0  0  0  0  0  0  0  0  0  0  0  0
    5.4621   46.3069   30.5018 H   0  0  0  0  0  0  0  0  0  0  0  0
    8.8163   48.7671   29.3557 H   0  0  0  0  0  0  0  0  0  0  0  0
    7.0719   50.3381   29.0871 H   0  0  0  0  0  0  0  0  0  0  0  0
    5.4919   50.2348   28.2591 H   0  0  0  0  0  0  0  0  0  0  0  0
    5.5095   47.8275   26.7292 H   0  0  0  0  0  0  0  0  0  0  0  0
    9.7643   49.8055   25.1277 H   0  0  0  0  0  0  0  0  0  0  0  0
    6.5428   47.0280   24.6447 H   0  0  0  0  0  0  0  0  0  0  0  0
    8.6818   47.9937   23.8603 H   0  0  0  0  0  0  0  0  0  0  0  0
    9.8215   40.7200   31.7636 H   0  0  0  0  0  0  0  0  0  0  0  0
   11.3803   41.5437   31.4663 H   0  0  0  0  0  0  0  0  0  0  0  0
   11.6998   39.5041   30.3482 H   0  0  0  0  0  0  0  0  0  0  0  0
   10.1085   38.2767   32.6603 H   0  0  0  0  0  0  0  0  0  0  0  0
   13.6680   37.4520   31.2229 H   0  0  0  0  0  0  0  0  0  0  0  0
    9.0016   37.3868   30.9349 H   0  0  0  0  0  0  0  0  0  0  0  0
   11.2666   36.3062   32.5083 H   0  0  0  0  0  0  0  0  0  0  0  0
   12.1389   35.5126   30.6150 H   0  0  0  0  0  0  0  0  0  0  0  0
   12.3300   38.3529   34.7449 H   0  0  0  0  0  0  0  0  0  0  0  0
   16.7560   34.1779   32.4621 H   0  0  0  0  0  0  0  0  0  0  0  0
   15.3534   35.7359   37.5140 H   0  0  0  0  0  0  0  0  0  0  0  0
   16.6347   34.5298   37.1416 H   0  0  0  0  0  0  0  0  0  0  0  0
  1  2  2  0
  1  3  1  0
  3  4  1  0
  4  5  1  0
  6  1  1  0
  7  6  1  0
  6  8  1  0
  8  9  1  0
  9 10  2  0
 11  9  1  0
 10 12  1  0
 13 11  2  0
 12 14  2  0
 14 13  1  0
 14 15  1  0
 15 16  1  0
 16 17  1  0
 17 18  2  0
 19 17  1  0
 18 20  1  0
 18 21  1  0
 22 19  2  0
 20 23  1  0
 20 24  2  0
 21 25  2  0
 25 22  1  0
  4 26  2  0
  4 27  1  0
 28 27  1  0
 28 29  1  0
 29 30  1  0
 29 31  1  0
 30 32  1  0
 31 33  1  0
 31 34  1  0
 34 32  1  0
 32 35  1  0
 34 36  1  0
 37 35  1  0
 38 35  1  0
 39 37  2  0
 37 40  1  0
 41 38  2  0
 42 39  1  0
 40 43  2  0
 40 41  1  0
 44 42  2  0
 44 43  1  0
 43 45  1  0
  6 46  1  1
  7 47  1  0
  7 48  1  0
  8 49  1  0
  8 50  1  0
 10 51  1  0
 11 52  1  0
 12 53  1  0
 13 54  1  0
 16 55  1  0
 16 56  1  0
 19 57  1  0
 21 58  1  0
 22 59  1  0
 25 60  1  0
 28 61  1  0
 28 62  1  0
 29 63  1  0
 31 64  1  0
 32 65  1  0
 33 66  1  0
 34 67  1  0
 36 68  1  0
 38 69  1  0
 42 70  1  0
 45 71  1  0
 45 72  1  0
M  CHG  3   5  -1  20   1  23  -1
M  END
>  <EmbedRMS>  (108) 
0.0824057884387

$$$$

     RDKit          3D

 72 76  0  0  0  0  0  0  0  0999 V2000
   10.2804   43.7664   33.8250 C   0  0  0  0  0  0  0  0  0  0  0  0
   11.4110   43.5918   34.3666 O   0  0  0  0  0  0  0  0  0  0  0  0
    9.3618   42.7249   33.7346 O   0  0  0  0  0  0  0  0  0  0  0  0
    9.8899   41.2267   34.2940 P   0  0  0  0  0  0  0  0  0  0  0  0
   10.3735   41.4566   35.8832 O   0  0  0  0  0  0  0  0  0  0  0  0
    9.9459   45.0736   33.2111 C   0  0  1  0  0  0  0  0  0  0  0  0
   11.0267   46.0291   33.4705 N   0  0  0  0  0  0  0  0  0  0  0  0
    9.7536   44.8538   31.6948 C   0  0  0  0  0  0  0  0  0  0  0  0
    8.7955   45.8409   31.0846 C   0  0  0  0  0  0  0  0  0  0  0  0
    7.4086   45.6008   31.1011 C   0  0  0  0  0  0  0  0  0  0  0  0
    9.2830   46.9879   30.4401 C   0  0  0  0  0  0  0  0  0  0  0  0
    6.5280   46.5014   30.4860 C   0  0  0  0  0  0  0  0  0  0  0  0
    8.4024   47.8895   29.8312 C   0  0  0  0  0  0  0  0  0  0  0  0
    7.0137   47.6502   29.8464 C   0  0  0  0  0  0  0  0  0  0  0  0
    6.0879   48.5176   29.2439 O   0  0  0  0  0  0  0  0  0  0  0  0
    6.4233   49.6743   28.4755 C   0  0  0  0  0  0  0  0  0  0  0  0
    7.0499   49.2801   27.1557 C   0  0  0  0  0  0  0  0  0  0  0  0
    8.2545   49.8602   26.6776 C   0  0  0  0  0  0  0  0  0  0  0  0
    6.4266   48.2736   26.3952 C   0  0  0  0  0  0  0  0  0  0  0  0
    8.8895   50.9559   27.3542 N   0  0  0  0  0  0  0  0  0  0  0  0
    8.8345   49.3657   25.4971 C   0  0  0  0  0  0  0  0  0  0  0  0
    7.0071   47.8104   25.2137 C   0  0  0  0  0  0  0  0  0  0  0  0
   10.2627   51.0303   27.3948 O   0  0  0  0  0  0  0  0  0  0  0  0
    8.2218   51.9556   27.6900 O   0  0  0  0  0  0  0  0  0  0  0  0
    8.2145   48.3477   24.7713 C   0  0  0  0  0  0  0  0  0  0  0  0
    8.8123   40.1844   34.2134 O   0  0  0  0  0  0  0  0  0  0  0  0
   11.2402   40.7944   33.3688 O   0  0  0  0  0  0  0  0  0  0  0  0
   10.9142   40.6898   31.9970 C   0  0  0  0  0  0  0  0  0  0  0  0
   11.5260   39.3884   31.4376 C   0  0  0  0  0  0  0  0  0  0  0  0
   12.7504   39.0888   32.0816 O   0  0  0  0  0  0  0  0  0  0  0  0
   10.6114   38.1909   31.6460 C   0  0  0  0  0  0  0  0  0  0  0  0
   12.9357   37.6812   32.0303 C   0  0  0  0  0  0  0  0  0  0  0  0
    9.6145   38.0858   30.6533 O   0  0  0  0  0  0  0  0  0  0  0  0
   11.5769   37.0148   31.7012 C   0  0  0  0  0  0  0  0  0  0  0  0
   13.4849   37.2112   33.3247 N   0  0  0  0  0  0  0  0  0  0  0  0
   11.6193   36.3261   30.4724 O   0  0  0  0  0  0  0  0  0  0  0  0
   14.4802   36.3313   33.5730 C   0  0  0  0  0  0  0  0  0  0  0  0
   13.1141   37.6268   34.5698 C   0  0  0  0  0  0  0  0  0  0  0  0
   15.2075   35.6151   32.6741 N   0  0  0  0  0  0  0  0  0  0  0  0
   14.6761   36.2300   34.9184 C   0  0  0  0  0  0  0  0  0  0  0  0
   13.8220   37.0445   35.5789 N   0  0  0  0  0  0  0  0  0  0  0  0
   16.1642   34.7600   33.1547 C   0  0  0  0  0  0  0  0  0  0  0  0
   15.6529   35.3503   35.4131 C   0  0  0  0  0  0  0  0  0  0  0  0
   16.3797   34.6314   34.5042 N   0  0  0  0  0  0  0  0  0  0  0  0
   15.9004   35.1930   36.8090 N   0  0  0  0  0  0  0  0  0  0  0  0
    8.9996   45.4382   33.6722 H   0  0  0  0  0  0  0  0  0  0  0  0
   11.0504   46.2277   34.4979 H   0  0  0  0  0  0  0  0  0  0  0  0
   10.7764   46.9368   33.0155 H   0  0  0  0  0  0  0  0  0  0  0  0
   10.7407   44.9069   31.1833 H   0  0  0  0  0  0  0  0  0  0  0  0
    9.3636   43.8352   31.4714 H   0  0  0  0  0  0  0  0  0  0  0  0
    7.0130   44.7166   31.5856 H   0  0  0  0  0  0  0  0  0  0  0  0
   10.3471   47.1871   30.4079 H   0  0  0  0  0  0  0  0  0  0  0  0
    5.4637   46.3038   30.5048 H   0  0  0  0  0  0  0  0  0  0  0  0
    8.8142   48.7663   29.3532 H   0  0  0  0  0  0  0  0  0  0  0  0
    7.0675   50.3361   29.0874 H   0  0  0  0  0  0  0  0  0  0  0  0
    5.4874   50.2312   28.2611 H   0  0  0  0  0  0  0  0  0  0  0  0
    5.4970   47.8302   26.7308 H   0  0  0  0  0  0  0  0  0  0  0  0
    9.7577   49.7900   25.1230 H   0  0  0  0  0  0  0  0  0  0  0  0
    6.5234   47.0270   24.6445 H   0  0  0  0  0  0  0  0  0  0  0  0
    8.6655   47.9833   23.8573 H   0  0  0  0  0  0  0  0  0  0  0  0
    9.8232   40.7190   31.7645 H   0  0  0  0  0  0  0  0  0  0  0  0
   11.3777   41.5525   31.4723 H   0  0  0  0  0  0  0  0  0  0  0  0
   11.7283   39.5311   30.3515 H   0  0  0  0  0  0  0  0  0  0  0  0
   10.1127   38.2734   32.6376 H   0  0  0  0  0  0  0  0  0  0  0  0
   13.6692   37.4566   31.2242 H   0  0  0  0  0  0  0  0  0  0  0  0
   10.0533   38.1118   29.7635 H   0  0  0  0  0  0  0  0  0  0  0  0
   11.2607   36.3148   32.5102 H   0  0  0  0  0  0  0  0  0  0  0  0
   12.1496   35.5023   30.6324 H   0  0  0  0  0  0  0  0  0  0  0  0
   12.3301   38.3524   34.7455 H   0  0  0  0  0  0  0  0  0  0  0  0
   16.7563   34.1781   32.4619 H   0  0  0  0  0  0  0  0  0  0  0  0
   15.3536   35.7357   37.5140 H   0  0  0  0  0  0  0  0  0  0  0  0
   16.6351   34.5298   37.1416 H   0  0  0  0  0  0  0  0  0  0  0  0
  1  2  2  0
  1  3  1  0
  3  4  1  0
  4  5  1  0
  6  1  1  0
  7  6  1  0
  6  8  1  0
  8  9  1  0
  9 10  2  0
 11  9  1  0
 10 12  1  0
 13 11  2  0
 12 14  2  0
 14 13  1  0
 14 15  1  0
 15 16  1  0
 16 17  1  0
 17 18  2  0
 19 17  1  0
 18 20  1  0
 18 21  1  0
 22 19  2  0
 20 23  1  0
 20 24  2  0
 21 25  2  0
 25 22  1  0
  4 26  2  0
  4 27  1  0
 28 27  1  0
 28 29  1  0
 29 30  1  0
 29 31  1  0
 30 32  1  0
 31 33  1  0
 31 34  1  0
 34 32  1  0
 32 35  1  0
 34 36  1  0
 37 35  1  0
 38 35  1  0
 39 37  2  0
 37 40  1  0
 41 38  2  0
 42 39  1  0
 40 43  2  0
 40 41  1  0
 44 42  2  0
 44 43  1  0
 43 45  1  0
  6 46  1  1
  7 47  1  0
  7 48  1  0
  8 49  1  0
  8 50  1  0
 10 51  1  0
 11 52  1  0
 12 53  1  0
 13 54  1  0
 16 55  1  0
 16 56  1  0
 19 57  1  0
 21 58  1  0
 22 59  1  0
 25 60  1  0
 28 61  1  0
 28 62  1  0
 29 63  1  0
 31 64  1  0
 32 65  1  0
 33 66  1  0
 34 67  1  0
 36 68  1  0
 38 69  1  0
 42 70  1  0
 45 71  1  0
 45 72  1  0
M  CHG  3   5  -1  20   1  23  -1
M  END
>  <EmbedRMS>  (109) 
0.0814519609773

$$$$

     RDKit          3D

 72 76  0  0  0  0  0  0  0  0999 V2000
   10.2839   43.7626   33.8275 C   0  0  0  0  0  0  0  0  0  0  0  0
   11.4103   43.5863   34.3766 O   0  0  0  0  0  0  0  0  0  0  0  0
    9.3631   42.7236   33.7353 O   0  0  0  0  0  0  0  0  0  0  0  0
    9.8894   41.2249   34.2944 P   0  0  0  0  0  0  0  0  0  0  0  0
   10.3726   41.4547   35.8838 O   0  0  0  0  0  0  0  0  0  0  0  0
    9.9549   45.0700   33.2063 C   0  0  1  0  0  0  0  0  0  0  0  0
   11.0198   46.0481   33.4570 N   0  0  0  0  0  0  0  0  0  0  0  0
    9.7506   44.8511   31.6921 C   0  0  0  0  0  0  0  0  0  0  0  0
    8.7944   45.8417   31.0867 C   0  0  0  0  0  0  0  0  0  0  0  0
    7.4076   45.6006   31.1007 C   0  0  0  0  0  0  0  0  0  0  0  0
    9.2826   46.9895   30.4449 C   0  0  0  0  0  0  0  0  0  0  0  0
    6.5257   46.5002   30.4862 C   0  0  0  0  0  0  0  0  0  0  0  0
    8.4008   47.8887   29.8337 C   0  0  0  0  0  0  0  0  0  0  0  0
    7.0195   47.6544   29.8442 C   0  0  0  0  0  0  0  0  0  0  0  0
    6.1819   48.5859   29.2093 O   0  0  0  0  0  0  0  0  0  0  0  0
    4.7691   48.4470   29.0492 C   0  0  0  0  0  0  0  0  0  0  0  0
    4.4453   47.3460   28.0628 C   0  0  0  0  0  0  0  0  0  0  0  0
    3.4937   46.3285   28.3377 C   0  0  0  0  0  0  0  0  0  0  0  0
    5.1445   47.3167   26.8422 C   0  0  0  0  0  0  0  0  0  0  0  0
    2.6782   46.3518   29.5191 N   0  0  0  0  0  0  0  0  0  0  0  0
    3.3263   45.2777   27.4199 C   0  0  0  0  0  0  0  0  0  0  0  0
    4.9488   46.2759   25.9333 C   0  0  0  0  0  0  0  0  0  0  0  0
    2.3584   45.1728   30.1520 O   0  0  0  0  0  0  0  0  0  0  0  0
    2.0624   47.3909   29.8342 O   0  0  0  0  0  0  0  0  0  0  0  0
    4.0496   45.2523   26.2267 C   0  0  0  0  0  0  0  0  0  0  0  0
    8.8113   40.1834   34.2129 O   0  0  0  0  0  0  0  0  0  0  0  0
   11.2402   40.7930   33.3696 O   0  0  0  0  0  0  0  0  0  0  0  0
   10.9151   40.6903   31.9975 C   0  0  0  0  0  0  0  0  0  0  0  0
   11.5252   39.3885   31.4375 C   0  0  0  0  0  0  0  0  0  0  0  0
   12.7500   39.0873   32.0798 O   0  0  0  0  0  0  0  0  0  0  0  0
   10.6092   38.1925   31.6469 C   0  0  0  0  0  0  0  0  0  0  0  0
   12.9332   37.6792   32.0294 C   0  0  0  0  0  0  0  0  0  0  0  0
    9.6122   38.0894   30.6542 O   0  0  0  0  0  0  0  0  0  0  0  0
   11.5743   37.0144   31.7024 C   0  0  0  0  0  0  0  0  0  0  0  0
   13.4844   37.2107   33.3241 N   0  0  0  0  0  0  0  0  0  0  0  0
   11.6297   36.3238   30.4740 O   0  0  0  0  0  0  0  0  0  0  0  0
   14.4802   36.3313   33.5727 C   0  0  0  0  0  0  0  0  0  0  0  0
   13.1138   37.6266   34.5692 C   0  0  0  0  0  0  0  0  0  0  0  0
   15.2075   35.6149   32.6739 N   0  0  0  0  0  0  0  0  0  0  0  0
   14.6761   36.2303   34.9181 C   0  0  0  0  0  0  0  0  0  0  0  0
   13.8220   37.0447   35.5785 N   0  0  0  0  0  0  0  0  0  0  0  0
   16.1643   34.7600   33.1547 C   0  0  0  0  0  0  0  0  0  0  0  0
   15.6529   35.3505   35.4130 C   0  0  0  0  0  0  0  0  0  0  0  0
   16.3798   34.6315   34.5042 N   0  0  0  0  0  0  0  0  0  0  0  0
   15.9003   35.1932   36.8090 N   0  0  0  0  0  0  0  0  0  0  0  0
    9.0099   45.4348   33.6668 H   0  0  0  0  0  0  0  0  0  0  0  0
   11.1132   46.1992   34.4884 H   0  0  0  0  0  0  0  0  0  0  0  0
   11.9349   45.6933   33.0928 H   0  0  0  0  0  0  0  0  0  0  0  0
    9.3519   43.8344   31.4757 H   0  0  0  0  0  0  0  0  0  0  0  0
   10.7310   44.8931   31.1675 H   0  0  0  0  0  0  0  0  0  0  0  0
    7.0124   44.7158   31.5846 H   0  0  0  0  0  0  0  0  0  0  0  0
   10.3466   47.1899   30.4155 H   0  0  0  0  0  0  0  0  0  0  0  0
    5.4672   46.2877   30.5211 H   0  0  0  0  0  0  0  0  0  0  0  0
    8.7938   48.7703   29.3433 H   0  0  0  0  0  0  0  0  0  0  0  0
    4.3095   48.2933   30.0455 H   0  0  0  0  0  0  0  0  0  0  0  0
    4.3706   49.4010   28.6455 H   0  0  0  0  0  0  0  0  0  0  0  0
    5.8611   48.0929   26.6028 H   0  0  0  0  0  0  0  0  0  0  0  0
    2.6119   44.4886   27.6178 H   0  0  0  0  0  0  0  0  0  0  0  0
    5.5022   46.2589   25.0033 H   0  0  0  0  0  0  0  0  0  0  0  0
    3.9032   44.4433   25.5227 H   0  0  0  0  0  0  0  0  0  0  0  0
    9.8243   40.7216   31.7640 H   0  0  0  0  0  0  0  0  0  0  0  0
   11.3805   41.5528   31.4740 H   0  0  0  0  0  0  0  0  0  0  0  0
   11.7265   39.5311   30.3512 H   0  0  0  0  0  0  0  0  0  0  0  0
   10.1110   38.2746   32.6387 H   0  0  0  0  0  0  0  0  0  0  0  0
   13.6652   37.4519   31.2226 H   0  0  0  0  0  0  0  0  0  0  0  0
   10.0511   38.1143   29.7644 H   0  0  0  0  0  0  0  0  0  0  0  0
   11.2762   36.3141   32.5189 H   0  0  0  0  0  0  0  0  0  0  0  0
   10.8593   35.6977   30.4639 H   0  0  0  0  0  0  0  0  0  0  0  0
   12.3294   38.3518   34.7449 H   0  0  0  0  0  0  0  0  0  0  0  0
   16.7564   34.1779   32.4620 H   0  0  0  0  0  0  0  0  0  0  0  0
   16.6349   34.5300   37.1415 H   0  0  0  0  0  0  0  0  0  0  0  0
   15.3534   35.7359   37.5138 H   0  0  0  0  0  0  0  0  0  0  0  0
  1  2  2  0
  1  3  1  0
  3  4  1  0
  4  5  1  0
  6  1  1  0
  7  6  1  0
  6  8  1  0
  8  9  1  0
  9 10  2  0
 11  9  1  0
 10 12  1  0
 13 11  2  0
 12 14  2  0
 14 13  1  0
 14 15  1  0
 15 16  1  0
 16 17  1  0
 17 18  2  0
 19 17  1  0
 18 20  1  0
 18 21  1  0
 22 19  2  0
 20 23  1  0
 20 24  2  0
 21 25  2  0
 25 22  1  0
  4 26  2  0
  4 27  1  0
 28 27  1  0
 28 29  1  0
 29 30  1  0
 29 31  1  0
 30 32  1  0
 31 33  1  0
 31 34  1  0
 34 32  1  0
 32 35  1  0
 34 36  1  0
 37 35  1  0
 38 35  1  0
 39 37  2  0
 37 40  1  0
 41 38  2  0
 42 39  1  0
 40 43  2  0
 40 41  1  0
 44 42  2  0
 44 43  1  0
 43 45  1  0
  6 46  1  1
  7 47  1  0
  7 48  1  0
  8 49  1  0
  8 50  1  0
 10 51  1  0
 11 52  1  0
 12 53  1  0
 13 54  1  0
 16 55  1  0
 16 56  1  0
 19 57  1  0
 21 58  1  0
 22 59  1  0
 25 60  1  0
 28 61  1  0
 28 62  1  0
 29 63  1  0
 31 64  1  0
 32 65  1  0
 33 66  1  0
 34 67  1  0
 36 68  1  0
 38 69  1  0
 42 70  1  0
 45 71  1  0
 45 72  1  0
M  CHG  3   5  -1  20   1  23  -1
M  END
>  <EmbedRMS>  (110) 
0.0827146509677

$$$$

     RDKit          3D

 72 76  0  0  0  0  0  0  0  0999 V2000
   10.2834   43.7662   33.8255 C   0  0  0  0  0  0  0  0  0  0  0  0
   11.4101   43.5930   34.3752 O   0  0  0  0  0  0  0  0  0  0  0  0
    9.3637   42.7255   33.7348 O   0  0  0  0  0  0  0  0  0  0  0  0
    9.8903   41.2267   34.2942 P   0  0  0  0  0  0  0  0  0  0  0  0
   10.3735   41.4561   35.8836 O   0  0  0  0  0  0  0  0  0  0  0  0
    9.9547   45.0695   33.2032 C   0  0  1  0  0  0  0  0  0  0  0  0
   11.0273   46.0322   33.4757 N   0  0  0  0  0  0  0  0  0  0  0  0
    9.7472   44.8480   31.6872 C   0  0  0  0  0  0  0  0  0  0  0  0
    8.7928   45.8402   31.0833 C   0  0  0  0  0  0  0  0  0  0  0  0
    7.4059   45.6017   31.1002 C   0  0  0  0  0  0  0  0  0  0  0  0
    9.2817   46.9883   30.4429 C   0  0  0  0  0  0  0  0  0  0  0  0
    6.5245   46.5027   30.4870 C   0  0  0  0  0  0  0  0  0  0  0  0
    8.4001   47.8892   29.8348 C   0  0  0  0  0  0  0  0  0  0  0  0
    7.0187   47.6537   29.8418 C   0  0  0  0  0  0  0  0  0  0  0  0
    6.1849   48.5892   29.2095 O   0  0  0  0  0  0  0  0  0  0  0  0
    4.8212   48.3794   28.8396 C   0  0  0  0  0  0  0  0  0  0  0  0
    4.7203   47.4217   27.6740 C   0  0  0  0  0  0  0  0  0  0  0  0
    5.0753   47.7985   26.3487 C   0  0  0  0  0  0  0  0  0  0  0  0
    4.2002   46.1336   27.9028 C   0  0  0  0  0  0  0  0  0  0  0  0
    5.5456   49.1216   26.0279 N   0  0  0  0  0  0  0  0  0  0  0  0
    4.9153   46.8654   25.3069 C   0  0  0  0  0  0  0  0  0  0  0  0
    4.0620   45.2220   26.8561 C   0  0  0  0  0  0  0  0  0  0  0  0
    6.4334   49.7768   26.8477 O   0  0  0  0  0  0  0  0  0  0  0  0
    5.2730   49.6277   24.9195 O   0  0  0  0  0  0  0  0  0  0  0  0
    4.4219   45.5859   25.5614 C   0  0  0  0  0  0  0  0  0  0  0  0
    8.8122   40.1850   34.2130 O   0  0  0  0  0  0  0  0  0  0  0  0
   11.2407   40.7940   33.3693 O   0  0  0  0  0  0  0  0  0  0  0  0
   10.9151   40.6905   31.9974 C   0  0  0  0  0  0  0  0  0  0  0  0
   11.5252   39.3886   31.4375 C   0  0  0  0  0  0  0  0  0  0  0  0
   12.7500   39.0874   32.0799 O   0  0  0  0  0  0  0  0  0  0  0  0
   10.6092   38.1926   31.6469 C   0  0  0  0  0  0  0  0  0  0  0  0
   12.9332   37.6793   32.0294 C   0  0  0  0  0  0  0  0  0  0  0  0
    9.6122   38.0895   30.6542 O   0  0  0  0  0  0  0  0  0  0  0  0
   11.5743   37.0145   31.7024 C   0  0  0  0  0  0  0  0  0  0  0  0
   13.4844   37.2108   33.3241 N   0  0  0  0  0  0  0  0  0  0  0  0
   11.6297   36.3239   30.4740 O   0  0  0  0  0  0  0  0  0  0  0  0
   14.4802   36.3313   33.5727 C   0  0  0  0  0  0  0  0  0  0  0  0
   13.1138   37.6266   34.5692 C   0  0  0  0  0  0  0  0  0  0  0  0
   15.2075   35.6149   32.6739 N   0  0  0  0  0  0  0  0  0  0  0  0
   14.6761   36.2303   34.9182 C   0  0  0  0  0  0  0  0  0  0  0  0
   13.8220   37.0447   35.5785 N   0  0  0  0  0  0  0  0  0  0  0  0
   16.1643   34.7600   33.1547 C   0  0  0  0  0  0  0  0  0  0  0  0
   15.6529   35.3505   35.4130 C   0  0  0  0  0  0  0  0  0  0  0  0
   16.3798   34.6315   34.5042 N   0  0  0  0  0  0  0  0  0  0  0  0
   15.9003   35.1932   36.8090 N   0  0  0  0  0  0  0  0  0  0  0  0
    9.0119   45.4317   33.6707 H   0  0  0  0  0  0  0  0  0  0  0  0
   10.7259   46.9688   33.1212 H   0  0  0  0  0  0  0  0  0  0  0  0
   11.8907   45.7659   32.9473 H   0  0  0  0  0  0  0  0  0  0  0  0
    9.3426   43.8327   31.4756 H   0  0  0  0  0  0  0  0  0  0  0  0
   10.7238   44.8819   31.1555 H   0  0  0  0  0  0  0  0  0  0  0  0
    7.0096   44.7203   31.5892 H   0  0  0  0  0  0  0  0  0  0  0  0
   10.3459   47.1874   30.4121 H   0  0  0  0  0  0  0  0  0  0  0  0
    5.4665   46.3023   30.5436 H   0  0  0  0  0  0  0  0  0  0  0  0
    8.7933   48.7714   29.3454 H   0  0  0  0  0  0  0  0  0  0  0  0
    4.2376   48.0313   29.7183 H   0  0  0  0  0  0  0  0  0  0  0  0
    4.3744   49.3524   28.5462 H   0  0  0  0  0  0  0  0  0  0  0  0
    3.8865   45.8318   28.8933 H   0  0  0  0  0  0  0  0  0  0  0  0
    5.1806   47.1293   24.2909 H   0  0  0  0  0  0  0  0  0  0  0  0
    3.6660   44.2333   27.0489 H   0  0  0  0  0  0  0  0  0  0  0  0
    4.3095   44.8782   24.7501 H   0  0  0  0  0  0  0  0  0  0  0  0
    9.8242   40.7216   31.7643 H   0  0  0  0  0  0  0  0  0  0  0  0
   11.3801   41.5529   31.4733 H   0  0  0  0  0  0  0  0  0  0  0  0
   11.7266   39.5311   30.3513 H   0  0  0  0  0  0  0  0  0  0  0  0
   10.1110   38.2747   32.6387 H   0  0  0  0  0  0  0  0  0  0  0  0
   13.6652   37.4519   31.2226 H   0  0  0  0  0  0  0  0  0  0  0  0
   10.0511   38.1144   29.7645 H   0  0  0  0  0  0  0  0  0  0  0  0
   11.2762   36.3141   32.5189 H   0  0  0  0  0  0  0  0  0  0  0  0
   10.8593   35.6978   30.4640 H   0  0  0  0  0  0  0  0  0  0  0  0
   12.3295   38.3518   34.7449 H   0  0  0  0  0  0  0  0  0  0  0  0
   16.7564   34.1779   32.4620 H   0  0  0  0  0  0  0  0  0  0  0  0
   16.6348   34.5300   37.1415 H   0  0  0  0  0  0  0  0  0  0  0  0
   15.3534   35.7359   37.5138 H   0  0  0  0  0  0  0  0  0  0  0  0
  1  2  2  0
  1  3  1  0
  3  4  1  0
  4  5  1  0
  6  1  1  0
  7  6  1  0
  6  8  1  0
  8  9  1  0
  9 10  2  0
 11  9  1  0
 10 12  1  0
 13 11  2  0
 12 14  2  0
 14 13  1  0
 14 15  1  0
 15 16  1  0
 16 17  1  0
 17 18  2  0
 19 17  1  0
 18 20  1  0
 18 21  1  0
 22 19  2  0
 20 23  1  0
 20 24  2  0
 21 25  2  0
 25 22  1  0
  4 26  2  0
  4 27  1  0
 28 27  1  0
 28 29  1  0
 29 30  1  0
 29 31  1  0
 30 32  1  0
 31 33  1  0
 31 34  1  0
 34 32  1  0
 32 35  1  0
 34 36  1  0
 37 35  1  0
 38 35  1  0
 39 37  2  0
 37 40  1  0
 41 38  2  0
 42 39  1  0
 40 43  2  0
 40 41  1  0
 44 42  2  0
 44 43  1  0
 43 45  1  0
  6 46  1  1
  7 47  1  0
  7 48  1  0
  8 49  1  0
  8 50  1  0
 10 51  1  0
 11 52  1  0
 12 53  1  0
 13 54  1  0
 16 55  1  0
 16 56  1  0
 19 57  1  0
 21 58  1  0
 22 59  1  0
 25 60  1  0
 28 61  1  0
 28 62  1  0
 29 63  1  0
 31 64  1  0
 32 65  1  0
 33 66  1  0
 34 67  1  0
 36 68  1  0
 38 69  1  0
 42 70  1  0
 45 71  1  0
 45 72  1  0
M  CHG  3   5  -1  20   1  23  -1
M  END
>  <EmbedRMS>  (111) 
0.0818407201415

$$$$

     RDKit          3D

 72 76  0  0  0  0  0  0  0  0999 V2000
   10.2838   43.7627   33.8278 C   0  0  0  0  0  0  0  0  0  0  0  0
   11.4103   43.5863   34.3767 O   0  0  0  0  0  0  0  0  0  0  0  0
    9.3628   42.7238   33.7357 O   0  0  0  0  0  0  0  0  0  0  0  0
    9.8893   41.2251   34.2943 P   0  0  0  0  0  0  0  0  0  0  0  0
   10.3730   41.4545   35.8837 O   0  0  0  0  0  0  0  0  0  0  0  0
    9.9549   45.0701   33.2067 C   0  0  1  0  0  0  0  0  0  0  0  0
   11.0199   46.0482   33.4574 N   0  0  0  0  0  0  0  0  0  0  0  0
    9.7504   44.8514   31.6927 C   0  0  0  0  0  0  0  0  0  0  0  0
    8.7943   45.8426   31.0880 C   0  0  0  0  0  0  0  0  0  0  0  0
    7.4078   45.6003   31.0994 C   0  0  0  0  0  0  0  0  0  0  0  0
    9.2827   46.9887   30.4437 C   0  0  0  0  0  0  0  0  0  0  0  0
    6.5261   46.4990   30.4828 C   0  0  0  0  0  0  0  0  0  0  0  0
    8.4009   47.8865   29.8309 C   0  0  0  0  0  0  0  0  0  0  0  0
    7.0186   47.6576   29.8500 C   0  0  0  0  0  0  0  0  0  0  0  0
    6.1838   48.5949   29.2218 O   0  0  0  0  0  0  0  0  0  0  0  0
    4.7715   48.7102   29.4016 C   0  0  0  0  0  0  0  0  0  0  0  0
    4.4460   49.2557   30.7736 C   0  0  0  0  0  0  0  0  0  0  0  0
    4.6511   50.6213   31.1160 C   0  0  0  0  0  0  0  0  0  0  0  0
    3.8652   48.3925   31.7220 C   0  0  0  0  0  0  0  0  0  0  0  0
    5.1743   51.5775   30.1742 N   0  0  0  0  0  0  0  0  0  0  0  0
    4.2855   51.0662   32.4004 C   0  0  0  0  0  0  0  0  0  0  0  0
    3.5222   48.8537   32.9929 C   0  0  0  0  0  0  0  0  0  0  0  0
    6.2090   51.2489   29.3309 O   0  0  0  0  0  0  0  0  0  0  0  0
    4.7980   52.7671   30.2203 O   0  0  0  0  0  0  0  0  0  0  0  0
    3.7349   50.1870   33.3327 C   0  0  0  0  0  0  0  0  0  0  0  0
    8.8112   40.1835   34.2130 O   0  0  0  0  0  0  0  0  0  0  0  0
   11.2397   40.7942   33.3684 O   0  0  0  0  0  0  0  0  0  0  0  0
   10.9125   40.6875   31.9969 C   0  0  0  0  0  0  0  0  0  0  0  0
   11.5169   39.3810   31.4420 C   0  0  0  0  0  0  0  0  0  0  0  0
   12.7500   39.0880   32.0758 O   0  0  0  0  0  0  0  0  0  0  0  0
   10.6043   38.1892   31.6659 C   0  0  0  0  0  0  0  0  0  0  0  0
   12.9395   37.6813   32.0280 C   0  0  0  0  0  0  0  0  0  0  0  0
    9.6353   38.0951   30.6499 O   0  0  0  0  0  0  0  0  0  0  0  0
   11.5804   37.0190   31.6934 C   0  0  0  0  0  0  0  0  0  0  0  0
   13.4851   37.2118   33.3244 N   0  0  0  0  0  0  0  0  0  0  0  0
   11.6118   36.3188   30.4673 O   0  0  0  0  0  0  0  0  0  0  0  0
   14.4801   36.3316   33.5732 C   0  0  0  0  0  0  0  0  0  0  0  0
   13.1139   37.6277   34.5692 C   0  0  0  0  0  0  0  0  0  0  0  0
   15.2076   35.6154   32.6744 N   0  0  0  0  0  0  0  0  0  0  0  0
   14.6756   36.2303   34.9186 C   0  0  0  0  0  0  0  0  0  0  0  0
   13.8215   37.0450   35.5786 N   0  0  0  0  0  0  0  0  0  0  0  0
   16.1642   34.7602   33.1551 C   0  0  0  0  0  0  0  0  0  0  0  0
   15.6526   35.3505   35.4134 C   0  0  0  0  0  0  0  0  0  0  0  0
   16.3796   34.6316   34.5045 N   0  0  0  0  0  0  0  0  0  0  0  0
   15.9001   35.1933   36.8093 N   0  0  0  0  0  0  0  0  0  0  0  0
    9.0099   45.4350   33.6674 H   0  0  0  0  0  0  0  0  0  0  0  0
   11.1133   46.1993   34.4887 H   0  0  0  0  0  0  0  0  0  0  0  0
   11.9349   45.6934   33.0931 H   0  0  0  0  0  0  0  0  0  0  0  0
   10.7307   44.8934   31.1679 H   0  0  0  0  0  0  0  0  0  0  0  0
    9.3515   43.8349   31.4762 H   0  0  0  0  0  0  0  0  0  0  0  0
    7.0131   44.7111   31.5755 H   0  0  0  0  0  0  0  0  0  0  0  0
   10.3468   47.1884   30.4130 H   0  0  0  0  0  0  0  0  0  0  0  0
    5.4731   46.2668   30.4866 H   0  0  0  0  0  0  0  0  0  0  0  0
    8.7937   48.7686   29.3411 H   0  0  0  0  0  0  0  0  0  0  0  0
    4.3663   49.4015   28.6333 H   0  0  0  0  0  0  0  0  0  0  0  0
    4.2825   47.7305   29.2147 H   0  0  0  0  0  0  0  0  0  0  0  0
    3.6631   47.3581   31.4776 H   0  0  0  0  0  0  0  0  0  0  0  0
    4.4340   52.1007   32.6838 H   0  0  0  0  0  0  0  0  0  0  0  0
    3.0818   48.1764   33.7133 H   0  0  0  0  0  0  0  0  0  0  0  0
    3.4637   50.5435   34.3181 H   0  0  0  0  0  0  0  0  0  0  0  0
    9.8216   40.7223   31.7644 H   0  0  0  0  0  0  0  0  0  0  0  0
   11.3812   41.5456   31.4692 H   0  0  0  0  0  0  0  0  0  0  0  0
   11.6986   39.5089   30.3498 H   0  0  0  0  0  0  0  0  0  0  0  0
   10.1109   38.2736   32.6630 H   0  0  0  0  0  0  0  0  0  0  0  0
   13.6783   37.4561   31.2271 H   0  0  0  0  0  0  0  0  0  0  0  0
    9.0020   37.3859   30.9347 H   0  0  0  0  0  0  0  0  0  0  0  0
   11.2808   36.3052   32.4921 H   0  0  0  0  0  0  0  0  0  0  0  0
   11.8819   36.9599   29.7584 H   0  0  0  0  0  0  0  0  0  0  0  0
   12.3303   38.3537   34.7445 H   0  0  0  0  0  0  0  0  0  0  0  0
   16.7564   34.1783   32.4623 H   0  0  0  0  0  0  0  0  0  0  0  0
   15.3532   35.7359   37.5142 H   0  0  0  0  0  0  0  0  0  0  0  0
   16.6348   34.5301   37.1418 H   0  0  0  0  0  0  0  0  0  0  0  0
  1  2  2  0
  1  3  1  0
  3  4  1  0
  4  5  1  0
  6  1  1  0
  7  6  1  0
  6  8  1  0
  8  9  1  0
  9 10  2  0
 11  9  1  0
 10 12  1  0
 13 11  2  0
 12 14  2  0
 14 13  1  0
 14 15  1  0
 15 16  1  0
 16 17  1  0
 17 18  2  0
 19 17  1  0
 18 20  1  0
 18 21  1  0
 22 19  2  0
 20 23  1  0
 20 24  2  0
 21 25  2  0
 25 22  1  0
  4 26  2  0
  4 27  1  0
 28 27  1  0
 28 29  1  0
 29 30  1  0
 29 31  1  0
 30 32  1  0
 31 33  1  0
 31 34  1  0
 34 32  1  0
 32 35  1  0
 34 36  1  0
 37 35  1  0
 38 35  1  0
 39 37  2  0
 37 40  1  0
 41 38  2  0
 42 39  1  0
 40 43  2  0
 40 41  1  0
 44 42  2  0
 44 43  1  0
 43 45  1  0
  6 46  1  1
  7 47  1  0
  7 48  1  0
  8 49  1  0
  8 50  1  0
 10 51  1  0
 11 52  1  0
 12 53  1  0
 13 54  1  0
 16 55  1  0
 16 56  1  0
 19 57  1  0
 21 58  1  0
 22 59  1  0
 25 60  1  0
 28 61  1  0
 28 62  1  0
 29 63  1  0
 31 64  1  0
 32 65  1  0
 33 66  1  0
 34 67  1  0
 36 68  1  0
 38 69  1  0
 42 70  1  0
 45 71  1  0
 45 72  1  0
M  CHG  3   5  -1  20   1  23  -1
M  END
>  <EmbedRMS>  (112) 
0.0824458631456

$$$$

     RDKit          3D

 72 76  0  0  0  0  0  0  0  0999 V2000
   10.2805   43.7663   33.8249 C   0  0  0  0  0  0  0  0  0  0  0  0
   11.4111   43.5919   34.3667 O   0  0  0  0  0  0  0  0  0  0  0  0
    9.3622   42.7247   33.7343 O   0  0  0  0  0  0  0  0  0  0  0  0
    9.8904   41.2264   34.2936 P   0  0  0  0  0  0  0  0  0  0  0  0
   10.3731   41.4564   35.8832 O   0  0  0  0  0  0  0  0  0  0  0  0
    9.9459   45.0735   33.2111 C   0  0  1  0  0  0  0  0  0  0  0  0
   11.0266   46.0291   33.4705 N   0  0  0  0  0  0  0  0  0  0  0  0
    9.7536   44.8537   31.6948 C   0  0  0  0  0  0  0  0  0  0  0  0
    8.7956   45.8408   31.0844 C   0  0  0  0  0  0  0  0  0  0  0  0
    7.4086   45.6008   31.1013 C   0  0  0  0  0  0  0  0  0  0  0  0
    9.2829   46.9880   30.4402 C   0  0  0  0  0  0  0  0  0  0  0  0
    6.5281   46.5016   30.4864 C   0  0  0  0  0  0  0  0  0  0  0  0
    8.4022   47.8897   29.8314 C   0  0  0  0  0  0  0  0  0  0  0  0
    7.0139   47.6498   29.8459 C   0  0  0  0  0  0  0  0  0  0  0  0
    6.0876   48.5159   29.2433 O   0  0  0  0  0  0  0  0  0  0  0  0
    6.4170   49.6409   28.4273 C   0  0  0  0  0  0  0  0  0  0  0  0
    7.0212   49.1996   27.1132 C   0  0  0  0  0  0  0  0  0  0  0  0
    6.3987   48.2304   26.2811 C   0  0  0  0  0  0  0  0  0  0  0  0
    8.2598   49.7432   26.7252 C   0  0  0  0  0  0  0  0  0  0  0  0
    5.1199   47.6571   26.6084 N   0  0  0  0  0  0  0  0  0  0  0  0
    7.0571   47.8083   25.1114 C   0  0  0  0  0  0  0  0  0  0  0  0
    8.8877   49.3215   25.5529 C   0  0  0  0  0  0  0  0  0  0  0  0
    4.1101   48.4394   27.1182 O   0  0  0  0  0  0  0  0  0  0  0  0
    4.8600   46.4803   26.2821 O   0  0  0  0  0  0  0  0  0  0  0  0
    8.2905   48.3518   24.7506 C   0  0  0  0  0  0  0  0  0  0  0  0
    8.8129   40.1841   34.2124 O   0  0  0  0  0  0  0  0  0  0  0  0
   11.2419   40.7944   33.3695 O   0  0  0  0  0  0  0  0  0  0  0  0
   10.9186   40.6911   31.9969 C   0  0  0  0  0  0  0  0  0  0  0  0
   11.5172   39.3814   31.4407 C   0  0  0  0  0  0  0  0  0  0  0  0
   12.7492   39.0856   32.0729 O   0  0  0  0  0  0  0  0  0  0  0  0
   10.6023   38.1908   31.6665 C   0  0  0  0  0  0  0  0  0  0  0  0
   12.9319   37.6781   32.0281 C   0  0  0  0  0  0  0  0  0  0  0  0
    9.6392   38.0797   30.6452 O   0  0  0  0  0  0  0  0  0  0  0  0
   11.5715   37.0165   31.7056 C   0  0  0  0  0  0  0  0  0  0  0  0
   13.4847   37.2121   33.3235 N   0  0  0  0  0  0  0  0  0  0  0  0
   11.6187   36.3383   30.4695 O   0  0  0  0  0  0  0  0  0  0  0  0
   14.4801   36.3321   33.5724 C   0  0  0  0  0  0  0  0  0  0  0  0
   13.1137   37.6276   34.5688 C   0  0  0  0  0  0  0  0  0  0  0  0
   15.2073   35.6153   32.6738 N   0  0  0  0  0  0  0  0  0  0  0  0
   14.6759   36.2308   34.9179 C   0  0  0  0  0  0  0  0  0  0  0  0
   13.8216   37.0452   35.5781 N   0  0  0  0  0  0  0  0  0  0  0  0
   16.1640   34.7602   33.1546 C   0  0  0  0  0  0  0  0  0  0  0  0
   15.6526   35.3508   35.4129 C   0  0  0  0  0  0  0  0  0  0  0  0
   16.3794   34.6317   34.5041 N   0  0  0  0  0  0  0  0  0  0  0  0
   15.8999   35.1935   36.8088 N   0  0  0  0  0  0  0  0  0  0  0  0
    8.9995   45.4380   33.6721 H   0  0  0  0  0  0  0  0  0  0  0  0
   11.0504   46.2276   34.4979 H   0  0  0  0  0  0  0  0  0  0  0  0
   10.7763   46.9368   33.0156 H   0  0  0  0  0  0  0  0  0  0  0  0
    9.3637   43.8351   31.4713 H   0  0  0  0  0  0  0  0  0  0  0  0
   10.7407   44.9069   31.1833 H   0  0  0  0  0  0  0  0  0  0  0  0
    7.0130   44.7166   31.5857 H   0  0  0  0  0  0  0  0  0  0  0  0
   10.3469   47.1878   30.4090 H   0  0  0  0  0  0  0  0  0  0  0  0
    5.4638   46.3040   30.5047 H   0  0  0  0  0  0  0  0  0  0  0  0
    8.8134   48.7685   29.3573 H   0  0  0  0  0  0  0  0  0  0  0  0
    7.0884   50.3260   28.9891 H   0  0  0  0  0  0  0  0  0  0  0  0
    5.4923   50.2175   28.2213 H   0  0  0  0  0  0  0  0  0  0  0  0
    8.7504   50.4886   27.3389 H   0  0  0  0  0  0  0  0  0  0  0  0
    6.6043   47.0659   24.4662 H   0  0  0  0  0  0  0  0  0  0  0  0
    9.8432   49.7435   25.2694 H   0  0  0  0  0  0  0  0  0  0  0  0
    8.7817   48.0234   23.8437 H   0  0  0  0  0  0  0  0  0  0  0  0
    9.8298   40.7409   31.7611 H   0  0  0  0  0  0  0  0  0  0  0  0
   11.3967   41.5459   31.4725 H   0  0  0  0  0  0  0  0  0  0  0  0
   11.6975   39.5066   30.3481 H   0  0  0  0  0  0  0  0  0  0  0  0
   10.1076   38.2647   32.6645 H   0  0  0  0  0  0  0  0  0  0  0  0
   13.6621   37.4468   31.2209 H   0  0  0  0  0  0  0  0  0  0  0  0
    8.8974   38.6943   30.8831 H   0  0  0  0  0  0  0  0  0  0  0  0
   11.2806   36.3073   32.5170 H   0  0  0  0  0  0  0  0  0  0  0  0
   10.8493   35.7110   30.4586 H   0  0  0  0  0  0  0  0  0  0  0  0
   12.3290   38.3524   34.7444 H   0  0  0  0  0  0  0  0  0  0  0  0
   16.7559   34.1780   32.4619 H   0  0  0  0  0  0  0  0  0  0  0  0
   15.3532   35.7362   37.5137 H   0  0  0  0  0  0  0  0  0  0  0  0
   16.6344   34.5301   37.1414 H   0  0  0  0  0  0  0  0  0  0  0  0
  1  2  2  0
  1  3  1  0
  3  4  1  0
  4  5  1  0
  6  1  1  0
  7  6  1  0
  6  8  1  0
  8  9  1  0
  9 10  2  0
 11  9  1  0
 10 12  1  0
 13 11  2  0
 12 14  2  0
 14 13  1  0
 14 15  1  0
 15 16  1  0
 16 17  1  0
 17 18  2  0
 19 17  1  0
 18 20  1  0
 18 21  1  0
 22 19  2  0
 20 23  1  0
 20 24  2  0
 21 25  2  0
 25 22  1  0
  4 26  2  0
  4 27  1  0
 28 27  1  0
 28 29  1  0
 29 30  1  0
 29 31  1  0
 30 32  1  0
 31 33  1  0
 31 34  1  0
 34 32  1  0
 32 35  1  0
 34 36  1  0
 37 35  1  0
 38 35  1  0
 39 37  2  0
 37 40  1  0
 41 38  2  0
 42 39  1  0
 40 43  2  0
 40 41  1  0
 44 42  2  0
 44 43  1  0
 43 45  1  0
  6 46  1  1
  7 47  1  0
  7 48  1  0
  8 49  1  0
  8 50  1  0
 10 51  1  0
 11 52  1  0
 12 53  1  0
 13 54  1  0
 16 55  1  0
 16 56  1  0
 19 57  1  0
 21 58  1  0
 22 59  1  0
 25 60  1  0
 28 61  1  0
 28 62  1  0
 29 63  1  0
 31 64  1  0
 32 65  1  0
 33 66  1  0
 34 67  1  0
 36 68  1  0
 38 69  1  0
 42 70  1  0
 45 71  1  0
 45 72  1  0
M  CHG  3   5  -1  20   1  23  -1
M  END
>  <EmbedRMS>  (113) 
0.0827808585037

$$$$

     RDKit          3D

 72 76  0  0  0  0  0  0  0  0999 V2000
   10.2836   43.7661   33.8257 C   0  0  0  0  0  0  0  0  0  0  0  0
   11.4103   43.5931   34.3753 O   0  0  0  0  0  0  0  0  0  0  0  0
    9.3641   42.7253   33.7347 O   0  0  0  0  0  0  0  0  0  0  0  0
    9.8908   41.2265   34.2939 P   0  0  0  0  0  0  0  0  0  0  0  0
   10.3732   41.4559   35.8836 O   0  0  0  0  0  0  0  0  0  0  0  0
    9.9546   45.0695   33.2037 C   0  0  1  0  0  0  0  0  0  0  0  0
   11.0273   46.0322   33.4757 N   0  0  0  0  0  0  0  0  0  0  0  0
    9.7465   44.8481   31.6878 C   0  0  0  0  0  0  0  0  0  0  0  0
    8.7923   45.8410   31.0848 C   0  0  0  0  0  0  0  0  0  0  0  0
    7.4056   45.6012   31.0984 C   0  0  0  0  0  0  0  0  0  0  0  0
    9.2823   46.9874   30.4419 C   0  0  0  0  0  0  0  0  0  0  0  0
    6.5269   46.5026   30.4827 C   0  0  0  0  0  0  0  0  0  0  0  0
    8.4032   47.8892   29.8306 C   0  0  0  0  0  0  0  0  0  0  0  0
    7.0140   47.6544   29.8499 C   0  0  0  0  0  0  0  0  0  0  0  0
    6.0883   48.5281   29.2577 O   0  0  0  0  0  0  0  0  0  0  0  0
    6.3942   49.8139   28.7160 C   0  0  0  0  0  0  0  0  0  0  0  0
    6.7799   50.7846   29.8098 C   0  0  0  0  0  0  0  0  0  0  0  0
    5.9670   50.9968   30.9573 C   0  0  0  0  0  0  0  0  0  0  0  0
    8.0035   51.4707   29.7000 C   0  0  0  0  0  0  0  0  0  0  0  0
    4.6920   50.3497   31.1220 N   0  0  0  0  0  0  0  0  0  0  0  0
    6.4283   51.8526   31.9734 C   0  0  0  0  0  0  0  0  0  0  0  0
    8.4337   52.3280   30.7131 C   0  0  0  0  0  0  0  0  0  0  0  0
    4.2285   50.0573   32.3842 O   0  0  0  0  0  0  0  0  0  0  0  0
    3.9225   50.1990   30.1513 O   0  0  0  0  0  0  0  0  0  0  0  0
    7.6508   52.5138   31.8501 C   0  0  0  0  0  0  0  0  0  0  0  0
    8.8127   40.1848   34.2122 O   0  0  0  0  0  0  0  0  0  0  0  0
   11.2421   40.7941   33.3697 O   0  0  0  0  0  0  0  0  0  0  0  0
   10.9187   40.6911   31.9971 C   0  0  0  0  0  0  0  0  0  0  0  0
   11.5172   39.3815   31.4408 C   0  0  0  0  0  0  0  0  0  0  0  0
   12.7493   39.0856   32.0728 O   0  0  0  0  0  0  0  0  0  0  0  0
   10.6023   38.1908   31.6665 C   0  0  0  0  0  0  0  0  0  0  0  0
   12.9319   37.6781   32.0281 C   0  0  0  0  0  0  0  0  0  0  0  0
    9.6392   38.0798   30.6452 O   0  0  0  0  0  0  0  0  0  0  0  0
   11.5715   37.0166   31.7056 C   0  0  0  0  0  0  0  0  0  0  0  0
   13.4847   37.2121   33.3235 N   0  0  0  0  0  0  0  0  0  0  0  0
   11.6187   36.3384   30.4695 O   0  0  0  0  0  0  0  0  0  0  0  0
   14.4801   36.3321   33.5724 C   0  0  0  0  0  0  0  0  0  0  0  0
   13.1137   37.6275   34.5688 C   0  0  0  0  0  0  0  0  0  0  0  0
   15.2073   35.6153   32.6738 N   0  0  0  0  0  0  0  0  0  0  0  0
   14.6759   36.2308   34.9179 C   0  0  0  0  0  0  0  0  0  0  0  0
   13.8216   37.0452   35.5781 N   0  0  0  0  0  0  0  0  0  0  0  0
   16.1640   34.7602   33.1546 C   0  0  0  0  0  0  0  0  0  0  0  0
   15.6526   35.3508   35.4129 C   0  0  0  0  0  0  0  0  0  0  0  0
   16.3794   34.6317   34.5041 N   0  0  0  0  0  0  0  0  0  0  0  0
   15.8999   35.1935   36.8088 N   0  0  0  0  0  0  0  0  0  0  0  0
    9.0120   45.4316   33.6716 H   0  0  0  0  0  0  0  0  0  0  0  0
   10.7257   46.9688   33.1214 H   0  0  0  0  0  0  0  0  0  0  0  0
   11.8905   45.7660   32.9469 H   0  0  0  0  0  0  0  0  0  0  0  0
    9.3413   43.8330   31.4764 H   0  0  0  0  0  0  0  0  0  0  0  0
   10.7228   44.8814   31.1558 H   0  0  0  0  0  0  0  0  0  0  0  0
    7.0083   44.7163   31.5803 H   0  0  0  0  0  0  0  0  0  0  0  0
   10.3471   47.1830   30.4086 H   0  0  0  0  0  0  0  0  0  0  0  0
    5.4621   46.3074   30.5020 H   0  0  0  0  0  0  0  0  0  0  0  0
    8.8175   48.7563   29.3381 H   0  0  0  0  0  0  0  0  0  0  0  0
    5.4987   50.2033   28.1898 H   0  0  0  0  0  0  0  0  0  0  0  0
    7.1871   49.7148   27.9433 H   0  0  0  0  0  0  0  0  0  0  0  0
    8.6364   51.3327   28.8320 H   0  0  0  0  0  0  0  0  0  0  0  0
    5.8297   52.0232   32.8591 H   0  0  0  0  0  0  0  0  0  0  0  0
    9.3802   52.8445   30.6186 H   0  0  0  0  0  0  0  0  0  0  0  0
    7.9890   53.1761   32.6366 H   0  0  0  0  0  0  0  0  0  0  0  0
   11.3968   41.5460   31.4729 H   0  0  0  0  0  0  0  0  0  0  0  0
    9.8299   40.7410   31.7613 H   0  0  0  0  0  0  0  0  0  0  0  0
   11.6975   39.5067   30.3481 H   0  0  0  0  0  0  0  0  0  0  0  0
   10.1077   38.2648   32.6645 H   0  0  0  0  0  0  0  0  0  0  0  0
   13.6621   37.4467   31.2209 H   0  0  0  0  0  0  0  0  0  0  0  0
    8.8975   38.6944   30.8831 H   0  0  0  0  0  0  0  0  0  0  0  0
   11.2806   36.3073   32.5170 H   0  0  0  0  0  0  0  0  0  0  0  0
   10.8492   35.7110   30.4586 H   0  0  0  0  0  0  0  0  0  0  0  0
   12.3290   38.3524   34.7444 H   0  0  0  0  0  0  0  0  0  0  0  0
   16.7559   34.1780   32.4619 H   0  0  0  0  0  0  0  0  0  0  0  0
   15.3531   35.7362   37.5137 H   0  0  0  0  0  0  0  0  0  0  0  0
   16.6344   34.5301   37.1414 H   0  0  0  0  0  0  0  0  0  0  0  0
  1  2  2  0
  1  3  1  0
  3  4  1  0
  4  5  1  0
  6  1  1  0
  7  6  1  0
  6  8  1  0
  8  9  1  0
  9 10  2  0
 11  9  1  0
 10 12  1  0
 13 11  2  0
 12 14  2  0
 14 13  1  0
 14 15  1  0
 15 16  1  0
 16 17  1  0
 17 18  2  0
 19 17  1  0
 18 20  1  0
 18 21  1  0
 22 19  2  0
 20 23  1  0
 20 24  2  0
 21 25  2  0
 25 22  1  0
  4 26  2  0
  4 27  1  0
 28 27  1  0
 28 29  1  0
 29 30  1  0
 29 31  1  0
 30 32  1  0
 31 33  1  0
 31 34  1  0
 34 32  1  0
 32 35  1  0
 34 36  1  0
 37 35  1  0
 38 35  1  0
 39 37  2  0
 37 40  1  0
 41 38  2  0
 42 39  1  0
 40 43  2  0
 40 41  1  0
 44 42  2  0
 44 43  1  0
 43 45  1  0
  6 46  1  1
  7 47  1  0
  7 48  1  0
  8 49  1  0
  8 50  1  0
 10 51  1  0
 11 52  1  0
 12 53  1  0
 13 54  1  0
 16 55  1  0
 16 56  1  0
 19 57  1  0
 21 58  1  0
 22 59  1  0
 25 60  1  0
 28 61  1  0
 28 62  1  0
 29 63  1  0
 31 64  1  0
 32 65  1  0
 33 66  1  0
 34 67  1  0
 36 68  1  0
 38 69  1  0
 42 70  1  0
 45 71  1  0
 45 72  1  0
M  CHG  3   5  -1  20   1  23  -1
M  END
>  <EmbedRMS>  (114) 
0.0829441602218

$$$$

     RDKit          3D

 72 76  0  0  0  0  0  0  0  0999 V2000
   10.2804   43.7664   33.8251 C   0  0  0  0  0  0  0  0  0  0  0  0
   11.4111   43.5919   34.3667 O   0  0  0  0  0  0  0  0  0  0  0  0
    9.3619   42.7249   33.7347 O   0  0  0  0  0  0  0  0  0  0  0  0
    9.8900   41.2267   34.2944 P   0  0  0  0  0  0  0  0  0  0  0  0
   10.3728   41.4567   35.8839 O   0  0  0  0  0  0  0  0  0  0  0  0
    9.9459   45.0736   33.2112 C   0  0  1  0  0  0  0  0  0  0  0  0
   11.0266   46.0292   33.4706 N   0  0  0  0  0  0  0  0  0  0  0  0
    9.7535   44.8538   31.6950 C   0  0  0  0  0  0  0  0  0  0  0  0
    8.7955   45.8410   31.0848 C   0  0  0  0  0  0  0  0  0  0  0  0
    7.4087   45.6003   31.1004 C   0  0  0  0  0  0  0  0  0  0  0  0
    9.2829   46.9876   30.4397 C   0  0  0  0  0  0  0  0  0  0  0  0
    6.5283   46.5010   30.4849 C   0  0  0  0  0  0  0  0  0  0  0  0
    8.4020   47.8885   29.8302 C   0  0  0  0  0  0  0  0  0  0  0  0
    7.0138   47.6520   29.8489 C   0  0  0  0  0  0  0  0  0  0  0  0
    6.0870   48.5244   29.2562 O   0  0  0  0  0  0  0  0  0  0  0  0
    6.4038   49.7605   28.6121 C   0  0  0  0  0  0  0  0  0  0  0  0
    6.8835   50.7978   29.6059 C   0  0  0  0  0  0  0  0  0  0  0  0
    7.9017   51.7380   29.2936 C   0  0  0  0  0  0  0  0  0  0  0  0
    6.2157   50.9023   30.8412 C   0  0  0  0  0  0  0  0  0  0  0  0
    8.5855   51.7285   28.0322 N   0  0  0  0  0  0  0  0  0  0  0  0
    8.2285   52.7359   30.2266 C   0  0  0  0  0  0  0  0  0  0  0  0
    6.5678   51.8896   31.7625 C   0  0  0  0  0  0  0  0  0  0  0  0
    8.7921   52.9146   27.3667 O   0  0  0  0  0  0  0  0  0  0  0  0
    9.2296   50.7208   27.6768 O   0  0  0  0  0  0  0  0  0  0  0  0
    7.5729   52.8044   31.4561 C   0  0  0  0  0  0  0  0  0  0  0  0
    8.8127   40.1842   34.2128 O   0  0  0  0  0  0  0  0  0  0  0  0
   11.2415   40.7951   33.3705 O   0  0  0  0  0  0  0  0  0  0  0  0
   10.9178   40.6922   31.9983 C   0  0  0  0  0  0  0  0  0  0  0  0
   11.5175   39.3837   31.4423 C   0  0  0  0  0  0  0  0  0  0  0  0
   12.7507   39.0887   32.0753 O   0  0  0  0  0  0  0  0  0  0  0  0
   10.6027   38.1916   31.6659 C   0  0  0  0  0  0  0  0  0  0  0  0
   12.9384   37.6819   32.0278 C   0  0  0  0  0  0  0  0  0  0  0  0
    9.6371   38.0805   30.6470 O   0  0  0  0  0  0  0  0  0  0  0  0
   11.5780   37.0215   31.6935 C   0  0  0  0  0  0  0  0  0  0  0  0
   13.4844   37.2119   33.3242 N   0  0  0  0  0  0  0  0  0  0  0  0
   11.6095   36.3202   30.4679 O   0  0  0  0  0  0  0  0  0  0  0  0
   14.4797   36.3318   33.5730 C   0  0  0  0  0  0  0  0  0  0  0  0
   13.1136   37.6278   34.5691 C   0  0  0  0  0  0  0  0  0  0  0  0
   15.2073   35.6155   32.6742 N   0  0  0  0  0  0  0  0  0  0  0  0
   14.6754   36.2305   34.9184 C   0  0  0  0  0  0  0  0  0  0  0  0
   13.8213   37.0452   35.5785 N   0  0  0  0  0  0  0  0  0  0  0  0
   16.1640   34.7604   33.1549 C   0  0  0  0  0  0  0  0  0  0  0  0
   15.6524   35.3507   35.4132 C   0  0  0  0  0  0  0  0  0  0  0  0
   16.3794   34.6317   34.5044 N   0  0  0  0  0  0  0  0  0  0  0  0
   15.8999   35.1934   36.8091 N   0  0  0  0  0  0  0  0  0  0  0  0
    8.9995   45.4382   33.6723 H   0  0  0  0  0  0  0  0  0  0  0  0
   11.0503   46.2279   34.4979 H   0  0  0  0  0  0  0  0  0  0  0  0
   10.7762   46.9369   33.0156 H   0  0  0  0  0  0  0  0  0  0  0  0
   10.7406   44.9070   31.1835 H   0  0  0  0  0  0  0  0  0  0  0  0
    9.3636   43.8352   31.4716 H   0  0  0  0  0  0  0  0  0  0  0  0
    7.0130   44.7160   31.5846 H   0  0  0  0  0  0  0  0  0  0  0  0
   10.3470   47.1863   30.4062 H   0  0  0  0  0  0  0  0  0  0  0  0
    5.4638   46.3046   30.5055 H   0  0  0  0  0  0  0  0  0  0  0  0
    8.8123   48.7609   29.3463 H   0  0  0  0  0  0  0  0  0  0  0  0
    7.1186   49.5716   27.7893 H   0  0  0  0  0  0  0  0  0  0  0  0
    5.4751   50.1477   28.1436 H   0  0  0  0  0  0  0  0  0  0  0  0
    5.4126   50.2202   31.0916 H   0  0  0  0  0  0  0  0  0  0  0  0
    9.0019   53.4595   30.0010 H   0  0  0  0  0  0  0  0  0  0  0  0
    6.0512   51.9524   32.7117 H   0  0  0  0  0  0  0  0  0  0  0  0
    7.8392   53.5740   32.1692 H   0  0  0  0  0  0  0  0  0  0  0  0
   11.3950   41.5477   31.4741 H   0  0  0  0  0  0  0  0  0  0  0  0
    9.8290   40.7408   31.7625 H   0  0  0  0  0  0  0  0  0  0  0  0
   11.6982   39.5114   30.3500 H   0  0  0  0  0  0  0  0  0  0  0  0
   10.1117   38.2604   32.6661 H   0  0  0  0  0  0  0  0  0  0  0  0
   13.6767   37.4557   31.2267 H   0  0  0  0  0  0  0  0  0  0  0  0
    8.8960   38.6950   30.8873 H   0  0  0  0  0  0  0  0  0  0  0  0
   11.2792   36.3072   32.4922 H   0  0  0  0  0  0  0  0  0  0  0  0
   11.8828   36.9598   29.7589 H   0  0  0  0  0  0  0  0  0  0  0  0
   12.3300   38.3539   34.7446 H   0  0  0  0  0  0  0  0  0  0  0  0
   16.7561   34.1785   32.4622 H   0  0  0  0  0  0  0  0  0  0  0  0
   15.3531   35.7360   37.5140 H   0  0  0  0  0  0  0  0  0  0  0  0
   16.6347   34.5303   37.1417 H   0  0  0  0  0  0  0  0  0  0  0  0
  1  2  2  0
  1  3  1  0
  3  4  1  0
  4  5  1  0
  6  1  1  0
  7  6  1  0
  6  8  1  0
  8  9  1  0
  9 10  2  0
 11  9  1  0
 10 12  1  0
 13 11  2  0
 12 14  2  0
 14 13  1  0
 14 15  1  0
 15 16  1  0
 16 17  1  0
 17 18  2  0
 19 17  1  0
 18 20  1  0
 18 21  1  0
 22 19  2  0
 20 23  1  0
 20 24  2  0
 21 25  2  0
 25 22  1  0
  4 26  2  0
  4 27  1  0
 28 27  1  0
 28 29  1  0
 29 30  1  0
 29 31  1  0
 30 32  1  0
 31 33  1  0
 31 34  1  0
 34 32  1  0
 32 35  1  0
 34 36  1  0
 37 35  1  0
 38 35  1  0
 39 37  2  0
 37 40  1  0
 41 38  2  0
 42 39  1  0
 40 43  2  0
 40 41  1  0
 44 42  2  0
 44 43  1  0
 43 45  1  0
  6 46  1  1
  7 47  1  0
  7 48  1  0
  8 49  1  0
  8 50  1  0
 10 51  1  0
 11 52  1  0
 12 53  1  0
 13 54  1  0
 16 55  1  0
 16 56  1  0
 19 57  1  0
 21 58  1  0
 22 59  1  0
 25 60  1  0
 28 61  1  0
 28 62  1  0
 29 63  1  0
 31 64  1  0
 32 65  1  0
 33 66  1  0
 34 67  1  0
 36 68  1  0
 38 69  1  0
 42 70  1  0
 45 71  1  0
 45 72  1  0
M  CHG  3   5  -1  20   1  23  -1
M  END
>  <EmbedRMS>  (115) 
0.0818040780985

$$$$

     RDKit          3D

 72 76  0  0  0  0  0  0  0  0999 V2000
   10.2838   43.7626   33.8276 C   0  0  0  0  0  0  0  0  0  0  0  0
   11.4102   43.5864   34.3766 O   0  0  0  0  0  0  0  0  0  0  0  0
    9.3631   42.7236   33.7353 O   0  0  0  0  0  0  0  0  0  0  0  0
    9.8898   41.2247   34.2935 P   0  0  0  0  0  0  0  0  0  0  0  0
   10.3734   41.4543   35.8829 O   0  0  0  0  0  0  0  0  0  0  0  0
    9.9548   45.0699   33.2062 C   0  0  1  0  0  0  0  0  0  0  0  0
   11.0197   46.0481   33.4567 N   0  0  0  0  0  0  0  0  0  0  0  0
    9.7503   44.8506   31.6921 C   0  0  0  0  0  0  0  0  0  0  0  0
    8.7943   45.8410   31.0860 C   0  0  0  0  0  0  0  0  0  0  0  0
    7.4075   45.6013   31.1008 C   0  0  0  0  0  0  0  0  0  0  0  0
    9.2829   46.9894   30.4456 C   0  0  0  0  0  0  0  0  0  0  0  0
    6.5282   46.5032   30.4862 C   0  0  0  0  0  0  0  0  0  0  0  0
    8.4030   47.8909   29.8346 C   0  0  0  0  0  0  0  0  0  0  0  0
    7.0153   47.6499   29.8435 C   0  0  0  0  0  0  0  0  0  0  0  0
    6.0882   48.5157   29.2425 O   0  0  0  0  0  0  0  0  0  0  0  0
    6.3949   49.5533   28.3097 C   0  0  0  0  0  0  0  0  0  0  0  0
    6.8096   48.9749   26.9750 C   0  0  0  0  0  0  0  0  0  0  0  0
    5.8849   48.3407   26.0960 C   0  0  0  0  0  0  0  0  0  0  0  0
    8.1491   49.1227   26.5671 C   0  0  0  0  0  0  0  0  0  0  0  0
    4.4826   48.2160   26.4050 N   0  0  0  0  0  0  0  0  0  0  0  0
    6.3431   47.8618   24.8547 C   0  0  0  0  0  0  0  0  0  0  0  0
    8.5808   48.6293   25.3362 C   0  0  0  0  0  0  0  0  0  0  0  0
    3.5583   48.1719   25.3863 O   0  0  0  0  0  0  0  0  0  0  0  0
    4.0937   48.0030   27.5706 O   0  0  0  0  0  0  0  0  0  0  0  0
    7.6806   47.9970   24.4834 C   0  0  0  0  0  0  0  0  0  0  0  0
    8.8115   40.1834   34.2126 O   0  0  0  0  0  0  0  0  0  0  0  0
   11.2402   40.7936   33.3673 O   0  0  0  0  0  0  0  0  0  0  0  0
   10.9134   40.6864   31.9955 C   0  0  0  0  0  0  0  0  0  0  0  0
   11.5166   39.3786   31.4404 C   0  0  0  0  0  0  0  0  0  0  0  0
   12.7486   39.0848   32.0734 O   0  0  0  0  0  0  0  0  0  0  0  0
   10.6039   38.1883   31.6669 C   0  0  0  0  0  0  0  0  0  0  0  0
   12.9329   37.6775   32.0284 C   0  0  0  0  0  0  0  0  0  0  0  0
    9.6374   38.0938   30.6484 O   0  0  0  0  0  0  0  0  0  0  0  0
   11.5737   37.0140   31.7055 C   0  0  0  0  0  0  0  0  0  0  0  0
   13.4853   37.2120   33.3238 N   0  0  0  0  0  0  0  0  0  0  0  0
   11.6210   36.3379   30.4683 O   0  0  0  0  0  0  0  0  0  0  0  0
   14.4804   36.3319   33.5726 C   0  0  0  0  0  0  0  0  0  0  0  0
   13.1141   37.6275   34.5689 C   0  0  0  0  0  0  0  0  0  0  0  0
   15.2076   35.6152   32.6740 N   0  0  0  0  0  0  0  0  0  0  0  0
   14.6761   36.2306   34.9181 C   0  0  0  0  0  0  0  0  0  0  0  0
   13.8218   37.0451   35.5783 N   0  0  0  0  0  0  0  0  0  0  0  0
   16.1642   34.7600   33.1548 C   0  0  0  0  0  0  0  0  0  0  0  0
   15.6527   35.3507   35.4131 C   0  0  0  0  0  0  0  0  0  0  0  0
   16.3795   34.6315   34.5043 N   0  0  0  0  0  0  0  0  0  0  0  0
   15.9000   35.1933   36.8090 N   0  0  0  0  0  0  0  0  0  0  0  0
    9.0097   45.4349   33.6667 H   0  0  0  0  0  0  0  0  0  0  0  0
   11.9348   45.6933   33.0923 H   0  0  0  0  0  0  0  0  0  0  0  0
   11.1133   46.1992   34.4880 H   0  0  0  0  0  0  0  0  0  0  0  0
   10.7306   44.8921   31.1673 H   0  0  0  0  0  0  0  0  0  0  0  0
    9.3513   43.8339   31.4760 H   0  0  0  0  0  0  0  0  0  0  0  0
    7.0107   44.7168   31.5837 H   0  0  0  0  0  0  0  0  0  0  0  0
   10.3467   47.1918   30.4229 H   0  0  0  0  0  0  0  0  0  0  0  0
    5.4637   46.3062   30.5037 H   0  0  0  0  0  0  0  0  0  0  0  0
    8.8145   48.7766   29.3775 H   0  0  0  0  0  0  0  0  0  0  0  0
    5.4933   50.1843   28.1635 H   0  0  0  0  0  0  0  0  0  0  0  0
    7.1701   50.2266   28.7337 H   0  0  0  0  0  0  0  0  0  0  0  0
    8.8660   49.6324   27.1974 H   0  0  0  0  0  0  0  0  0  0  0  0
    5.6609   47.3736   24.1704 H   0  0  0  0  0  0  0  0  0  0  0  0
    9.6153   48.7455   25.0398 H   0  0  0  0  0  0  0  0  0  0  0  0
    8.0174   47.6185   23.5268 H   0  0  0  0  0  0  0  0  0  0  0  0
    9.8226   40.7225   31.7629 H   0  0  0  0  0  0  0  0  0  0  0  0
   11.3831   41.5438   31.4675 H   0  0  0  0  0  0  0  0  0  0  0  0
   11.6978   39.5037   30.3478 H   0  0  0  0  0  0  0  0  0  0  0  0
   10.1084   38.2785   32.6626 H   0  0  0  0  0  0  0  0  0  0  0  0
   13.6638   37.4471   31.2214 H   0  0  0  0  0  0  0  0  0  0  0  0
    8.9763   37.4190   30.9532 H   0  0  0  0  0  0  0  0  0  0  0  0
   11.2821   36.3053   32.5171 H   0  0  0  0  0  0  0  0  0  0  0  0
   10.8658   35.6935   30.4652 H   0  0  0  0  0  0  0  0  0  0  0  0
   12.3293   38.3523   34.7444 H   0  0  0  0  0  0  0  0  0  0  0  0
   16.7561   34.1778   32.4621 H   0  0  0  0  0  0  0  0  0  0  0  0
   15.3533   35.7361   37.5138 H   0  0  0  0  0  0  0  0  0  0  0  0
   16.6345   34.5300   37.1416 H   0  0  0  0  0  0  0  0  0  0  0  0
  1  2  2  0
  1  3  1  0
  3  4  1  0
  4  5  1  0
  6  1  1  0
  7  6  1  0
  6  8  1  0
  8  9  1  0
  9 10  2  0
 11  9  1  0
 10 12  1  0
 13 11  2  0
 12 14  2  0
 14 13  1  0
 14 15  1  0
 15 16  1  0
 16 17  1  0
 17 18  2  0
 19 17  1  0
 18 20  1  0
 18 21  1  0
 22 19  2  0
 20 23  1  0
 20 24  2  0
 21 25  2  0
 25 22  1  0
  4 26  2  0
  4 27  1  0
 28 27  1  0
 28 29  1  0
 29 30  1  0
 29 31  1  0
 30 32  1  0
 31 33  1  0
 31 34  1  0
 34 32  1  0
 32 35  1  0
 34 36  1  0
 37 35  1  0
 38 35  1  0
 39 37  2  0
 37 40  1  0
 41 38  2  0
 42 39  1  0
 40 43  2  0
 40 41  1  0
 44 42  2  0
 44 43  1  0
 43 45  1  0
  6 46  1  1
  7 47  1  0
  7 48  1  0
  8 49  1  0
  8 50  1  0
 10 51  1  0
 11 52  1  0
 12 53  1  0
 13 54  1  0
 16 55  1  0
 16 56  1  0
 19 57  1  0
 21 58  1  0
 22 59  1  0
 25 60  1  0
 28 61  1  0
 28 62  1  0
 29 63  1  0
 31 64  1  0
 32 65  1  0
 33 66  1  0
 34 67  1  0
 36 68  1  0
 38 69  1  0
 42 70  1  0
 45 71  1  0
 45 72  1  0
M  CHG  3   5  -1  20   1  23  -1
M  END
>  <EmbedRMS>  (116) 
0.083479564363

$$$$

     RDKit          3D

 72 76  0  0  0  0  0  0  0  0999 V2000
   10.2805   43.7663   33.8249 C   0  0  0  0  0  0  0  0  0  0  0  0
   11.4111   43.5918   34.3667 O   0  0  0  0  0  0  0  0  0  0  0  0
    9.3621   42.7248   33.7343 O   0  0  0  0  0  0  0  0  0  0  0  0
    9.8903   41.2264   34.2936 P   0  0  0  0  0  0  0  0  0  0  0  0
   10.3732   41.4564   35.8831 O   0  0  0  0  0  0  0  0  0  0  0  0
    9.9460   45.0736   33.2112 C   0  0  1  0  0  0  0  0  0  0  0  0
   11.0267   46.0292   33.4709 N   0  0  0  0  0  0  0  0  0  0  0  0
    9.7540   44.8542   31.6948 C   0  0  0  0  0  0  0  0  0  0  0  0
    8.7956   45.8412   31.0848 C   0  0  0  0  0  0  0  0  0  0  0  0
    7.4087   45.5999   31.1012 C   0  0  0  0  0  0  0  0  0  0  0  0
    9.2824   46.9881   30.4396 C   0  0  0  0  0  0  0  0  0  0  0  0
    6.5256   46.4989   30.4864 C   0  0  0  0  0  0  0  0  0  0  0  0
    8.3998   47.8878   29.8309 C   0  0  0  0  0  0  0  0  0  0  0  0
    7.0186   47.6542   29.8463 C   0  0  0  0  0  0  0  0  0  0  0  0
    6.1781   48.5847   29.2183 O   0  0  0  0  0  0  0  0  0  0  0  0
    4.7595   48.4702   29.1461 C   0  0  0  0  0  0  0  0  0  0  0  0
    4.2025   49.6400   28.3780 C   0  0  0  0  0  0  0  0  0  0  0  0
    4.1448   49.6552   26.9586 C   0  0  0  0  0  0  0  0  0  0  0  0
    3.7016   50.7393   29.0989 C   0  0  0  0  0  0  0  0  0  0  0  0
    4.6633   48.5718   26.1647 N   0  0  0  0  0  0  0  0  0  0  0  0
    3.5531   50.7557   26.3106 C   0  0  0  0  0  0  0  0  0  0  0  0
    3.1333   51.8272   28.4352 C   0  0  0  0  0  0  0  0  0  0  0  0
    5.8388   47.9471   26.5105 O   0  0  0  0  0  0  0  0  0  0  0  0
    4.1410   48.2973   25.0644 O   0  0  0  0  0  0  0  0  0  0  0  0
    3.0544   51.8330   27.0442 C   0  0  0  0  0  0  0  0  0  0  0  0
    8.8128   40.1841   34.2125 O   0  0  0  0  0  0  0  0  0  0  0  0
   11.2416   40.7945   33.3692 O   0  0  0  0  0  0  0  0  0  0  0  0
   10.9178   40.6904   31.9968 C   0  0  0  0  0  0  0  0  0  0  0  0
   11.5181   39.3813   31.4408 C   0  0  0  0  0  0  0  0  0  0  0  0
   12.7497   39.0870   32.0746 O   0  0  0  0  0  0  0  0  0  0  0  0
   10.6045   38.1891   31.6655 C   0  0  0  0  0  0  0  0  0  0  0  0
   12.9344   37.6801   32.0290 C   0  0  0  0  0  0  0  0  0  0  0  0
    9.6418   38.0758   30.6441 O   0  0  0  0  0  0  0  0  0  0  0  0
   11.5741   37.0170   31.7045 C   0  0  0  0  0  0  0  0  0  0  0  0
   13.4851   37.2125   33.3241 N   0  0  0  0  0  0  0  0  0  0  0  0
   11.6079   36.3407   30.4680 O   0  0  0  0  0  0  0  0  0  0  0  0
   14.4801   36.3321   33.5727 C   0  0  0  0  0  0  0  0  0  0  0  0
   13.1140   37.6277   34.5693 C   0  0  0  0  0  0  0  0  0  0  0  0
   15.2073   35.6155   32.6739 N   0  0  0  0  0  0  0  0  0  0  0  0
   14.6758   36.2306   34.9182 C   0  0  0  0  0  0  0  0  0  0  0  0
   13.8217   37.0451   35.5785 N   0  0  0  0  0  0  0  0  0  0  0  0
   16.1639   34.7602   33.1546 C   0  0  0  0  0  0  0  0  0  0  0  0
   15.6526   35.3506   35.4130 C   0  0  0  0  0  0  0  0  0  0  0  0
   16.3794   34.6316   34.5041 N   0  0  0  0  0  0  0  0  0  0  0  0
   15.9000   35.1933   36.8089 N   0  0  0  0  0  0  0  0  0  0  0  0
    8.9996   45.4380   33.6722 H   0  0  0  0  0  0  0  0  0  0  0  0
   11.0502   46.2276   34.4983 H   0  0  0  0  0  0  0  0  0  0  0  0
   10.7765   46.9369   33.0159 H   0  0  0  0  0  0  0  0  0  0  0  0
    9.3646   43.8354   31.4710 H   0  0  0  0  0  0  0  0  0  0  0  0
   10.7411   44.9080   31.1835 H   0  0  0  0  0  0  0  0  0  0  0  0
    7.0146   44.7152   31.5861 H   0  0  0  0  0  0  0  0  0  0  0  0
   10.3463   47.1878   30.4052 H   0  0  0  0  0  0  0  0  0  0  0  0
    5.4660   46.2859   30.5164 H   0  0  0  0  0  0  0  0  0  0  0  0
    8.7916   48.7695   29.3397 H   0  0  0  0  0  0  0  0  0  0  0  0
    4.3422   48.4522   30.1770 H   0  0  0  0  0  0  0  0  0  0  0  0
    4.4688   47.5169   28.6547 H   0  0  0  0  0  0  0  0  0  0  0  0
    3.7447   50.7525   30.1812 H   0  0  0  0  0  0  0  0  0  0  0  0
    3.4934   50.7875   25.2300 H   0  0  0  0  0  0  0  0  0  0  0  0
    2.7487   52.6655   29.0017 H   0  0  0  0  0  0  0  0  0  0  0  0
    2.6099   52.6765   26.5319 H   0  0  0  0  0  0  0  0  0  0  0  0
   11.3944   41.5458   31.4720 H   0  0  0  0  0  0  0  0  0  0  0  0
    9.8289   40.7385   31.7615 H   0  0  0  0  0  0  0  0  0  0  0  0
   11.6994   39.5068   30.3484 H   0  0  0  0  0  0  0  0  0  0  0  0
   10.1090   38.2634   32.6632 H   0  0  0  0  0  0  0  0  0  0  0  0
   13.6662   37.4515   31.2224 H   0  0  0  0  0  0  0  0  0  0  0  0
    8.9008   38.6923   30.8794 H   0  0  0  0  0  0  0  0  0  0  0  0
   11.2650   36.3083   32.5087 H   0  0  0  0  0  0  0  0  0  0  0  0
   12.1372   35.5141   30.6163 H   0  0  0  0  0  0  0  0  0  0  0  0
   12.3297   38.3530   34.7450 H   0  0  0  0  0  0  0  0  0  0  0  0
   16.7558   34.1781   32.4619 H   0  0  0  0  0  0  0  0  0  0  0  0
   16.6346   34.5300   37.1414 H   0  0  0  0  0  0  0  0  0  0  0  0
   15.3533   35.7360   37.5138 H   0  0  0  0  0  0  0  0  0  0  0  0
  1  2  2  0
  1  3  1  0
  3  4  1  0
  4  5  1  0
  6  1  1  0
  7  6  1  0
  6  8  1  0
  8  9  1  0
  9 10  2  0
 11  9  1  0
 10 12  1  0
 13 11  2  0
 12 14  2  0
 14 13  1  0
 14 15  1  0
 15 16  1  0
 16 17  1  0
 17 18  2  0
 19 17  1  0
 18 20  1  0
 18 21  1  0
 22 19  2  0
 20 23  1  0
 20 24  2  0
 21 25  2  0
 25 22  1  0
  4 26  2  0
  4 27  1  0
 28 27  1  0
 28 29  1  0
 29 30  1  0
 29 31  1  0
 30 32  1  0
 31 33  1  0
 31 34  1  0
 34 32  1  0
 32 35  1  0
 34 36  1  0
 37 35  1  0
 38 35  1  0
 39 37  2  0
 37 40  1  0
 41 38  2  0
 42 39  1  0
 40 43  2  0
 40 41  1  0
 44 42  2  0
 44 43  1  0
 43 45  1  0
  6 46  1  1
  7 47  1  0
  7 48  1  0
  8 49  1  0
  8 50  1  0
 10 51  1  0
 11 52  1  0
 12 53  1  0
 13 54  1  0
 16 55  1  0
 16 56  1  0
 19 57  1  0
 21 58  1  0
 22 59  1  0
 25 60  1  0
 28 61  1  0
 28 62  1  0
 29 63  1  0
 31 64  1  0
 32 65  1  0
 33 66  1  0
 34 67  1  0
 36 68  1  0
 38 69  1  0
 42 70  1  0
 45 71  1  0
 45 72  1  0
M  CHG  3   5  -1  20   1  23  -1
M  END
>  <EmbedRMS>  (117) 
0.0826430191015

$$$$

     RDKit          3D

 72 76  0  0  0  0  0  0  0  0999 V2000
   10.2804   43.7664   33.8249 C   0  0  0  0  0  0  0  0  0  0  0  0
   11.4110   43.5918   34.3666 O   0  0  0  0  0  0  0  0  0  0  0  0
    9.3618   42.7250   33.7344 O   0  0  0  0  0  0  0  0  0  0  0  0
    9.8902   41.2265   34.2931 P   0  0  0  0  0  0  0  0  0  0  0  0
   10.3743   41.4563   35.8823 O   0  0  0  0  0  0  0  0  0  0  0  0
    9.9460   45.0737   33.2112 C   0  0  1  0  0  0  0  0  0  0  0  0
   11.0267   46.0292   33.4709 N   0  0  0  0  0  0  0  0  0  0  0  0
    9.7540   44.8542   31.6948 C   0  0  0  0  0  0  0  0  0  0  0  0
    8.7956   45.8412   31.0848 C   0  0  0  0  0  0  0  0  0  0  0  0
    7.4086   45.5999   31.1012 C   0  0  0  0  0  0  0  0  0  0  0  0
    9.2824   46.9881   30.4396 C   0  0  0  0  0  0  0  0  0  0  0  0
    6.5256   46.4989   30.4864 C   0  0  0  0  0  0  0  0  0  0  0  0
    8.3998   47.8878   29.8308 C   0  0  0  0  0  0  0  0  0  0  0  0
    7.0186   47.6543   29.8465 C   0  0  0  0  0  0  0  0  0  0  0  0
    6.1777   48.5854   29.2198 O   0  0  0  0  0  0  0  0  0  0  0  0
    4.7557   48.4782   29.1619 C   0  0  0  0  0  0  0  0  0  0  0  0
    4.1385   49.6467   28.4243 C   0  0  0  0  0  0  0  0  0  0  0  0
    2.8143   49.5725   27.9133 C   0  0  0  0  0  0  0  0  0  0  0  0
    4.8804   50.8302   28.2279 C   0  0  0  0  0  0  0  0  0  0  0  0
    1.9852   48.4142   28.1232 N   0  0  0  0  0  0  0  0  0  0  0  0
    2.2989   50.6564   27.1786 C   0  0  0  0  0  0  0  0  0  0  0  0
    4.3423   51.8992   27.5104 C   0  0  0  0  0  0  0  0  0  0  0  0
    1.9901   47.7581   29.3323 O   0  0  0  0  0  0  0  0  0  0  0  0
    1.1315   48.0927   27.2707 O   0  0  0  0  0  0  0  0  0  0  0  0
    3.0579   51.8095   26.9801 C   0  0  0  0  0  0  0  0  0  0  0  0
    8.8123   40.1844   34.2130 O   0  0  0  0  0  0  0  0  0  0  0  0
   11.2401   40.7949   33.3666 O   0  0  0  0  0  0  0  0  0  0  0  0
   10.9124   40.6859   31.9952 C   0  0  0  0  0  0  0  0  0  0  0  0
   11.5175   39.3786   31.4405 C   0  0  0  0  0  0  0  0  0  0  0  0
   12.7490   39.0864   32.0753 O   0  0  0  0  0  0  0  0  0  0  0  0
   10.6060   38.1867   31.6656 C   0  0  0  0  0  0  0  0  0  0  0  0
   12.9355   37.6796   32.0292 C   0  0  0  0  0  0  0  0  0  0  0  0
    9.6399   38.0903   30.6471 O   0  0  0  0  0  0  0  0  0  0  0  0
   11.5765   37.0145   31.7044 C   0  0  0  0  0  0  0  0  0  0  0  0
   13.4858   37.2125   33.3244 N   0  0  0  0  0  0  0  0  0  0  0  0
   11.6101   36.3397   30.4673 O   0  0  0  0  0  0  0  0  0  0  0  0
   14.4805   36.3319   33.5729 C   0  0  0  0  0  0  0  0  0  0  0  0
   13.1143   37.6276   34.5694 C   0  0  0  0  0  0  0  0  0  0  0  0
   15.2076   35.6153   32.6741 N   0  0  0  0  0  0  0  0  0  0  0  0
   14.6760   36.2304   34.9184 C   0  0  0  0  0  0  0  0  0  0  0  0
   13.8219   37.0449   35.5786 N   0  0  0  0  0  0  0  0  0  0  0  0
   16.1641   34.7600   33.1548 C   0  0  0  0  0  0  0  0  0  0  0  0
   15.6528   35.3505   35.4132 C   0  0  0  0  0  0  0  0  0  0  0  0
   16.3795   34.6314   34.5043 N   0  0  0  0  0  0  0  0  0  0  0  0
   15.9002   35.1931   36.8091 N   0  0  0  0  0  0  0  0  0  0  0  0
    8.9996   45.4382   33.6722 H   0  0  0  0  0  0  0  0  0  0  0  0
   11.0503   46.2277   34.4983 H   0  0  0  0  0  0  0  0  0  0  0  0
   10.7765   46.9369   33.0159 H   0  0  0  0  0  0  0  0  0  0  0  0
   10.7411   44.9080   31.1835 H   0  0  0  0  0  0  0  0  0  0  0  0
    9.3646   43.8355   31.4710 H   0  0  0  0  0  0  0  0  0  0  0  0
    7.0146   44.7151   31.5859 H   0  0  0  0  0  0  0  0  0  0  0  0
   10.3463   47.1879   30.4054 H   0  0  0  0  0  0  0  0  0  0  0  0
    5.4659   46.2856   30.5156 H   0  0  0  0  0  0  0  0  0  0  0  0
    8.7915   48.7698   29.3401 H   0  0  0  0  0  0  0  0  0  0  0  0
    4.3447   48.4485   30.1936 H   0  0  0  0  0  0  0  0  0  0  0  0
    4.5016   47.5365   28.6286 H   0  0  0  0  0  0  0  0  0  0  0  0
    5.8815   50.9346   28.6258 H   0  0  0  0  0  0  0  0  0  0  0  0
    1.2952   50.6162   26.7745 H   0  0  0  0  0  0  0  0  0  0  0  0
    4.9254   52.7991   27.3627 H   0  0  0  0  0  0  0  0  0  0  0  0
    2.6448   52.6395   26.4213 H   0  0  0  0  0  0  0  0  0  0  0  0
    9.8214   40.7199   31.7634 H   0  0  0  0  0  0  0  0  0  0  0  0
   11.3802   41.5436   31.4661 H   0  0  0  0  0  0  0  0  0  0  0  0
   11.6999   39.5040   30.3482 H   0  0  0  0  0  0  0  0  0  0  0  0
   10.1085   38.2766   32.6603 H   0  0  0  0  0  0  0  0  0  0  0  0
   13.6680   37.4521   31.2229 H   0  0  0  0  0  0  0  0  0  0  0  0
    9.0016   37.3867   30.9349 H   0  0  0  0  0  0  0  0  0  0  0  0
   11.2667   36.3062   32.5083 H   0  0  0  0  0  0  0  0  0  0  0  0
   12.1389   35.5126   30.6150 H   0  0  0  0  0  0  0  0  0  0  0  0
   12.3300   38.3529   34.7449 H   0  0  0  0  0  0  0  0  0  0  0  0
   16.7560   34.1779   32.4621 H   0  0  0  0  0  0  0  0  0  0  0  0
   15.3534   35.7359   37.5140 H   0  0  0  0  0  0  0  0  0  0  0  0
   16.6347   34.5298   37.1416 H   0  0  0  0  0  0  0  0  0  0  0  0
  1  2  2  0
  1  3  1  0
  3  4  1  0
  4  5  1  0
  6  1  1  0
  7  6  1  0
  6  8  1  0
  8  9  1  0
  9 10  2  0
 11  9  1  0
 10 12  1  0
 13 11  2  0
 12 14  2  0
 14 13  1  0
 14 15  1  0
 15 16  1  0
 16 17  1  0
 17 18  2  0
 19 17  1  0
 18 20  1  0
 18 21  1  0
 22 19  2  0
 20 23  1  0
 20 24  2  0
 21 25  2  0
 25 22  1  0
  4 26  2  0
  4 27  1  0
 28 27  1  0
 28 29  1  0
 29 30  1  0
 29 31  1  0
 30 32  1  0
 31 33  1  0
 31 34  1  0
 34 32  1  0
 32 35  1  0
 34 36  1  0
 37 35  1  0
 38 35  1  0
 39 37  2  0
 37 40  1  0
 41 38  2  0
 42 39  1  0
 40 43  2  0
 40 41  1  0
 44 42  2  0
 44 43  1  0
 43 45  1  0
  6 46  1  1
  7 47  1  0
  7 48  1  0
  8 49  1  0
  8 50  1  0
 10 51  1  0
 11 52  1  0
 12 53  1  0
 13 54  1  0
 16 55  1  0
 16 56  1  0
 19 57  1  0
 21 58  1  0
 22 59  1  0
 25 60  1  0
 28 61  1  0
 28 62  1  0
 29 63  1  0
 31 64  1  0
 32 65  1  0
 33 66  1  0
 34 67  1  0
 36 68  1  0
 38 69  1  0
 42 70  1  0
 45 71  1  0
 45 72  1  0
M  CHG  3   5  -1  20   1  23  -1
M  END
>  <EmbedRMS>  (118) 
0.0822081225659

$$$$

     RDKit          3D

 72 76  0  0  0  0  0  0  0  0999 V2000
   10.2803   43.7665   33.8250 C   0  0  0  0  0  0  0  0  0  0  0  0
   11.4110   43.5919   34.3666 O   0  0  0  0  0  0  0  0  0  0  0  0
    9.3616   42.7252   33.7348 O   0  0  0  0  0  0  0  0  0  0  0  0
    9.8896   41.2269   34.2945 P   0  0  0  0  0  0  0  0  0  0  0  0
   10.3731   41.4568   35.8838 O   0  0  0  0  0  0  0  0  0  0  0  0
    9.9459   45.0737   33.2112 C   0  0  1  0  0  0  0  0  0  0  0  0
   11.0266   46.0293   33.4709 N   0  0  0  0  0  0  0  0  0  0  0  0
    9.7540   44.8542   31.6949 C   0  0  0  0  0  0  0  0  0  0  0  0
    8.7957   45.8411   31.0847 C   0  0  0  0  0  0  0  0  0  0  0  0
    7.4090   45.6000   31.1009 C   0  0  0  0  0  0  0  0  0  0  0  0
    9.2824   46.9878   30.4393 C   0  0  0  0  0  0  0  0  0  0  0  0
    6.5264   46.4990   30.4860 C   0  0  0  0  0  0  0  0  0  0  0  0
    8.3995   47.8872   29.8308 C   0  0  0  0  0  0  0  0  0  0  0  0
    7.0179   47.6549   29.8473 C   0  0  0  0  0  0  0  0  0  0  0  0
    6.1790   48.5924   29.2237 O   0  0  0  0  0  0  0  0  0  0  0  0
    4.7515   48.5309   29.1815 C   0  0  0  0  0  0  0  0  0  0  0  0
    4.1432   48.7590   30.5492 C   0  0  0  0  0  0  0  0  0  0  0  0
    2.9654   48.0904   30.9742 C   0  0  0  0  0  0  0  0  0  0  0  0
    4.7016   49.7499   31.3793 C   0  0  0  0  0  0  0  0  0  0  0  0
    2.3144   47.1106   30.1527 N   0  0  0  0  0  0  0  0  0  0  0  0
    2.3974   48.4157   32.2176 C   0  0  0  0  0  0  0  0  0  0  0  0
    4.1324   50.0477   32.6183 C   0  0  0  0  0  0  0  0  0  0  0  0
    2.9814   45.9638   29.7910 O   0  0  0  0  0  0  0  0  0  0  0  0
    1.0777   47.1633   29.9915 O   0  0  0  0  0  0  0  0  0  0  0  0
    2.9830   49.3809   33.0374 C   0  0  0  0  0  0  0  0  0  0  0  0
    8.8122   40.1844   34.2135 O   0  0  0  0  0  0  0  0  0  0  0  0
   11.2401   40.7950   33.3698 O   0  0  0  0  0  0  0  0  0  0  0  0
   10.9143   40.6914   31.9981 C   0  0  0  0  0  0  0  0  0  0  0  0
   11.5269   39.3912   31.4385 C   0  0  0  0  0  0  0  0  0  0  0  0
   12.7519   39.0911   32.0837 O   0  0  0  0  0  0  0  0  0  0  0  0
   10.6113   38.1932   31.6451 C   0  0  0  0  0  0  0  0  0  0  0  0
   12.9413   37.6838   32.0297 C   0  0  0  0  0  0  0  0  0  0  0  0
    9.6064   38.0877   30.6599 O   0  0  0  0  0  0  0  0  0  0  0  0
   11.5822   37.0197   31.6877 C   0  0  0  0  0  0  0  0  0  0  0  0
   13.4840   37.2104   33.3254 N   0  0  0  0  0  0  0  0  0  0  0  0
   11.6179   36.3072   30.4690 O   0  0  0  0  0  0  0  0  0  0  0  0
   14.4797   36.3309   33.5738 C   0  0  0  0  0  0  0  0  0  0  0  0
   13.1137   37.6269   34.5702 C   0  0  0  0  0  0  0  0  0  0  0  0
   15.2074   35.6152   32.6747 N   0  0  0  0  0  0  0  0  0  0  0  0
   14.6756   36.2298   34.9190 C   0  0  0  0  0  0  0  0  0  0  0  0
   13.8217   37.0445   35.5793 N   0  0  0  0  0  0  0  0  0  0  0  0
   16.1643   34.7603   33.1551 C   0  0  0  0  0  0  0  0  0  0  0  0
   15.6528   35.3503   35.4136 C   0  0  0  0  0  0  0  0  0  0  0  0
   16.3798   34.6316   34.5046 N   0  0  0  0  0  0  0  0  0  0  0  0
   15.9004   35.1930   36.8094 N   0  0  0  0  0  0  0  0  0  0  0  0
    8.9995   45.4383   33.6721 H   0  0  0  0  0  0  0  0  0  0  0  0
   10.7764   46.9369   33.0159 H   0  0  0  0  0  0  0  0  0  0  0  0
   11.0501   46.2278   34.4983 H   0  0  0  0  0  0  0  0  0  0  0  0
   10.7412   44.9079   31.1836 H   0  0  0  0  0  0  0  0  0  0  0  0
    9.3646   43.8354   31.4711 H   0  0  0  0  0  0  0  0  0  0  0  0
    7.0146   44.7154   31.5858 H   0  0  0  0  0  0  0  0  0  0  0  0
   10.3463   47.1877   30.4050 H   0  0  0  0  0  0  0  0  0  0  0  0
    5.4696   46.2851   30.5168 H   0  0  0  0  0  0  0  0  0  0  0  0
    8.7913   48.7698   29.3413 H   0  0  0  0  0  0  0  0  0  0  0  0
    4.3949   49.3429   28.5142 H   0  0  0  0  0  0  0  0  0  0  0  0
    4.4400   47.5765   28.7163 H   0  0  0  0  0  0  0  0  0  0  0  0
    5.5795   50.3006   31.0645 H   0  0  0  0  0  0  0  0  0  0  0  0
    1.4995   47.9124   32.5541 H   0  0  0  0  0  0  0  0  0  0  0  0
    4.5778   50.8056   33.2497 H   0  0  0  0  0  0  0  0  0  0  0  0
    2.5393   49.6182   33.9958 H   0  0  0  0  0  0  0  0  0  0  0  0
    9.8233   40.7200   31.7652 H   0  0  0  0  0  0  0  0  0  0  0  0
   11.3775   41.5548   31.4741 H   0  0  0  0  0  0  0  0  0  0  0  0
   11.7312   39.5362   30.3532 H   0  0  0  0  0  0  0  0  0  0  0  0
   10.1202   38.2696   32.6410 H   0  0  0  0  0  0  0  0  0  0  0  0
   13.6850   37.4639   31.2321 H   0  0  0  0  0  0  0  0  0  0  0  0
   10.0251   38.1792   29.7654 H   0  0  0  0  0  0  0  0  0  0  0  0
   11.2757   36.3135   32.4907 H   0  0  0  0  0  0  0  0  0  0  0  0
   11.9838   36.9111   29.7708 H   0  0  0  0  0  0  0  0  0  0  0  0
   12.3307   38.3536   34.7458 H   0  0  0  0  0  0  0  0  0  0  0  0
   16.7566   34.1787   32.4623 H   0  0  0  0  0  0  0  0  0  0  0  0
   16.6353   34.5301   37.1419 H   0  0  0  0  0  0  0  0  0  0  0  0
   15.3535   35.7355   37.5144 H   0  0  0  0  0  0  0  0  0  0  0  0
  1  2  2  0
  1  3  1  0
  3  4  1  0
  4  5  1  0
  6  1  1  0
  7  6  1  0
  6  8  1  0
  8  9  1  0
  9 10  2  0
 11  9  1  0
 10 12  1  0
 13 11  2  0
 12 14  2  0
 14 13  1  0
 14 15  1  0
 15 16  1  0
 16 17  1  0
 17 18  2  0
 19 17  1  0
 18 20  1  0
 18 21  1  0
 22 19  2  0
 20 23  1  0
 20 24  2  0
 21 25  2  0
 25 22  1  0
  4 26  2  0
  4 27  1  0
 28 27  1  0
 28 29  1  0
 29 30  1  0
 29 31  1  0
 30 32  1  0
 31 33  1  0
 31 34  1  0
 34 32  1  0
 32 35  1  0
 34 36  1  0
 37 35  1  0
 38 35  1  0
 39 37  2  0
 37 40  1  0
 41 38  2  0
 42 39  1  0
 40 43  2  0
 40 41  1  0
 44 42  2  0
 44 43  1  0
 43 45  1  0
  6 46  1  1
  7 47  1  0
  7 48  1  0
  8 49  1  0
  8 50  1  0
 10 51  1  0
 11 52  1  0
 12 53  1  0
 13 54  1  0
 16 55  1  0
 16 56  1  0
 19 57  1  0
 21 58  1  0
 22 59  1  0
 25 60  1  0
 28 61  1  0
 28 62  1  0
 29 63  1  0
 31 64  1  0
 32 65  1  0
 33 66  1  0
 34 67  1  0
 36 68  1  0
 38 69  1  0
 42 70  1  0
 45 71  1  0
 45 72  1  0
M  CHG  3   5  -1  20   1  23  -1
M  END
>  <EmbedRMS>  (119) 
0.0806470256258

$$$$

     RDKit          3D

 72 76  0  0  0  0  0  0  0  0999 V2000
   10.2838   43.7626   33.8275 C   0  0  0  0  0  0  0  0  0  0  0  0
   11.4103   43.5863   34.3766 O   0  0  0  0  0  0  0  0  0  0  0  0
    9.3630   42.7236   33.7354 O   0  0  0  0  0  0  0  0  0  0  0  0
    9.8893   41.2249   34.2943 P   0  0  0  0  0  0  0  0  0  0  0  0
   10.3727   41.4546   35.8837 O   0  0  0  0  0  0  0  0  0  0  0  0
    9.9549   45.0700   33.2063 C   0  0  1  0  0  0  0  0  0  0  0  0
   11.0198   46.0481   33.4570 N   0  0  0  0  0  0  0  0  0  0  0  0
    9.7506   44.8511   31.6921 C   0  0  0  0  0  0  0  0  0  0  0  0
    8.7944   45.8417   31.0867 C   0  0  0  0  0  0  0  0  0  0  0  0
    7.4076   45.6006   31.1007 C   0  0  0  0  0  0  0  0  0  0  0  0
    9.2826   46.9895   30.4449 C   0  0  0  0  0  0  0  0  0  0  0  0
    6.5257   46.5002   30.4862 C   0  0  0  0  0  0  0  0  0  0  0  0
    8.4008   47.8887   29.8337 C   0  0  0  0  0  0  0  0  0  0  0  0
    7.0195   47.6544   29.8442 C   0  0  0  0  0  0  0  0  0  0  0  0
    6.1819   48.5859   29.2093 O   0  0  0  0  0  0  0  0  0  0  0  0
    4.7692   48.4469   29.0490 C   0  0  0  0  0  0  0  0  0  0  0  0
    4.4456   47.3460   28.0623 C   0  0  0  0  0  0  0  0  0  0  0  0
    3.4940   46.3285   28.3369 C   0  0  0  0  0  0  0  0  0  0  0  0
    5.1450   47.3170   26.8419 C   0  0  0  0  0  0  0  0  0  0  0  0
    2.6781   46.3517   29.5181 N   0  0  0  0  0  0  0  0  0  0  0  0
    3.3268   45.2779   27.4190 C   0  0  0  0  0  0  0  0  0  0  0  0
    4.9496   46.2763   25.9329 C   0  0  0  0  0  0  0  0  0  0  0  0
    2.3581   45.1726   30.1506 O   0  0  0  0  0  0  0  0  0  0  0  0
    2.0624   47.3908   29.8332 O   0  0  0  0  0  0  0  0  0  0  0  0
    4.0503   45.2526   26.2259 C   0  0  0  0  0  0  0  0  0  0  0  0
    8.8113   40.1834   34.2130 O   0  0  0  0  0  0  0  0  0  0  0  0
   11.2399   40.7932   33.3693 O   0  0  0  0  0  0  0  0  0  0  0  0
   10.9143   40.6896   31.9973 C   0  0  0  0  0  0  0  0  0  0  0  0
   11.5260   39.3884   31.4375 C   0  0  0  0  0  0  0  0  0  0  0  0
   12.7504   39.0887   32.0815 O   0  0  0  0  0  0  0  0  0  0  0  0
   10.6115   38.1909   31.6460 C   0  0  0  0  0  0  0  0  0  0  0  0
   12.9357   37.6812   32.0303 C   0  0  0  0  0  0  0  0  0  0  0  0
    9.6145   38.0858   30.6533 O   0  0  0  0  0  0  0  0  0  0  0  0
   11.5769   37.0148   31.7012 C   0  0  0  0  0  0  0  0  0  0  0  0
   13.4849   37.2112   33.3247 N   0  0  0  0  0  0  0  0  0  0  0  0
   11.6193   36.3260   30.4724 O   0  0  0  0  0  0  0  0  0  0  0  0
   14.4802   36.3313   33.5730 C   0  0  0  0  0  0  0  0  0  0  0  0
   13.1141   37.6268   34.5697 C   0  0  0  0  0  0  0  0  0  0  0  0
   15.2075   35.6151   32.6741 N   0  0  0  0  0  0  0  0  0  0  0  0
   14.6761   36.2300   34.9184 C   0  0  0  0  0  0  0  0  0  0  0  0
   13.8220   37.0445   35.5789 N   0  0  0  0  0  0  0  0  0  0  0  0
   16.1642   34.7600   33.1547 C   0  0  0  0  0  0  0  0  0  0  0  0
   15.6529   35.3503   35.4131 C   0  0  0  0  0  0  0  0  0  0  0  0
   16.3797   34.6314   34.5042 N   0  0  0  0  0  0  0  0  0  0  0  0
   15.9004   35.1930   36.8090 N   0  0  0  0  0  0  0  0  0  0  0  0
    9.0099   45.4349   33.6668 H   0  0  0  0  0  0  0  0  0  0  0  0
   11.9349   45.6933   33.0928 H   0  0  0  0  0  0  0  0  0  0  0  0
   11.1132   46.1992   34.4884 H   0  0  0  0  0  0  0  0  0  0  0  0
   10.7309   44.8931   31.1675 H   0  0  0  0  0  0  0  0  0  0  0  0
    9.3519   43.8344   31.4757 H   0  0  0  0  0  0  0  0  0  0  0  0
    7.0124   44.7158   31.5846 H   0  0  0  0  0  0  0  0  0  0  0  0
   10.3466   47.1899   30.4155 H   0  0  0  0  0  0  0  0  0  0  0  0
    5.4672   46.2876   30.5210 H   0  0  0  0  0  0  0  0  0  0  0  0
    8.7938   48.7703   29.3433 H   0  0  0  0  0  0  0  0  0  0  0  0
    4.3706   49.4009   28.6453 H   0  0  0  0  0  0  0  0  0  0  0  0
    4.3094   48.2931   30.0452 H   0  0  0  0  0  0  0  0  0  0  0  0
    5.8617   48.0932   26.6028 H   0  0  0  0  0  0  0  0  0  0  0  0
    2.6123   44.4887   27.6165 H   0  0  0  0  0  0  0  0  0  0  0  0
    5.5032   46.2594   25.0029 H   0  0  0  0  0  0  0  0  0  0  0  0
    3.9041   44.4438   25.5217 H   0  0  0  0  0  0  0  0  0  0  0  0
    9.8233   40.7192   31.7644 H   0  0  0  0  0  0  0  0  0  0  0  0
   11.3782   41.5525   31.4732 H   0  0  0  0  0  0  0  0  0  0  0  0
   11.7283   39.5312   30.3515 H   0  0  0  0  0  0  0  0  0  0  0  0
   10.1127   38.2733   32.6376 H   0  0  0  0  0  0  0  0  0  0  0  0
   13.6692   37.4565   31.2242 H   0  0  0  0  0  0  0  0  0  0  0  0
   10.0533   38.1118   29.7635 H   0  0  0  0  0  0  0  0  0  0  0  0
   11.2607   36.3147   32.5101 H   0  0  0  0  0  0  0  0  0  0  0  0
   12.1496   35.5022   30.6323 H   0  0  0  0  0  0  0  0  0  0  0  0
   12.3301   38.3524   34.7455 H   0  0  0  0  0  0  0  0  0  0  0  0
   16.7563   34.1780   32.4619 H   0  0  0  0  0  0  0  0  0  0  0  0
   15.3535   35.7357   37.5139 H   0  0  0  0  0  0  0  0  0  0  0  0
   16.6350   34.5298   37.1416 H   0  0  0  0  0  0  0  0  0  0  0  0
  1  2  2  0
  1  3  1  0
  3  4  1  0
  4  5  1  0
  6  1  1  0
  7  6  1  0
  6  8  1  0
  8  9  1  0
  9 10  2  0
 11  9  1  0
 10 12  1  0
 13 11  2  0
 12 14  2  0
 14 13  1  0
 14 15  1  0
 15 16  1  0
 16 17  1  0
 17 18  2  0
 19 17  1  0
 18 20  1  0
 18 21  1  0
 22 19  2  0
 20 23  1  0
 20 24  2  0
 21 25  2  0
 25 22  1  0
  4 26  2  0
  4 27  1  0
 28 27  1  0
 28 29  1  0
 29 30  1  0
 29 31  1  0
 30 32  1  0
 31 33  1  0
 31 34  1  0
 34 32  1  0
 32 35  1  0
 34 36  1  0
 37 35  1  0
 38 35  1  0
 39 37  2  0
 37 40  1  0
 41 38  2  0
 42 39  1  0
 40 43  2  0
 40 41  1  0
 44 42  2  0
 44 43  1  0
 43 45  1  0
  6 46  1  1
  7 47  1  0
  7 48  1  0
  8 49  1  0
  8 50  1  0
 10 51  1  0
 11 52  1  0
 12 53  1  0
 13 54  1  0
 16 55  1  0
 16 56  1  0
 19 57  1  0
 21 58  1  0
 22 59  1  0
 25 60  1  0
 28 61  1  0
 28 62  1  0
 29 63  1  0
 31 64  1  0
 32 65  1  0
 33 66  1  0
 34 67  1  0
 36 68  1  0
 38 69  1  0
 42 70  1  0
 45 71  1  0
 45 72  1  0
M  CHG  3   5  -1  20   1  23  -1
M  END
>  <EmbedRMS>  (120) 
0.0825197456646

$$$$

     RDKit          3D

 72 76  0  0  0  0  0  0  0  0999 V2000
   10.2835   43.7662   33.8256 C   0  0  0  0  0  0  0  0  0  0  0  0
   11.4102   43.5930   34.3752 O   0  0  0  0  0  0  0  0  0  0  0  0
    9.3638   42.7255   33.7348 O   0  0  0  0  0  0  0  0  0  0  0  0
    9.8906   41.2266   34.2933 P   0  0  0  0  0  0  0  0  0  0  0  0
   10.3743   41.4557   35.8827 O   0  0  0  0  0  0  0  0  0  0  0  0
    9.9547   45.0695   33.2035 C   0  0  1  0  0  0  0  0  0  0  0  0
   11.0274   46.0322   33.4759 N   0  0  0  0  0  0  0  0  0  0  0  0
    9.7471   44.8484   31.6875 C   0  0  0  0  0  0  0  0  0  0  0  0
    8.7924   45.8409   31.0844 C   0  0  0  0  0  0  0  0  0  0  0  0
    7.4055   45.6009   31.0994 C   0  0  0  0  0  0  0  0  0  0  0  0
    9.2818   46.9881   30.4420 C   0  0  0  0  0  0  0  0  0  0  0  0
    6.5241   46.5011   30.4849 C   0  0  0  0  0  0  0  0  0  0  0  0
    8.4006   47.8885   29.8322 C   0  0  0  0  0  0  0  0  0  0  0  0
    7.0190   47.6562   29.8461 C   0  0  0  0  0  0  0  0  0  0  0  0
    6.1799   48.5892   29.2199 O   0  0  0  0  0  0  0  0  0  0  0  0
    4.7594   48.4886   29.1672 C   0  0  0  0  0  0  0  0  0  0  0  0
    4.2010   49.6825   28.4382 C   0  0  0  0  0  0  0  0  0  0  0  0
    3.9607   50.9224   29.0888 C   0  0  0  0  0  0  0  0  0  0  0  0
    3.8858   49.5489   27.0737 C   0  0  0  0  0  0  0  0  0  0  0  0
    4.2849   51.1285   30.4763 N   0  0  0  0  0  0  0  0  0  0  0  0
    3.3782   51.9754   28.3588 C   0  0  0  0  0  0  0  0  0  0  0  0
    3.3234   50.6113   26.3652 C   0  0  0  0  0  0  0  0  0  0  0  0
    5.4426   50.6137   31.0116 O   0  0  0  0  0  0  0  0  0  0  0  0
    3.6042   51.9147   31.1673 O   0  0  0  0  0  0  0  0  0  0  0  0
    3.0652   51.8203   27.0077 C   0  0  0  0  0  0  0  0  0  0  0  0
    8.8122   40.1851   34.2127 O   0  0  0  0  0  0  0  0  0  0  0  0
   11.2406   40.7945   33.3670 O   0  0  0  0  0  0  0  0  0  0  0  0
   10.9134   40.6866   31.9954 C   0  0  0  0  0  0  0  0  0  0  0  0
   11.5167   39.3787   31.4404 C   0  0  0  0  0  0  0  0  0  0  0  0
   12.7486   39.0849   32.0734 O   0  0  0  0  0  0  0  0  0  0  0  0
   10.6039   38.1884   31.6669 C   0  0  0  0  0  0  0  0  0  0  0  0
   12.9329   37.6776   32.0284 C   0  0  0  0  0  0  0  0  0  0  0  0
    9.6374   38.0938   30.6484 O   0  0  0  0  0  0  0  0  0  0  0  0
   11.5737   37.0141   31.7055 C   0  0  0  0  0  0  0  0  0  0  0  0
   13.4853   37.2120   33.3238 N   0  0  0  0  0  0  0  0  0  0  0  0
   11.6210   36.3379   30.4683 O   0  0  0  0  0  0  0  0  0  0  0  0
   14.4804   36.3319   33.5726 C   0  0  0  0  0  0  0  0  0  0  0  0
   13.1141   37.6275   34.5689 C   0  0  0  0  0  0  0  0  0  0  0  0
   15.2076   35.6152   32.6740 N   0  0  0  0  0  0  0  0  0  0  0  0
   14.6761   36.2306   34.9181 C   0  0  0  0  0  0  0  0  0  0  0  0
   13.8218   37.0451   35.5783 N   0  0  0  0  0  0  0  0  0  0  0  0
   16.1642   34.7600   33.1548 C   0  0  0  0  0  0  0  0  0  0  0  0
   15.6528   35.3507   35.4131 C   0  0  0  0  0  0  0  0  0  0  0  0
   16.3795   34.6315   34.5043 N   0  0  0  0  0  0  0  0  0  0  0  0
   15.9000   35.1933   36.8090 N   0  0  0  0  0  0  0  0  0  0  0  0
    9.0121   45.4317   33.6713 H   0  0  0  0  0  0  0  0  0  0  0  0
   10.7261   46.9688   33.1215 H   0  0  0  0  0  0  0  0  0  0  0  0
   11.8908   45.7659   32.9475 H   0  0  0  0  0  0  0  0  0  0  0  0
    9.3425   43.8331   31.4758 H   0  0  0  0  0  0  0  0  0  0  0  0
   10.7235   44.8825   31.1557 H   0  0  0  0  0  0  0  0  0  0  0  0
    7.0099   44.7155   31.5819 H   0  0  0  0  0  0  0  0  0  0  0  0
   10.3461   47.1864   30.4105 H   0  0  0  0  0  0  0  0  0  0  0  0
    5.4644   46.2884   30.5125 H   0  0  0  0  0  0  0  0  0  0  0  0
    8.7936   48.7708   29.3430 H   0  0  0  0  0  0  0  0  0  0  0  0
    4.3332   48.4326   30.1918 H   0  0  0  0  0  0  0  0  0  0  0  0
    4.4796   47.5498   28.6403 H   0  0  0  0  0  0  0  0  0  0  0  0
    4.0701   48.6155   26.5559 H   0  0  0  0  0  0  0  0  0  0  0  0
    3.1813   52.9279   28.8345 H   0  0  0  0  0  0  0  0  0  0  0  0
    3.0826   50.4947   25.3164 H   0  0  0  0  0  0  0  0  0  0  0  0
    2.6255   52.6418   26.4568 H   0  0  0  0  0  0  0  0  0  0  0  0
    9.8225   40.7225   31.7631 H   0  0  0  0  0  0  0  0  0  0  0  0
   11.3828   41.5438   31.4669 H   0  0  0  0  0  0  0  0  0  0  0  0
   11.6978   39.5037   30.3478 H   0  0  0  0  0  0  0  0  0  0  0  0
   10.1084   38.2787   32.6627 H   0  0  0  0  0  0  0  0  0  0  0  0
   13.6638   37.4472   31.2214 H   0  0  0  0  0  0  0  0  0  0  0  0
    8.9763   37.4191   30.9532 H   0  0  0  0  0  0  0  0  0  0  0  0
   11.2821   36.3054   32.5172 H   0  0  0  0  0  0  0  0  0  0  0  0
   10.8658   35.6935   30.4653 H   0  0  0  0  0  0  0  0  0  0  0  0
   12.3293   38.3523   34.7445 H   0  0  0  0  0  0  0  0  0  0  0  0
   16.7561   34.1778   32.4621 H   0  0  0  0  0  0  0  0  0  0  0  0
   16.6345   34.5300   37.1416 H   0  0  0  0  0  0  0  0  0  0  0  0
   15.3533   35.7361   37.5138 H   0  0  0  0  0  0  0  0  0  0  0  0
  1  2  2  0
  1  3  1  0
  3  4  1  0
  4  5  1  0
  6  1  1  0
  7  6  1  0
  6  8  1  0
  8  9  1  0
  9 10  2  0
 11  9  1  0
 10 12  1  0
 13 11  2  0
 12 14  2  0
 14 13  1  0
 14 15  1  0
 15 16  1  0
 16 17  1  0
 17 18  2  0
 19 17  1  0
 18 20  1  0
 18 21  1  0
 22 19  2  0
 20 23  1  0
 20 24  2  0
 21 25  2  0
 25 22  1  0
  4 26  2  0
  4 27  1  0
 28 27  1  0
 28 29  1  0
 29 30  1  0
 29 31  1  0
 30 32  1  0
 31 33  1  0
 31 34  1  0
 34 32  1  0
 32 35  1  0
 34 36  1  0
 37 35  1  0
 38 35  1  0
 39 37  2  0
 37 40  1  0
 41 38  2  0
 42 39  1  0
 40 43  2  0
 40 41  1  0
 44 42  2  0
 44 43  1  0
 43 45  1  0
  6 46  1  1
  7 47  1  0
  7 48  1  0
  8 49  1  0
  8 50  1  0
 10 51  1  0
 11 52  1  0
 12 53  1  0
 13 54  1  0
 16 55  1  0
 16 56  1  0
 19 57  1  0
 21 58  1  0
 22 59  1  0
 25 60  1  0
 28 61  1  0
 28 62  1  0
 29 63  1  0
 31 64  1  0
 32 65  1  0
 33 66  1  0
 34 67  1  0
 36 68  1  0
 38 69  1  0
 42 70  1  0
 45 71  1  0
 45 72  1  0
M  CHG  3   5  -1  20   1  23  -1
M  END
>  <EmbedRMS>  (121) 
0.0825453666905

$$$$

     RDKit          3D

 72 76  0  0  0  0  0  0  0  0999 V2000
   10.2804   43.7664   33.8249 C   0  0  0  0  0  0  0  0  0  0  0  0
   11.4111   43.5919   34.3667 O   0  0  0  0  0  0  0  0  0  0  0  0
    9.3619   42.7249   33.7346 O   0  0  0  0  0  0  0  0  0  0  0  0
    9.8900   41.2267   34.2944 P   0  0  0  0  0  0  0  0  0  0  0  0
   10.3728   41.4567   35.8838 O   0  0  0  0  0  0  0  0  0  0  0  0
    9.9460   45.0736   33.2111 C   0  0  1  0  0  0  0  0  0  0  0  0
   11.0267   46.0292   33.4708 N   0  0  0  0  0  0  0  0  0  0  0  0
    9.7540   44.8541   31.6947 C   0  0  0  0  0  0  0  0  0  0  0  0
    8.7957   45.8410   31.0845 C   0  0  0  0  0  0  0  0  0  0  0  0
    7.4089   45.6000   31.1014 C   0  0  0  0  0  0  0  0  0  0  0  0
    9.2823   46.9882   30.4401 C   0  0  0  0  0  0  0  0  0  0  0  0
    6.5259   46.4992   30.4873 C   0  0  0  0  0  0  0  0  0  0  0  0
    8.3996   47.8880   29.8318 C   0  0  0  0  0  0  0  0  0  0  0  0
    7.0184   47.6537   29.8447 C   0  0  0  0  0  0  0  0  0  0  0  0
    6.1797   48.5853   29.2115 O   0  0  0  0  0  0  0  0  0  0  0  0
    4.7670   48.4452   29.0519 C   0  0  0  0  0  0  0  0  0  0  0  0
    4.4442   47.3457   28.0634 C   0  0  0  0  0  0  0  0  0  0  0  0
    3.4959   46.3250   28.3375 C   0  0  0  0  0  0  0  0  0  0  0  0
    5.1414   47.3212   26.8416 C   0  0  0  0  0  0  0  0  0  0  0  0
    2.6824   46.3432   29.5204 N   0  0  0  0  0  0  0  0  0  0  0  0
    3.3296   45.2761   27.4175 C   0  0  0  0  0  0  0  0  0  0  0  0
    4.9469   46.2821   25.9305 C   0  0  0  0  0  0  0  0  0  0  0  0
    2.3675   45.1618   30.1513 O   0  0  0  0  0  0  0  0  0  0  0  0
    2.0638   47.3796   29.8387 O   0  0  0  0  0  0  0  0  0  0  0  0
    4.0509   45.2555   26.2229 C   0  0  0  0  0  0  0  0  0  0  0  0
    8.8127   40.1842   34.2128 O   0  0  0  0  0  0  0  0  0  0  0  0
   11.2414   40.7950   33.3705 O   0  0  0  0  0  0  0  0  0  0  0  0
   10.9178   40.6921   31.9983 C   0  0  0  0  0  0  0  0  0  0  0  0
   11.5175   39.3837   31.4423 C   0  0  0  0  0  0  0  0  0  0  0  0
   12.7507   39.0887   32.0753 O   0  0  0  0  0  0  0  0  0  0  0  0
   10.6027   38.1916   31.6659 C   0  0  0  0  0  0  0  0  0  0  0  0
   12.9384   37.6819   32.0278 C   0  0  0  0  0  0  0  0  0  0  0  0
    9.6371   38.0805   30.6470 O   0  0  0  0  0  0  0  0  0  0  0  0
   11.5780   37.0215   31.6935 C   0  0  0  0  0  0  0  0  0  0  0  0
   13.4844   37.2119   33.3242 N   0  0  0  0  0  0  0  0  0  0  0  0
   11.6095   36.3201   30.4679 O   0  0  0  0  0  0  0  0  0  0  0  0
   14.4797   36.3318   33.5730 C   0  0  0  0  0  0  0  0  0  0  0  0
   13.1136   37.6278   34.5691 C   0  0  0  0  0  0  0  0  0  0  0  0
   15.2073   35.6155   32.6742 N   0  0  0  0  0  0  0  0  0  0  0  0
   14.6754   36.2305   34.9184 C   0  0  0  0  0  0  0  0  0  0  0  0
   13.8213   37.0452   35.5785 N   0  0  0  0  0  0  0  0  0  0  0  0
   16.1640   34.7604   33.1549 C   0  0  0  0  0  0  0  0  0  0  0  0
   15.6525   35.3507   35.4132 C   0  0  0  0  0  0  0  0  0  0  0  0
   16.3794   34.6318   34.5044 N   0  0  0  0  0  0  0  0  0  0  0  0
   15.9000   35.1934   36.8091 N   0  0  0  0  0  0  0  0  0  0  0  0
    8.9995   45.4381   33.6720 H   0  0  0  0  0  0  0  0  0  0  0  0
   10.7764   46.9368   33.0158 H   0  0  0  0  0  0  0  0  0  0  0  0
   11.0502   46.2277   34.4982 H   0  0  0  0  0  0  0  0  0  0  0  0
   10.7412   44.9078   31.1834 H   0  0  0  0  0  0  0  0  0  0  0  0
    9.3646   43.8353   31.4710 H   0  0  0  0  0  0  0  0  0  0  0  0
    7.0146   44.7160   31.5873 H   0  0  0  0  0  0  0  0  0  0  0  0
   10.3462   47.1882   30.4060 H   0  0  0  0  0  0  0  0  0  0  0  0
    5.4675   46.2867   30.5240 H   0  0  0  0  0  0  0  0  0  0  0  0
    8.7917   48.7694   29.3403 H   0  0  0  0  0  0  0  0  0  0  0  0
    4.3078   48.2894   30.0480 H   0  0  0  0  0  0  0  0  0  0  0  0
    4.3672   49.3995   28.6500 H   0  0  0  0  0  0  0  0  0  0  0  0
    5.8557   48.0999   26.6030 H   0  0  0  0  0  0  0  0  0  0  0  0
    2.6176   44.4846   27.6147 H   0  0  0  0  0  0  0  0  0  0  0  0
    5.4988   46.2689   24.9995 H   0  0  0  0  0  0  0  0  0  0  0  0
    3.9054   44.4479   25.5171 H   0  0  0  0  0  0  0  0  0  0  0  0
   11.3950   41.5477   31.4741 H   0  0  0  0  0  0  0  0  0  0  0  0
    9.8290   40.7408   31.7625 H   0  0  0  0  0  0  0  0  0  0  0  0
   11.6982   39.5114   30.3500 H   0  0  0  0  0  0  0  0  0  0  0  0
   10.1117   38.2604   32.6661 H   0  0  0  0  0  0  0  0  0  0  0  0
   13.6767   37.4556   31.2267 H   0  0  0  0  0  0  0  0  0  0  0  0
    8.8960   38.6950   30.8872 H   0  0  0  0  0  0  0  0  0  0  0  0
   11.2791   36.3072   32.4922 H   0  0  0  0  0  0  0  0  0  0  0  0
   11.8828   36.9598   29.7589 H   0  0  0  0  0  0  0  0  0  0  0  0
   12.3300   38.3539   34.7446 H   0  0  0  0  0  0  0  0  0  0  0  0
   16.7562   34.1785   32.4622 H   0  0  0  0  0  0  0  0  0  0  0  0
   15.3531   35.7360   37.5140 H   0  0  0  0  0  0  0  0  0  0  0  0
   16.6347   34.5303   37.1416 H   0  0  0  0  0  0  0  0  0  0  0  0
  1  2  2  0
  1  3  1  0
  3  4  1  0
  4  5  1  0
  6  1  1  0
  7  6  1  0
  6  8  1  0
  8  9  1  0
  9 10  2  0
 11  9  1  0
 10 12  1  0
 13 11  2  0
 12 14  2  0
 14 13  1  0
 14 15  1  0
 15 16  1  0
 16 17  1  0
 17 18  2  0
 19 17  1  0
 18 20  1  0
 18 21  1  0
 22 19  2  0
 20 23  1  0
 20 24  2  0
 21 25  2  0
 25 22  1  0
  4 26  2  0
  4 27  1  0
 28 27  1  0
 28 29  1  0
 29 30  1  0
 29 31  1  0
 30 32  1  0
 31 33  1  0
 31 34  1  0
 34 32  1  0
 32 35  1  0
 34 36  1  0
 37 35  1  0
 38 35  1  0
 39 37  2  0
 37 40  1  0
 41 38  2  0
 42 39  1  0
 40 43  2  0
 40 41  1  0
 44 42  2  0
 44 43  1  0
 43 45  1  0
  6 46  1  1
  7 47  1  0
  7 48  1  0
  8 49  1  0
  8 50  1  0
 10 51  1  0
 11 52  1  0
 12 53  1  0
 13 54  1  0
 16 55  1  0
 16 56  1  0
 19 57  1  0
 21 58  1  0
 22 59  1  0
 25 60  1  0
 28 61  1  0
 28 62  1  0
 29 63  1  0
 31 64  1  0
 32 65  1  0
 33 66  1  0
 34 67  1  0
 36 68  1  0
 38 69  1  0
 42 70  1  0
 45 71  1  0
 45 72  1  0
M  CHG  3   5  -1  20   1  23  -1
M  END
>  <EmbedRMS>  (122) 
0.0817922810709

$$$$

     RDKit          3D

 72 76  0  0  0  0  0  0  0  0999 V2000
   10.2803   43.7665   33.8251 C   0  0  0  0  0  0  0  0  0  0  0  0
   11.4110   43.5918   34.3666 O   0  0  0  0  0  0  0  0  0  0  0  0
    9.3616   42.7251   33.7349 O   0  0  0  0  0  0  0  0  0  0  0  0
    9.8896   41.2269   34.2945 P   0  0  0  0  0  0  0  0  0  0  0  0
   10.3732   41.4568   35.8838 O   0  0  0  0  0  0  0  0  0  0  0  0
    9.9459   45.0736   33.2112 C   0  0  1  0  0  0  0  0  0  0  0  0
   11.0267   46.0291   33.4706 N   0  0  0  0  0  0  0  0  0  0  0  0
    9.7535   44.8539   31.6950 C   0  0  0  0  0  0  0  0  0  0  0  0
    8.7955   45.8411   31.0848 C   0  0  0  0  0  0  0  0  0  0  0  0
    7.4085   45.6005   31.1008 C   0  0  0  0  0  0  0  0  0  0  0  0
    9.2831   46.9879   30.4398 C   0  0  0  0  0  0  0  0  0  0  0  0
    6.5278   46.5010   30.4854 C   0  0  0  0  0  0  0  0  0  0  0  0
    8.4025   47.8894   29.8302 C   0  0  0  0  0  0  0  0  0  0  0  0
    7.0139   47.6508   29.8481 C   0  0  0  0  0  0  0  0  0  0  0  0
    6.0918   48.5218   29.2498 O   0  0  0  0  0  0  0  0  0  0  0  0
    6.4430   49.7242   28.5659 C   0  0  0  0  0  0  0  0  0  0  0  0
    5.2222   50.4407   28.0282 C   0  0  0  0  0  0  0  0  0  0  0  0
    5.2961   51.7972   27.6055 C   0  0  0  0  0  0  0  0  0  0  0  0
    3.9840   49.7688   27.9499 C   0  0  0  0  0  0  0  0  0  0  0  0
    6.5325   52.5354   27.6191 N   0  0  0  0  0  0  0  0  0  0  0  0
    4.1264   52.4463   27.1716 C   0  0  0  0  0  0  0  0  0  0  0  0
    2.8405   50.4294   27.4995 C   0  0  0  0  0  0  0  0  0  0  0  0
    6.5156   53.9003   27.7929 O   0  0  0  0  0  0  0  0  0  0  0  0
    7.6086   51.9850   27.3082 O   0  0  0  0  0  0  0  0  0  0  0  0
    2.9098   51.7667   27.1183 C   0  0  0  0  0  0  0  0  0  0  0  0
    8.8122   40.1844   34.2135 O   0  0  0  0  0  0  0  0  0  0  0  0
   11.2401   40.7949   33.3698 O   0  0  0  0  0  0  0  0  0  0  0  0
   10.9143   40.6914   31.9981 C   0  0  0  0  0  0  0  0  0  0  0  0
   11.5269   39.3911   31.4385 C   0  0  0  0  0  0  0  0  0  0  0  0
   12.7519   39.0911   32.0837 O   0  0  0  0  0  0  0  0  0  0  0  0
   10.6113   38.1932   31.6451 C   0  0  0  0  0  0  0  0  0  0  0  0
   12.9413   37.6838   32.0297 C   0  0  0  0  0  0  0  0  0  0  0  0
    9.6064   38.0877   30.6599 O   0  0  0  0  0  0  0  0  0  0  0  0
   11.5822   37.0197   31.6877 C   0  0  0  0  0  0  0  0  0  0  0  0
   13.4840   37.2104   33.3254 N   0  0  0  0  0  0  0  0  0  0  0  0
   11.6179   36.3072   30.4690 O   0  0  0  0  0  0  0  0  0  0  0  0
   14.4797   36.3309   33.5738 C   0  0  0  0  0  0  0  0  0  0  0  0
   13.1136   37.6269   34.5702 C   0  0  0  0  0  0  0  0  0  0  0  0
   15.2074   35.6152   32.6747 N   0  0  0  0  0  0  0  0  0  0  0  0
   14.6756   36.2298   34.9190 C   0  0  0  0  0  0  0  0  0  0  0  0
   13.8217   37.0445   35.5793 N   0  0  0  0  0  0  0  0  0  0  0  0
   16.1643   34.7603   33.1551 C   0  0  0  0  0  0  0  0  0  0  0  0
   15.6528   35.3503   35.4136 C   0  0  0  0  0  0  0  0  0  0  0  0
   16.3798   34.6316   34.5046 N   0  0  0  0  0  0  0  0  0  0  0  0
   15.9004   35.1930   36.8094 N   0  0  0  0  0  0  0  0  0  0  0  0
    8.9996   45.4383   33.6723 H   0  0  0  0  0  0  0  0  0  0  0  0
   10.7765   46.9368   33.0156 H   0  0  0  0  0  0  0  0  0  0  0  0
   11.0505   46.2277   34.4980 H   0  0  0  0  0  0  0  0  0  0  0  0
    9.3634   43.8353   31.4716 H   0  0  0  0  0  0  0  0  0  0  0  0
   10.7406   44.9069   31.1835 H   0  0  0  0  0  0  0  0  0  0  0  0
    7.0130   44.7162   31.5850 H   0  0  0  0  0  0  0  0  0  0  0  0
   10.3474   47.1864   30.4065 H   0  0  0  0  0  0  0  0  0  0  0  0
    5.4633   46.3041   30.5046 H   0  0  0  0  0  0  0  0  0  0  0  0
    8.8120   48.7648   29.3452 H   0  0  0  0  0  0  0  0  0  0  0  0
    7.1188   49.4816   27.7180 H   0  0  0  0  0  0  0  0  0  0  0  0
    6.9661   50.3919   29.2844 H   0  0  0  0  0  0  0  0  0  0  0  0
    3.8916   48.7299   28.2384 H   0  0  0  0  0  0  0  0  0  0  0  0
    4.1598   53.4805   26.8531 H   0  0  0  0  0  0  0  0  0  0  0  0
    1.8963   49.9023   27.4493 H   0  0  0  0  0  0  0  0  0  0  0  0
    2.0199   52.2768   26.7727 H   0  0  0  0  0  0  0  0  0  0  0  0
    9.8233   40.7200   31.7652 H   0  0  0  0  0  0  0  0  0  0  0  0
   11.3775   41.5548   31.4741 H   0  0  0  0  0  0  0  0  0  0  0  0
   11.7312   39.5361   30.3532 H   0  0  0  0  0  0  0  0  0  0  0  0
   10.1203   38.2696   32.6410 H   0  0  0  0  0  0  0  0  0  0  0  0
   13.6850   37.4639   31.2321 H   0  0  0  0  0  0  0  0  0  0  0  0
   10.0251   38.1792   29.7654 H   0  0  0  0  0  0  0  0  0  0  0  0
   11.2757   36.3135   32.4907 H   0  0  0  0  0  0  0  0  0  0  0  0
   11.9838   36.9111   29.7708 H   0  0  0  0  0  0  0  0  0  0  0  0
   12.3307   38.3536   34.7458 H   0  0  0  0  0  0  0  0  0  0  0  0
   16.7566   34.1787   32.4623 H   0  0  0  0  0  0  0  0  0  0  0  0
   15.3535   35.7355   37.5144 H   0  0  0  0  0  0  0  0  0  0  0  0
   16.6353   34.5301   37.1419 H   0  0  0  0  0  0  0  0  0  0  0  0
  1  2  2  0
  1  3  1  0
  3  4  1  0
  4  5  1  0
  6  1  1  0
  7  6  1  0
  6  8  1  0
  8  9  1  0
  9 10  2  0
 11  9  1  0
 10 12  1  0
 13 11  2  0
 12 14  2  0
 14 13  1  0
 14 15  1  0
 15 16  1  0
 16 17  1  0
 17 18  2  0
 19 17  1  0
 18 20  1  0
 18 21  1  0
 22 19  2  0
 20 23  1  0
 20 24  2  0
 21 25  2  0
 25 22  1  0
  4 26  2  0
  4 27  1  0
 28 27  1  0
 28 29  1  0
 29 30  1  0
 29 31  1  0
 30 32  1  0
 31 33  1  0
 31 34  1  0
 34 32  1  0
 32 35  1  0
 34 36  1  0
 37 35  1  0
 38 35  1  0
 39 37  2  0
 37 40  1  0
 41 38  2  0
 42 39  1  0
 40 43  2  0
 40 41  1  0
 44 42  2  0
 44 43  1  0
 43 45  1  0
  6 46  1  1
  7 47  1  0
  7 48  1  0
  8 49  1  0
  8 50  1  0
 10 51  1  0
 11 52  1  0
 12 53  1  0
 13 54  1  0
 16 55  1  0
 16 56  1  0
 19 57  1  0
 21 58  1  0
 22 59  1  0
 25 60  1  0
 28 61  1  0
 28 62  1  0
 29 63  1  0
 31 64  1  0
 32 65  1  0
 33 66  1  0
 34 67  1  0
 36 68  1  0
 38 69  1  0
 42 70  1  0
 45 71  1  0
 45 72  1  0
M  CHG  3   5  -1  20   1  23  -1
M  END
>  <EmbedRMS>  (123) 
0.0806518640793

$$$$

     RDKit          3D

 72 76  0  0  0  0  0  0  0  0999 V2000
   10.2835   43.7662   33.8257 C   0  0  0  0  0  0  0  0  0  0  0  0
   11.4102   43.5930   34.3753 O   0  0  0  0  0  0  0  0  0  0  0  0
    9.3638   42.7255   33.7351 O   0  0  0  0  0  0  0  0  0  0  0  0
    9.8904   41.2267   34.2946 P   0  0  0  0  0  0  0  0  0  0  0  0
   10.3729   41.4561   35.8842 O   0  0  0  0  0  0  0  0  0  0  0  0
    9.9547   45.0695   33.2036 C   0  0  1  0  0  0  0  0  0  0  0  0
   11.0274   46.0321   33.4757 N   0  0  0  0  0  0  0  0  0  0  0  0
    9.7466   44.8481   31.6877 C   0  0  0  0  0  0  0  0  0  0  0  0
    8.7923   45.8409   31.0844 C   0  0  0  0  0  0  0  0  0  0  0  0
    7.4054   45.6015   31.0991 C   0  0  0  0  0  0  0  0  0  0  0  0
    9.2824   46.9880   30.4422 C   0  0  0  0  0  0  0  0  0  0  0  0
    6.5264   46.5030   30.4838 C   0  0  0  0  0  0  0  0  0  0  0  0
    8.4032   47.8902   29.8315 C   0  0  0  0  0  0  0  0  0  0  0  0
    7.0143   47.6525   29.8476 C   0  0  0  0  0  0  0  0  0  0  0  0
    6.0933   48.5244   29.2495 O   0  0  0  0  0  0  0  0  0  0  0  0
    6.4422   49.7372   28.5860 C   0  0  0  0  0  0  0  0  0  0  0  0
    5.1907   50.4365   28.1170 C   0  0  0  0  0  0  0  0  0  0  0  0
    4.1350   50.7754   29.0069 C   0  0  0  0  0  0  0  0  0  0  0  0
    5.0513   50.7234   26.7460 C   0  0  0  0  0  0  0  0  0  0  0  0
    4.2161   50.5125   30.4204 N   0  0  0  0  0  0  0  0  0  0  0  0
    2.9671   51.3660   28.4892 C   0  0  0  0  0  0  0  0  0  0  0  0
    3.8902   51.3233   26.2574 C   0  0  0  0  0  0  0  0  0  0  0  0
    5.3893   50.7158   31.1086 O   0  0  0  0  0  0  0  0  0  0  0  0
    3.1811   50.2494   31.0674 O   0  0  0  0  0  0  0  0  0  0  0  0
    2.8489   51.6405   27.1264 C   0  0  0  0  0  0  0  0  0  0  0  0
    8.8125   40.1848   34.2126 O   0  0  0  0  0  0  0  0  0  0  0  0
   11.2416   40.7948   33.3707 O   0  0  0  0  0  0  0  0  0  0  0  0
   10.9179   40.6922   31.9984 C   0  0  0  0  0  0  0  0  0  0  0  0
   11.5175   39.3838   31.4423 C   0  0  0  0  0  0  0  0  0  0  0  0
   12.7508   39.0887   32.0752 O   0  0  0  0  0  0  0  0  0  0  0  0
   10.6028   38.1916   31.6659 C   0  0  0  0  0  0  0  0  0  0  0  0
   12.9384   37.6818   32.0278 C   0  0  0  0  0  0  0  0  0  0  0  0
    9.6371   38.0806   30.6470 O   0  0  0  0  0  0  0  0  0  0  0  0
   11.5780   37.0215   31.6935 C   0  0  0  0  0  0  0  0  0  0  0  0
   13.4844   37.2119   33.3242 N   0  0  0  0  0  0  0  0  0  0  0  0
   11.6095   36.3202   30.4679 O   0  0  0  0  0  0  0  0  0  0  0  0
   14.4797   36.3318   33.5730 C   0  0  0  0  0  0  0  0  0  0  0  0
   13.1136   37.6278   34.5691 C   0  0  0  0  0  0  0  0  0  0  0  0
   15.2073   35.6155   32.6742 N   0  0  0  0  0  0  0  0  0  0  0  0
   14.6754   36.2305   34.9184 C   0  0  0  0  0  0  0  0  0  0  0  0
   13.8213   37.0452   35.5785 N   0  0  0  0  0  0  0  0  0  0  0  0
   16.1640   34.7604   33.1549 C   0  0  0  0  0  0  0  0  0  0  0  0
   15.6524   35.3507   35.4132 C   0  0  0  0  0  0  0  0  0  0  0  0
   16.3794   34.6317   34.5044 N   0  0  0  0  0  0  0  0  0  0  0  0
   15.8999   35.1934   36.8091 N   0  0  0  0  0  0  0  0  0  0  0  0
    9.0121   45.4317   33.6715 H   0  0  0  0  0  0  0  0  0  0  0  0
   10.7260   46.9687   33.1214 H   0  0  0  0  0  0  0  0  0  0  0  0
   11.8906   45.7658   32.9470 H   0  0  0  0  0  0  0  0  0  0  0  0
   10.7229   44.8814   31.1557 H   0  0  0  0  0  0  0  0  0  0  0  0
    9.3414   43.8329   31.4763 H   0  0  0  0  0  0  0  0  0  0  0  0
    7.0083   44.7168   31.5814 H   0  0  0  0  0  0  0  0  0  0  0  0
   10.3470   47.1849   30.4113 H   0  0  0  0  0  0  0  0  0  0  0  0
    5.4617   46.3075   30.5023 H   0  0  0  0  0  0  0  0  0  0  0  0
    8.8141   48.7650   29.3467 H   0  0  0  0  0  0  0  0  0  0  0  0
    7.1092   49.4995   27.7285 H   0  0  0  0  0  0  0  0  0  0  0  0
    7.0046   50.4058   29.2705 H   0  0  0  0  0  0  0  0  0  0  0  0
    5.8408   50.4754   26.0473 H   0  0  0  0  0  0  0  0  0  0  0  0
    2.1488   51.6290   29.1476 H   0  0  0  0  0  0  0  0  0  0  0  0
    3.7956   51.5370   25.2005 H   0  0  0  0  0  0  0  0  0  0  0  0
    1.9477   52.1022   26.7439 H   0  0  0  0  0  0  0  0  0  0  0  0
   11.3952   41.5478   31.4744 H   0  0  0  0  0  0  0  0  0  0  0  0
    9.8291   40.7409   31.7627 H   0  0  0  0  0  0  0  0  0  0  0  0
   11.6981   39.5115   30.3500 H   0  0  0  0  0  0  0  0  0  0  0  0
   10.1117   38.2604   32.6661 H   0  0  0  0  0  0  0  0  0  0  0  0
   13.6767   37.4556   31.2267 H   0  0  0  0  0  0  0  0  0  0  0  0
    8.8961   38.6951   30.8872 H   0  0  0  0  0  0  0  0  0  0  0  0
   11.2791   36.3072   32.4922 H   0  0  0  0  0  0  0  0  0  0  0  0
   11.8828   36.9598   29.7589 H   0  0  0  0  0  0  0  0  0  0  0  0
   12.3300   38.3539   34.7446 H   0  0  0  0  0  0  0  0  0  0  0  0
   16.7561   34.1785   32.4622 H   0  0  0  0  0  0  0  0  0  0  0  0
   16.6346   34.5302   37.1416 H   0  0  0  0  0  0  0  0  0  0  0  0
   15.3531   35.7360   37.5140 H   0  0  0  0  0  0  0  0  0  0  0  0
  1  2  2  0
  1  3  1  0
  3  4  1  0
  4  5  1  0
  6  1  1  0
  7  6  1  0
  6  8  1  0
  8  9  1  0
  9 10  2  0
 11  9  1  0
 10 12  1  0
 13 11  2  0
 12 14  2  0
 14 13  1  0
 14 15  1  0
 15 16  1  0
 16 17  1  0
 17 18  2  0
 19 17  1  0
 18 20  1  0
 18 21  1  0
 22 19  2  0
 20 23  1  0
 20 24  2  0
 21 25  2  0
 25 22  1  0
  4 26  2  0
  4 27  1  0
 28 27  1  0
 28 29  1  0
 29 30  1  0
 29 31  1  0
 30 32  1  0
 31 33  1  0
 31 34  1  0
 34 32  1  0
 32 35  1  0
 34 36  1  0
 37 35  1  0
 38 35  1  0
 39 37  2  0
 37 40  1  0
 41 38  2  0
 42 39  1  0
 40 43  2  0
 40 41  1  0
 44 42  2  0
 44 43  1  0
 43 45  1  0
  6 46  1  1
  7 47  1  0
  7 48  1  0
  8 49  1  0
  8 50  1  0
 10 51  1  0
 11 52  1  0
 12 53  1  0
 13 54  1  0
 16 55  1  0
 16 56  1  0
 19 57  1  0
 21 58  1  0
 22 59  1  0
 25 60  1  0
 28 61  1  0
 28 62  1  0
 29 63  1  0
 31 64  1  0
 32 65  1  0
 33 66  1  0
 34 67  1  0
 36 68  1  0
 38 69  1  0
 42 70  1  0
 45 71  1  0
 45 72  1  0
M  CHG  3   5  -1  20   1  23  -1
M  END
>  <EmbedRMS>  (124) 
0.0819784518931

$$$$

     RDKit          3D

 72 76  0  0  0  0  0  0  0  0999 V2000
   10.2835   43.7662   33.8256 C   0  0  0  0  0  0  0  0  0  0  0  0
   11.4102   43.5930   34.3752 O   0  0  0  0  0  0  0  0  0  0  0  0
    9.3637   42.7255   33.7350 O   0  0  0  0  0  0  0  0  0  0  0  0
    9.8903   41.2268   34.2946 P   0  0  0  0  0  0  0  0  0  0  0  0
   10.3728   41.4561   35.8842 O   0  0  0  0  0  0  0  0  0  0  0  0
    9.9547   45.0695   33.2034 C   0  0  1  0  0  0  0  0  0  0  0  0
   11.0273   46.0322   33.4758 N   0  0  0  0  0  0  0  0  0  0  0  0
    9.7471   44.8483   31.6874 C   0  0  0  0  0  0  0  0  0  0  0  0
    8.7925   45.8407   31.0841 C   0  0  0  0  0  0  0  0  0  0  0  0
    7.4058   45.6011   31.0997 C   0  0  0  0  0  0  0  0  0  0  0  0
    9.2817   46.9882   30.4425 C   0  0  0  0  0  0  0  0  0  0  0  0
    6.5245   46.5014   30.4859 C   0  0  0  0  0  0  0  0  0  0  0  0
    8.4004   47.8887   29.8330 C   0  0  0  0  0  0  0  0  0  0  0  0
    7.0189   47.6554   29.8441 C   0  0  0  0  0  0  0  0  0  0  0  0
    6.1818   48.5879   29.2100 O   0  0  0  0  0  0  0  0  0  0  0  0
    4.7690   48.4498   29.0494 C   0  0  0  0  0  0  0  0  0  0  0  0
    4.4446   47.3494   28.0628 C   0  0  0  0  0  0  0  0  0  0  0  0
    3.4896   46.3368   28.3381 C   0  0  0  0  0  0  0  0  0  0  0  0
    5.1463   47.3156   26.8439 C   0  0  0  0  0  0  0  0  0  0  0  0
    2.6712   46.3737   29.5173 N   0  0  0  0  0  0  0  0  0  0  0  0
    3.3179   45.2855   27.4203 C   0  0  0  0  0  0  0  0  0  0  0  0
    4.9481   46.2744   25.9360 C   0  0  0  0  0  0  0  0  0  0  0  0
    1.9955   47.5254   29.8490 O   0  0  0  0  0  0  0  0  0  0  0  0
    2.3856   45.3142   30.1126 O   0  0  0  0  0  0  0  0  0  0  0  0
    4.0436   45.2553   26.2287 C   0  0  0  0  0  0  0  0  0  0  0  0
    8.8125   40.1848   34.2126 O   0  0  0  0  0  0  0  0  0  0  0  0
   11.2416   40.7948   33.3707 O   0  0  0  0  0  0  0  0  0  0  0  0
   10.9179   40.6922   31.9984 C   0  0  0  0  0  0  0  0  0  0  0  0
   11.5175   39.3838   31.4423 C   0  0  0  0  0  0  0  0  0  0  0  0
   12.7508   39.0887   32.0752 O   0  0  0  0  0  0  0  0  0  0  0  0
   10.6027   38.1916   31.6659 C   0  0  0  0  0  0  0  0  0  0  0  0
   12.9384   37.6818   32.0278 C   0  0  0  0  0  0  0  0  0  0  0  0
    9.6371   38.0806   30.6470 O   0  0  0  0  0  0  0  0  0  0  0  0
   11.5780   37.0215   31.6935 C   0  0  0  0  0  0  0  0  0  0  0  0
   13.4844   37.2119   33.3242 N   0  0  0  0  0  0  0  0  0  0  0  0
   11.6095   36.3201   30.4679 O   0  0  0  0  0  0  0  0  0  0  0  0
   14.4797   36.3318   33.5730 C   0  0  0  0  0  0  0  0  0  0  0  0
   13.1135   37.6278   34.5691 C   0  0  0  0  0  0  0  0  0  0  0  0
   15.2073   35.6155   32.6742 N   0  0  0  0  0  0  0  0  0  0  0  0
   14.6754   36.2305   34.9184 C   0  0  0  0  0  0  0  0  0  0  0  0
   13.8213   37.0452   35.5785 N   0  0  0  0  0  0  0  0  0  0  0  0
   16.1640   34.7604   33.1549 C   0  0  0  0  0  0  0  0  0  0  0  0
   15.6524   35.3507   35.4132 C   0  0  0  0  0  0  0  0  0  0  0  0
   16.3794   34.6318   34.5044 N   0  0  0  0  0  0  0  0  0  0  0  0
   15.8999   35.1934   36.8091 N   0  0  0  0  0  0  0  0  0  0  0  0
    9.0120   45.4317   33.6711 H   0  0  0  0  0  0  0  0  0  0  0  0
   10.7260   46.9688   33.1214 H   0  0  0  0  0  0  0  0  0  0  0  0
   11.8908   45.7659   32.9474 H   0  0  0  0  0  0  0  0  0  0  0  0
    9.3425   43.8330   31.4757 H   0  0  0  0  0  0  0  0  0  0  0  0
   10.7235   44.8823   31.1556 H   0  0  0  0  0  0  0  0  0  0  0  0
    7.0099   44.7166   31.5836 H   0  0  0  0  0  0  0  0  0  0  0  0
   10.3459   47.1867   30.4110 H   0  0  0  0  0  0  0  0  0  0  0  0
    5.4658   46.2898   30.5213 H   0  0  0  0  0  0  0  0  0  0  0  0
    8.7938   48.7701   29.3426 H   0  0  0  0  0  0  0  0  0  0  0  0
    4.3086   48.2943   30.0451 H   0  0  0  0  0  0  0  0  0  0  0  0
    4.3708   49.4042   28.6462 H   0  0  0  0  0  0  0  0  0  0  0  0
    5.8666   48.0887   26.6050 H   0  0  0  0  0  0  0  0  0  0  0  0
    2.5988   44.5003   27.6176 H   0  0  0  0  0  0  0  0  0  0  0  0
    5.5034   46.2538   25.0072 H   0  0  0  0  0  0  0  0  0  0  0  0
    3.8948   44.4463   25.5252 H   0  0  0  0  0  0  0  0  0  0  0  0
    9.8291   40.7409   31.7627 H   0  0  0  0  0  0  0  0  0  0  0  0
   11.3952   41.5478   31.4744 H   0  0  0  0  0  0  0  0  0  0  0  0
   11.6981   39.5115   30.3500 H   0  0  0  0  0  0  0  0  0  0  0  0
   10.1117   38.2604   32.6660 H   0  0  0  0  0  0  0  0  0  0  0  0
   13.6767   37.4556   31.2267 H   0  0  0  0  0  0  0  0  0  0  0  0
    8.8961   38.6952   30.8871 H   0  0  0  0  0  0  0  0  0  0  0  0
   11.2791   36.3072   32.4922 H   0  0  0  0  0  0  0  0  0  0  0  0
   11.8828   36.9598   29.7589 H   0  0  0  0  0  0  0  0  0  0  0  0
   12.3300   38.3539   34.7446 H   0  0  0  0  0  0  0  0  0  0  0  0
   16.7561   34.1785   32.4622 H   0  0  0  0  0  0  0  0  0  0  0  0
   16.6347   34.5303   37.1416 H   0  0  0  0  0  0  0  0  0  0  0  0
   15.3531   35.7360   37.5140 H   0  0  0  0  0  0  0  0  0  0  0  0
  1  2  2  0
  1  3  1  0
  3  4  1  0
  4  5  1  0
  6  1  1  0
  7  6  1  0
  6  8  1  0
  8  9  1  0
  9 10  2  0
 11  9  1  0
 10 12  1  0
 13 11  2  0
 12 14  2  0
 14 13  1  0
 14 15  1  0
 15 16  1  0
 16 17  1  0
 17 18  2  0
 19 17  1  0
 18 20  1  0
 18 21  1  0
 22 19  2  0
 20 23  1  0
 20 24  2  0
 21 25  2  0
 25 22  1  0
  4 26  2  0
  4 27  1  0
 28 27  1  0
 28 29  1  0
 29 30  1  0
 29 31  1  0
 30 32  1  0
 31 33  1  0
 31 34  1  0
 34 32  1  0
 32 35  1  0
 34 36  1  0
 37 35  1  0
 38 35  1  0
 39 37  2  0
 37 40  1  0
 41 38  2  0
 42 39  1  0
 40 43  2  0
 40 41  1  0
 44 42  2  0
 44 43  1  0
 43 45  1  0
  6 46  1  1
  7 47  1  0
  7 48  1  0
  8 49  1  0
  8 50  1  0
 10 51  1  0
 11 52  1  0
 12 53  1  0
 13 54  1  0
 16 55  1  0
 16 56  1  0
 19 57  1  0
 21 58  1  0
 22 59  1  0
 25 60  1  0
 28 61  1  0
 28 62  1  0
 29 63  1  0
 31 64  1  0
 32 65  1  0
 33 66  1  0
 34 67  1  0
 36 68  1  0
 38 69  1  0
 42 70  1  0
 45 71  1  0
 45 72  1  0
M  CHG  3   5  -1  20   1  23  -1
M  END
>  <EmbedRMS>  (125) 
0.0819718612218

$$$$

     RDKit          3D

 72 76  0  0  0  0  0  0  0  0999 V2000
   10.2834   43.7662   33.8256 C   0  0  0  0  0  0  0  0  0  0  0  0
   11.4101   43.5930   34.3752 O   0  0  0  0  0  0  0  0  0  0  0  0
    9.3635   42.7257   33.7352 O   0  0  0  0  0  0  0  0  0  0  0  0
    9.8899   41.2270   34.2947 P   0  0  0  0  0  0  0  0  0  0  0  0
   10.3732   41.4563   35.8841 O   0  0  0  0  0  0  0  0  0  0  0  0
    9.9547   45.0695   33.2034 C   0  0  1  0  0  0  0  0  0  0  0  0
   11.0274   46.0322   33.4758 N   0  0  0  0  0  0  0  0  0  0  0  0
    9.7471   44.8483   31.6874 C   0  0  0  0  0  0  0  0  0  0  0  0
    8.7926   45.8406   31.0839 C   0  0  0  0  0  0  0  0  0  0  0  0
    7.4058   45.6013   31.0998 C   0  0  0  0  0  0  0  0  0  0  0  0
    9.2817   46.9883   30.4426 C   0  0  0  0  0  0  0  0  0  0  0  0
    6.5244   46.5018   30.4861 C   0  0  0  0  0  0  0  0  0  0  0  0
    8.4003   47.8888   29.8334 C   0  0  0  0  0  0  0  0  0  0  0  0
    7.0189   47.6549   29.8436 C   0  0  0  0  0  0  0  0  0  0  0  0
    6.1831   48.5875   29.2090 O   0  0  0  0  0  0  0  0  0  0  0  0
    4.7802   48.4284   28.9930 C   0  0  0  0  0  0  0  0  0  0  0  0
    4.5080   47.3370   27.9821 C   0  0  0  0  0  0  0  0  0  0  0  0
    5.1328   47.3128   26.7047 C   0  0  0  0  0  0  0  0  0  0  0  0
    3.6331   46.2936   28.3372 C   0  0  0  0  0  0  0  0  0  0  0  0
    6.0165   48.3604   26.2653 N   0  0  0  0  0  0  0  0  0  0  0  0
    4.8949   46.2236   25.8476 C   0  0  0  0  0  0  0  0  0  0  0  0
    3.3989   45.2311   27.4641 C   0  0  0  0  0  0  0  0  0  0  0  0
    7.0394   48.0738   25.3906 O   0  0  0  0  0  0  0  0  0  0  0  0
    5.7719   49.5549   26.5304 O   0  0  0  0  0  0  0  0  0  0  0  0
    4.0332   45.1930   26.2244 C   0  0  0  0  0  0  0  0  0  0  0  0
    8.8120   40.1850   34.2133 O   0  0  0  0  0  0  0  0  0  0  0  0
   11.2403   40.7947   33.3700 O   0  0  0  0  0  0  0  0  0  0  0  0
   10.9144   40.6914   31.9982 C   0  0  0  0  0  0  0  0  0  0  0  0
   11.5270   39.3912   31.4385 C   0  0  0  0  0  0  0  0  0  0  0  0
   12.7520   39.0911   32.0836 O   0  0  0  0  0  0  0  0  0  0  0  0
   10.6113   38.1932   31.6451 C   0  0  0  0  0  0  0  0  0  0  0  0
   12.9413   37.6838   32.0297 C   0  0  0  0  0  0  0  0  0  0  0  0
    9.6064   38.0878   30.6599 O   0  0  0  0  0  0  0  0  0  0  0  0
   11.5822   37.0198   31.6877 C   0  0  0  0  0  0  0  0  0  0  0  0
   13.4840   37.2104   33.3254 N   0  0  0  0  0  0  0  0  0  0  0  0
   11.6179   36.3072   30.4690 O   0  0  0  0  0  0  0  0  0  0  0  0
   14.4797   36.3309   33.5738 C   0  0  0  0  0  0  0  0  0  0  0  0
   13.1136   37.6269   34.5702 C   0  0  0  0  0  0  0  0  0  0  0  0
   15.2074   35.6152   32.6747 N   0  0  0  0  0  0  0  0  0  0  0  0
   14.6756   36.2298   34.9190 C   0  0  0  0  0  0  0  0  0  0  0  0
   13.8217   37.0445   35.5793 N   0  0  0  0  0  0  0  0  0  0  0  0
   16.1643   34.7603   33.1551 C   0  0  0  0  0  0  0  0  0  0  0  0
   15.6528   35.3503   35.4136 C   0  0  0  0  0  0  0  0  0  0  0  0
   16.3798   34.6316   34.5046 N   0  0  0  0  0  0  0  0  0  0  0  0
   15.9004   35.1930   36.8094 N   0  0  0  0  0  0  0  0  0  0  0  0
    9.0120   45.4318   33.6710 H   0  0  0  0  0  0  0  0  0  0  0  0
   10.7261   46.9688   33.1213 H   0  0  0  0  0  0  0  0  0  0  0  0
   11.8908   45.7658   32.9474 H   0  0  0  0  0  0  0  0  0  0  0  0
    9.3425   43.8330   31.4757 H   0  0  0  0  0  0  0  0  0  0  0  0
   10.7236   44.8822   31.1556 H   0  0  0  0  0  0  0  0  0  0  0  0
    7.0098   44.7175   31.5849 H   0  0  0  0  0  0  0  0  0  0  0  0
   10.3459   47.1868   30.4110 H   0  0  0  0  0  0  0  0  0  0  0  0
    5.4658   46.2929   30.5259 H   0  0  0  0  0  0  0  0  0  0  0  0
    8.7936   48.7701   29.3426 H   0  0  0  0  0  0  0  0  0  0  0  0
    4.2718   48.2389   29.9633 H   0  0  0  0  0  0  0  0  0  0  0  0
    4.3660   49.3836   28.6102 H   0  0  0  0  0  0  0  0  0  0  0  0
    3.1383   46.2937   29.3007 H   0  0  0  0  0  0  0  0  0  0  0  0
    5.3655   46.1805   24.8736 H   0  0  0  0  0  0  0  0  0  0  0  0
    2.7285   44.4317   27.7527 H   0  0  0  0  0  0  0  0  0  0  0  0
    3.8530   44.3652   25.5507 H   0  0  0  0  0  0  0  0  0  0  0  0
    9.8234   40.7201   31.7654 H   0  0  0  0  0  0  0  0  0  0  0  0
   11.3776   41.5549   31.4744 H   0  0  0  0  0  0  0  0  0  0  0  0
   11.7311   39.5362   30.3532 H   0  0  0  0  0  0  0  0  0  0  0  0
   10.1202   38.2697   32.6410 H   0  0  0  0  0  0  0  0  0  0  0  0
   13.6850   37.4639   31.2321 H   0  0  0  0  0  0  0  0  0  0  0  0
   10.0250   38.1793   29.7654 H   0  0  0  0  0  0  0  0  0  0  0  0
   11.2757   36.3135   32.4907 H   0  0  0  0  0  0  0  0  0  0  0  0
   11.9838   36.9111   29.7708 H   0  0  0  0  0  0  0  0  0  0  0  0
   12.3307   38.3536   34.7457 H   0  0  0  0  0  0  0  0  0  0  0  0
   16.7566   34.1786   32.4623 H   0  0  0  0  0  0  0  0  0  0  0  0
   15.3535   35.7355   37.5144 H   0  0  0  0  0  0  0  0  0  0  0  0
   16.6353   34.5301   37.1419 H   0  0  0  0  0  0  0  0  0  0  0  0
  1  2  2  0
  1  3  1  0
  3  4  1  0
  4  5  1  0
  6  1  1  0
  7  6  1  0
  6  8  1  0
  8  9  1  0
  9 10  2  0
 11  9  1  0
 10 12  1  0
 13 11  2  0
 12 14  2  0
 14 13  1  0
 14 15  1  0
 15 16  1  0
 16 17  1  0
 17 18  2  0
 19 17  1  0
 18 20  1  0
 18 21  1  0
 22 19  2  0
 20 23  1  0
 20 24  2  0
 21 25  2  0
 25 22  1  0
  4 26  2  0
  4 27  1  0
 28 27  1  0
 28 29  1  0
 29 30  1  0
 29 31  1  0
 30 32  1  0
 31 33  1  0
 31 34  1  0
 34 32  1  0
 32 35  1  0
 34 36  1  0
 37 35  1  0
 38 35  1  0
 39 37  2  0
 37 40  1  0
 41 38  2  0
 42 39  1  0
 40 43  2  0
 40 41  1  0
 44 42  2  0
 44 43  1  0
 43 45  1  0
  6 46  1  1
  7 47  1  0
  7 48  1  0
  8 49  1  0
  8 50  1  0
 10 51  1  0
 11 52  1  0
 12 53  1  0
 13 54  1  0
 16 55  1  0
 16 56  1  0
 19 57  1  0
 21 58  1  0
 22 59  1  0
 25 60  1  0
 28 61  1  0
 28 62  1  0
 29 63  1  0
 31 64  1  0
 32 65  1  0
 33 66  1  0
 34 67  1  0
 36 68  1  0
 38 69  1  0
 42 70  1  0
 45 71  1  0
 45 72  1  0
M  CHG  3   5  -1  20   1  23  -1
M  END
>  <EmbedRMS>  (126) 
0.0808321853737

$$$$

     RDKit          3D

 72 76  0  0  0  0  0  0  0  0999 V2000
   10.2834   43.7662   33.8256 C   0  0  0  0  0  0  0  0  0  0  0  0
   11.4102   43.5930   34.3752 O   0  0  0  0  0  0  0  0  0  0  0  0
    9.3637   42.7255   33.7349 O   0  0  0  0  0  0  0  0  0  0  0  0
    9.8903   41.2267   34.2942 P   0  0  0  0  0  0  0  0  0  0  0  0
   10.3735   41.4561   35.8837 O   0  0  0  0  0  0  0  0  0  0  0  0
    9.9547   45.0695   33.2034 C   0  0  1  0  0  0  0  0  0  0  0  0
   11.0272   46.0323   33.4759 N   0  0  0  0  0  0  0  0  0  0  0  0
    9.7472   44.8483   31.6874 C   0  0  0  0  0  0  0  0  0  0  0  0
    8.7926   45.8405   31.0838 C   0  0  0  0  0  0  0  0  0  0  0  0
    7.4058   45.6010   31.0997 C   0  0  0  0  0  0  0  0  0  0  0  0
    9.2817   46.9879   30.4420 C   0  0  0  0  0  0  0  0  0  0  0  0
    6.5244   46.5011   30.4856 C   0  0  0  0  0  0  0  0  0  0  0  0
    8.4005   47.8888   29.8330 C   0  0  0  0  0  0  0  0  0  0  0  0
    7.0189   47.6561   29.8451 C   0  0  0  0  0  0  0  0  0  0  0  0
    6.1796   48.5968   29.2237 O   0  0  0  0  0  0  0  0  0  0  0  0
    4.7646   48.4623   29.0676 C   0  0  0  0  0  0  0  0  0  0  0  0
    3.9821   48.8286   30.3180 C   0  0  0  0  0  0  0  0  0  0  0  0
    2.5582   48.8192   30.3129 C   0  0  0  0  0  0  0  0  0  0  0  0
    4.6517   49.2543   31.4864 C   0  0  0  0  0  0  0  0  0  0  0  0
    1.7986   48.4448   29.1486 N   0  0  0  0  0  0  0  0  0  0  0  0
    1.8617   49.2239   31.4654 C   0  0  0  0  0  0  0  0  0  0  0  0
    3.9380   49.6362   32.6224 C   0  0  0  0  0  0  0  0  0  0  0  0
    0.5823   49.0406   28.9052 O   0  0  0  0  0  0  0  0  0  0  0  0
    2.1325   47.4631   28.4550 O   0  0  0  0  0  0  0  0  0  0  0  0
    2.5466   49.6204   32.6126 C   0  0  0  0  0  0  0  0  0  0  0  0
    8.8122   40.1850   34.2130 O   0  0  0  0  0  0  0  0  0  0  0  0
   11.2407   40.7940   33.3693 O   0  0  0  0  0  0  0  0  0  0  0  0
   10.9151   40.6905   31.9974 C   0  0  0  0  0  0  0  0  0  0  0  0
   11.5252   39.3886   31.4375 C   0  0  0  0  0  0  0  0  0  0  0  0
   12.7500   39.0874   32.0799 O   0  0  0  0  0  0  0  0  0  0  0  0
   10.6092   38.1926   31.6470 C   0  0  0  0  0  0  0  0  0  0  0  0
   12.9332   37.6793   32.0294 C   0  0  0  0  0  0  0  0  0  0  0  0
    9.6122   38.0895   30.6542 O   0  0  0  0  0  0  0  0  0  0  0  0
   11.5743   37.0145   31.7024 C   0  0  0  0  0  0  0  0  0  0  0  0
   13.4844   37.2108   33.3241 N   0  0  0  0  0  0  0  0  0  0  0  0
   11.6297   36.3239   30.4740 O   0  0  0  0  0  0  0  0  0  0  0  0
   14.4802   36.3313   33.5727 C   0  0  0  0  0  0  0  0  0  0  0  0
   13.1138   37.6266   34.5692 C   0  0  0  0  0  0  0  0  0  0  0  0
   15.2075   35.6149   32.6739 N   0  0  0  0  0  0  0  0  0  0  0  0
   14.6761   36.2303   34.9181 C   0  0  0  0  0  0  0  0  0  0  0  0
   13.8220   37.0447   35.5785 N   0  0  0  0  0  0  0  0  0  0  0  0
   16.1643   34.7600   33.1547 C   0  0  0  0  0  0  0  0  0  0  0  0
   15.6529   35.3505   35.4130 C   0  0  0  0  0  0  0  0  0  0  0  0
   16.3798   34.6315   34.5042 N   0  0  0  0  0  0  0  0  0  0  0  0
   15.9003   35.1932   36.8090 N   0  0  0  0  0  0  0  0  0  0  0  0
    9.0119   45.4317   33.6710 H   0  0  0  0  0  0  0  0  0  0  0  0
   10.7259   46.9689   33.1214 H   0  0  0  0  0  0  0  0  0  0  0  0
   11.8907   45.7660   32.9475 H   0  0  0  0  0  0  0  0  0  0  0  0
   10.7237   44.8823   31.1557 H   0  0  0  0  0  0  0  0  0  0  0  0
    9.3427   43.8329   31.4757 H   0  0  0  0  0  0  0  0  0  0  0  0
    7.0099   44.7177   31.5857 H   0  0  0  0  0  0  0  0  0  0  0  0
   10.3460   47.1867   30.4109 H   0  0  0  0  0  0  0  0  0  0  0  0
    5.4643   46.2942   30.5281 H   0  0  0  0  0  0  0  0  0  0  0  0
    8.7936   48.7721   29.3458 H   0  0  0  0  0  0  0  0  0  0  0  0
    4.5349   47.4268   28.7439 H   0  0  0  0  0  0  0  0  0  0  0  0
    4.4483   49.1454   28.2515 H   0  0  0  0  0  0  0  0  0  0  0  0
    5.7298   49.3111   31.5306 H   0  0  0  0  0  0  0  0  0  0  0  0
    0.7791   49.2222   31.4788 H   0  0  0  0  0  0  0  0  0  0  0  0
    4.4672   49.9560   33.5110 H   0  0  0  0  0  0  0  0  0  0  0  0
    1.9963   49.9227   33.4943 H   0  0  0  0  0  0  0  0  0  0  0  0
   11.3802   41.5529   31.4733 H   0  0  0  0  0  0  0  0  0  0  0  0
    9.8243   40.7216   31.7643 H   0  0  0  0  0  0  0  0  0  0  0  0
   11.7266   39.5311   30.3513 H   0  0  0  0  0  0  0  0  0  0  0  0
   10.1110   38.2747   32.6387 H   0  0  0  0  0  0  0  0  0  0  0  0
   13.6652   37.4519   31.2226 H   0  0  0  0  0  0  0  0  0  0  0  0
   10.0511   38.1143   29.7645 H   0  0  0  0  0  0  0  0  0  0  0  0
   11.2762   36.3141   32.5189 H   0  0  0  0  0  0  0  0  0  0  0  0
   10.8593   35.6978   30.4640 H   0  0  0  0  0  0  0  0  0  0  0  0
   12.3295   38.3518   34.7449 H   0  0  0  0  0  0  0  0  0  0  0  0
   16.7564   34.1780   32.4620 H   0  0  0  0  0  0  0  0  0  0  0  0
   16.6349   34.5300   37.1415 H   0  0  0  0  0  0  0  0  0  0  0  0
   15.3534   35.7359   37.5138 H   0  0  0  0  0  0  0  0  0  0  0  0
  1  2  2  0
  1  3  1  0
  3  4  1  0
  4  5  1  0
  6  1  1  0
  7  6  1  0
  6  8  1  0
  8  9  1  0
  9 10  2  0
 11  9  1  0
 10 12  1  0
 13 11  2  0
 12 14  2  0
 14 13  1  0
 14 15  1  0
 15 16  1  0
 16 17  1  0
 17 18  2  0
 19 17  1  0
 18 20  1  0
 18 21  1  0
 22 19  2  0
 20 23  1  0
 20 24  2  0
 21 25  2  0
 25 22  1  0
  4 26  2  0
  4 27  1  0
 28 27  1  0
 28 29  1  0
 29 30  1  0
 29 31  1  0
 30 32  1  0
 31 33  1  0
 31 34  1  0
 34 32  1  0
 32 35  1  0
 34 36  1  0
 37 35  1  0
 38 35  1  0
 39 37  2  0
 37 40  1  0
 41 38  2  0
 42 39  1  0
 40 43  2  0
 40 41  1  0
 44 42  2  0
 44 43  1  0
 43 45  1  0
  6 46  1  1
  7 47  1  0
  7 48  1  0
  8 49  1  0
  8 50  1  0
 10 51  1  0
 11 52  1  0
 12 53  1  0
 13 54  1  0
 16 55  1  0
 16 56  1  0
 19 57  1  0
 21 58  1  0
 22 59  1  0
 25 60  1  0
 28 61  1  0
 28 62  1  0
 29 63  1  0
 31 64  1  0
 32 65  1  0
 33 66  1  0
 34 67  1  0
 36 68  1  0
 38 69  1  0
 42 70  1  0
 45 71  1  0
 45 72  1  0
M  CHG  3   5  -1  20   1  23  -1
M  END
>  <EmbedRMS>  (127) 
0.0818165444528

$$$$

     RDKit          3D

 72 76  0  0  0  0  0  0  0  0999 V2000
   10.2838   43.7627   33.8277 C   0  0  0  0  0  0  0  0  0  0  0  0
   11.4103   43.5863   34.3766 O   0  0  0  0  0  0  0  0  0  0  0  0
    9.3628   42.7238   33.7357 O   0  0  0  0  0  0  0  0  0  0  0  0
    9.8890   41.2252   34.2949 P   0  0  0  0  0  0  0  0  0  0  0  0
   10.3724   41.4548   35.8843 O   0  0  0  0  0  0  0  0  0  0  0  0
    9.9549   45.0701   33.2065 C   0  0  1  0  0  0  0  0  0  0  0  0
   11.0198   46.0482   33.4572 N   0  0  0  0  0  0  0  0  0  0  0  0
    9.7506   44.8512   31.6924 C   0  0  0  0  0  0  0  0  0  0  0  0
    8.7944   45.8420   31.0872 C   0  0  0  0  0  0  0  0  0  0  0  0
    7.4077   45.6003   31.1001 C   0  0  0  0  0  0  0  0  0  0  0  0
    9.2827   46.9890   30.4441 C   0  0  0  0  0  0  0  0  0  0  0  0
    6.5259   46.4991   30.4844 C   0  0  0  0  0  0  0  0  0  0  0  0
    8.4010   47.8879   29.8324 C   0  0  0  0  0  0  0  0  0  0  0  0
    7.0192   47.6563   29.8474 C   0  0  0  0  0  0  0  0  0  0  0  0
    6.1808   48.5936   29.2223 O   0  0  0  0  0  0  0  0  0  0  0  0
    4.7527   48.5552   29.2319 C   0  0  0  0  0  0  0  0  0  0  0  0
    4.2159   48.8557   30.6146 C   0  0  0  0  0  0  0  0  0  0  0  0
    3.2322   48.0486   31.2449 C   0  0  0  0  0  0  0  0  0  0  0  0
    4.7435   49.9591   31.3100 C   0  0  0  0  0  0  0  0  0  0  0  0
    2.5840   46.9674   30.5578 N   0  0  0  0  0  0  0  0  0  0  0  0
    2.8634   48.3254   32.5723 C   0  0  0  0  0  0  0  0  0  0  0  0
    4.3487   50.2307   32.6207 C   0  0  0  0  0  0  0  0  0  0  0  0
    2.2588   45.8196   31.2431 O   0  0  0  0  0  0  0  0  0  0  0  0
    2.0990   47.1488   29.4221 O   0  0  0  0  0  0  0  0  0  0  0  0
    3.4188   49.4087   33.2546 C   0  0  0  0  0  0  0  0  0  0  0  0
    8.8112   40.1834   34.2131 O   0  0  0  0  0  0  0  0  0  0  0  0
   11.2398   40.7938   33.3702 O   0  0  0  0  0  0  0  0  0  0  0  0
   10.9144   40.6912   31.9983 C   0  0  0  0  0  0  0  0  0  0  0  0
   11.5270   39.3911   31.4385 C   0  0  0  0  0  0  0  0  0  0  0  0
   12.7520   39.0911   32.0835 O   0  0  0  0  0  0  0  0  0  0  0  0
   10.6113   38.1931   31.6451 C   0  0  0  0  0  0  0  0  0  0  0  0
   12.9413   37.6837   32.0297 C   0  0  0  0  0  0  0  0  0  0  0  0
    9.6064   38.0877   30.6599 O   0  0  0  0  0  0  0  0  0  0  0  0
   11.5822   37.0197   31.6876 C   0  0  0  0  0  0  0  0  0  0  0  0
   13.4840   37.2104   33.3254 N   0  0  0  0  0  0  0  0  0  0  0  0
   11.6179   36.3071   30.4690 O   0  0  0  0  0  0  0  0  0  0  0  0
   14.4797   36.3309   33.5738 C   0  0  0  0  0  0  0  0  0  0  0  0
   13.1136   37.6269   34.5702 C   0  0  0  0  0  0  0  0  0  0  0  0
   15.2074   35.6152   32.6747 N   0  0  0  0  0  0  0  0  0  0  0  0
   14.6756   36.2298   34.9190 C   0  0  0  0  0  0  0  0  0  0  0  0
   13.8217   37.0445   35.5793 N   0  0  0  0  0  0  0  0  0  0  0  0
   16.1643   34.7603   33.1551 C   0  0  0  0  0  0  0  0  0  0  0  0
   15.6528   35.3503   35.4136 C   0  0  0  0  0  0  0  0  0  0  0  0
   16.3798   34.6316   34.5046 N   0  0  0  0  0  0  0  0  0  0  0  0
   15.9004   35.1930   36.8094 N   0  0  0  0  0  0  0  0  0  0  0  0
    9.0098   45.4350   33.6670 H   0  0  0  0  0  0  0  0  0  0  0  0
   11.9349   45.6934   33.0930 H   0  0  0  0  0  0  0  0  0  0  0  0
   11.1132   46.1993   34.4885 H   0  0  0  0  0  0  0  0  0  0  0  0
    9.3518   43.8346   31.4760 H   0  0  0  0  0  0  0  0  0  0  0  0
   10.7309   44.8933   31.1677 H   0  0  0  0  0  0  0  0  0  0  0  0
    7.0127   44.7139   31.5813 H   0  0  0  0  0  0  0  0  0  0  0  0
   10.3467   47.1891   30.4143 H   0  0  0  0  0  0  0  0  0  0  0  0
    5.4685   46.2798   30.5076 H   0  0  0  0  0  0  0  0  0  0  0  0
    8.7937   48.7705   29.3438 H   0  0  0  0  0  0  0  0  0  0  0  0
    4.4184   47.5768   28.8340 H   0  0  0  0  0  0  0  0  0  0  0  0
    4.3802   49.3381   28.5388 H   0  0  0  0  0  0  0  0  0  0  0  0
    5.4809   50.5998   30.8419 H   0  0  0  0  0  0  0  0  0  0  0  0
    2.1218   47.7147   33.0716 H   0  0  0  0  0  0  0  0  0  0  0  0
    4.7716   51.0757   33.1487 H   0  0  0  0  0  0  0  0  0  0  0  0
    3.1179   49.6183   34.2730 H   0  0  0  0  0  0  0  0  0  0  0  0
   11.3780   41.5548   31.4750 H   0  0  0  0  0  0  0  0  0  0  0  0
    9.8235   40.7202   31.7651 H   0  0  0  0  0  0  0  0  0  0  0  0
   11.7311   39.5363   30.3531 H   0  0  0  0  0  0  0  0  0  0  0  0
   10.1203   38.2695   32.6410 H   0  0  0  0  0  0  0  0  0  0  0  0
   13.6850   37.4638   31.2321 H   0  0  0  0  0  0  0  0  0  0  0  0
   10.0250   38.1792   29.7654 H   0  0  0  0  0  0  0  0  0  0  0  0
   11.2757   36.3135   32.4907 H   0  0  0  0  0  0  0  0  0  0  0  0
   11.9838   36.9111   29.7708 H   0  0  0  0  0  0  0  0  0  0  0  0
   12.3307   38.3536   34.7457 H   0  0  0  0  0  0  0  0  0  0  0  0
   16.7566   34.1786   32.4623 H   0  0  0  0  0  0  0  0  0  0  0  0
   15.3535   35.7355   37.5144 H   0  0  0  0  0  0  0  0  0  0  0  0
   16.6353   34.5301   37.1419 H   0  0  0  0  0  0  0  0  0  0  0  0
  1  2  2  0
  1  3  1  0
  3  4  1  0
  4  5  1  0
  6  1  1  0
  7  6  1  0
  6  8  1  0
  8  9  1  0
  9 10  2  0
 11  9  1  0
 10 12  1  0
 13 11  2  0
 12 14  2  0
 14 13  1  0
 14 15  1  0
 15 16  1  0
 16 17  1  0
 17 18  2  0
 19 17  1  0
 18 20  1  0
 18 21  1  0
 22 19  2  0
 20 23  1  0
 20 24  2  0
 21 25  2  0
 25 22  1  0
  4 26  2  0
  4 27  1  0
 28 27  1  0
 28 29  1  0
 29 30  1  0
 29 31  1  0
 30 32  1  0
 31 33  1  0
 31 34  1  0
 34 32  1  0
 32 35  1  0
 34 36  1  0
 37 35  1  0
 38 35  1  0
 39 37  2  0
 37 40  1  0
 41 38  2  0
 42 39  1  0
 40 43  2  0
 40 41  1  0
 44 42  2  0
 44 43  1  0
 43 45  1  0
  6 46  1  1
  7 47  1  0
  7 48  1  0
  8 49  1  0
  8 50  1  0
 10 51  1  0
 11 52  1  0
 12 53  1  0
 13 54  1  0
 16 55  1  0
 16 56  1  0
 19 57  1  0
 21 58  1  0
 22 59  1  0
 25 60  1  0
 28 61  1  0
 28 62  1  0
 29 63  1  0
 31 64  1  0
 32 65  1  0
 33 66  1  0
 34 67  1  0
 36 68  1  0
 38 69  1  0
 42 70  1  0
 45 71  1  0
 45 72  1  0
M  CHG  3   5  -1  20   1  23  -1
M  END
>  <EmbedRMS>  (128) 
0.0817232274903

$$$$

     RDKit          3D

 72 76  0  0  0  0  0  0  0  0999 V2000
   10.2839   43.7626   33.8275 C   0  0  0  0  0  0  0  0  0  0  0  0
   11.4103   43.5863   34.3766 O   0  0  0  0  0  0  0  0  0  0  0  0
    9.3631   42.7236   33.7352 O   0  0  0  0  0  0  0  0  0  0  0  0
    9.8898   41.2247   34.2935 P   0  0  0  0  0  0  0  0  0  0  0  0
   10.3734   41.4543   35.8829 O   0  0  0  0  0  0  0  0  0  0  0  0
    9.9549   45.0700   33.2064 C   0  0  1  0  0  0  0  0  0  0  0  0
   11.0198   46.0481   33.4571 N   0  0  0  0  0  0  0  0  0  0  0  0
    9.7505   44.8512   31.6923 C   0  0  0  0  0  0  0  0  0  0  0  0
    8.7943   45.8419   31.0869 C   0  0  0  0  0  0  0  0  0  0  0  0
    7.4074   45.6004   31.1005 C   0  0  0  0  0  0  0  0  0  0  0  0
    9.2827   46.9894   30.4445 C   0  0  0  0  0  0  0  0  0  0  0  0
    6.5254   46.4998   30.4852 C   0  0  0  0  0  0  0  0  0  0  0  0
    8.4011   47.8885   29.8329 C   0  0  0  0  0  0  0  0  0  0  0  0
    7.0197   47.6550   29.8460 C   0  0  0  0  0  0  0  0  0  0  0  0
    6.1800   48.5861   29.2177 O   0  0  0  0  0  0  0  0  0  0  0  0
    4.7581   48.4789   29.1570 C   0  0  0  0  0  0  0  0  0  0  0  0
    4.1423   49.6473   28.4181 C   0  0  0  0  0  0  0  0  0  0  0  0
    2.8193   49.5730   27.9042 C   0  0  0  0  0  0  0  0  0  0  0  0
    4.8846   50.8310   28.2234 C   0  0  0  0  0  0  0  0  0  0  0  0
    1.9898   48.4147   28.1123 N   0  0  0  0  0  0  0  0  0  0  0  0
    2.3055   50.6569   27.1683 C   0  0  0  0  0  0  0  0  0  0  0  0
    4.3480   51.8998   27.5046 C   0  0  0  0  0  0  0  0  0  0  0  0
    1.9921   47.7587   29.3215 O   0  0  0  0  0  0  0  0  0  0  0  0
    1.1380   48.0930   27.2580 O   0  0  0  0  0  0  0  0  0  0  0  0
    3.0647   51.8101   26.9714 C   0  0  0  0  0  0  0  0  0  0  0  0
    8.8115   40.1834   34.2126 O   0  0  0  0  0  0  0  0  0  0  0  0
   11.2402   40.7936   33.3673 O   0  0  0  0  0  0  0  0  0  0  0  0
   10.9134   40.6864   31.9955 C   0  0  0  0  0  0  0  0  0  0  0  0
   11.5166   39.3786   31.4404 C   0  0  0  0  0  0  0  0  0  0  0  0
   12.7486   39.0848   32.0734 O   0  0  0  0  0  0  0  0  0  0  0  0
   10.6039   38.1883   31.6669 C   0  0  0  0  0  0  0  0  0  0  0  0
   12.9329   37.6775   32.0284 C   0  0  0  0  0  0  0  0  0  0  0  0
    9.6374   38.0938   30.6484 O   0  0  0  0  0  0  0  0  0  0  0  0
   11.5737   37.0140   31.7055 C   0  0  0  0  0  0  0  0  0  0  0  0
   13.4853   37.2120   33.3238 N   0  0  0  0  0  0  0  0  0  0  0  0
   11.6210   36.3379   30.4683 O   0  0  0  0  0  0  0  0  0  0  0  0
   14.4804   36.3319   33.5726 C   0  0  0  0  0  0  0  0  0  0  0  0
   13.1141   37.6275   34.5689 C   0  0  0  0  0  0  0  0  0  0  0  0
   15.2076   35.6152   32.6740 N   0  0  0  0  0  0  0  0  0  0  0  0
   14.6761   36.2306   34.9181 C   0  0  0  0  0  0  0  0  0  0  0  0
   13.8218   37.0451   35.5783 N   0  0  0  0  0  0  0  0  0  0  0  0
   16.1642   34.7600   33.1548 C   0  0  0  0  0  0  0  0  0  0  0  0
   15.6527   35.3507   35.4131 C   0  0  0  0  0  0  0  0  0  0  0  0
   16.3795   34.6315   34.5043 N   0  0  0  0  0  0  0  0  0  0  0  0
   15.9000   35.1933   36.8090 N   0  0  0  0  0  0  0  0  0  0  0  0
    9.0099   45.4349   33.6670 H   0  0  0  0  0  0  0  0  0  0  0  0
   11.9349   45.6933   33.0929 H   0  0  0  0  0  0  0  0  0  0  0  0
   11.1133   46.1992   34.4884 H   0  0  0  0  0  0  0  0  0  0  0  0
   10.7309   44.8933   31.1676 H   0  0  0  0  0  0  0  0  0  0  0  0
    9.3518   43.8345   31.4758 H   0  0  0  0  0  0  0  0  0  0  0  0
    7.0123   44.7148   31.5829 H   0  0  0  0  0  0  0  0  0  0  0  0
   10.3467   47.1895   30.4149 H   0  0  0  0  0  0  0  0  0  0  0  0
    5.4656   46.2865   30.5123 H   0  0  0  0  0  0  0  0  0  0  0  0
    8.7936   48.7708   29.3434 H   0  0  0  0  0  0  0  0  0  0  0  0
    4.3450   48.4494   30.1879 H   0  0  0  0  0  0  0  0  0  0  0  0
    4.5050   47.5372   28.6233 H   0  0  0  0  0  0  0  0  0  0  0  0
    5.8848   50.9354   28.6234 H   0  0  0  0  0  0  0  0  0  0  0  0
    1.3027   50.6165   26.7620 H   0  0  0  0  0  0  0  0  0  0  0  0
    4.9313   52.7999   27.3582 H   0  0  0  0  0  0  0  0  0  0  0  0
    2.6529   52.6399   26.4117 H   0  0  0  0  0  0  0  0  0  0  0  0
   11.3831   41.5437   31.4675 H   0  0  0  0  0  0  0  0  0  0  0  0
    9.8226   40.7225   31.7629 H   0  0  0  0  0  0  0  0  0  0  0  0
   11.6978   39.5037   30.3478 H   0  0  0  0  0  0  0  0  0  0  0  0
   10.1084   38.2785   32.6626 H   0  0  0  0  0  0  0  0  0  0  0  0
   13.6638   37.4471   31.2214 H   0  0  0  0  0  0  0  0  0  0  0  0
    8.9763   37.4190   30.9532 H   0  0  0  0  0  0  0  0  0  0  0  0
   11.2821   36.3053   32.5171 H   0  0  0  0  0  0  0  0  0  0  0  0
   10.8658   35.6935   30.4652 H   0  0  0  0  0  0  0  0  0  0  0  0
   12.3293   38.3523   34.7444 H   0  0  0  0  0  0  0  0  0  0  0  0
   16.7561   34.1778   32.4621 H   0  0  0  0  0  0  0  0  0  0  0  0
   16.6345   34.5300   37.1416 H   0  0  0  0  0  0  0  0  0  0  0  0
   15.3533   35.7361   37.5138 H   0  0  0  0  0  0  0  0  0  0  0  0
  1  2  2  0
  1  3  1  0
  3  4  1  0
  4  5  1  0
  6  1  1  0
  7  6  1  0
  6  8  1  0
  8  9  1  0
  9 10  2  0
 11  9  1  0
 10 12  1  0
 13 11  2  0
 12 14  2  0
 14 13  1  0
 14 15  1  0
 15 16  1  0
 16 17  1  0
 17 18  2  0
 19 17  1  0
 18 20  1  0
 18 21  1  0
 22 19  2  0
 20 23  1  0
 20 24  2  0
 21 25  2  0
 25 22  1  0
  4 26  2  0
  4 27  1  0
 28 27  1  0
 28 29  1  0
 29 30  1  0
 29 31  1  0
 30 32  1  0
 31 33  1  0
 31 34  1  0
 34 32  1  0
 32 35  1  0
 34 36  1  0
 37 35  1  0
 38 35  1  0
 39 37  2  0
 37 40  1  0
 41 38  2  0
 42 39  1  0
 40 43  2  0
 40 41  1  0
 44 42  2  0
 44 43  1  0
 43 45  1  0
  6 46  1  1
  7 47  1  0
  7 48  1  0
  8 49  1  0
  8 50  1  0
 10 51  1  0
 11 52  1  0
 12 53  1  0
 13 54  1  0
 16 55  1  0
 16 56  1  0
 19 57  1  0
 21 58  1  0
 22 59  1  0
 25 60  1  0
 28 61  1  0
 28 62  1  0
 29 63  1  0
 31 64  1  0
 32 65  1  0
 33 66  1  0
 34 67  1  0
 36 68  1  0
 38 69  1  0
 42 70  1  0
 45 71  1  0
 45 72  1  0
M  CHG  3   5  -1  20   1  23  -1
M  END
>  <EmbedRMS>  (129) 
0.0834342702411

$$$$

     RDKit          3D

 72 76  0  0  0  0  0  0  0  0999 V2000
   10.2834   43.7662   33.8257 C   0  0  0  0  0  0  0  0  0  0  0  0
   11.4102   43.5930   34.3752 O   0  0  0  0  0  0  0  0  0  0  0  0
    9.3635   42.7257   33.7352 O   0  0  0  0  0  0  0  0  0  0  0  0
    9.8899   41.2270   34.2947 P   0  0  0  0  0  0  0  0  0  0  0  0
   10.3732   41.4563   35.8841 O   0  0  0  0  0  0  0  0  0  0  0  0
    9.9548   45.0696   33.2035 C   0  0  1  0  0  0  0  0  0  0  0  0
   11.0274   46.0322   33.4759 N   0  0  0  0  0  0  0  0  0  0  0  0
    9.7471   44.8484   31.6875 C   0  0  0  0  0  0  0  0  0  0  0  0
    8.7924   45.8409   31.0844 C   0  0  0  0  0  0  0  0  0  0  0  0
    7.4055   45.6009   31.0995 C   0  0  0  0  0  0  0  0  0  0  0  0
    9.2818   46.9881   30.4420 C   0  0  0  0  0  0  0  0  0  0  0  0
    6.5241   46.5011   30.4849 C   0  0  0  0  0  0  0  0  0  0  0  0
    8.4006   47.8886   29.8322 C   0  0  0  0  0  0  0  0  0  0  0  0
    7.0190   47.6561   29.8458 C   0  0  0  0  0  0  0  0  0  0  0  0
    6.1798   48.5883   29.2183 O   0  0  0  0  0  0  0  0  0  0  0  0
    4.7587   48.4824   29.1561 C   0  0  0  0  0  0  0  0  0  0  0  0
    4.1917   49.6903   28.4500 C   0  0  0  0  0  0  0  0  0  0  0  0
    3.2960   49.5884   27.3523 C   0  0  0  0  0  0  0  0  0  0  0  0
    4.5964   50.9654   28.8860 C   0  0  0  0  0  0  0  0  0  0  0  0
    2.7640   48.3267   26.9206 N   0  0  0  0  0  0  0  0  0  0  0  0
    2.8919   50.7568   26.6841 C   0  0  0  0  0  0  0  0  0  0  0  0
    4.1669   52.1157   28.2224 C   0  0  0  0  0  0  0  0  0  0  0  0
    2.5646   48.0931   25.5795 O   0  0  0  0  0  0  0  0  0  0  0  0
    2.2483   47.5494   27.7502 O   0  0  0  0  0  0  0  0  0  0  0  0
    3.3251   52.0109   27.1166 C   0  0  0  0  0  0  0  0  0  0  0  0
    8.8120   40.1851   34.2133 O   0  0  0  0  0  0  0  0  0  0  0  0
   11.2403   40.7947   33.3700 O   0  0  0  0  0  0  0  0  0  0  0  0
   10.9145   40.6914   31.9982 C   0  0  0  0  0  0  0  0  0  0  0  0
   11.5270   39.3912   31.4385 C   0  0  0  0  0  0  0  0  0  0  0  0
   12.7520   39.0911   32.0836 O   0  0  0  0  0  0  0  0  0  0  0  0
   10.6113   38.1932   31.6451 C   0  0  0  0  0  0  0  0  0  0  0  0
   12.9413   37.6838   32.0297 C   0  0  0  0  0  0  0  0  0  0  0  0
    9.6064   38.0878   30.6599 O   0  0  0  0  0  0  0  0  0  0  0  0
   11.5822   37.0197   31.6877 C   0  0  0  0  0  0  0  0  0  0  0  0
   13.4840   37.2104   33.3254 N   0  0  0  0  0  0  0  0  0  0  0  0
   11.6179   36.3072   30.4690 O   0  0  0  0  0  0  0  0  0  0  0  0
   14.4797   36.3309   33.5738 C   0  0  0  0  0  0  0  0  0  0  0  0
   13.1137   37.6269   34.5702 C   0  0  0  0  0  0  0  0  0  0  0  0
   15.2074   35.6152   32.6747 N   0  0  0  0  0  0  0  0  0  0  0  0
   14.6756   36.2298   34.9190 C   0  0  0  0  0  0  0  0  0  0  0  0
   13.8217   37.0445   35.5793 N   0  0  0  0  0  0  0  0  0  0  0  0
   16.1643   34.7603   33.1551 C   0  0  0  0  0  0  0  0  0  0  0  0
   15.6528   35.3503   35.4136 C   0  0  0  0  0  0  0  0  0  0  0  0
   16.3798   34.6316   34.5046 N   0  0  0  0  0  0  0  0  0  0  0  0
   15.9004   35.1930   36.8094 N   0  0  0  0  0  0  0  0  0  0  0  0
    9.0121   45.4319   33.6712 H   0  0  0  0  0  0  0  0  0  0  0  0
   10.7262   46.9688   33.1214 H   0  0  0  0  0  0  0  0  0  0  0  0
   11.8908   45.7658   32.9475 H   0  0  0  0  0  0  0  0  0  0  0  0
    9.3425   43.8331   31.4758 H   0  0  0  0  0  0  0  0  0  0  0  0
   10.7235   44.8824   31.1557 H   0  0  0  0  0  0  0  0  0  0  0  0
    7.0099   44.7156   31.5821 H   0  0  0  0  0  0  0  0  0  0  0  0
   10.3461   47.1864   30.4104 H   0  0  0  0  0  0  0  0  0  0  0  0
    5.4643   46.2887   30.5130 H   0  0  0  0  0  0  0  0  0  0  0  0
    8.7937   48.7707   29.3427 H   0  0  0  0  0  0  0  0  0  0  0  0
    4.3433   48.4490   30.1864 H   0  0  0  0  0  0  0  0  0  0  0  0
    4.5045   47.5390   28.6342 H   0  0  0  0  0  0  0  0  0  0  0  0
    5.2634   51.0679   29.7335 H   0  0  0  0  0  0  0  0  0  0  0  0
    2.2151   50.6971   25.8410 H   0  0  0  0  0  0  0  0  0  0  0  0
    4.4944   53.0899   28.5618 H   0  0  0  0  0  0  0  0  0  0  0  0
    2.9970   52.9041   26.6007 H   0  0  0  0  0  0  0  0  0  0  0  0
   11.3777   41.5549   31.4744 H   0  0  0  0  0  0  0  0  0  0  0  0
    9.8235   40.7201   31.7654 H   0  0  0  0  0  0  0  0  0  0  0  0
   11.7312   39.5363   30.3532 H   0  0  0  0  0  0  0  0  0  0  0  0
   10.1203   38.2696   32.6410 H   0  0  0  0  0  0  0  0  0  0  0  0
   13.6850   37.4638   31.2321 H   0  0  0  0  0  0  0  0  0  0  0  0
   10.0251   38.1792   29.7654 H   0  0  0  0  0  0  0  0  0  0  0  0
   11.2757   36.3135   32.4907 H   0  0  0  0  0  0  0  0  0  0  0  0
   11.9838   36.9111   29.7708 H   0  0  0  0  0  0  0  0  0  0  0  0
   12.3307   38.3537   34.7458 H   0  0  0  0  0  0  0  0  0  0  0  0
   16.7566   34.1787   32.4623 H   0  0  0  0  0  0  0  0  0  0  0  0
   15.3535   35.7355   37.5144 H   0  0  0  0  0  0  0  0  0  0  0  0
   16.6353   34.5301   37.1419 H   0  0  0  0  0  0  0  0  0  0  0  0
  1  2  2  0
  1  3  1  0
  3  4  1  0
  4  5  1  0
  6  1  1  0
  7  6  1  0
  6  8  1  0
  8  9  1  0
  9 10  2  0
 11  9  1  0
 10 12  1  0
 13 11  2  0
 12 14  2  0
 14 13  1  0
 14 15  1  0
 15 16  1  0
 16 17  1  0
 17 18  2  0
 19 17  1  0
 18 20  1  0
 18 21  1  0
 22 19  2  0
 20 23  1  0
 20 24  2  0
 21 25  2  0
 25 22  1  0
  4 26  2  0
  4 27  1  0
 28 27  1  0
 28 29  1  0
 29 30  1  0
 29 31  1  0
 30 32  1  0
 31 33  1  0
 31 34  1  0
 34 32  1  0
 32 35  1  0
 34 36  1  0
 37 35  1  0
 38 35  1  0
 39 37  2  0
 37 40  1  0
 41 38  2  0
 42 39  1  0
 40 43  2  0
 40 41  1  0
 44 42  2  0
 44 43  1  0
 43 45  1  0
  6 46  1  1
  7 47  1  0
  7 48  1  0
  8 49  1  0
  8 50  1  0
 10 51  1  0
 11 52  1  0
 12 53  1  0
 13 54  1  0
 16 55  1  0
 16 56  1  0
 19 57  1  0
 21 58  1  0
 22 59  1  0
 25 60  1  0
 28 61  1  0
 28 62  1  0
 29 63  1  0
 31 64  1  0
 32 65  1  0
 33 66  1  0
 34 67  1  0
 36 68  1  0
 38 69  1  0
 42 70  1  0
 45 71  1  0
 45 72  1  0
M  CHG  3   5  -1  20   1  23  -1
M  END
>  <EmbedRMS>  (130) 
0.0808185023847

$$$$

     RDKit          3D

 72 76  0  0  0  0  0  0  0  0999 V2000
   10.2836   43.7661   33.8257 C   0  0  0  0  0  0  0  0  0  0  0  0
   11.4103   43.5931   34.3753 O   0  0  0  0  0  0  0  0  0  0  0  0
    9.3641   42.7253   33.7347 O   0  0  0  0  0  0  0  0  0  0  0  0
    9.8908   41.2265   34.2939 P   0  0  0  0  0  0  0  0  0  0  0  0
   10.3732   41.4559   35.8835 O   0  0  0  0  0  0  0  0  0  0  0  0
    9.9546   45.0694   33.2037 C   0  0  1  0  0  0  0  0  0  0  0  0
   11.0272   46.0323   33.4757 N   0  0  0  0  0  0  0  0  0  0  0  0
    9.7465   44.8481   31.6878 C   0  0  0  0  0  0  0  0  0  0  0  0
    8.7923   45.8409   31.0848 C   0  0  0  0  0  0  0  0  0  0  0  0
    7.4056   45.6011   31.0984 C   0  0  0  0  0  0  0  0  0  0  0  0
    9.2823   46.9874   30.4418 C   0  0  0  0  0  0  0  0  0  0  0  0
    6.5269   46.5026   30.4827 C   0  0  0  0  0  0  0  0  0  0  0  0
    8.4033   47.8892   29.8307 C   0  0  0  0  0  0  0  0  0  0  0  0
    7.0140   47.6545   29.8500 C   0  0  0  0  0  0  0  0  0  0  0  0
    6.0883   48.5285   29.2582 O   0  0  0  0  0  0  0  0  0  0  0  0
    6.3941   49.8150   28.7182 C   0  0  0  0  0  0  0  0  0  0  0  0
    6.7797   50.7844   29.8133 C   0  0  0  0  0  0  0  0  0  0  0  0
    5.9667   50.9950   30.9611 C   0  0  0  0  0  0  0  0  0  0  0  0
    8.0034   51.4705   29.7046 C   0  0  0  0  0  0  0  0  0  0  0  0
    4.6917   50.3477   31.1249 N   0  0  0  0  0  0  0  0  0  0  0  0
    6.4280   51.8494   31.9783 C   0  0  0  0  0  0  0  0  0  0  0  0
    8.4336   52.3263   30.7188 C   0  0  0  0  0  0  0  0  0  0  0  0
    4.2281   50.0536   32.3866 O   0  0  0  0  0  0  0  0  0  0  0  0
    3.9223   50.1983   30.1539 O   0  0  0  0  0  0  0  0  0  0  0  0
    7.6506   52.5107   31.8561 C   0  0  0  0  0  0  0  0  0  0  0  0
    8.8127   40.1848   34.2122 O   0  0  0  0  0  0  0  0  0  0  0  0
   11.2421   40.7941   33.3697 O   0  0  0  0  0  0  0  0  0  0  0  0
   10.9187   40.6911   31.9971 C   0  0  0  0  0  0  0  0  0  0  0  0
   11.5172   39.3815   31.4408 C   0  0  0  0  0  0  0  0  0  0  0  0
   12.7493   39.0855   32.0728 O   0  0  0  0  0  0  0  0  0  0  0  0
   10.6023   38.1908   31.6665 C   0  0  0  0  0  0  0  0  0  0  0  0
   12.9319   37.6781   32.0281 C   0  0  0  0  0  0  0  0  0  0  0  0
    9.6392   38.0798   30.6452 O   0  0  0  0  0  0  0  0  0  0  0  0
   11.5715   37.0165   31.7056 C   0  0  0  0  0  0  0  0  0  0  0  0
   13.4846   37.2121   33.3235 N   0  0  0  0  0  0  0  0  0  0  0  0
   11.6187   36.3384   30.4695 O   0  0  0  0  0  0  0  0  0  0  0  0
   14.4801   36.3321   33.5724 C   0  0  0  0  0  0  0  0  0  0  0  0
   13.1137   37.6275   34.5688 C   0  0  0  0  0  0  0  0  0  0  0  0
   15.2073   35.6153   32.6738 N   0  0  0  0  0  0  0  0  0  0  0  0
   14.6759   36.2308   34.9179 C   0  0  0  0  0  0  0  0  0  0  0  0
   13.8216   37.0452   35.5781 N   0  0  0  0  0  0  0  0  0  0  0  0
   16.1640   34.7602   33.1546 C   0  0  0  0  0  0  0  0  0  0  0  0
   15.6526   35.3508   35.4129 C   0  0  0  0  0  0  0  0  0  0  0  0
   16.3794   34.6317   34.5041 N   0  0  0  0  0  0  0  0  0  0  0  0
   15.8999   35.1934   36.8088 N   0  0  0  0  0  0  0  0  0  0  0  0
    9.0120   45.4316   33.6716 H   0  0  0  0  0  0  0  0  0  0  0  0
   11.8905   45.7660   32.9469 H   0  0  0  0  0  0  0  0  0  0  0  0
   10.7257   46.9688   33.1214 H   0  0  0  0  0  0  0  0  0  0  0  0
    9.3413   43.8330   31.4763 H   0  0  0  0  0  0  0  0  0  0  0  0
   10.7229   44.8814   31.1558 H   0  0  0  0  0  0  0  0  0  0  0  0
    7.0083   44.7162   31.5802 H   0  0  0  0  0  0  0  0  0  0  0  0
   10.3471   47.1830   30.4086 H   0  0  0  0  0  0  0  0  0  0  0  0
    5.4621   46.3074   30.5021 H   0  0  0  0  0  0  0  0  0  0  0  0
    8.8175   48.7564   29.3382 H   0  0  0  0  0  0  0  0  0  0  0  0
    5.4986   50.2050   28.1925 H   0  0  0  0  0  0  0  0  0  0  0  0
    7.1870   49.7170   27.9454 H   0  0  0  0  0  0  0  0  0  0  0  0
    8.6363   51.3335   28.8364 H   0  0  0  0  0  0  0  0  0  0  0  0
    5.8293   52.0188   32.8643 H   0  0  0  0  0  0  0  0  0  0  0  0
    9.3802   52.8429   30.6252 H   0  0  0  0  0  0  0  0  0  0  0  0
    7.9888   53.1719   32.6435 H   0  0  0  0  0  0  0  0  0  0  0  0
    9.8299   40.7410   31.7613 H   0  0  0  0  0  0  0  0  0  0  0  0
   11.3968   41.5460   31.4728 H   0  0  0  0  0  0  0  0  0  0  0  0
   11.6975   39.5067   30.3481 H   0  0  0  0  0  0  0  0  0  0  0  0
   10.1076   38.2648   32.6645 H   0  0  0  0  0  0  0  0  0  0  0  0
   13.6621   37.4467   31.2209 H   0  0  0  0  0  0  0  0  0  0  0  0
    8.8975   38.6944   30.8831 H   0  0  0  0  0  0  0  0  0  0  0  0
   11.2806   36.3073   32.5170 H   0  0  0  0  0  0  0  0  0  0  0  0
   10.8492   35.7110   30.4586 H   0  0  0  0  0  0  0  0  0  0  0  0
   12.3290   38.3524   34.7444 H   0  0  0  0  0  0  0  0  0  0  0  0
   16.7559   34.1780   32.4619 H   0  0  0  0  0  0  0  0  0  0  0  0
   16.6344   34.5301   37.1414 H   0  0  0  0  0  0  0  0  0  0  0  0
   15.3532   35.7362   37.5137 H   0  0  0  0  0  0  0  0  0  0  0  0
  1  2  2  0
  1  3  1  0
  3  4  1  0
  4  5  1  0
  6  1  1  0
  7  6  1  0
  6  8  1  0
  8  9  1  0
  9 10  2  0
 11  9  1  0
 10 12  1  0
 13 11  2  0
 12 14  2  0
 14 13  1  0
 14 15  1  0
 15 16  1  0
 16 17  1  0
 17 18  2  0
 19 17  1  0
 18 20  1  0
 18 21  1  0
 22 19  2  0
 20 23  1  0
 20 24  2  0
 21 25  2  0
 25 22  1  0
  4 26  2  0
  4 27  1  0
 28 27  1  0
 28 29  1  0
 29 30  1  0
 29 31  1  0
 30 32  1  0
 31 33  1  0
 31 34  1  0
 34 32  1  0
 32 35  1  0
 34 36  1  0
 37 35  1  0
 38 35  1  0
 39 37  2  0
 37 40  1  0
 41 38  2  0
 42 39  1  0
 40 43  2  0
 40 41  1  0
 44 42  2  0
 44 43  1  0
 43 45  1  0
  6 46  1  1
  7 47  1  0
  7 48  1  0
  8 49  1  0
  8 50  1  0
 10 51  1  0
 11 52  1  0
 12 53  1  0
 13 54  1  0
 16 55  1  0
 16 56  1  0
 19 57  1  0
 21 58  1  0
 22 59  1  0
 25 60  1  0
 28 61  1  0
 28 62  1  0
 29 63  1  0
 31 64  1  0
 32 65  1  0
 33 66  1  0
 34 67  1  0
 36 68  1  0
 38 69  1  0
 42 70  1  0
 45 71  1  0
 45 72  1  0
M  CHG  3   5  -1  20   1  23  -1
M  END
>  <EmbedRMS>  (131) 
0.0829453186128

$$$$

     RDKit          3D

 72 76  0  0  0  0  0  0  0  0999 V2000
   10.2835   43.7661   33.8257 C   0  0  0  0  0  0  0  0  0  0  0  0
   11.4102   43.5930   34.3753 O   0  0  0  0  0  0  0  0  0  0  0  0
    9.3638   42.7255   33.7351 O   0  0  0  0  0  0  0  0  0  0  0  0
    9.8904   41.2267   34.2947 P   0  0  0  0  0  0  0  0  0  0  0  0
   10.3729   41.4561   35.8843 O   0  0  0  0  0  0  0  0  0  0  0  0
    9.9546   45.0694   33.2036 C   0  0  1  0  0  0  0  0  0  0  0  0
   11.0274   46.0321   33.4756 N   0  0  0  0  0  0  0  0  0  0  0  0
    9.7465   44.8480   31.6877 C   0  0  0  0  0  0  0  0  0  0  0  0
    8.7923   45.8408   31.0844 C   0  0  0  0  0  0  0  0  0  0  0  0
    7.4054   45.6015   31.0991 C   0  0  0  0  0  0  0  0  0  0  0  0
    9.2824   46.9879   30.4423 C   0  0  0  0  0  0  0  0  0  0  0  0
    6.5263   46.5032   30.4839 C   0  0  0  0  0  0  0  0  0  0  0  0
    8.4033   47.8901   29.8315 C   0  0  0  0  0  0  0  0  0  0  0  0
    7.0143   47.6526   29.8474 C   0  0  0  0  0  0  0  0  0  0  0  0
    6.0936   48.5242   29.2476 O   0  0  0  0  0  0  0  0  0  0  0  0
    6.4458   49.7252   28.5635 C   0  0  0  0  0  0  0  0  0  0  0  0
    5.2017   50.3751   28.0083 C   0  0  0  0  0  0  0  0  0  0  0  0
    4.8766   51.7357   28.2483 C   0  0  0  0  0  0  0  0  0  0  0  0
    4.3201   49.5846   27.2483 C   0  0  0  0  0  0  0  0  0  0  0  0
    5.7837   52.6200   28.9243 N   0  0  0  0  0  0  0  0  0  0  0  0
    3.6516   52.2430   27.7803 C   0  0  0  0  0  0  0  0  0  0  0  0
    3.1174   50.1116   26.7752 C   0  0  0  0  0  0  0  0  0  0  0  0
    7.0951   52.7010   28.5158 O   0  0  0  0  0  0  0  0  0  0  0  0
    5.3431   53.4832   29.7112 O   0  0  0  0  0  0  0  0  0  0  0  0
    2.7787   51.4353   27.0500 C   0  0  0  0  0  0  0  0  0  0  0  0
    8.8125   40.1848   34.2126 O   0  0  0  0  0  0  0  0  0  0  0  0
   11.2416   40.7948   33.3707 O   0  0  0  0  0  0  0  0  0  0  0  0
   10.9179   40.6921   31.9984 C   0  0  0  0  0  0  0  0  0  0  0  0
   11.5175   39.3837   31.4423 C   0  0  0  0  0  0  0  0  0  0  0  0
   12.7508   39.0887   32.0752 O   0  0  0  0  0  0  0  0  0  0  0  0
   10.6028   38.1916   31.6659 C   0  0  0  0  0  0  0  0  0  0  0  0
   12.9385   37.6818   32.0278 C   0  0  0  0  0  0  0  0  0  0  0  0
    9.6371   38.0806   30.6470 O   0  0  0  0  0  0  0  0  0  0  0  0
   11.5780   37.0215   31.6935 C   0  0  0  0  0  0  0  0  0  0  0  0
   13.4844   37.2119   33.3242 N   0  0  0  0  0  0  0  0  0  0  0  0
   11.6095   36.3201   30.4679 O   0  0  0  0  0  0  0  0  0  0  0  0
   14.4797   36.3318   33.5730 C   0  0  0  0  0  0  0  0  0  0  0  0
   13.1136   37.6278   34.5691 C   0  0  0  0  0  0  0  0  0  0  0  0
   15.2073   35.6155   32.6742 N   0  0  0  0  0  0  0  0  0  0  0  0
   14.6754   36.2305   34.9184 C   0  0  0  0  0  0  0  0  0  0  0  0
   13.8213   37.0452   35.5785 N   0  0  0  0  0  0  0  0  0  0  0  0
   16.1640   34.7604   33.1549 C   0  0  0  0  0  0  0  0  0  0  0  0
   15.6524   35.3507   35.4132 C   0  0  0  0  0  0  0  0  0  0  0  0
   16.3794   34.6318   34.5044 N   0  0  0  0  0  0  0  0  0  0  0  0
   15.8999   35.1934   36.8091 N   0  0  0  0  0  0  0  0  0  0  0  0
    9.0121   45.4317   33.6715 H   0  0  0  0  0  0  0  0  0  0  0  0
   11.8906   45.7658   32.9469 H   0  0  0  0  0  0  0  0  0  0  0  0
   10.7260   46.9687   33.1213 H   0  0  0  0  0  0  0  0  0  0  0  0
   10.7229   44.8813   31.1557 H   0  0  0  0  0  0  0  0  0  0  0  0
    9.3413   43.8329   31.4764 H   0  0  0  0  0  0  0  0  0  0  0  0
    7.0082   44.7168   31.5813 H   0  0  0  0  0  0  0  0  0  0  0  0
   10.3471   47.1848   30.4116 H   0  0  0  0  0  0  0  0  0  0  0  0
    5.4617   46.3071   30.5017 H   0  0  0  0  0  0  0  0  0  0  0  0
    8.8143   48.7654   29.3475 H   0  0  0  0  0  0  0  0  0  0  0  0
    7.1259   49.4854   27.7179 H   0  0  0  0  0  0  0  0  0  0  0  0
    6.9752   50.3876   29.2765 H   0  0  0  0  0  0  0  0  0  0  0  0
    4.5574   48.5489   27.0368 H   0  0  0  0  0  0  0  0  0  0  0  0
    3.3850   53.2773   27.9587 H   0  0  0  0  0  0  0  0  0  0  0  0
    2.4432   49.4895   26.2007 H   0  0  0  0  0  0  0  0  0  0  0  0
    1.8437   51.8407   26.6854 H   0  0  0  0  0  0  0  0  0  0  0  0
    9.8291   40.7409   31.7627 H   0  0  0  0  0  0  0  0  0  0  0  0
   11.3951   41.5478   31.4744 H   0  0  0  0  0  0  0  0  0  0  0  0
   11.6981   39.5115   30.3500 H   0  0  0  0  0  0  0  0  0  0  0  0
   10.1117   38.2604   32.6660 H   0  0  0  0  0  0  0  0  0  0  0  0
   13.6767   37.4556   31.2267 H   0  0  0  0  0  0  0  0  0  0  0  0
    8.8961   38.6951   30.8872 H   0  0  0  0  0  0  0  0  0  0  0  0
   11.2791   36.3072   32.4922 H   0  0  0  0  0  0  0  0  0  0  0  0
   11.8828   36.9598   29.7588 H   0  0  0  0  0  0  0  0  0  0  0  0
   12.3300   38.3539   34.7446 H   0  0  0  0  0  0  0  0  0  0  0  0
   16.7562   34.1785   32.4622 H   0  0  0  0  0  0  0  0  0  0  0  0
   15.3531   35.7360   37.5140 H   0  0  0  0  0  0  0  0  0  0  0  0
   16.6347   34.5303   37.1416 H   0  0  0  0  0  0  0  0  0  0  0  0
  1  2  2  0
  1  3  1  0
  3  4  1  0
  4  5  1  0
  6  1  1  0
  7  6  1  0
  6  8  1  0
  8  9  1  0
  9 10  2  0
 11  9  1  0
 10 12  1  0
 13 11  2  0
 12 14  2  0
 14 13  1  0
 14 15  1  0
 15 16  1  0
 16 17  1  0
 17 18  2  0
 19 17  1  0
 18 20  1  0
 18 21  1  0
 22 19  2  0
 20 23  1  0
 20 24  2  0
 21 25  2  0
 25 22  1  0
  4 26  2  0
  4 27  1  0
 28 27  1  0
 28 29  1  0
 29 30  1  0
 29 31  1  0
 30 32  1  0
 31 33  1  0
 31 34  1  0
 34 32  1  0
 32 35  1  0
 34 36  1  0
 37 35  1  0
 38 35  1  0
 39 37  2  0
 37 40  1  0
 41 38  2  0
 42 39  1  0
 40 43  2  0
 40 41  1  0
 44 42  2  0
 44 43  1  0
 43 45  1  0
  6 46  1  1
  7 47  1  0
  7 48  1  0
  8 49  1  0
  8 50  1  0
 10 51  1  0
 11 52  1  0
 12 53  1  0
 13 54  1  0
 16 55  1  0
 16 56  1  0
 19 57  1  0
 21 58  1  0
 22 59  1  0
 25 60  1  0
 28 61  1  0
 28 62  1  0
 29 63  1  0
 31 64  1  0
 32 65  1  0
 33 66  1  0
 34 67  1  0
 36 68  1  0
 38 69  1  0
 42 70  1  0
 45 71  1  0
 45 72  1  0
M  CHG  3   5  -1  20   1  23  -1
M  END
>  <EmbedRMS>  (132) 
0.0819738828061

$$$$

     RDKit          3D

 72 76  0  0  0  0  0  0  0  0999 V2000
   10.2839   43.7626   33.8276 C   0  0  0  0  0  0  0  0  0  0  0  0
   11.4103   43.5863   34.3766 O   0  0  0  0  0  0  0  0  0  0  0  0
    9.3631   42.7236   33.7354 O   0  0  0  0  0  0  0  0  0  0  0  0
    9.8895   41.2249   34.2944 P   0  0  0  0  0  0  0  0  0  0  0  0
   10.3727   41.4546   35.8838 O   0  0  0  0  0  0  0  0  0  0  0  0
    9.9548   45.0699   33.2063 C   0  0  1  0  0  0  0  0  0  0  0  0
   11.0198   46.0480   33.4567 N   0  0  0  0  0  0  0  0  0  0  0  0
    9.7501   44.8507   31.6922 C   0  0  0  0  0  0  0  0  0  0  0  0
    8.7942   45.8415   31.0866 C   0  0  0  0  0  0  0  0  0  0  0  0
    7.4074   45.6013   31.1005 C   0  0  0  0  0  0  0  0  0  0  0  0
    9.2831   46.9893   30.4452 C   0  0  0  0  0  0  0  0  0  0  0  0
    6.5279   46.5025   30.4851 C   0  0  0  0  0  0  0  0  0  0  0  0
    8.4035   47.8904   29.8336 C   0  0  0  0  0  0  0  0  0  0  0  0
    7.0150   47.6506   29.8454 C   0  0  0  0  0  0  0  0  0  0  0  0
    6.0898   48.5165   29.2410 O   0  0  0  0  0  0  0  0  0  0  0  0
    6.4208   49.6415   28.4254 C   0  0  0  0  0  0  0  0  0  0  0  0
    7.0276   49.1999   27.1126 C   0  0  0  0  0  0  0  0  0  0  0  0
    6.4067   48.2306   26.2794 C   0  0  0  0  0  0  0  0  0  0  0  0
    8.2669   49.7434   26.7269 C   0  0  0  0  0  0  0  0  0  0  0  0
    5.1272   47.6574   26.6043 N   0  0  0  0  0  0  0  0  0  0  0  0
    7.0674   47.8083   25.1110 C   0  0  0  0  0  0  0  0  0  0  0  0
    8.8971   49.3215   25.5559 C   0  0  0  0  0  0  0  0  0  0  0  0
    4.1164   48.4398   27.1119 O   0  0  0  0  0  0  0  0  0  0  0  0
    4.8679   46.4806   26.2777 O   0  0  0  0  0  0  0  0  0  0  0  0
    8.3014   48.3517   24.7526 C   0  0  0  0  0  0  0  0  0  0  0  0
    8.8114   40.1833   34.2129 O   0  0  0  0  0  0  0  0  0  0  0  0
   11.2402   40.7931   33.3696 O   0  0  0  0  0  0  0  0  0  0  0  0
   10.9151   40.6903   31.9975 C   0  0  0  0  0  0  0  0  0  0  0  0
   11.5252   39.3886   31.4375 C   0  0  0  0  0  0  0  0  0  0  0  0
   12.7500   39.0873   32.0798 O   0  0  0  0  0  0  0  0  0  0  0  0
   10.6092   38.1925   31.6469 C   0  0  0  0  0  0  0  0  0  0  0  0
   12.9332   37.6792   32.0294 C   0  0  0  0  0  0  0  0  0  0  0  0
    9.6122   38.0894   30.6542 O   0  0  0  0  0  0  0  0  0  0  0  0
   11.5743   37.0144   31.7024 C   0  0  0  0  0  0  0  0  0  0  0  0
   13.4844   37.2108   33.3241 N   0  0  0  0  0  0  0  0  0  0  0  0
   11.6297   36.3238   30.4740 O   0  0  0  0  0  0  0  0  0  0  0  0
   14.4802   36.3313   33.5727 C   0  0  0  0  0  0  0  0  0  0  0  0
   13.1138   37.6267   34.5692 C   0  0  0  0  0  0  0  0  0  0  0  0
   15.2075   35.6149   32.6739 N   0  0  0  0  0  0  0  0  0  0  0  0
   14.6761   36.2303   34.9181 C   0  0  0  0  0  0  0  0  0  0  0  0
   13.8220   37.0447   35.5785 N   0  0  0  0  0  0  0  0  0  0  0  0
   16.1643   34.7600   33.1547 C   0  0  0  0  0  0  0  0  0  0  0  0
   15.6529   35.3505   35.4130 C   0  0  0  0  0  0  0  0  0  0  0  0
   16.3798   34.6315   34.5042 N   0  0  0  0  0  0  0  0  0  0  0  0
   15.9003   35.1932   36.8090 N   0  0  0  0  0  0  0  0  0  0  0  0
    9.0099   45.4348   33.6669 H   0  0  0  0  0  0  0  0  0  0  0  0
   11.1134   46.1992   34.4880 H   0  0  0  0  0  0  0  0  0  0  0  0
   11.9348   45.6932   33.0923 H   0  0  0  0  0  0  0  0  0  0  0  0
   10.7304   44.8921   31.1673 H   0  0  0  0  0  0  0  0  0  0  0  0
    9.3509   43.8342   31.4762 H   0  0  0  0  0  0  0  0  0  0  0  0
    7.0107   44.7163   31.5826 H   0  0  0  0  0  0  0  0  0  0  0  0
   10.3473   47.1895   30.4188 H   0  0  0  0  0  0  0  0  0  0  0  0
    5.4636   46.3048   30.5013 H   0  0  0  0  0  0  0  0  0  0  0  0
    8.8155   48.7695   29.3606 H   0  0  0  0  0  0  0  0  0  0  0  0
    7.0912   50.3266   28.9884 H   0  0  0  0  0  0  0  0  0  0  0  0
    5.4966   50.2180   28.2175 H   0  0  0  0  0  0  0  0  0  0  0  0
    8.7564   50.4889   27.3414 H   0  0  0  0  0  0  0  0  0  0  0  0
    6.6158   47.0659   24.4650 H   0  0  0  0  0  0  0  0  0  0  0  0
    9.8533   49.7435   25.2742 H   0  0  0  0  0  0  0  0  0  0  0  0
    8.7945   48.0231   23.8467 H   0  0  0  0  0  0  0  0  0  0  0  0
    9.8243   40.7216   31.7640 H   0  0  0  0  0  0  0  0  0  0  0  0
   11.3805   41.5528   31.4739 H   0  0  0  0  0  0  0  0  0  0  0  0
   11.7265   39.5311   30.3512 H   0  0  0  0  0  0  0  0  0  0  0  0
   10.1110   38.2746   32.6387 H   0  0  0  0  0  0  0  0  0  0  0  0
   13.6652   37.4519   31.2226 H   0  0  0  0  0  0  0  0  0  0  0  0
   10.0511   38.1143   29.7644 H   0  0  0  0  0  0  0  0  0  0  0  0
   11.2762   36.3141   32.5189 H   0  0  0  0  0  0  0  0  0  0  0  0
   10.8593   35.6977   30.4639 H   0  0  0  0  0  0  0  0  0  0  0  0
   12.3294   38.3518   34.7449 H   0  0  0  0  0  0  0  0  0  0  0  0
   16.7564   34.1780   32.4620 H   0  0  0  0  0  0  0  0  0  0  0  0
   16.6349   34.5300   37.1415 H   0  0  0  0  0  0  0  0  0  0  0  0
   15.3534   35.7359   37.5138 H   0  0  0  0  0  0  0  0  0  0  0  0
  1  2  2  0
  1  3  1  0
  3  4  1  0
  4  5  1  0
  6  1  1  0
  7  6  1  0
  6  8  1  0
  8  9  1  0
  9 10  2  0
 11  9  1  0
 10 12  1  0
 13 11  2  0
 12 14  2  0
 14 13  1  0
 14 15  1  0
 15 16  1  0
 16 17  1  0
 17 18  2  0
 19 17  1  0
 18 20  1  0
 18 21  1  0
 22 19  2  0
 20 23  1  0
 20 24  2  0
 21 25  2  0
 25 22  1  0
  4 26  2  0
  4 27  1  0
 28 27  1  0
 28 29  1  0
 29 30  1  0
 29 31  1  0
 30 32  1  0
 31 33  1  0
 31 34  1  0
 34 32  1  0
 32 35  1  0
 34 36  1  0
 37 35  1  0
 38 35  1  0
 39 37  2  0
 37 40  1  0
 41 38  2  0
 42 39  1  0
 40 43  2  0
 40 41  1  0
 44 42  2  0
 44 43  1  0
 43 45  1  0
  6 46  1  1
  7 47  1  0
  7 48  1  0
  8 49  1  0
  8 50  1  0
 10 51  1  0
 11 52  1  0
 12 53  1  0
 13 54  1  0
 16 55  1  0
 16 56  1  0
 19 57  1  0
 21 58  1  0
 22 59  1  0
 25 60  1  0
 28 61  1  0
 28 62  1  0
 29 63  1  0
 31 64  1  0
 32 65  1  0
 33 66  1  0
 34 67  1  0
 36 68  1  0
 38 69  1  0
 42 70  1  0
 45 71  1  0
 45 72  1  0
M  CHG  3   5  -1  20   1  23  -1
M  END
>  <EmbedRMS>  (133) 
0.0827334089176

$$$$

     RDKit          3D

 72 76  0  0  0  0  0  0  0  0999 V2000
   10.2835   43.7661   33.8256 C   0  0  0  0  0  0  0  0  0  0  0  0
   11.4102   43.5931   34.3753 O   0  0  0  0  0  0  0  0  0  0  0  0
    9.3639   42.7253   33.7348 O   0  0  0  0  0  0  0  0  0  0  0  0
    9.8907   41.2265   34.2939 P   0  0  0  0  0  0  0  0  0  0  0  0
   10.3733   41.4559   35.8835 O   0  0  0  0  0  0  0  0  0  0  0  0
    9.9546   45.0694   33.2035 C   0  0  1  0  0  0  0  0  0  0  0  0
   11.0272   46.0322   33.4756 N   0  0  0  0  0  0  0  0  0  0  0  0
    9.7466   44.8479   31.6875 C   0  0  0  0  0  0  0  0  0  0  0  0
    8.7924   45.8404   31.0838 C   0  0  0  0  0  0  0  0  0  0  0  0
    7.4056   45.6014   31.0989 C   0  0  0  0  0  0  0  0  0  0  0  0
    9.2824   46.9878   30.4426 C   0  0  0  0  0  0  0  0  0  0  0  0
    6.5265   46.5035   30.4846 C   0  0  0  0  0  0  0  0  0  0  0  0
    8.4035   47.8902   29.8322 C   0  0  0  0  0  0  0  0  0  0  0  0
    7.0140   47.6525   29.8469 C   0  0  0  0  0  0  0  0  0  0  0  0
    6.0882   48.5295   29.2557 O   0  0  0  0  0  0  0  0  0  0  0  0
    6.4246   49.6899   28.4909 C   0  0  0  0  0  0  0  0  0  0  0  0
    6.7779   50.8951   29.3468 C   0  0  0  0  0  0  0  0  0  0  0  0
    7.0681   52.1531   28.7459 C   0  0  0  0  0  0  0  0  0  0  0  0
    6.7546   50.8079   30.7562 C   0  0  0  0  0  0  0  0  0  0  0  0
    7.0655   52.3391   27.3183 N   0  0  0  0  0  0  0  0  0  0  0  0
    7.3293   53.2651   29.5658 C   0  0  0  0  0  0  0  0  0  0  0  0
    7.0327   51.9223   31.5479 C   0  0  0  0  0  0  0  0  0  0  0  0
    6.6783   53.5481   26.7872 O   0  0  0  0  0  0  0  0  0  0  0  0
    7.5796   51.4911   26.5614 O   0  0  0  0  0  0  0  0  0  0  0  0
    7.3202   53.1476   30.9545 C   0  0  0  0  0  0  0  0  0  0  0  0
    8.8126   40.1847   34.2122 O   0  0  0  0  0  0  0  0  0  0  0  0
   11.2418   40.7943   33.3694 O   0  0  0  0  0  0  0  0  0  0  0  0
   10.9179   40.6904   31.9970 C   0  0  0  0  0  0  0  0  0  0  0  0
   11.5181   39.3814   31.4408 C   0  0  0  0  0  0  0  0  0  0  0  0
   12.7497   39.0870   32.0745 O   0  0  0  0  0  0  0  0  0  0  0  0
   10.6045   38.1891   31.6655 C   0  0  0  0  0  0  0  0  0  0  0  0
   12.9344   37.6801   32.0290 C   0  0  0  0  0  0  0  0  0  0  0  0
    9.6418   38.0758   30.6441 O   0  0  0  0  0  0  0  0  0  0  0  0
   11.5741   37.0170   31.7045 C   0  0  0  0  0  0  0  0  0  0  0  0
   13.4851   37.2125   33.3241 N   0  0  0  0  0  0  0  0  0  0  0  0
   11.6079   36.3407   30.4680 O   0  0  0  0  0  0  0  0  0  0  0  0
   14.4801   36.3321   33.5727 C   0  0  0  0  0  0  0  0  0  0  0  0
   13.1140   37.6277   34.5693 C   0  0  0  0  0  0  0  0  0  0  0  0
   15.2073   35.6155   32.6739 N   0  0  0  0  0  0  0  0  0  0  0  0
   14.6758   36.2306   34.9182 C   0  0  0  0  0  0  0  0  0  0  0  0
   13.8217   37.0451   35.5785 N   0  0  0  0  0  0  0  0  0  0  0  0
   16.1639   34.7602   33.1546 C   0  0  0  0  0  0  0  0  0  0  0  0
   15.6526   35.3506   35.4130 C   0  0  0  0  0  0  0  0  0  0  0  0
   16.3794   34.6316   34.5041 N   0  0  0  0  0  0  0  0  0  0  0  0
   15.9001   35.1933   36.8089 N   0  0  0  0  0  0  0  0  0  0  0  0
    9.0119   45.4316   33.6712 H   0  0  0  0  0  0  0  0  0  0  0  0
   10.7256   46.9688   33.1214 H   0  0  0  0  0  0  0  0  0  0  0  0
   11.8904   45.7661   32.9468 H   0  0  0  0  0  0  0  0  0  0  0  0
   10.7231   44.8812   31.1556 H   0  0  0  0  0  0  0  0  0  0  0  0
    9.3416   43.8327   31.4762 H   0  0  0  0  0  0  0  0  0  0  0  0
    7.0083   44.7171   31.5817 H   0  0  0  0  0  0  0  0  0  0  0  0
   10.3468   47.1867   30.4152 H   0  0  0  0  0  0  0  0  0  0  0  0
    5.4618   46.3088   30.5051 H   0  0  0  0  0  0  0  0  0  0  0  0
    8.8157   48.7720   29.3622 H   0  0  0  0  0  0  0  0  0  0  0  0
    5.5415   49.9544   27.8722 H   0  0  0  0  0  0  0  0  0  0  0  0
    7.2534   49.4370   27.7987 H   0  0  0  0  0  0  0  0  0  0  0  0
    6.5077   49.8850   31.2610 H   0  0  0  0  0  0  0  0  0  0  0  0
    7.5525   54.2287   29.1254 H   0  0  0  0  0  0  0  0  0  0  0  0
    7.0146   51.8368   32.6269 H   0  0  0  0  0  0  0  0  0  0  0  0
    7.5301   54.0114   31.5722 H   0  0  0  0  0  0  0  0  0  0  0  0
   11.3945   41.5459   31.4722 H   0  0  0  0  0  0  0  0  0  0  0  0
    9.8290   40.7386   31.7617 H   0  0  0  0  0  0  0  0  0  0  0  0
   11.6994   39.5069   30.3484 H   0  0  0  0  0  0  0  0  0  0  0  0
   10.1090   38.2635   32.6632 H   0  0  0  0  0  0  0  0  0  0  0  0
   13.6662   37.4515   31.2224 H   0  0  0  0  0  0  0  0  0  0  0  0
    8.9009   38.6925   30.8793 H   0  0  0  0  0  0  0  0  0  0  0  0
   11.2650   36.3083   32.5087 H   0  0  0  0  0  0  0  0  0  0  0  0
   12.1372   35.5140   30.6163 H   0  0  0  0  0  0  0  0  0  0  0  0
   12.3297   38.3530   34.7450 H   0  0  0  0  0  0  0  0  0  0  0  0
   16.7558   34.1781   32.4618 H   0  0  0  0  0  0  0  0  0  0  0  0
   16.6346   34.5300   37.1414 H   0  0  0  0  0  0  0  0  0  0  0  0
   15.3533   35.7360   37.5138 H   0  0  0  0  0  0  0  0  0  0  0  0
  1  2  2  0
  1  3  1  0
  3  4  1  0
  4  5  1  0
  6  1  1  0
  7  6  1  0
  6  8  1  0
  8  9  1  0
  9 10  2  0
 11  9  1  0
 10 12  1  0
 13 11  2  0
 12 14  2  0
 14 13  1  0
 14 15  1  0
 15 16  1  0
 16 17  1  0
 17 18  2  0
 19 17  1  0
 18 20  1  0
 18 21  1  0
 22 19  2  0
 20 23  1  0
 20 24  2  0
 21 25  2  0
 25 22  1  0
  4 26  2  0
  4 27  1  0
 28 27  1  0
 28 29  1  0
 29 30  1  0
 29 31  1  0
 30 32  1  0
 31 33  1  0
 31 34  1  0
 34 32  1  0
 32 35  1  0
 34 36  1  0
 37 35  1  0
 38 35  1  0
 39 37  2  0
 37 40  1  0
 41 38  2  0
 42 39  1  0
 40 43  2  0
 40 41  1  0
 44 42  2  0
 44 43  1  0
 43 45  1  0
  6 46  1  1
  7 47  1  0
  7 48  1  0
  8 49  1  0
  8 50  1  0
 10 51  1  0
 11 52  1  0
 12 53  1  0
 13 54  1  0
 16 55  1  0
 16 56  1  0
 19 57  1  0
 21 58  1  0
 22 59  1  0
 25 60  1  0
 28 61  1  0
 28 62  1  0
 29 63  1  0
 31 64  1  0
 32 65  1  0
 33 66  1  0
 34 67  1  0
 36 68  1  0
 38 69  1  0
 42 70  1  0
 45 71  1  0
 45 72  1  0
M  CHG  3   5  -1  20   1  23  -1
M  END
>  <EmbedRMS>  (134) 
0.0828427196121

$$$$

     RDKit          3D

 72 76  0  0  0  0  0  0  0  0999 V2000
   10.2834   43.7662   33.8257 C   0  0  0  0  0  0  0  0  0  0  0  0
   11.4102   43.5930   34.3752 O   0  0  0  0  0  0  0  0  0  0  0  0
    9.3635   42.7257   33.7353 O   0  0  0  0  0  0  0  0  0  0  0  0
    9.8899   41.2269   34.2948 P   0  0  0  0  0  0  0  0  0  0  0  0
   10.3732   41.4562   35.8841 O   0  0  0  0  0  0  0  0  0  0  0  0
    9.9546   45.0695   33.2036 C   0  0  1  0  0  0  0  0  0  0  0  0
   11.0274   46.0321   33.4756 N   0  0  0  0  0  0  0  0  0  0  0  0
    9.7466   44.8481   31.6877 C   0  0  0  0  0  0  0  0  0  0  0  0
    8.7923   45.8409   31.0844 C   0  0  0  0  0  0  0  0  0  0  0  0
    7.4054   45.6015   31.0990 C   0  0  0  0  0  0  0  0  0  0  0  0
    9.2824   46.9879   30.4422 C   0  0  0  0  0  0  0  0  0  0  0  0
    6.5263   46.5031   30.4839 C   0  0  0  0  0  0  0  0  0  0  0  0
    8.4033   47.8902   29.8315 C   0  0  0  0  0  0  0  0  0  0  0  0
    7.0143   47.6527   29.8476 C   0  0  0  0  0  0  0  0  0  0  0  0
    6.0937   48.5247   29.2485 O   0  0  0  0  0  0  0  0  0  0  0  0
    6.4463   49.7305   28.5713 C   0  0  0  0  0  0  0  0  0  0  0  0
    5.2262   50.4531   28.0405 C   0  0  0  0  0  0  0  0  0  0  0  0
    5.3510   51.4852   27.0691 C   0  0  0  0  0  0  0  0  0  0  0  0
    3.9392   50.1006   28.4989 C   0  0  0  0  0  0  0  0  0  0  0  0
    6.6330   51.9260   26.5833 N   0  0  0  0  0  0  0  0  0  0  0  0
    4.1895   52.0886   26.5546 C   0  0  0  0  0  0  0  0  0  0  0  0
    2.8023   50.7259   27.9857 C   0  0  0  0  0  0  0  0  0  0  0  0
    6.7467   52.4357   25.3101 O   0  0  0  0  0  0  0  0  0  0  0  0
    7.6124   52.0120   27.3520 O   0  0  0  0  0  0  0  0  0  0  0  0
    2.9266   51.7121   27.0108 C   0  0  0  0  0  0  0  0  0  0  0  0
    8.8120   40.1850   34.2133 O   0  0  0  0  0  0  0  0  0  0  0  0
   11.2403   40.7947   33.3700 O   0  0  0  0  0  0  0  0  0  0  0  0
   10.9144   40.6914   31.9982 C   0  0  0  0  0  0  0  0  0  0  0  0
   11.5270   39.3912   31.4385 C   0  0  0  0  0  0  0  0  0  0  0  0
   12.7520   39.0911   32.0836 O   0  0  0  0  0  0  0  0  0  0  0  0
   10.6113   38.1932   31.6451 C   0  0  0  0  0  0  0  0  0  0  0  0
   12.9413   37.6838   32.0297 C   0  0  0  0  0  0  0  0  0  0  0  0
    9.6064   38.0878   30.6599 O   0  0  0  0  0  0  0  0  0  0  0  0
   11.5822   37.0197   31.6877 C   0  0  0  0  0  0  0  0  0  0  0  0
   13.4840   37.2104   33.3254 N   0  0  0  0  0  0  0  0  0  0  0  0
   11.6179   36.3072   30.4690 O   0  0  0  0  0  0  0  0  0  0  0  0
   14.4797   36.3309   33.5738 C   0  0  0  0  0  0  0  0  0  0  0  0
   13.1137   37.6269   34.5702 C   0  0  0  0  0  0  0  0  0  0  0  0
   15.2074   35.6152   32.6747 N   0  0  0  0  0  0  0  0  0  0  0  0
   14.6756   36.2298   34.9190 C   0  0  0  0  0  0  0  0  0  0  0  0
   13.8217   37.0445   35.5793 N   0  0  0  0  0  0  0  0  0  0  0  0
   16.1643   34.7603   33.1551 C   0  0  0  0  0  0  0  0  0  0  0  0
   15.6528   35.3503   35.4136 C   0  0  0  0  0  0  0  0  0  0  0  0
   16.3798   34.6316   34.5046 N   0  0  0  0  0  0  0  0  0  0  0  0
   15.9004   35.1930   36.8094 N   0  0  0  0  0  0  0  0  0  0  0  0
    9.0121   45.4319   33.6714 H   0  0  0  0  0  0  0  0  0  0  0  0
   10.7261   46.9687   33.1213 H   0  0  0  0  0  0  0  0  0  0  0  0
   11.8906   45.7657   32.9469 H   0  0  0  0  0  0  0  0  0  0  0  0
   10.7229   44.8813   31.1557 H   0  0  0  0  0  0  0  0  0  0  0  0
    9.3413   43.8329   31.4764 H   0  0  0  0  0  0  0  0  0  0  0  0
    7.0082   44.7167   31.5812 H   0  0  0  0  0  0  0  0  0  0  0  0
   10.3471   47.1849   30.4114 H   0  0  0  0  0  0  0  0  0  0  0  0
    5.4616   46.3073   30.5019 H   0  0  0  0  0  0  0  0  0  0  0  0
    8.8141   48.7654   29.3473 H   0  0  0  0  0  0  0  0  0  0  0  0
    7.1098   49.4683   27.7188 H   0  0  0  0  0  0  0  0  0  0  0  0
    6.9843   50.4031   29.2732 H   0  0  0  0  0  0  0  0  0  0  0  0
    3.8035   49.3381   29.2547 H   0  0  0  0  0  0  0  0  0  0  0  0
    4.2626   52.8704   25.8092 H   0  0  0  0  0  0  0  0  0  0  0  0
    1.8211   50.4417   28.3436 H   0  0  0  0  0  0  0  0  0  0  0  0
    2.0422   52.1927   26.6125 H   0  0  0  0  0  0  0  0  0  0  0  0
   11.3777   41.5549   31.4744 H   0  0  0  0  0  0  0  0  0  0  0  0
    9.8234   40.7201   31.7654 H   0  0  0  0  0  0  0  0  0  0  0  0
   11.7311   39.5362   30.3532 H   0  0  0  0  0  0  0  0  0  0  0  0
   10.1203   38.2696   32.6410 H   0  0  0  0  0  0  0  0  0  0  0  0
   13.6850   37.4639   31.2321 H   0  0  0  0  0  0  0  0  0  0  0  0
   10.0251   38.1792   29.7654 H   0  0  0  0  0  0  0  0  0  0  0  0
   11.2757   36.3135   32.4907 H   0  0  0  0  0  0  0  0  0  0  0  0
   11.9838   36.9111   29.7708 H   0  0  0  0  0  0  0  0  0  0  0  0
   12.3307   38.3536   34.7458 H   0  0  0  0  0  0  0  0  0  0  0  0
   16.7566   34.1786   32.4623 H   0  0  0  0  0  0  0  0  0  0  0  0
   15.3535   35.7355   37.5144 H   0  0  0  0  0  0  0  0  0  0  0  0
   16.6353   34.5301   37.1419 H   0  0  0  0  0  0  0  0  0  0  0  0
  1  2  2  0
  1  3  1  0
  3  4  1  0
  4  5  1  0
  6  1  1  0
  7  6  1  0
  6  8  1  0
  8  9  1  0
  9 10  2  0
 11  9  1  0
 10 12  1  0
 13 11  2  0
 12 14  2  0
 14 13  1  0
 14 15  1  0
 15 16  1  0
 16 17  1  0
 17 18  2  0
 19 17  1  0
 18 20  1  0
 18 21  1  0
 22 19  2  0
 20 23  1  0
 20 24  2  0
 21 25  2  0
 25 22  1  0
  4 26  2  0
  4 27  1  0
 28 27  1  0
 28 29  1  0
 29 30  1  0
 29 31  1  0
 30 32  1  0
 31 33  1  0
 31 34  1  0
 34 32  1  0
 32 35  1  0
 34 36  1  0
 37 35  1  0
 38 35  1  0
 39 37  2  0
 37 40  1  0
 41 38  2  0
 42 39  1  0
 40 43  2  0
 40 41  1  0
 44 42  2  0
 44 43  1  0
 43 45  1  0
  6 46  1  1
  7 47  1  0
  7 48  1  0
  8 49  1  0
  8 50  1  0
 10 51  1  0
 11 52  1  0
 12 53  1  0
 13 54  1  0
 16 55  1  0
 16 56  1  0
 19 57  1  0
 21 58  1  0
 22 59  1  0
 25 60  1  0
 28 61  1  0
 28 62  1  0
 29 63  1  0
 31 64  1  0
 32 65  1  0
 33 66  1  0
 34 67  1  0
 36 68  1  0
 38 69  1  0
 42 70  1  0
 45 71  1  0
 45 72  1  0
M  CHG  3   5  -1  20   1  23  -1
M  END
>  <EmbedRMS>  (135) 
0.0808298336433

$$$$

     RDKit          3D

 72 76  0  0  0  0  0  0  0  0999 V2000
   10.2834   43.7662   33.8257 C   0  0  0  0  0  0  0  0  0  0  0  0
   11.4102   43.5930   34.3752 O   0  0  0  0  0  0  0  0  0  0  0  0
    9.3635   42.7257   33.7353 O   0  0  0  0  0  0  0  0  0  0  0  0
    9.8899   41.2270   34.2948 P   0  0  0  0  0  0  0  0  0  0  0  0
   10.3732   41.4562   35.8841 O   0  0  0  0  0  0  0  0  0  0  0  0
    9.9546   45.0695   33.2036 C   0  0  1  0  0  0  0  0  0  0  0  0
   11.0274   46.0321   33.4756 N   0  0  0  0  0  0  0  0  0  0  0  0
    9.7466   44.8481   31.6877 C   0  0  0  0  0  0  0  0  0  0  0  0
    8.7923   45.8408   31.0844 C   0  0  0  0  0  0  0  0  0  0  0  0
    7.4054   45.6015   31.0991 C   0  0  0  0  0  0  0  0  0  0  0  0
    9.2824   46.9880   30.4423 C   0  0  0  0  0  0  0  0  0  0  0  0
    6.5264   46.5032   30.4840 C   0  0  0  0  0  0  0  0  0  0  0  0
    8.4032   47.8902   29.8315 C   0  0  0  0  0  0  0  0  0  0  0  0
    7.0144   47.6525   29.8474 C   0  0  0  0  0  0  0  0  0  0  0  0
    6.0936   48.5232   29.2470 O   0  0  0  0  0  0  0  0  0  0  0  0
    6.4459   49.7156   28.5493 C   0  0  0  0  0  0  0  0  0  0  0  0
    5.2024   50.3645   27.9944 C   0  0  0  0  0  0  0  0  0  0  0  0
    4.3042   49.6698   27.1389 C   0  0  0  0  0  0  0  0  0  0  0  0
    4.9054   51.6875   28.3723 C   0  0  0  0  0  0  0  0  0  0  0  0
    4.5512   48.3168   26.7122 N   0  0  0  0  0  0  0  0  0  0  0  0
    3.1285   50.3152   26.7125 C   0  0  0  0  0  0  0  0  0  0  0  0
    3.7409   52.3126   27.9251 C   0  0  0  0  0  0  0  0  0  0  0  0
    5.8177   47.9072   26.3665 O   0  0  0  0  0  0  0  0  0  0  0  0
    3.5938   47.5444   26.4987 O   0  0  0  0  0  0  0  0  0  0  0  0
    2.8526   51.6268   27.1001 C   0  0  0  0  0  0  0  0  0  0  0  0
    8.8120   40.1850   34.2133 O   0  0  0  0  0  0  0  0  0  0  0  0
   11.2403   40.7947   33.3700 O   0  0  0  0  0  0  0  0  0  0  0  0
   10.9144   40.6914   31.9982 C   0  0  0  0  0  0  0  0  0  0  0  0
   11.5270   39.3912   31.4385 C   0  0  0  0  0  0  0  0  0  0  0  0
   12.7520   39.0911   32.0836 O   0  0  0  0  0  0  0  0  0  0  0  0
   10.6113   38.1932   31.6451 C   0  0  0  0  0  0  0  0  0  0  0  0
   12.9413   37.6838   32.0297 C   0  0  0  0  0  0  0  0  0  0  0  0
    9.6064   38.0878   30.6599 O   0  0  0  0  0  0  0  0  0  0  0  0
   11.5822   37.0197   31.6877 C   0  0  0  0  0  0  0  0  0  0  0  0
   13.4840   37.2104   33.3254 N   0  0  0  0  0  0  0  0  0  0  0  0
   11.6179   36.3072   30.4690 O   0  0  0  0  0  0  0  0  0  0  0  0
   14.4797   36.3309   33.5738 C   0  0  0  0  0  0  0  0  0  0  0  0
   13.1136   37.6269   34.5702 C   0  0  0  0  0  0  0  0  0  0  0  0
   15.2074   35.6152   32.6747 N   0  0  0  0  0  0  0  0  0  0  0  0
   14.6756   36.2298   34.9190 C   0  0  0  0  0  0  0  0  0  0  0  0
   13.8217   37.0445   35.5793 N   0  0  0  0  0  0  0  0  0  0  0  0
   16.1643   34.7603   33.1551 C   0  0  0  0  0  0  0  0  0  0  0  0
   15.6528   35.3503   35.4136 C   0  0  0  0  0  0  0  0  0  0  0  0
   16.3798   34.6316   34.5046 N   0  0  0  0  0  0  0  0  0  0  0  0
   15.9004   35.1930   36.8094 N   0  0  0  0  0  0  0  0  0  0  0  0
    9.0121   45.4318   33.6714 H   0  0  0  0  0  0  0  0  0  0  0  0
   10.7260   46.9687   33.1213 H   0  0  0  0  0  0  0  0  0  0  0  0
   11.8906   45.7658   32.9469 H   0  0  0  0  0  0  0  0  0  0  0  0
   10.7229   44.8813   31.1557 H   0  0  0  0  0  0  0  0  0  0  0  0
    9.3413   43.8329   31.4763 H   0  0  0  0  0  0  0  0  0  0  0  0
    7.0082   44.7167   31.5811 H   0  0  0  0  0  0  0  0  0  0  0  0
   10.3470   47.1850   30.4117 H   0  0  0  0  0  0  0  0  0  0  0  0
    5.4618   46.3070   30.5012 H   0  0  0  0  0  0  0  0  0  0  0  0
    8.8141   48.7659   29.3483 H   0  0  0  0  0  0  0  0  0  0  0  0
    7.1452   49.4866   27.7184 H   0  0  0  0  0  0  0  0  0  0  0  0
    6.9724   50.4004   29.2497 H   0  0  0  0  0  0  0  0  0  0  0  0
    5.5731   52.2386   29.0231 H   0  0  0  0  0  0  0  0  0  0  0  0
    2.4282   49.8043   26.0638 H   0  0  0  0  0  0  0  0  0  0  0  0
    3.5242   53.3300   28.2246 H   0  0  0  0  0  0  0  0  0  0  0  0
    1.9480   52.1129   26.7580 H   0  0  0  0  0  0  0  0  0  0  0  0
   11.3777   41.5549   31.4744 H   0  0  0  0  0  0  0  0  0  0  0  0
    9.8234   40.7201   31.7654 H   0  0  0  0  0  0  0  0  0  0  0  0
   11.7311   39.5363   30.3532 H   0  0  0  0  0  0  0  0  0  0  0  0
   10.1203   38.2696   32.6410 H   0  0  0  0  0  0  0  0  0  0  0  0
   13.6850   37.4639   31.2321 H   0  0  0  0  0  0  0  0  0  0  0  0
   10.0251   38.1792   29.7654 H   0  0  0  0  0  0  0  0  0  0  0  0
   11.2757   36.3135   32.4907 H   0  0  0  0  0  0  0  0  0  0  0  0
   11.9838   36.9111   29.7708 H   0  0  0  0  0  0  0  0  0  0  0  0
   12.3307   38.3536   34.7458 H   0  0  0  0  0  0  0  0  0  0  0  0
   16.7566   34.1787   32.4623 H   0  0  0  0  0  0  0  0  0  0  0  0
   15.3535   35.7355   37.5144 H   0  0  0  0  0  0  0  0  0  0  0  0
   16.6353   34.5301   37.1419 H   0  0  0  0  0  0  0  0  0  0  0  0
  1  2  2  0
  1  3  1  0
  3  4  1  0
  4  5  1  0
  6  1  1  0
  7  6  1  0
  6  8  1  0
  8  9  1  0
  9 10  2  0
 11  9  1  0
 10 12  1  0
 13 11  2  0
 12 14  2  0
 14 13  1  0
 14 15  1  0
 15 16  1  0
 16 17  1  0
 17 18  2  0
 19 17  1  0
 18 20  1  0
 18 21  1  0
 22 19  2  0
 20 23  1  0
 20 24  2  0
 21 25  2  0
 25 22  1  0
  4 26  2  0
  4 27  1  0
 28 27  1  0
 28 29  1  0
 29 30  1  0
 29 31  1  0
 30 32  1  0
 31 33  1  0
 31 34  1  0
 34 32  1  0
 32 35  1  0
 34 36  1  0
 37 35  1  0
 38 35  1  0
 39 37  2  0
 37 40  1  0
 41 38  2  0
 42 39  1  0
 40 43  2  0
 40 41  1  0
 44 42  2  0
 44 43  1  0
 43 45  1  0
  6 46  1  1
  7 47  1  0
  7 48  1  0
  8 49  1  0
  8 50  1  0
 10 51  1  0
 11 52  1  0
 12 53  1  0
 13 54  1  0
 16 55  1  0
 16 56  1  0
 19 57  1  0
 21 58  1  0
 22 59  1  0
 25 60  1  0
 28 61  1  0
 28 62  1  0
 29 63  1  0
 31 64  1  0
 32 65  1  0
 33 66  1  0
 34 67  1  0
 36 68  1  0
 38 69  1  0
 42 70  1  0
 45 71  1  0
 45 72  1  0
M  CHG  3   5  -1  20   1  23  -1
M  END
>  <EmbedRMS>  (136) 
0.0808321221712

$$$$

     RDKit          3D

 72 76  0  0  0  0  0  0  0  0999 V2000
   10.2833   43.7663   33.8257 C   0  0  0  0  0  0  0  0  0  0  0  0
   11.4101   43.5931   34.3752 O   0  0  0  0  0  0  0  0  0  0  0  0
    9.3634   42.7257   33.7352 O   0  0  0  0  0  0  0  0  0  0  0  0
    9.8902   41.2269   34.2941 P   0  0  0  0  0  0  0  0  0  0  0  0
   10.3739   41.4560   35.8835 O   0  0  0  0  0  0  0  0  0  0  0  0
    9.9546   45.0696   33.2034 C   0  0  1  0  0  0  0  0  0  0  0  0
   11.0272   46.0323   33.4758 N   0  0  0  0  0  0  0  0  0  0  0  0
    9.7472   44.8483   31.6874 C   0  0  0  0  0  0  0  0  0  0  0  0
    8.7926   45.8405   31.0838 C   0  0  0  0  0  0  0  0  0  0  0  0
    7.4058   45.6010   31.0997 C   0  0  0  0  0  0  0  0  0  0  0  0
    9.2817   46.9879   30.4420 C   0  0  0  0  0  0  0  0  0  0  0  0
    6.5243   46.5011   30.4856 C   0  0  0  0  0  0  0  0  0  0  0  0
    8.4005   47.8888   29.8330 C   0  0  0  0  0  0  0  0  0  0  0  0
    7.0189   47.6561   29.8451 C   0  0  0  0  0  0  0  0  0  0  0  0
    6.1797   48.5968   29.2236 O   0  0  0  0  0  0  0  0  0  0  0  0
    4.7648   48.4622   29.0671 C   0  0  0  0  0  0  0  0  0  0  0  0
    3.9825   48.8314   30.3162 C   0  0  0  0  0  0  0  0  0  0  0  0
    2.5604   48.8307   30.3042 C   0  0  0  0  0  0  0  0  0  0  0  0
    4.6496   49.2528   31.4874 C   0  0  0  0  0  0  0  0  0  0  0  0
    1.8119   48.4552   29.1342 N   0  0  0  0  0  0  0  0  0  0  0  0
    1.8593   49.2396   31.4531 C   0  0  0  0  0  0  0  0  0  0  0  0
    3.9327   49.6393   32.6202 C   0  0  0  0  0  0  0  0  0  0  0  0
    2.1376   47.3216   28.4273 O   0  0  0  0  0  0  0  0  0  0  0  0
    0.7462   49.0454   28.8610 O   0  0  0  0  0  0  0  0  0  0  0  0
    2.5410   49.6322   32.6036 C   0  0  0  0  0  0  0  0  0  0  0  0
    8.8121   40.1852   34.2131 O   0  0  0  0  0  0  0  0  0  0  0  0
   11.2402   40.7952   33.3681 O   0  0  0  0  0  0  0  0  0  0  0  0
   10.9125   40.6877   31.9968 C   0  0  0  0  0  0  0  0  0  0  0  0
   11.5169   39.3811   31.4421 C   0  0  0  0  0  0  0  0  0  0  0  0
   12.7500   39.0881   32.0759 O   0  0  0  0  0  0  0  0  0  0  0  0
   10.6043   38.1893   31.6659 C   0  0  0  0  0  0  0  0  0  0  0  0
   12.9395   37.6814   32.0280 C   0  0  0  0  0  0  0  0  0  0  0  0
    9.6353   38.0951   30.6499 O   0  0  0  0  0  0  0  0  0  0  0  0
   11.5804   37.0191   31.6934 C   0  0  0  0  0  0  0  0  0  0  0  0
   13.4851   37.2119   33.3244 N   0  0  0  0  0  0  0  0  0  0  0  0
   11.6118   36.3189   30.4673 O   0  0  0  0  0  0  0  0  0  0  0  0
   14.4801   36.3316   33.5732 C   0  0  0  0  0  0  0  0  0  0  0  0
   13.1139   37.6277   34.5692 C   0  0  0  0  0  0  0  0  0  0  0  0
   15.2076   35.6154   32.6744 N   0  0  0  0  0  0  0  0  0  0  0  0
   14.6756   36.2303   34.9186 C   0  0  0  0  0  0  0  0  0  0  0  0
   13.8215   37.0451   35.5786 N   0  0  0  0  0  0  0  0  0  0  0  0
   16.1642   34.7602   33.1551 C   0  0  0  0  0  0  0  0  0  0  0  0
   15.6526   35.3505   35.4134 C   0  0  0  0  0  0  0  0  0  0  0  0
   16.3796   34.6316   34.5045 N   0  0  0  0  0  0  0  0  0  0  0  0
   15.9001   35.1933   36.8093 N   0  0  0  0  0  0  0  0  0  0  0  0
    9.0119   45.4319   33.6709 H   0  0  0  0  0  0  0  0  0  0  0  0
   10.7259   46.9689   33.1214 H   0  0  0  0  0  0  0  0  0  0  0  0
   11.8907   45.7660   32.9475 H   0  0  0  0  0  0  0  0  0  0  0  0
    9.3427   43.8329   31.4758 H   0  0  0  0  0  0  0  0  0  0  0  0
   10.7237   44.8823   31.1557 H   0  0  0  0  0  0  0  0  0  0  0  0
    7.0099   44.7177   31.5857 H   0  0  0  0  0  0  0  0  0  0  0  0
   10.3460   47.1866   30.4109 H   0  0  0  0  0  0  0  0  0  0  0  0
    5.4642   46.2943   30.5282 H   0  0  0  0  0  0  0  0  0  0  0  0
    8.7936   48.7720   29.3458 H   0  0  0  0  0  0  0  0  0  0  0  0
    4.5345   47.4267   28.7451 H   0  0  0  0  0  0  0  0  0  0  0  0
    4.4490   49.1436   28.2494 H   0  0  0  0  0  0  0  0  0  0  0  0
    5.7278   49.3026   31.5362 H   0  0  0  0  0  0  0  0  0  0  0  0
    0.7765   49.2441   31.4594 H   0  0  0  0  0  0  0  0  0  0  0  0
    4.4596   49.9559   33.5112 H   0  0  0  0  0  0  0  0  0  0  0  0
    1.9882   49.9381   33.4825 H   0  0  0  0  0  0  0  0  0  0  0  0
   11.3808   41.5456   31.4686 H   0  0  0  0  0  0  0  0  0  0  0  0
    9.8216   40.7222   31.7646 H   0  0  0  0  0  0  0  0  0  0  0  0
   11.6986   39.5089   30.3499 H   0  0  0  0  0  0  0  0  0  0  0  0
   10.1109   38.2737   32.6630 H   0  0  0  0  0  0  0  0  0  0  0  0
   13.6783   37.4562   31.2271 H   0  0  0  0  0  0  0  0  0  0  0  0
    9.0020   37.3860   30.9348 H   0  0  0  0  0  0  0  0  0  0  0  0
   11.2807   36.3053   32.4921 H   0  0  0  0  0  0  0  0  0  0  0  0
   11.8818   36.9600   29.7584 H   0  0  0  0  0  0  0  0  0  0  0  0
   12.3303   38.3538   34.7446 H   0  0  0  0  0  0  0  0  0  0  0  0
   16.7564   34.1783   32.4624 H   0  0  0  0  0  0  0  0  0  0  0  0
   15.3532   35.7359   37.5142 H   0  0  0  0  0  0  0  0  0  0  0  0
   16.6348   34.5301   37.1418 H   0  0  0  0  0  0  0  0  0  0  0  0
  1  2  2  0
  1  3  1  0
  3  4  1  0
  4  5  1  0
  6  1  1  0
  7  6  1  0
  6  8  1  0
  8  9  1  0
  9 10  2  0
 11  9  1  0
 10 12  1  0
 13 11  2  0
 12 14  2  0
 14 13  1  0
 14 15  1  0
 15 16  1  0
 16 17  1  0
 17 18  2  0
 19 17  1  0
 18 20  1  0
 18 21  1  0
 22 19  2  0
 20 23  1  0
 20 24  2  0
 21 25  2  0
 25 22  1  0
  4 26  2  0
  4 27  1  0
 28 27  1  0
 28 29  1  0
 29 30  1  0
 29 31  1  0
 30 32  1  0
 31 33  1  0
 31 34  1  0
 34 32  1  0
 32 35  1  0
 34 36  1  0
 37 35  1  0
 38 35  1  0
 39 37  2  0
 37 40  1  0
 41 38  2  0
 42 39  1  0
 40 43  2  0
 40 41  1  0
 44 42  2  0
 44 43  1  0
 43 45  1  0
  6 46  1  1
  7 47  1  0
  7 48  1  0
  8 49  1  0
  8 50  1  0
 10 51  1  0
 11 52  1  0
 12 53  1  0
 13 54  1  0
 16 55  1  0
 16 56  1  0
 19 57  1  0
 21 58  1  0
 22 59  1  0
 25 60  1  0
 28 61  1  0
 28 62  1  0
 29 63  1  0
 31 64  1  0
 32 65  1  0
 33 66  1  0
 34 67  1  0
 36 68  1  0
 38 69  1  0
 42 70  1  0
 45 71  1  0
 45 72  1  0
M  CHG  3   5  -1  20   1  23  -1
M  END
>  <EmbedRMS>  (137) 
0.0815644616219

$$$$

     RDKit          3D

 72 76  0  0  0  0  0  0  0  0999 V2000
   10.2805   43.7663   33.8249 C   0  0  0  0  0  0  0  0  0  0  0  0
   11.4111   43.5919   34.3667 O   0  0  0  0  0  0  0  0  0  0  0  0
    9.3622   42.7247   33.7342 O   0  0  0  0  0  0  0  0  0  0  0  0
    9.8904   41.2264   34.2936 P   0  0  0  0  0  0  0  0  0  0  0  0
   10.3731   41.4565   35.8832 O   0  0  0  0  0  0  0  0  0  0  0  0
    9.9460   45.0736   33.2112 C   0  0  1  0  0  0  0  0  0  0  0  0
   11.0267   46.0292   33.4709 N   0  0  0  0  0  0  0  0  0  0  0  0
    9.7540   44.8542   31.6948 C   0  0  0  0  0  0  0  0  0  0  0  0
    8.7956   45.8412   31.0848 C   0  0  0  0  0  0  0  0  0  0  0  0
    7.4086   45.5999   31.1013 C   0  0  0  0  0  0  0  0  0  0  0  0
    9.2824   46.9881   30.4397 C   0  0  0  0  0  0  0  0  0  0  0  0
    6.5256   46.4989   30.4864 C   0  0  0  0  0  0  0  0  0  0  0  0
    8.3998   47.8878   29.8309 C   0  0  0  0  0  0  0  0  0  0  0  0
    7.0186   47.6541   29.8462 C   0  0  0  0  0  0  0  0  0  0  0  0
    6.1783   48.5843   29.2175 O   0  0  0  0  0  0  0  0  0  0  0  0
    4.7598   48.4689   29.1437 C   0  0  0  0  0  0  0  0  0  0  0  0
    4.2032   49.6374   28.3733 C   0  0  0  0  0  0  0  0  0  0  0  0
    4.1476   49.6508   26.9538 C   0  0  0  0  0  0  0  0  0  0  0  0
    3.7003   50.7371   29.0921 C   0  0  0  0  0  0  0  0  0  0  0  0
    4.6680   48.5668   26.1620 N   0  0  0  0  0  0  0  0  0  0  0  0
    3.5562   50.7501   26.3036 C   0  0  0  0  0  0  0  0  0  0  0  0
    3.1323   51.8238   28.4262 C   0  0  0  0  0  0  0  0  0  0  0  0
    5.8434   47.9432   26.5103 O   0  0  0  0  0  0  0  0  0  0  0  0
    4.1475   48.2906   25.0612 O   0  0  0  0  0  0  0  0  0  0  0  0
    3.0556   51.8280   27.0351 C   0  0  0  0  0  0  0  0  0  0  0  0
    8.8128   40.1841   34.2124 O   0  0  0  0  0  0  0  0  0  0  0  0
   11.2419   40.7944   33.3695 O   0  0  0  0  0  0  0  0  0  0  0  0
   10.9186   40.6911   31.9970 C   0  0  0  0  0  0  0  0  0  0  0  0
   11.5172   39.3814   31.4407 C   0  0  0  0  0  0  0  0  0  0  0  0
   12.7492   39.0856   32.0729 O   0  0  0  0  0  0  0  0  0  0  0  0
   10.6023   38.1908   31.6665 C   0  0  0  0  0  0  0  0  0  0  0  0
   12.9319   37.6781   32.0281 C   0  0  0  0  0  0  0  0  0  0  0  0
    9.6392   38.0797   30.6452 O   0  0  0  0  0  0  0  0  0  0  0  0
   11.5715   37.0165   31.7056 C   0  0  0  0  0  0  0  0  0  0  0  0
   13.4847   37.2121   33.3235 N   0  0  0  0  0  0  0  0  0  0  0  0
   11.6187   36.3383   30.4695 O   0  0  0  0  0  0  0  0  0  0  0  0
   14.4801   36.3321   33.5724 C   0  0  0  0  0  0  0  0  0  0  0  0
   13.1137   37.6275   34.5688 C   0  0  0  0  0  0  0  0  0  0  0  0
   15.2073   35.6153   32.6738 N   0  0  0  0  0  0  0  0  0  0  0  0
   14.6759   36.2308   34.9179 C   0  0  0  0  0  0  0  0  0  0  0  0
   13.8216   37.0452   35.5781 N   0  0  0  0  0  0  0  0  0  0  0  0
   16.1640   34.7602   33.1546 C   0  0  0  0  0  0  0  0  0  0  0  0
   15.6526   35.3508   35.4129 C   0  0  0  0  0  0  0  0  0  0  0  0
   16.3794   34.6317   34.5041 N   0  0  0  0  0  0  0  0  0  0  0  0
   15.8999   35.1934   36.8088 N   0  0  0  0  0  0  0  0  0  0  0  0
    8.9996   45.4380   33.6722 H   0  0  0  0  0  0  0  0  0  0  0  0
   10.7765   46.9369   33.0159 H   0  0  0  0  0  0  0  0  0  0  0  0
   11.0502   46.2276   34.4983 H   0  0  0  0  0  0  0  0  0  0  0  0
   10.7411   44.9080   31.1835 H   0  0  0  0  0  0  0  0  0  0  0  0
    9.3646   43.8354   31.4710 H   0  0  0  0  0  0  0  0  0  0  0  0
    7.0146   44.7152   31.5861 H   0  0  0  0  0  0  0  0  0  0  0  0
   10.3463   47.1879   30.4054 H   0  0  0  0  0  0  0  0  0  0  0  0
    5.4660   46.2859   30.5163 H   0  0  0  0  0  0  0  0  0  0  0  0
    8.7916   48.7694   29.3396 H   0  0  0  0  0  0  0  0  0  0  0  0
    4.4702   47.5149   28.6531 H   0  0  0  0  0  0  0  0  0  0  0  0
    4.3412   48.4519   30.1740 H   0  0  0  0  0  0  0  0  0  0  0  0
    3.7418   50.7517   30.1745 H   0  0  0  0  0  0  0  0  0  0  0  0
    3.4981   50.7806   25.2228 H   0  0  0  0  0  0  0  0  0  0  0  0
    2.7462   52.6625   28.9911 H   0  0  0  0  0  0  0  0  0  0  0  0
    2.6112   52.6706   26.5211 H   0  0  0  0  0  0  0  0  0  0  0  0
   11.3967   41.5459   31.4726 H   0  0  0  0  0  0  0  0  0  0  0  0
    9.8299   40.7410   31.7611 H   0  0  0  0  0  0  0  0  0  0  0  0
   11.6975   39.5066   30.3481 H   0  0  0  0  0  0  0  0  0  0  0  0
   10.1076   38.2648   32.6646 H   0  0  0  0  0  0  0  0  0  0  0  0
   13.6621   37.4468   31.2209 H   0  0  0  0  0  0  0  0  0  0  0  0
    8.8973   38.6942   30.8832 H   0  0  0  0  0  0  0  0  0  0  0  0
   11.2806   36.3073   32.5170 H   0  0  0  0  0  0  0  0  0  0  0  0
   10.8492   35.7110   30.4586 H   0  0  0  0  0  0  0  0  0  0  0  0
   12.3290   38.3523   34.7444 H   0  0  0  0  0  0  0  0  0  0  0  0
   16.7560   34.1780   32.4619 H   0  0  0  0  0  0  0  0  0  0  0  0
   16.6345   34.5301   37.1414 H   0  0  0  0  0  0  0  0  0  0  0  0
   15.3532   35.7362   37.5137 H   0  0  0  0  0  0  0  0  0  0  0  0
  1  2  2  0
  1  3  1  0
  3  4  1  0
  4  5  1  0
  6  1  1  0
  7  6  1  0
  6  8  1  0
  8  9  1  0
  9 10  2  0
 11  9  1  0
 10 12  1  0
 13 11  2  0
 12 14  2  0
 14 13  1  0
 14 15  1  0
 15 16  1  0
 16 17  1  0
 17 18  2  0
 19 17  1  0
 18 20  1  0
 18 21  1  0
 22 19  2  0
 20 23  1  0
 20 24  2  0
 21 25  2  0
 25 22  1  0
  4 26  2  0
  4 27  1  0
 28 27  1  0
 28 29  1  0
 29 30  1  0
 29 31  1  0
 30 32  1  0
 31 33  1  0
 31 34  1  0
 34 32  1  0
 32 35  1  0
 34 36  1  0
 37 35  1  0
 38 35  1  0
 39 37  2  0
 37 40  1  0
 41 38  2  0
 42 39  1  0
 40 43  2  0
 40 41  1  0
 44 42  2  0
 44 43  1  0
 43 45  1  0
  6 46  1  1
  7 47  1  0
  7 48  1  0
  8 49  1  0
  8 50  1  0
 10 51  1  0
 11 52  1  0
 12 53  1  0
 13 54  1  0
 16 55  1  0
 16 56  1  0
 19 57  1  0
 21 58  1  0
 22 59  1  0
 25 60  1  0
 28 61  1  0
 28 62  1  0
 29 63  1  0
 31 64  1  0
 32 65  1  0
 33 66  1  0
 34 67  1  0
 36 68  1  0
 38 69  1  0
 42 70  1  0
 45 71  1  0
 45 72  1  0
M  CHG  3   5  -1  20   1  23  -1
M  END
>  <EmbedRMS>  (138) 
0.0827552740202

$$$$

     RDKit          3D

 72 76  0  0  0  0  0  0  0  0999 V2000
   10.2805   43.7663   33.8249 C   0  0  0  0  0  0  0  0  0  0  0  0
   11.4111   43.5918   34.3667 O   0  0  0  0  0  0  0  0  0  0  0  0
    9.3621   42.7248   33.7342 O   0  0  0  0  0  0  0  0  0  0  0  0
    9.8903   41.2264   34.2936 P   0  0  0  0  0  0  0  0  0  0  0  0
   10.3732   41.4564   35.8831 O   0  0  0  0  0  0  0  0  0  0  0  0
    9.9460   45.0736   33.2113 C   0  0  1  0  0  0  0  0  0  0  0  0
   11.0267   46.0292   33.4709 N   0  0  0  0  0  0  0  0  0  0  0  0
    9.7540   44.8543   31.6949 C   0  0  0  0  0  0  0  0  0  0  0  0
    8.7956   45.8415   31.0853 C   0  0  0  0  0  0  0  0  0  0  0  0
    7.4089   45.5998   31.1010 C   0  0  0  0  0  0  0  0  0  0  0  0
    9.2823   46.9880   30.4396 C   0  0  0  0  0  0  0  0  0  0  0  0
    6.5258   46.4985   30.4861 C   0  0  0  0  0  0  0  0  0  0  0  0
    8.3998   47.8871   29.8302 C   0  0  0  0  0  0  0  0  0  0  0  0
    7.0183   47.6551   29.8469 C   0  0  0  0  0  0  0  0  0  0  0  0
    6.1788   48.5853   29.2102 O   0  0  0  0  0  0  0  0  0  0  0  0
    4.7494   48.5455   29.2181 C   0  0  0  0  0  0  0  0  0  0  0  0
    4.1673   47.5724   28.2062 C   0  0  0  0  0  0  0  0  0  0  0  0
    2.7584   47.4615   28.0318 C   0  0  0  0  0  0  0  0  0  0  0  0
    5.0145   46.8123   27.3700 C   0  0  0  0  0  0  0  0  0  0  0  0
    1.8268   48.2358   28.8098 N   0  0  0  0  0  0  0  0  0  0  0  0
    2.2515   46.5989   27.0439 C   0  0  0  0  0  0  0  0  0  0  0  0
    4.4866   45.9516   26.4073 C   0  0  0  0  0  0  0  0  0  0  0  0
    0.6379   48.6412   28.2479 O   0  0  0  0  0  0  0  0  0  0  0  0
    1.9916   48.3915   30.0366 O   0  0  0  0  0  0  0  0  0  0  0  0
    3.1088   45.8443   26.2450 C   0  0  0  0  0  0  0  0  0  0  0  0
    8.8128   40.1841   34.2125 O   0  0  0  0  0  0  0  0  0  0  0  0
   11.2416   40.7945   33.3692 O   0  0  0  0  0  0  0  0  0  0  0  0
   10.9177   40.6904   31.9968 C   0  0  0  0  0  0  0  0  0  0  0  0
   11.5181   39.3813   31.4408 C   0  0  0  0  0  0  0  0  0  0  0  0
   12.7497   39.0870   32.0746 O   0  0  0  0  0  0  0  0  0  0  0  0
   10.6045   38.1891   31.6655 C   0  0  0  0  0  0  0  0  0  0  0  0
   12.9344   37.6801   32.0290 C   0  0  0  0  0  0  0  0  0  0  0  0
    9.6418   38.0758   30.6441 O   0  0  0  0  0  0  0  0  0  0  0  0
   11.5741   37.0170   31.7045 C   0  0  0  0  0  0  0  0  0  0  0  0
   13.4851   37.2125   33.3241 N   0  0  0  0  0  0  0  0  0  0  0  0
   11.6079   36.3407   30.4680 O   0  0  0  0  0  0  0  0  0  0  0  0
   14.4801   36.3321   33.5727 C   0  0  0  0  0  0  0  0  0  0  0  0
   13.1140   37.6277   34.5693 C   0  0  0  0  0  0  0  0  0  0  0  0
   15.2073   35.6155   32.6739 N   0  0  0  0  0  0  0  0  0  0  0  0
   14.6758   36.2306   34.9182 C   0  0  0  0  0  0  0  0  0  0  0  0
   13.8217   37.0451   35.5785 N   0  0  0  0  0  0  0  0  0  0  0  0
   16.1639   34.7602   33.1546 C   0  0  0  0  0  0  0  0  0  0  0  0
   15.6526   35.3506   35.4130 C   0  0  0  0  0  0  0  0  0  0  0  0
   16.3794   34.6316   34.5041 N   0  0  0  0  0  0  0  0  0  0  0  0
   15.9000   35.1933   36.8089 N   0  0  0  0  0  0  0  0  0  0  0  0
    8.9996   45.4380   33.6724 H   0  0  0  0  0  0  0  0  0  0  0  0
   10.7765   46.9369   33.0160 H   0  0  0  0  0  0  0  0  0  0  0  0
   11.0503   46.2276   34.4983 H   0  0  0  0  0  0  0  0  0  0  0  0
    9.3645   43.8356   31.4710 H   0  0  0  0  0  0  0  0  0  0  0  0
   10.7411   44.9082   31.1835 H   0  0  0  0  0  0  0  0  0  0  0  0
    7.0151   44.7130   31.5824 H   0  0  0  0  0  0  0  0  0  0  0  0
   10.3463   47.1875   30.4047 H   0  0  0  0  0  0  0  0  0  0  0  0
    5.4683   46.2753   30.5040 H   0  0  0  0  0  0  0  0  0  0  0  0
    8.7920   48.7676   29.3372 H   0  0  0  0  0  0  0  0  0  0  0  0
    4.4015   48.3078   30.2440 H   0  0  0  0  0  0  0  0  0  0  0  0
    4.3818   49.5628   28.9679 H   0  0  0  0  0  0  0  0  0  0  0  0
    6.0902   46.8849   27.4398 H   0  0  0  0  0  0  0  0  0  0  0  0
    1.1830   46.5021   26.8984 H   0  0  0  0  0  0  0  0  0  0  0  0
    5.1503   45.3732   25.7774 H   0  0  0  0  0  0  0  0  0  0  0  0
    2.7031   45.1795   25.4933 H   0  0  0  0  0  0  0  0  0  0  0  0
    9.8288   40.7385   31.7615 H   0  0  0  0  0  0  0  0  0  0  0  0
   11.3944   41.5458   31.4720 H   0  0  0  0  0  0  0  0  0  0  0  0
   11.6994   39.5068   30.3484 H   0  0  0  0  0  0  0  0  0  0  0  0
   10.1090   38.2634   32.6632 H   0  0  0  0  0  0  0  0  0  0  0  0
   13.6662   37.4515   31.2224 H   0  0  0  0  0  0  0  0  0  0  0  0
    8.9009   38.6924   30.8794 H   0  0  0  0  0  0  0  0  0  0  0  0
   11.2650   36.3082   32.5086 H   0  0  0  0  0  0  0  0  0  0  0  0
   12.1372   35.5141   30.6162 H   0  0  0  0  0  0  0  0  0  0  0  0
   12.3297   38.3530   34.7450 H   0  0  0  0  0  0  0  0  0  0  0  0
   16.7558   34.1781   32.4619 H   0  0  0  0  0  0  0  0  0  0  0  0
   15.3533   35.7360   37.5138 H   0  0  0  0  0  0  0  0  0  0  0  0
   16.6346   34.5300   37.1414 H   0  0  0  0  0  0  0  0  0  0  0  0
  1  2  2  0
  1  3  1  0
  3  4  1  0
  4  5  1  0
  6  1  1  0
  7  6  1  0
  6  8  1  0
  8  9  1  0
  9 10  2  0
 11  9  1  0
 10 12  1  0
 13 11  2  0
 12 14  2  0
 14 13  1  0
 14 15  1  0
 15 16  1  0
 16 17  1  0
 17 18  2  0
 19 17  1  0
 18 20  1  0
 18 21  1  0
 22 19  2  0
 20 23  1  0
 20 24  2  0
 21 25  2  0
 25 22  1  0
  4 26  2  0
  4 27  1  0
 28 27  1  0
 28 29  1  0
 29 30  1  0
 29 31  1  0
 30 32  1  0
 31 33  1  0
 31 34  1  0
 34 32  1  0
 32 35  1  0
 34 36  1  0
 37 35  1  0
 38 35  1  0
 39 37  2  0
 37 40  1  0
 41 38  2  0
 42 39  1  0
 40 43  2  0
 40 41  1  0
 44 42  2  0
 44 43  1  0
 43 45  1  0
  6 46  1  1
  7 47  1  0
  7 48  1  0
  8 49  1  0
  8 50  1  0
 10 51  1  0
 11 52  1  0
 12 53  1  0
 13 54  1  0
 16 55  1  0
 16 56  1  0
 19 57  1  0
 21 58  1  0
 22 59  1  0
 25 60  1  0
 28 61  1  0
 28 62  1  0
 29 63  1  0
 31 64  1  0
 32 65  1  0
 33 66  1  0
 34 67  1  0
 36 68  1  0
 38 69  1  0
 42 70  1  0
 45 71  1  0
 45 72  1  0
M  CHG  3   5  -1  20   1  23  -1
M  END
>  <EmbedRMS>  (139) 
0.082636776892

$$$$

     RDKit          3D

 72 76  0  0  0  0  0  0  0  0999 V2000
   10.2805   43.7663   33.8251 C   0  0  0  0  0  0  0  0  0  0  0  0
   11.4112   43.5919   34.3668 O   0  0  0  0  0  0  0  0  0  0  0  0
    9.3621   42.7248   33.7344 O   0  0  0  0  0  0  0  0  0  0  0  0
    9.8903   41.2264   34.2936 P   0  0  0  0  0  0  0  0  0  0  0  0
   10.3732   41.4564   35.8831 O   0  0  0  0  0  0  0  0  0  0  0  0
    9.9459   45.0736   33.2115 C   0  0  1  0  0  0  0  0  0  0  0  0
   11.0267   46.0292   33.4707 N   0  0  0  0  0  0  0  0  0  0  0  0
    9.7533   44.8540   31.6953 C   0  0  0  0  0  0  0  0  0  0  0  0
    8.7953   45.8416   31.0859 C   0  0  0  0  0  0  0  0  0  0  0  0
    7.4088   45.6000   31.0998 C   0  0  0  0  0  0  0  0  0  0  0  0
    9.2827   46.9871   30.4390 C   0  0  0  0  0  0  0  0  0  0  0  0
    6.5287   46.4998   30.4830 C   0  0  0  0  0  0  0  0  0  0  0  0
    8.4021   47.8877   29.8282 C   0  0  0  0  0  0  0  0  0  0  0  0
    7.0135   47.6541   29.8522 C   0  0  0  0  0  0  0  0  0  0  0  0
    6.0851   48.5238   29.2593 O   0  0  0  0  0  0  0  0  0  0  0  0
    6.3369   49.8734   28.8649 C   0  0  0  0  0  0  0  0  0  0  0  0
    6.4934   50.7675   30.0741 C   0  0  0  0  0  0  0  0  0  0  0  0
    5.3867   51.1566   30.8791 C   0  0  0  0  0  0  0  0  0  0  0  0
    7.7708   51.2771   30.3749 C   0  0  0  0  0  0  0  0  0  0  0  0
    4.0411   50.7319   30.5893 N   0  0  0  0  0  0  0  0  0  0  0  0
    5.6037   52.0249   31.9656 C   0  0  0  0  0  0  0  0  0  0  0  0
    7.9632   52.1267   31.4643 C   0  0  0  0  0  0  0  0  0  0  0  0
    3.7743   49.4432   30.1926 O   0  0  0  0  0  0  0  0  0  0  0  0
    3.0807   51.4874   30.8459 O   0  0  0  0  0  0  0  0  0  0  0  0
    6.8826   52.4974   32.2600 C   0  0  0  0  0  0  0  0  0  0  0  0
    8.8128   40.1841   34.2125 O   0  0  0  0  0  0  0  0  0  0  0  0
   11.2416   40.7945   33.3692 O   0  0  0  0  0  0  0  0  0  0  0  0
   10.9178   40.6904   31.9968 C   0  0  0  0  0  0  0  0  0  0  0  0
   11.5181   39.3813   31.4408 C   0  0  0  0  0  0  0  0  0  0  0  0
   12.7497   39.0870   32.0746 O   0  0  0  0  0  0  0  0  0  0  0  0
   10.6045   38.1891   31.6655 C   0  0  0  0  0  0  0  0  0  0  0  0
   12.9344   37.6801   32.0290 C   0  0  0  0  0  0  0  0  0  0  0  0
    9.6418   38.0758   30.6441 O   0  0  0  0  0  0  0  0  0  0  0  0
   11.5741   37.0170   31.7045 C   0  0  0  0  0  0  0  0  0  0  0  0
   13.4851   37.2125   33.3241 N   0  0  0  0  0  0  0  0  0  0  0  0
   11.6079   36.3407   30.4680 O   0  0  0  0  0  0  0  0  0  0  0  0
   14.4801   36.3321   33.5727 C   0  0  0  0  0  0  0  0  0  0  0  0
   13.1140   37.6277   34.5693 C   0  0  0  0  0  0  0  0  0  0  0  0
   15.2073   35.6155   32.6739 N   0  0  0  0  0  0  0  0  0  0  0  0
   14.6758   36.2306   34.9182 C   0  0  0  0  0  0  0  0  0  0  0  0
   13.8217   37.0451   35.5785 N   0  0  0  0  0  0  0  0  0  0  0  0
   16.1639   34.7602   33.1546 C   0  0  0  0  0  0  0  0  0  0  0  0
   15.6526   35.3506   35.4130 C   0  0  0  0  0  0  0  0  0  0  0  0
   16.3794   34.6316   34.5041 N   0  0  0  0  0  0  0  0  0  0  0  0
   15.9001   35.1933   36.8089 N   0  0  0  0  0  0  0  0  0  0  0  0
    8.9996   45.4381   33.6728 H   0  0  0  0  0  0  0  0  0  0  0  0
   10.7764   46.9368   33.0156 H   0  0  0  0  0  0  0  0  0  0  0  0
   11.0504   46.2280   34.4981 H   0  0  0  0  0  0  0  0  0  0  0  0
    9.3632   43.8355   31.4718 H   0  0  0  0  0  0  0  0  0  0  0  0
   10.7404   44.9071   31.1837 H   0  0  0  0  0  0  0  0  0  0  0  0
    7.0130   44.7151   31.5829 H   0  0  0  0  0  0  0  0  0  0  0  0
   10.3474   47.1818   30.3992 H   0  0  0  0  0  0  0  0  0  0  0  0
    5.4643   46.3029   30.5023 H   0  0  0  0  0  0  0  0  0  0  0  0
    8.8172   48.7433   29.3198 H   0  0  0  0  0  0  0  0  0  0  0  0
    5.4820   50.2360   28.2565 H   0  0  0  0  0  0  0  0  0  0  0  0
    7.2231   49.9157   28.1966 H   0  0  0  0  0  0  0  0  0  0  0  0
    8.6246   51.0283   29.7588 H   0  0  0  0  0  0  0  0  0  0  0  0
    4.7769   52.3331   32.5931 H   0  0  0  0  0  0  0  0  0  0  0  0
    8.9525   52.5057   31.6863 H   0  0  0  0  0  0  0  0  0  0  0  0
    7.0338   53.1604   33.1021 H   0  0  0  0  0  0  0  0  0  0  0  0
    9.8289   40.7385   31.7615 H   0  0  0  0  0  0  0  0  0  0  0  0
   11.3944   41.5458   31.4720 H   0  0  0  0  0  0  0  0  0  0  0  0
   11.6994   39.5068   30.3484 H   0  0  0  0  0  0  0  0  0  0  0  0
   10.1090   38.2634   32.6632 H   0  0  0  0  0  0  0  0  0  0  0  0
   13.6662   37.4515   31.2224 H   0  0  0  0  0  0  0  0  0  0  0  0
    8.9009   38.6924   30.8793 H   0  0  0  0  0  0  0  0  0  0  0  0
   11.2650   36.3083   32.5087 H   0  0  0  0  0  0  0  0  0  0  0  0
   12.1372   35.5141   30.6163 H   0  0  0  0  0  0  0  0  0  0  0  0
   12.3297   38.3530   34.7450 H   0  0  0  0  0  0  0  0  0  0  0  0
   16.7558   34.1781   32.4619 H   0  0  0  0  0  0  0  0  0  0  0  0
   16.6346   34.5300   37.1414 H   0  0  0  0  0  0  0  0  0  0  0  0
   15.3533   35.7360   37.5138 H   0  0  0  0  0  0  0  0  0  0  0  0
  1  2  2  0
  1  3  1  0
  3  4  1  0
  4  5  1  0
  6  1  1  0
  7  6  1  0
  6  8  1  0
  8  9  1  0
  9 10  2  0
 11  9  1  0
 10 12  1  0
 13 11  2  0
 12 14  2  0
 14 13  1  0
 14 15  1  0
 15 16  1  0
 16 17  1  0
 17 18  2  0
 19 17  1  0
 18 20  1  0
 18 21  1  0
 22 19  2  0
 20 23  1  0
 20 24  2  0
 21 25  2  0
 25 22  1  0
  4 26  2  0
  4 27  1  0
 28 27  1  0
 28 29  1  0
 29 30  1  0
 29 31  1  0
 30 32  1  0
 31 33  1  0
 31 34  1  0
 34 32  1  0
 32 35  1  0
 34 36  1  0
 37 35  1  0
 38 35  1  0
 39 37  2  0
 37 40  1  0
 41 38  2  0
 42 39  1  0
 40 43  2  0
 40 41  1  0
 44 42  2  0
 44 43  1  0
 43 45  1  0
  6 46  1  1
  7 47  1  0
  7 48  1  0
  8 49  1  0
  8 50  1  0
 10 51  1  0
 11 52  1  0
 12 53  1  0
 13 54  1  0
 16 55  1  0
 16 56  1  0
 19 57  1  0
 21 58  1  0
 22 59  1  0
 25 60  1  0
 28 61  1  0
 28 62  1  0
 29 63  1  0
 31 64  1  0
 32 65  1  0
 33 66  1  0
 34 67  1  0
 36 68  1  0
 38 69  1  0
 42 70  1  0
 45 71  1  0
 45 72  1  0
M  CHG  3   5  -1  20   1  23  -1
M  END
>  <EmbedRMS>  (140) 
0.0826523790461

$$$$

     RDKit          3D

 72 76  0  0  0  0  0  0  0  0999 V2000
   10.2834   43.7662   33.8256 C   0  0  0  0  0  0  0  0  0  0  0  0
   11.4102   43.5931   34.3753 O   0  0  0  0  0  0  0  0  0  0  0  0
    9.3637   42.7255   33.7351 O   0  0  0  0  0  0  0  0  0  0  0  0
    9.8904   41.2268   34.2946 P   0  0  0  0  0  0  0  0  0  0  0  0
   10.3729   41.4561   35.8842 O   0  0  0  0  0  0  0  0  0  0  0  0
    9.9546   45.0694   33.2033 C   0  0  1  0  0  0  0  0  0  0  0  0
   11.0273   46.0321   33.4755 N   0  0  0  0  0  0  0  0  0  0  0  0
    9.7468   44.8477   31.6873 C   0  0  0  0  0  0  0  0  0  0  0  0
    8.7924   45.8400   31.0834 C   0  0  0  0  0  0  0  0  0  0  0  0
    7.4056   45.6019   31.0999 C   0  0  0  0  0  0  0  0  0  0  0  0
    9.2819   46.9880   30.4431 C   0  0  0  0  0  0  0  0  0  0  0  0
    6.5269   46.5045   30.4860 C   0  0  0  0  0  0  0  0  0  0  0  0
    8.4025   47.8909   29.8338 C   0  0  0  0  0  0  0  0  0  0  0  0
    7.0147   47.6509   29.8434 C   0  0  0  0  0  0  0  0  0  0  0  0
    6.0879   48.5177   29.2433 O   0  0  0  0  0  0  0  0  0  0  0  0
    6.3949   49.5549   28.3101 C   0  0  0  0  0  0  0  0  0  0  0  0
    6.8080   48.9758   26.9752 C   0  0  0  0  0  0  0  0  0  0  0  0
    5.8819   48.3424   26.0969 C   0  0  0  0  0  0  0  0  0  0  0  0
    8.1473   49.1220   26.5663 C   0  0  0  0  0  0  0  0  0  0  0  0
    4.4797   48.2193   26.4070 N   0  0  0  0  0  0  0  0  0  0  0  0
    6.3387   47.8628   24.8554 C   0  0  0  0  0  0  0  0  0  0  0  0
    8.5776   48.6278   25.3352 C   0  0  0  0  0  0  0  0  0  0  0  0
    3.5546   48.1760   25.3891 O   0  0  0  0  0  0  0  0  0  0  0  0
    4.0915   48.0070   27.5730 O   0  0  0  0  0  0  0  0  0  0  0  0
    7.6761   47.9964   24.4831 C   0  0  0  0  0  0  0  0  0  0  0  0
    8.8125   40.1848   34.2126 O   0  0  0  0  0  0  0  0  0  0  0  0
   11.2416   40.7948   33.3707 O   0  0  0  0  0  0  0  0  0  0  0  0
   10.9179   40.6922   31.9984 C   0  0  0  0  0  0  0  0  0  0  0  0
   11.5175   39.3838   31.4423 C   0  0  0  0  0  0  0  0  0  0  0  0
   12.7508   39.0887   32.0752 O   0  0  0  0  0  0  0  0  0  0  0  0
   10.6028   38.1916   31.6659 C   0  0  0  0  0  0  0  0  0  0  0  0
   12.9384   37.6818   32.0278 C   0  0  0  0  0  0  0  0  0  0  0  0
    9.6371   38.0806   30.6470 O   0  0  0  0  0  0  0  0  0  0  0  0
   11.5780   37.0215   31.6935 C   0  0  0  0  0  0  0  0  0  0  0  0
   13.4844   37.2119   33.3242 N   0  0  0  0  0  0  0  0  0  0  0  0
   11.6095   36.3202   30.4679 O   0  0  0  0  0  0  0  0  0  0  0  0
   14.4797   36.3318   33.5730 C   0  0  0  0  0  0  0  0  0  0  0  0
   13.1135   37.6278   34.5691 C   0  0  0  0  0  0  0  0  0  0  0  0
   15.2073   35.6155   32.6742 N   0  0  0  0  0  0  0  0  0  0  0  0
   14.6754   36.2305   34.9184 C   0  0  0  0  0  0  0  0  0  0  0  0
   13.8213   37.0452   35.5785 N   0  0  0  0  0  0  0  0  0  0  0  0
   16.1640   34.7604   33.1549 C   0  0  0  0  0  0  0  0  0  0  0  0
   15.6524   35.3507   35.4132 C   0  0  0  0  0  0  0  0  0  0  0  0
   16.3794   34.6318   34.5044 N   0  0  0  0  0  0  0  0  0  0  0  0
   15.8999   35.1934   36.8091 N   0  0  0  0  0  0  0  0  0  0  0  0
    9.0119   45.4317   33.6709 H   0  0  0  0  0  0  0  0  0  0  0  0
   10.7258   46.9687   33.1213 H   0  0  0  0  0  0  0  0  0  0  0  0
   11.8905   45.7659   32.9467 H   0  0  0  0  0  0  0  0  0  0  0  0
   10.7232   44.8813   31.1555 H   0  0  0  0  0  0  0  0  0  0  0  0
    9.3419   43.8325   31.4760 H   0  0  0  0  0  0  0  0  0  0  0  0
    7.0082   44.7177   31.5829 H   0  0  0  0  0  0  0  0  0  0  0  0
   10.3461   47.1886   30.4181 H   0  0  0  0  0  0  0  0  0  0  0  0
    5.4623   46.3085   30.5042 H   0  0  0  0  0  0  0  0  0  0  0  0
    8.8145   48.7764   29.3766 H   0  0  0  0  0  0  0  0  0  0  0  0
    7.1712   50.2275   28.7333 H   0  0  0  0  0  0  0  0  0  0  0  0
    5.4938   50.1867   28.1645 H   0  0  0  0  0  0  0  0  0  0  0  0
    8.8653   49.6309   27.1960 H   0  0  0  0  0  0  0  0  0  0  0  0
    5.6555   47.3751   24.1717 H   0  0  0  0  0  0  0  0  0  0  0  0
    9.6120   48.7427   25.0380 H   0  0  0  0  0  0  0  0  0  0  0  0
    8.0118   47.6172   23.5264 H   0  0  0  0  0  0  0  0  0  0  0  0
    9.8291   40.7409   31.7627 H   0  0  0  0  0  0  0  0  0  0  0  0
   11.3951   41.5478   31.4744 H   0  0  0  0  0  0  0  0  0  0  0  0
   11.6981   39.5115   30.3500 H   0  0  0  0  0  0  0  0  0  0  0  0
   10.1117   38.2604   32.6660 H   0  0  0  0  0  0  0  0  0  0  0  0
   13.6767   37.4556   31.2267 H   0  0  0  0  0  0  0  0  0  0  0  0
    8.8961   38.6952   30.8872 H   0  0  0  0  0  0  0  0  0  0  0  0
   11.2791   36.3072   32.4922 H   0  0  0  0  0  0  0  0  0  0  0  0
   11.8828   36.9598   29.7588 H   0  0  0  0  0  0  0  0  0  0  0  0
   12.3300   38.3538   34.7446 H   0  0  0  0  0  0  0  0  0  0  0  0
   16.7562   34.1785   32.4622 H   0  0  0  0  0  0  0  0  0  0  0  0
   16.6347   34.5303   37.1416 H   0  0  0  0  0  0  0  0  0  0  0  0
   15.3531   35.7360   37.5140 H   0  0  0  0  0  0  0  0  0  0  0  0
  1  2  2  0
  1  3  1  0
  3  4  1  0
  4  5  1  0
  6  1  1  0
  7  6  1  0
  6  8  1  0
  8  9  1  0
  9 10  2  0
 11  9  1  0
 10 12  1  0
 13 11  2  0
 12 14  2  0
 14 13  1  0
 14 15  1  0
 15 16  1  0
 16 17  1  0
 17 18  2  0
 19 17  1  0
 18 20  1  0
 18 21  1  0
 22 19  2  0
 20 23  1  0
 20 24  2  0
 21 25  2  0
 25 22  1  0
  4 26  2  0
  4 27  1  0
 28 27  1  0
 28 29  1  0
 29 30  1  0
 29 31  1  0
 30 32  1  0
 31 33  1  0
 31 34  1  0
 34 32  1  0
 32 35  1  0
 34 36  1  0
 37 35  1  0
 38 35  1  0
 39 37  2  0
 37 40  1  0
 41 38  2  0
 42 39  1  0
 40 43  2  0
 40 41  1  0
 44 42  2  0
 44 43  1  0
 43 45  1  0
  6 46  1  1
  7 47  1  0
  7 48  1  0
  8 49  1  0
  8 50  1  0
 10 51  1  0
 11 52  1  0
 12 53  1  0
 13 54  1  0
 16 55  1  0
 16 56  1  0
 19 57  1  0
 21 58  1  0
 22 59  1  0
 25 60  1  0
 28 61  1  0
 28 62  1  0
 29 63  1  0
 31 64  1  0
 32 65  1  0
 33 66  1  0
 34 67  1  0
 36 68  1  0
 38 69  1  0
 42 70  1  0
 45 71  1  0
 45 72  1  0
M  CHG  3   5  -1  20   1  23  -1
M  END
>  <EmbedRMS>  (141) 
0.0820052299224

$$$$

     RDKit          3D

 72 76  0  0  0  0  0  0  0  0999 V2000
   10.2804   43.7664   33.8251 C   0  0  0  0  0  0  0  0  0  0  0  0
   11.4111   43.5918   34.3667 O   0  0  0  0  0  0  0  0  0  0  0  0
    9.3617   42.7251   33.7349 O   0  0  0  0  0  0  0  0  0  0  0  0
    9.8896   41.2269   34.2945 P   0  0  0  0  0  0  0  0  0  0  0  0
   10.3732   41.4568   35.8838 O   0  0  0  0  0  0  0  0  0  0  0  0
    9.9459   45.0736   33.2113 C   0  0  1  0  0  0  0  0  0  0  0  0
   11.0268   46.0291   33.4706 N   0  0  0  0  0  0  0  0  0  0  0  0
    9.7534   44.8539   31.6951 C   0  0  0  0  0  0  0  0  0  0  0  0
    8.7954   45.8415   31.0853 C   0  0  0  0  0  0  0  0  0  0  0  0
    7.4086   45.6006   31.1008 C   0  0  0  0  0  0  0  0  0  0  0  0
    9.2830   46.9876   30.4396 C   0  0  0  0  0  0  0  0  0  0  0  0
    6.5281   46.5006   30.4846 C   0  0  0  0  0  0  0  0  0  0  0  0
    8.4027   47.8889   29.8298 C   0  0  0  0  0  0  0  0  0  0  0  0
    7.0133   47.6515   29.8487 C   0  0  0  0  0  0  0  0  0  0  0  0
    6.0874   48.5181   29.2427 O   0  0  0  0  0  0  0  0  0  0  0  0
    6.4071   49.7746   28.6397 C   0  0  0  0  0  0  0  0  0  0  0  0
    6.9558   49.6437   27.2290 C   0  0  0  0  0  0  0  0  0  0  0  0
    7.2449   50.8019   26.4561 C   0  0  0  0  0  0  0  0  0  0  0  0
    7.1188   48.3738   26.6330 C   0  0  0  0  0  0  0  0  0  0  0  0
    7.0624   52.1291   26.9811 N   0  0  0  0  0  0  0  0  0  0  0  0
    7.6894   50.6545   25.1298 C   0  0  0  0  0  0  0  0  0  0  0  0
    7.5760   48.2521   25.3205 C   0  0  0  0  0  0  0  0  0  0  0  0
    7.5230   52.4570   28.2345 O   0  0  0  0  0  0  0  0  0  0  0  0
    6.6571   53.0438   26.2341 O   0  0  0  0  0  0  0  0  0  0  0  0
    7.8612   49.3894   24.5706 C   0  0  0  0  0  0  0  0  0  0  0  0
    8.8122   40.1844   34.2135 O   0  0  0  0  0  0  0  0  0  0  0  0
   11.2401   40.7949   33.3698 O   0  0  0  0  0  0  0  0  0  0  0  0
   10.9143   40.6914   31.9981 C   0  0  0  0  0  0  0  0  0  0  0  0
   11.5270   39.3912   31.4385 C   0  0  0  0  0  0  0  0  0  0  0  0
   12.7519   39.0911   32.0837 O   0  0  0  0  0  0  0  0  0  0  0  0
   10.6113   38.1932   31.6451 C   0  0  0  0  0  0  0  0  0  0  0  0
   12.9413   37.6838   32.0297 C   0  0  0  0  0  0  0  0  0  0  0  0
    9.6064   38.0878   30.6599 O   0  0  0  0  0  0  0  0  0  0  0  0
   11.5822   37.0197   31.6877 C   0  0  0  0  0  0  0  0  0  0  0  0
   13.4840   37.2104   33.3254 N   0  0  0  0  0  0  0  0  0  0  0  0
   11.6179   36.3072   30.4690 O   0  0  0  0  0  0  0  0  0  0  0  0
   14.4797   36.3309   33.5738 C   0  0  0  0  0  0  0  0  0  0  0  0
   13.1136   37.6269   34.5702 C   0  0  0  0  0  0  0  0  0  0  0  0
   15.2074   35.6152   32.6747 N   0  0  0  0  0  0  0  0  0  0  0  0
   14.6756   36.2298   34.9190 C   0  0  0  0  0  0  0  0  0  0  0  0
   13.8217   37.0445   35.5793 N   0  0  0  0  0  0  0  0  0  0  0  0
   16.1643   34.7603   33.1551 C   0  0  0  0  0  0  0  0  0  0  0  0
   15.6528   35.3503   35.4136 C   0  0  0  0  0  0  0  0  0  0  0  0
   16.3798   34.6316   34.5046 N   0  0  0  0  0  0  0  0  0  0  0  0
   15.9004   35.1930   36.8094 N   0  0  0  0  0  0  0  0  0  0  0  0
    8.9997   45.4383   33.6725 H   0  0  0  0  0  0  0  0  0  0  0  0
   11.0505   46.2278   34.4979 H   0  0  0  0  0  0  0  0  0  0  0  0
   10.7767   46.9367   33.0155 H   0  0  0  0  0  0  0  0  0  0  0  0
    9.3632   43.8354   31.4717 H   0  0  0  0  0  0  0  0  0  0  0  0
   10.7404   44.9069   31.1835 H   0  0  0  0  0  0  0  0  0  0  0  0
    7.0131   44.7159   31.5844 H   0  0  0  0  0  0  0  0  0  0  0  0
   10.3475   47.1840   30.4029 H   0  0  0  0  0  0  0  0  0  0  0  0
    5.4639   46.3022   30.5020 H   0  0  0  0  0  0  0  0  0  0  0  0
    8.8157   48.7552   29.3324 H   0  0  0  0  0  0  0  0  0  0  0  0
    7.1178   50.3185   29.2940 H   0  0  0  0  0  0  0  0  0  0  0  0
    5.4733   50.3732   28.5915 H   0  0  0  0  0  0  0  0  0  0  0  0
    6.8819   47.4648   27.1670 H   0  0  0  0  0  0  0  0  0  0  0  0
    7.9140   51.5268   24.5288 H   0  0  0  0  0  0  0  0  0  0  0  0
    7.6993   47.2710   24.8799 H   0  0  0  0  0  0  0  0  0  0  0  0
    8.2104   49.2911   23.5508 H   0  0  0  0  0  0  0  0  0  0  0  0
    9.8233   40.7200   31.7652 H   0  0  0  0  0  0  0  0  0  0  0  0
   11.3775   41.5548   31.4741 H   0  0  0  0  0  0  0  0  0  0  0  0
   11.7312   39.5362   30.3532 H   0  0  0  0  0  0  0  0  0  0  0  0
   10.1203   38.2696   32.6410 H   0  0  0  0  0  0  0  0  0  0  0  0
   13.6850   37.4639   31.2321 H   0  0  0  0  0  0  0  0  0  0  0  0
   10.0251   38.1792   29.7654 H   0  0  0  0  0  0  0  0  0  0  0  0
   11.2757   36.3135   32.4907 H   0  0  0  0  0  0  0  0  0  0  0  0
   11.9838   36.9111   29.7708 H   0  0  0  0  0  0  0  0  0  0  0  0
   12.3307   38.3536   34.7458 H   0  0  0  0  0  0  0  0  0  0  0  0
   16.7566   34.1787   32.4623 H   0  0  0  0  0  0  0  0  0  0  0  0
   15.3535   35.7355   37.5144 H   0  0  0  0  0  0  0  0  0  0  0  0
   16.6353   34.5301   37.1419 H   0  0  0  0  0  0  0  0  0  0  0  0
  1  2  2  0
  1  3  1  0
  3  4  1  0
  4  5  1  0
  6  1  1  0
  7  6  1  0
  6  8  1  0
  8  9  1  0
  9 10  2  0
 11  9  1  0
 10 12  1  0
 13 11  2  0
 12 14  2  0
 14 13  1  0
 14 15  1  0
 15 16  1  0
 16 17  1  0
 17 18  2  0
 19 17  1  0
 18 20  1  0
 18 21  1  0
 22 19  2  0
 20 23  1  0
 20 24  2  0
 21 25  2  0
 25 22  1  0
  4 26  2  0
  4 27  1  0
 28 27  1  0
 28 29  1  0
 29 30  1  0
 29 31  1  0
 30 32  1  0
 31 33  1  0
 31 34  1  0
 34 32  1  0
 32 35  1  0
 34 36  1  0
 37 35  1  0
 38 35  1  0
 39 37  2  0
 37 40  1  0
 41 38  2  0
 42 39  1  0
 40 43  2  0
 40 41  1  0
 44 42  2  0
 44 43  1  0
 43 45  1  0
  6 46  1  1
  7 47  1  0
  7 48  1  0
  8 49  1  0
  8 50  1  0
 10 51  1  0
 11 52  1  0
 12 53  1  0
 13 54  1  0
 16 55  1  0
 16 56  1  0
 19 57  1  0
 21 58  1  0
 22 59  1  0
 25 60  1  0
 28 61  1  0
 28 62  1  0
 29 63  1  0
 31 64  1  0
 32 65  1  0
 33 66  1  0
 34 67  1  0
 36 68  1  0
 38 69  1  0
 42 70  1  0
 45 71  1  0
 45 72  1  0
M  CHG  3   5  -1  20   1  23  -1
M  END
>  <EmbedRMS>  (142) 
0.0806451082202

$$$$

     RDKit          3D

 72 76  0  0  0  0  0  0  0  0999 V2000
   10.2834   43.7662   33.8257 C   0  0  0  0  0  0  0  0  0  0  0  0
   11.4102   43.5930   34.3752 O   0  0  0  0  0  0  0  0  0  0  0  0
    9.3635   42.7257   33.7352 O   0  0  0  0  0  0  0  0  0  0  0  0
    9.8899   41.2270   34.2947 P   0  0  0  0  0  0  0  0  0  0  0  0
   10.3732   41.4563   35.8841 O   0  0  0  0  0  0  0  0  0  0  0  0
    9.9548   45.0696   33.2035 C   0  0  1  0  0  0  0  0  0  0  0  0
   11.0274   46.0322   33.4759 N   0  0  0  0  0  0  0  0  0  0  0  0
    9.7471   44.8484   31.6875 C   0  0  0  0  0  0  0  0  0  0  0  0
    8.7924   45.8409   31.0843 C   0  0  0  0  0  0  0  0  0  0  0  0
    7.4055   45.6009   31.0995 C   0  0  0  0  0  0  0  0  0  0  0  0
    9.2818   46.9881   30.4420 C   0  0  0  0  0  0  0  0  0  0  0  0
    6.5241   46.5012   30.4850 C   0  0  0  0  0  0  0  0  0  0  0  0
    8.4006   47.8886   29.8323 C   0  0  0  0  0  0  0  0  0  0  0  0
    7.0191   47.6561   29.8459 C   0  0  0  0  0  0  0  0  0  0  0  0
    6.1804   48.5878   29.2175 O   0  0  0  0  0  0  0  0  0  0  0  0
    4.7616   48.4723   29.1378 C   0  0  0  0  0  0  0  0  0  0  0  0
    4.2033   49.6299   28.3475 C   0  0  0  0  0  0  0  0  0  0  0  0
    4.6226   49.9125   27.0173 C   0  0  0  0  0  0  0  0  0  0  0  0
    3.2671   50.4793   28.9666 C   0  0  0  0  0  0  0  0  0  0  0  0
    5.5746   49.0866   26.3204 N   0  0  0  0  0  0  0  0  0  0  0  0
    4.1095   51.0490   26.3663 C   0  0  0  0  0  0  0  0  0  0  0  0
    2.7603   51.5923   28.2950 C   0  0  0  0  0  0  0  0  0  0  0  0
    6.3923   49.6411   25.3625 O   0  0  0  0  0  0  0  0  0  0  0  0
    5.5644   47.8459   26.4523 O   0  0  0  0  0  0  0  0  0  0  0  0
    3.1834   51.8786   26.9992 C   0  0  0  0  0  0  0  0  0  0  0  0
    8.8120   40.1850   34.2133 O   0  0  0  0  0  0  0  0  0  0  0  0
   11.2403   40.7947   33.3700 O   0  0  0  0  0  0  0  0  0  0  0  0
   10.9144   40.6914   31.9982 C   0  0  0  0  0  0  0  0  0  0  0  0
   11.5270   39.3912   31.4385 C   0  0  0  0  0  0  0  0  0  0  0  0
   12.7520   39.0911   32.0836 O   0  0  0  0  0  0  0  0  0  0  0  0
   10.6114   38.1932   31.6451 C   0  0  0  0  0  0  0  0  0  0  0  0
   12.9413   37.6838   32.0297 C   0  0  0  0  0  0  0  0  0  0  0  0
    9.6065   38.0878   30.6599 O   0  0  0  0  0  0  0  0  0  0  0  0
   11.5822   37.0197   31.6877 C   0  0  0  0  0  0  0  0  0  0  0  0
   13.4840   37.2104   33.3254 N   0  0  0  0  0  0  0  0  0  0  0  0
   11.6179   36.3072   30.4690 O   0  0  0  0  0  0  0  0  0  0  0  0
   14.4797   36.3309   33.5738 C   0  0  0  0  0  0  0  0  0  0  0  0
   13.1136   37.6269   34.5702 C   0  0  0  0  0  0  0  0  0  0  0  0
   15.2074   35.6152   32.6747 N   0  0  0  0  0  0  0  0  0  0  0  0
   14.6756   36.2298   34.9190 C   0  0  0  0  0  0  0  0  0  0  0  0
   13.8217   37.0445   35.5793 N   0  0  0  0  0  0  0  0  0  0  0  0
   16.1643   34.7603   33.1551 C   0  0  0  0  0  0  0  0  0  0  0  0
   15.6528   35.3503   35.4136 C   0  0  0  0  0  0  0  0  0  0  0  0
   16.3798   34.6316   34.5046 N   0  0  0  0  0  0  0  0  0  0  0  0
   15.9004   35.1930   36.8094 N   0  0  0  0  0  0  0  0  0  0  0  0
    9.0121   45.4318   33.6712 H   0  0  0  0  0  0  0  0  0  0  0  0
   11.8908   45.7658   32.9475 H   0  0  0  0  0  0  0  0  0  0  0  0
   10.7262   46.9688   33.1213 H   0  0  0  0  0  0  0  0  0  0  0  0
   10.7235   44.8824   31.1557 H   0  0  0  0  0  0  0  0  0  0  0  0
    9.3425   43.8331   31.4758 H   0  0  0  0  0  0  0  0  0  0  0  0
    7.0099   44.7158   31.5823 H   0  0  0  0  0  0  0  0  0  0  0  0
   10.3461   47.1863   30.4102 H   0  0  0  0  0  0  0  0  0  0  0  0
    5.4642   46.2892   30.5138 H   0  0  0  0  0  0  0  0  0  0  0  0
    8.7936   48.7703   29.3421 H   0  0  0  0  0  0  0  0  0  0  0  0
    4.3432   48.4562   30.1680 H   0  0  0  0  0  0  0  0  0  0  0  0
    4.4770   47.5179   28.6474 H   0  0  0  0  0  0  0  0  0  0  0  0
    2.9314   50.2867   29.9782 H   0  0  0  0  0  0  0  0  0  0  0  0
    4.4167   51.2865   25.3557 H   0  0  0  0  0  0  0  0  0  0  0  0
    2.0420   52.2379   28.7836 H   0  0  0  0  0  0  0  0  0  0  0  0
    2.7915   52.7450   26.4822 H   0  0  0  0  0  0  0  0  0  0  0  0
   11.3776   41.5549   31.4744 H   0  0  0  0  0  0  0  0  0  0  0  0
    9.8234   40.7201   31.7654 H   0  0  0  0  0  0  0  0  0  0  0  0
   11.7312   39.5363   30.3532 H   0  0  0  0  0  0  0  0  0  0  0  0
   10.1203   38.2696   32.6410 H   0  0  0  0  0  0  0  0  0  0  0  0
   13.6850   37.4639   31.2321 H   0  0  0  0  0  0  0  0  0  0  0  0
   10.0251   38.1793   29.7654 H   0  0  0  0  0  0  0  0  0  0  0  0
   11.2757   36.3135   32.4907 H   0  0  0  0  0  0  0  0  0  0  0  0
   11.9839   36.9111   29.7708 H   0  0  0  0  0  0  0  0  0  0  0  0
   12.3307   38.3536   34.7457 H   0  0  0  0  0  0  0  0  0  0  0  0
   16.7566   34.1786   32.4623 H   0  0  0  0  0  0  0  0  0  0  0  0
   16.6353   34.5301   37.1419 H   0  0  0  0  0  0  0  0  0  0  0  0
   15.3535   35.7355   37.5144 H   0  0  0  0  0  0  0  0  0  0  0  0
  1  2  2  0
  1  3  1  0
  3  4  1  0
  4  5  1  0
  6  1  1  0
  7  6  1  0
  6  8  1  0
  8  9  1  0
  9 10  2  0
 11  9  1  0
 10 12  1  0
 13 11  2  0
 12 14  2  0
 14 13  1  0
 14 15  1  0
 15 16  1  0
 16 17  1  0
 17 18  2  0
 19 17  1  0
 18 20  1  0
 18 21  1  0
 22 19  2  0
 20 23  1  0
 20 24  2  0
 21 25  2  0
 25 22  1  0
  4 26  2  0
  4 27  1  0
 28 27  1  0
 28 29  1  0
 29 30  1  0
 29 31  1  0
 30 32  1  0
 31 33  1  0
 31 34  1  0
 34 32  1  0
 32 35  1  0
 34 36  1  0
 37 35  1  0
 38 35  1  0
 39 37  2  0
 37 40  1  0
 41 38  2  0
 42 39  1  0
 40 43  2  0
 40 41  1  0
 44 42  2  0
 44 43  1  0
 43 45  1  0
  6 46  1  1
  7 47  1  0
  7 48  1  0
  8 49  1  0
  8 50  1  0
 10 51  1  0
 11 52  1  0
 12 53  1  0
 13 54  1  0
 16 55  1  0
 16 56  1  0
 19 57  1  0
 21 58  1  0
 22 59  1  0
 25 60  1  0
 28 61  1  0
 28 62  1  0
 29 63  1  0
 31 64  1  0
 32 65  1  0
 33 66  1  0
 34 67  1  0
 36 68  1  0
 38 69  1  0
 42 70  1  0
 45 71  1  0
 45 72  1  0
M  CHG  3   5  -1  20   1  23  -1
M  END
>  <EmbedRMS>  (143) 
0.0808174269596

$$$$

     RDKit          3D

 72 76  0  0  0  0  0  0  0  0999 V2000
   10.2803   43.7665   33.8250 C   0  0  0  0  0  0  0  0  0  0  0  0
   11.4110   43.5919   34.3666 O   0  0  0  0  0  0  0  0  0  0  0  0
    9.3616   42.7252   33.7348 O   0  0  0  0  0  0  0  0  0  0  0  0
    9.8896   41.2269   34.2945 P   0  0  0  0  0  0  0  0  0  0  0  0
   10.3731   41.4568   35.8837 O   0  0  0  0  0  0  0  0  0  0  0  0
    9.9459   45.0737   33.2113 C   0  0  1  0  0  0  0  0  0  0  0  0
   11.0266   46.0293   33.4709 N   0  0  0  0  0  0  0  0  0  0  0  0
    9.7540   44.8543   31.6950 C   0  0  0  0  0  0  0  0  0  0  0  0
    8.7957   45.8414   31.0851 C   0  0  0  0  0  0  0  0  0  0  0  0
    7.4090   45.5997   31.1006 C   0  0  0  0  0  0  0  0  0  0  0  0
    9.2825   46.9876   30.4390 C   0  0  0  0  0  0  0  0  0  0  0  0
    6.5261   46.4983   30.4854 C   0  0  0  0  0  0  0  0  0  0  0  0
    8.3997   47.8868   29.8299 C   0  0  0  0  0  0  0  0  0  0  0  0
    7.0181   47.6559   29.8488 C   0  0  0  0  0  0  0  0  0  0  0  0
    6.1795   48.5943   29.2267 O   0  0  0  0  0  0  0  0  0  0  0  0
    4.7524   48.5949   29.2865 C   0  0  0  0  0  0  0  0  0  0  0  0
    4.2680   48.9177   30.6822 C   0  0  0  0  0  0  0  0  0  0  0  0
    4.7310   50.0528   31.4008 C   0  0  0  0  0  0  0  0  0  0  0  0
    3.3576   48.0397   31.2990 C   0  0  0  0  0  0  0  0  0  0  0  0
    5.6410   51.0024   30.8165 N   0  0  0  0  0  0  0  0  0  0  0  0
    4.2994   50.2469   32.7259 C   0  0  0  0  0  0  0  0  0  0  0  0
    2.9305   48.2598   32.6088 C   0  0  0  0  0  0  0  0  0  0  0  0
    5.4938   51.4022   29.5088 O   0  0  0  0  0  0  0  0  0  0  0  0
    6.4730   51.5949   31.5345 O   0  0  0  0  0  0  0  0  0  0  0  0
    3.4049   49.3579   33.3229 C   0  0  0  0  0  0  0  0  0  0  0  0
    8.8122   40.1844   34.2135 O   0  0  0  0  0  0  0  0  0  0  0  0
   11.2401   40.7950   33.3698 O   0  0  0  0  0  0  0  0  0  0  0  0
   10.9143   40.6914   31.9981 C   0  0  0  0  0  0  0  0  0  0  0  0
   11.5269   39.3911   31.4385 C   0  0  0  0  0  0  0  0  0  0  0  0
   12.7519   39.0911   32.0837 O   0  0  0  0  0  0  0  0  0  0  0  0
   10.6113   38.1932   31.6451 C   0  0  0  0  0  0  0  0  0  0  0  0
   12.9413   37.6838   32.0297 C   0  0  0  0  0  0  0  0  0  0  0  0
    9.6064   38.0877   30.6599 O   0  0  0  0  0  0  0  0  0  0  0  0
   11.5822   37.0197   31.6877 C   0  0  0  0  0  0  0  0  0  0  0  0
   13.4840   37.2105   33.3254 N   0  0  0  0  0  0  0  0  0  0  0  0
   11.6179   36.3072   30.4690 O   0  0  0  0  0  0  0  0  0  0  0  0
   14.4797   36.3309   33.5738 C   0  0  0  0  0  0  0  0  0  0  0  0
   13.1136   37.6269   34.5702 C   0  0  0  0  0  0  0  0  0  0  0  0
   15.2074   35.6152   32.6747 N   0  0  0  0  0  0  0  0  0  0  0  0
   14.6756   36.2298   34.9190 C   0  0  0  0  0  0  0  0  0  0  0  0
   13.8217   37.0445   35.5793 N   0  0  0  0  0  0  0  0  0  0  0  0
   16.1643   34.7603   33.1551 C   0  0  0  0  0  0  0  0  0  0  0  0
   15.6528   35.3503   35.4136 C   0  0  0  0  0  0  0  0  0  0  0  0
   16.3798   34.6316   34.5046 N   0  0  0  0  0  0  0  0  0  0  0  0
   15.9004   35.1930   36.8094 N   0  0  0  0  0  0  0  0  0  0  0  0
    8.9995   45.4383   33.6722 H   0  0  0  0  0  0  0  0  0  0  0  0
   11.0501   46.2278   34.4983 H   0  0  0  0  0  0  0  0  0  0  0  0
   10.7764   46.9370   33.0160 H   0  0  0  0  0  0  0  0  0  0  0  0
   10.7411   44.9081   31.1837 H   0  0  0  0  0  0  0  0  0  0  0  0
    9.3646   43.8355   31.4712 H   0  0  0  0  0  0  0  0  0  0  0  0
    7.0150   44.7136   31.5830 H   0  0  0  0  0  0  0  0  0  0  0  0
   10.3463   47.1874   30.4045 H   0  0  0  0  0  0  0  0  0  0  0  0
    5.4693   46.2770   30.5068 H   0  0  0  0  0  0  0  0  0  0  0  0
    8.7914   48.7695   29.3406 H   0  0  0  0  0  0  0  0  0  0  0  0
    4.3630   47.6195   28.9222 H   0  0  0  0  0  0  0  0  0  0  0  0
    4.3644   49.3619   28.5857 H   0  0  0  0  0  0  0  0  0  0  0  0
    2.9849   47.1716   30.7693 H   0  0  0  0  0  0  0  0  0  0  0  0
    4.6447   51.1012   33.2944 H   0  0  0  0  0  0  0  0  0  0  0  0
    2.2346   47.5731   33.0732 H   0  0  0  0  0  0  0  0  0  0  0  0
    3.0752   49.5240   34.3404 H   0  0  0  0  0  0  0  0  0  0  0  0
    9.8233   40.7200   31.7652 H   0  0  0  0  0  0  0  0  0  0  0  0
   11.3775   41.5548   31.4741 H   0  0  0  0  0  0  0  0  0  0  0  0
   11.7312   39.5361   30.3532 H   0  0  0  0  0  0  0  0  0  0  0  0
   10.1202   38.2696   32.6410 H   0  0  0  0  0  0  0  0  0  0  0  0
   13.6850   37.4639   31.2321 H   0  0  0  0  0  0  0  0  0  0  0  0
   10.0250   38.1792   29.7654 H   0  0  0  0  0  0  0  0  0  0  0  0
   11.2757   36.3135   32.4907 H   0  0  0  0  0  0  0  0  0  0  0  0
   11.9838   36.9111   29.7708 H   0  0  0  0  0  0  0  0  0  0  0  0
   12.3307   38.3536   34.7458 H   0  0  0  0  0  0  0  0  0  0  0  0
   16.7566   34.1787   32.4623 H   0  0  0  0  0  0  0  0  0  0  0  0
   15.3535   35.7355   37.5144 H   0  0  0  0  0  0  0  0  0  0  0  0
   16.6353   34.5300   37.1418 H   0  0  0  0  0  0  0  0  0  0  0  0
  1  2  2  0
  1  3  1  0
  3  4  1  0
  4  5  1  0
  6  1  1  0
  7  6  1  0
  6  8  1  0
  8  9  1  0
  9 10  2  0
 11  9  1  0
 10 12  1  0
 13 11  2  0
 12 14  2  0
 14 13  1  0
 14 15  1  0
 15 16  1  0
 16 17  1  0
 17 18  2  0
 19 17  1  0
 18 20  1  0
 18 21  1  0
 22 19  2  0
 20 23  1  0
 20 24  2  0
 21 25  2  0
 25 22  1  0
  4 26  2  0
  4 27  1  0
 28 27  1  0
 28 29  1  0
 29 30  1  0
 29 31  1  0
 30 32  1  0
 31 33  1  0
 31 34  1  0
 34 32  1  0
 32 35  1  0
 34 36  1  0
 37 35  1  0
 38 35  1  0
 39 37  2  0
 37 40  1  0
 41 38  2  0
 42 39  1  0
 40 43  2  0
 40 41  1  0
 44 42  2  0
 44 43  1  0
 43 45  1  0
  6 46  1  1
  7 47  1  0
  7 48  1  0
  8 49  1  0
  8 50  1  0
 10 51  1  0
 11 52  1  0
 12 53  1  0
 13 54  1  0
 16 55  1  0
 16 56  1  0
 19 57  1  0
 21 58  1  0
 22 59  1  0
 25 60  1  0
 28 61  1  0
 28 62  1  0
 29 63  1  0
 31 64  1  0
 32 65  1  0
 33 66  1  0
 34 67  1  0
 36 68  1  0
 38 69  1  0
 42 70  1  0
 45 71  1  0
 45 72  1  0
M  CHG  3   5  -1  20   1  23  -1
M  END
>  <EmbedRMS>  (144) 
0.080639431657

$$$$

     RDKit          3D

 72 76  0  0  0  0  0  0  0  0999 V2000
   10.2804   43.7664   33.8250 C   0  0  0  0  0  0  0  0  0  0  0  0
   11.4110   43.5918   34.3666 O   0  0  0  0  0  0  0  0  0  0  0  0
    9.3618   42.7249   33.7346 O   0  0  0  0  0  0  0  0  0  0  0  0
    9.8899   41.2267   34.2940 P   0  0  0  0  0  0  0  0  0  0  0  0
   10.3735   41.4566   35.8832 O   0  0  0  0  0  0  0  0  0  0  0  0
    9.9459   45.0736   33.2111 C   0  0  1  0  0  0  0  0  0  0  0  0
   11.0267   46.0291   33.4705 N   0  0  0  0  0  0  0  0  0  0  0  0
    9.7536   44.8538   31.6948 C   0  0  0  0  0  0  0  0  0  0  0  0
    8.7955   45.8409   31.0845 C   0  0  0  0  0  0  0  0  0  0  0  0
    7.4086   45.6007   31.1011 C   0  0  0  0  0  0  0  0  0  0  0  0
    9.2830   46.9879   30.4401 C   0  0  0  0  0  0  0  0  0  0  0  0
    6.5280   46.5014   30.4860 C   0  0  0  0  0  0  0  0  0  0  0  0
    8.4024   47.8896   29.8313 C   0  0  0  0  0  0  0  0  0  0  0  0
    7.0137   47.6503   29.8464 C   0  0  0  0  0  0  0  0  0  0  0  0
    6.0879   48.5177   29.2440 O   0  0  0  0  0  0  0  0  0  0  0  0
    6.4232   49.6752   28.4769 C   0  0  0  0  0  0  0  0  0  0  0  0
    7.0508   49.2826   27.1570 C   0  0  0  0  0  0  0  0  0  0  0  0
    8.2552   49.8641   26.6801 C   0  0  0  0  0  0  0  0  0  0  0  0
    6.4287   48.2763   26.3954 C   0  0  0  0  0  0  0  0  0  0  0  0
    8.8890   50.9596   27.3580 N   0  0  0  0  0  0  0  0  0  0  0  0
    8.8362   49.3711   25.4995 C   0  0  0  0  0  0  0  0  0  0  0  0
    7.0102   47.8146   25.2138 C   0  0  0  0  0  0  0  0  0  0  0  0
   10.2621   51.0351   27.3994 O   0  0  0  0  0  0  0  0  0  0  0  0
    8.2204   51.9586   27.6943 O   0  0  0  0  0  0  0  0  0  0  0  0
    8.2175   48.3531   24.7725 C   0  0  0  0  0  0  0  0  0  0  0  0
    8.8123   40.1844   34.2134 O   0  0  0  0  0  0  0  0  0  0  0  0
   11.2402   40.7944   33.3688 O   0  0  0  0  0  0  0  0  0  0  0  0
   10.9142   40.6898   31.9970 C   0  0  0  0  0  0  0  0  0  0  0  0
   11.5260   39.3884   31.4376 C   0  0  0  0  0  0  0  0  0  0  0  0
   12.7504   39.0888   32.0816 O   0  0  0  0  0  0  0  0  0  0  0  0
   10.6114   38.1909   31.6460 C   0  0  0  0  0  0  0  0  0  0  0  0
   12.9357   37.6812   32.0303 C   0  0  0  0  0  0  0  0  0  0  0  0
    9.6145   38.0858   30.6534 O   0  0  0  0  0  0  0  0  0  0  0  0
   11.5769   37.0148   31.7012 C   0  0  0  0  0  0  0  0  0  0  0  0
   13.4849   37.2112   33.3247 N   0  0  0  0  0  0  0  0  0  0  0  0
   11.6193   36.3261   30.4724 O   0  0  0  0  0  0  0  0  0  0  0  0
   14.4802   36.3313   33.5730 C   0  0  0  0  0  0  0  0  0  0  0  0
   13.1141   37.6268   34.5698 C   0  0  0  0  0  0  0  0  0  0  0  0
   15.2075   35.6151   32.6741 N   0  0  0  0  0  0  0  0  0  0  0  0
   14.6761   36.2300   34.9184 C   0  0  0  0  0  0  0  0  0  0  0  0
   13.8220   37.0445   35.5789 N   0  0  0  0  0  0  0  0  0  0  0  0
   16.1642   34.7600   33.1547 C   0  0  0  0  0  0  0  0  0  0  0  0
   15.6529   35.3503   35.4131 C   0  0  0  0  0  0  0  0  0  0  0  0
   16.3797   34.6314   34.5042 N   0  0  0  0  0  0  0  0  0  0  0  0
   15.9004   35.1930   36.8090 N   0  0  0  0  0  0  0  0  0  0  0  0
    8.9996   45.4382   33.6722 H   0  0  0  0  0  0  0  0  0  0  0  0
   10.7764   46.9368   33.0155 H   0  0  0  0  0  0  0  0  0  0  0  0
   11.0504   46.2277   34.4979 H   0  0  0  0  0  0  0  0  0  0  0  0
   10.7406   44.9069   31.1833 H   0  0  0  0  0  0  0  0  0  0  0  0
    9.3636   43.8352   31.4714 H   0  0  0  0  0  0  0  0  0  0  0  0
    7.0130   44.7165   31.5855 H   0  0  0  0  0  0  0  0  0  0  0  0
   10.3471   47.1872   30.4080 H   0  0  0  0  0  0  0  0  0  0  0  0
    5.4637   46.3038   30.5047 H   0  0  0  0  0  0  0  0  0  0  0  0
    8.8142   48.7664   29.3534 H   0  0  0  0  0  0  0  0  0  0  0  0
    7.0668   50.3367   29.0898 H   0  0  0  0  0  0  0  0  0  0  0  0
    5.4872   50.2319   28.2624 H   0  0  0  0  0  0  0  0  0  0  0  0
    5.4993   47.8319   26.7300 H   0  0  0  0  0  0  0  0  0  0  0  0
    9.7593   49.7964   25.1263 H   0  0  0  0  0  0  0  0  0  0  0  0
    6.5275   47.0313   24.6437 H   0  0  0  0  0  0  0  0  0  0  0  0
    8.6692   47.9899   23.8585 H   0  0  0  0  0  0  0  0  0  0  0  0
   11.3777   41.5525   31.4723 H   0  0  0  0  0  0  0  0  0  0  0  0
    9.8232   40.7190   31.7645 H   0  0  0  0  0  0  0  0  0  0  0  0
   11.7283   39.5311   30.3515 H   0  0  0  0  0  0  0  0  0  0  0  0
   10.1127   38.2734   32.6376 H   0  0  0  0  0  0  0  0  0  0  0  0
   13.6692   37.4566   31.2242 H   0  0  0  0  0  0  0  0  0  0  0  0
   10.0533   38.1118   29.7636 H   0  0  0  0  0  0  0  0  0  0  0  0
   11.2607   36.3148   32.5102 H   0  0  0  0  0  0  0  0  0  0  0  0
   12.1496   35.5023   30.6324 H   0  0  0  0  0  0  0  0  0  0  0  0
   12.3301   38.3524   34.7455 H   0  0  0  0  0  0  0  0  0  0  0  0
   16.7562   34.1781   32.4619 H   0  0  0  0  0  0  0  0  0  0  0  0
   16.6351   34.5298   37.1416 H   0  0  0  0  0  0  0  0  0  0  0  0
   15.3536   35.7357   37.5140 H   0  0  0  0  0  0  0  0  0  0  0  0
  1  2  2  0
  1  3  1  0
  3  4  1  0
  4  5  1  0
  6  1  1  0
  7  6  1  0
  6  8  1  0
  8  9  1  0
  9 10  2  0
 11  9  1  0
 10 12  1  0
 13 11  2  0
 12 14  2  0
 14 13  1  0
 14 15  1  0
 15 16  1  0
 16 17  1  0
 17 18  2  0
 19 17  1  0
 18 20  1  0
 18 21  1  0
 22 19  2  0
 20 23  1  0
 20 24  2  0
 21 25  2  0
 25 22  1  0
  4 26  2  0
  4 27  1  0
 28 27  1  0
 28 29  1  0
 29 30  1  0
 29 31  1  0
 30 32  1  0
 31 33  1  0
 31 34  1  0
 34 32  1  0
 32 35  1  0
 34 36  1  0
 37 35  1  0
 38 35  1  0
 39 37  2  0
 37 40  1  0
 41 38  2  0
 42 39  1  0
 40 43  2  0
 40 41  1  0
 44 42  2  0
 44 43  1  0
 43 45  1  0
  6 46  1  1
  7 47  1  0
  7 48  1  0
  8 49  1  0
  8 50  1  0
 10 51  1  0
 11 52  1  0
 12 53  1  0
 13 54  1  0
 16 55  1  0
 16 56  1  0
 19 57  1  0
 21 58  1  0
 22 59  1  0
 25 60  1  0
 28 61  1  0
 28 62  1  0
 29 63  1  0
 31 64  1  0
 32 65  1  0
 33 66  1  0
 34 67  1  0
 36 68  1  0
 38 69  1  0
 42 70  1  0
 45 71  1  0
 45 72  1  0
M  CHG  3   5  -1  20   1  23  -1
M  END
>  <EmbedRMS>  (145) 
0.0814522911573

$$$$

     RDKit          3D

 72 76  0  0  0  0  0  0  0  0999 V2000
   10.2835   43.7662   33.8257 C   0  0  0  0  0  0  0  0  0  0  0  0
   11.4102   43.5930   34.3753 O   0  0  0  0  0  0  0  0  0  0  0  0
    9.3638   42.7255   33.7350 O   0  0  0  0  0  0  0  0  0  0  0  0
    9.8903   41.2267   34.2943 P   0  0  0  0  0  0  0  0  0  0  0  0
   10.3735   41.4561   35.8837 O   0  0  0  0  0  0  0  0  0  0  0  0
    9.9546   45.0695   33.2037 C   0  0  1  0  0  0  0  0  0  0  0  0
   11.0273   46.0323   33.4757 N   0  0  0  0  0  0  0  0  0  0  0  0
    9.7465   44.8481   31.6878 C   0  0  0  0  0  0  0  0  0  0  0  0
    8.7923   45.8410   31.0848 C   0  0  0  0  0  0  0  0  0  0  0  0
    7.4056   45.6012   31.0984 C   0  0  0  0  0  0  0  0  0  0  0  0
    9.2823   46.9874   30.4418 C   0  0  0  0  0  0  0  0  0  0  0  0
    6.5268   46.5026   30.4828 C   0  0  0  0  0  0  0  0  0  0  0  0
    8.4033   47.8892   29.8306 C   0  0  0  0  0  0  0  0  0  0  0  0
    7.0140   47.6544   29.8499 C   0  0  0  0  0  0  0  0  0  0  0  0
    6.0884   48.5285   29.2580 O   0  0  0  0  0  0  0  0  0  0  0  0
    6.3955   49.8128   28.7137 C   0  0  0  0  0  0  0  0  0  0  0  0
    6.7883   50.7842   29.8041 C   0  0  0  0  0  0  0  0  0  0  0  0
    5.9901   50.9856   30.9623 C   0  0  0  0  0  0  0  0  0  0  0  0
    8.0049   51.4802   29.6798 C   0  0  0  0  0  0  0  0  0  0  0  0
    4.7236   50.3245   31.1363 N   0  0  0  0  0  0  0  0  0  0  0  0
    6.4570   51.8441   31.9746 C   0  0  0  0  0  0  0  0  0  0  0  0
    8.4415   52.3390   30.6890 C   0  0  0  0  0  0  0  0  0  0  0  0
    3.8521   50.1888   30.0810 O   0  0  0  0  0  0  0  0  0  0  0  0
    4.3330   50.0120   32.2803 O   0  0  0  0  0  0  0  0  0  0  0  0
    7.6720   52.5161   31.8367 C   0  0  0  0  0  0  0  0  0  0  0  0
    8.8122   40.1850   34.2131 O   0  0  0  0  0  0  0  0  0  0  0  0
   11.2407   40.7940   33.3694 O   0  0  0  0  0  0  0  0  0  0  0  0
   10.9151   40.6905   31.9974 C   0  0  0  0  0  0  0  0  0  0  0  0
   11.5252   39.3886   31.4375 C   0  0  0  0  0  0  0  0  0  0  0  0
   12.7500   39.0874   32.0799 O   0  0  0  0  0  0  0  0  0  0  0  0
   10.6092   38.1926   31.6470 C   0  0  0  0  0  0  0  0  0  0  0  0
   12.9332   37.6792   32.0294 C   0  0  0  0  0  0  0  0  0  0  0  0
    9.6122   38.0895   30.6542 O   0  0  0  0  0  0  0  0  0  0  0  0
   11.5743   37.0145   31.7024 C   0  0  0  0  0  0  0  0  0  0  0  0
   13.4844   37.2108   33.3241 N   0  0  0  0  0  0  0  0  0  0  0  0
   11.6297   36.3239   30.4740 O   0  0  0  0  0  0  0  0  0  0  0  0
   14.4802   36.3313   33.5727 C   0  0  0  0  0  0  0  0  0  0  0  0
   13.1138   37.6266   34.5692 C   0  0  0  0  0  0  0  0  0  0  0  0
   15.2075   35.6149   32.6739 N   0  0  0  0  0  0  0  0  0  0  0  0
   14.6761   36.2303   34.9181 C   0  0  0  0  0  0  0  0  0  0  0  0
   13.8220   37.0447   35.5785 N   0  0  0  0  0  0  0  0  0  0  0  0
   16.1643   34.7600   33.1547 C   0  0  0  0  0  0  0  0  0  0  0  0
   15.6529   35.3505   35.4130 C   0  0  0  0  0  0  0  0  0  0  0  0
   16.3798   34.6315   34.5042 N   0  0  0  0  0  0  0  0  0  0  0  0
   15.9003   35.1932   36.8090 N   0  0  0  0  0  0  0  0  0  0  0  0
    9.0120   45.4318   33.6716 H   0  0  0  0  0  0  0  0  0  0  0  0
   10.7258   46.9688   33.1213 H   0  0  0  0  0  0  0  0  0  0  0  0
   11.8905   45.7660   32.9469 H   0  0  0  0  0  0  0  0  0  0  0  0
    9.3413   43.8330   31.4764 H   0  0  0  0  0  0  0  0  0  0  0  0
   10.7229   44.8814   31.1558 H   0  0  0  0  0  0  0  0  0  0  0  0
    7.0083   44.7163   31.5803 H   0  0  0  0  0  0  0  0  0  0  0  0
   10.3471   47.1831   30.4087 H   0  0  0  0  0  0  0  0  0  0  0  0
    5.4621   46.3075   30.5022 H   0  0  0  0  0  0  0  0  0  0  0  0
    8.8174   48.7567   29.3385 H   0  0  0  0  0  0  0  0  0  0  0  0
    7.1855   49.7105   27.9383 H   0  0  0  0  0  0  0  0  0  0  0  0
    5.4997   50.2040   28.1901 H   0  0  0  0  0  0  0  0  0  0  0  0
    8.6273   51.3489   28.8032 H   0  0  0  0  0  0  0  0  0  0  0  0
    5.8684   52.0070   32.8687 H   0  0  0  0  0  0  0  0  0  0  0  0
    9.3824   52.8634   30.5832 H   0  0  0  0  0  0  0  0  0  0  0  0
    8.0150   53.1797   32.6200 H   0  0  0  0  0  0  0  0  0  0  0  0
   11.3802   41.5529   31.4733 H   0  0  0  0  0  0  0  0  0  0  0  0
    9.8243   40.7216   31.7643 H   0  0  0  0  0  0  0  0  0  0  0  0
   11.7266   39.5311   30.3513 H   0  0  0  0  0  0  0  0  0  0  0  0
   10.1110   38.2747   32.6387 H   0  0  0  0  0  0  0  0  0  0  0  0
   13.6652   37.4519   31.2226 H   0  0  0  0  0  0  0  0  0  0  0  0
   10.0511   38.1143   29.7645 H   0  0  0  0  0  0  0  0  0  0  0  0
   11.2762   36.3141   32.5189 H   0  0  0  0  0  0  0  0  0  0  0  0
   10.8593   35.6978   30.4640 H   0  0  0  0  0  0  0  0  0  0  0  0
   12.3295   38.3518   34.7449 H   0  0  0  0  0  0  0  0  0  0  0  0
   16.7564   34.1780   32.4620 H   0  0  0  0  0  0  0  0  0  0  0  0
   15.3534   35.7359   37.5138 H   0  0  0  0  0  0  0  0  0  0  0  0
   16.6349   34.5300   37.1415 H   0  0  0  0  0  0  0  0  0  0  0  0
  1  2  2  0
  1  3  1  0
  3  4  1  0
  4  5  1  0
  6  1  1  0
  7  6  1  0
  6  8  1  0
  8  9  1  0
  9 10  2  0
 11  9  1  0
 10 12  1  0
 13 11  2  0
 12 14  2  0
 14 13  1  0
 14 15  1  0
 15 16  1  0
 16 17  1  0
 17 18  2  0
 19 17  1  0
 18 20  1  0
 18 21  1  0
 22 19  2  0
 20 23  1  0
 20 24  2  0
 21 25  2  0
 25 22  1  0
  4 26  2  0
  4 27  1  0
 28 27  1  0
 28 29  1  0
 29 30  1  0
 29 31  1  0
 30 32  1  0
 31 33  1  0
 31 34  1  0
 34 32  1  0
 32 35  1  0
 34 36  1  0
 37 35  1  0
 38 35  1  0
 39 37  2  0
 37 40  1  0
 41 38  2  0
 42 39  1  0
 40 43  2  0
 40 41  1  0
 44 42  2  0
 44 43  1  0
 43 45  1  0
  6 46  1  1
  7 47  1  0
  7 48  1  0
  8 49  1  0
  8 50  1  0
 10 51  1  0
 11 52  1  0
 12 53  1  0
 13 54  1  0
 16 55  1  0
 16 56  1  0
 19 57  1  0
 21 58  1  0
 22 59  1  0
 25 60  1  0
 28 61  1  0
 28 62  1  0
 29 63  1  0
 31 64  1  0
 32 65  1  0
 33 66  1  0
 34 67  1  0
 36 68  1  0
 38 69  1  0
 42 70  1  0
 45 71  1  0
 45 72  1  0
M  CHG  3   5  -1  20   1  23  -1
M  END
>  <EmbedRMS>  (146) 
0.0818201184592

$$$$

     RDKit          3D

 72 76  0  0  0  0  0  0  0  0999 V2000
   10.2834   43.7662   33.8257 C   0  0  0  0  0  0  0  0  0  0  0  0
   11.4102   43.5930   34.3752 O   0  0  0  0  0  0  0  0  0  0  0  0
    9.3635   42.7257   33.7353 O   0  0  0  0  0  0  0  0  0  0  0  0
    9.8899   41.2270   34.2948 P   0  0  0  0  0  0  0  0  0  0  0  0
   10.3732   41.4562   35.8841 O   0  0  0  0  0  0  0  0  0  0  0  0
    9.9546   45.0695   33.2036 C   0  0  1  0  0  0  0  0  0  0  0  0
   11.0274   46.0321   33.4756 N   0  0  0  0  0  0  0  0  0  0  0  0
    9.7465   44.8481   31.6877 C   0  0  0  0  0  0  0  0  0  0  0  0
    8.7923   45.8409   31.0844 C   0  0  0  0  0  0  0  0  0  0  0  0
    7.4054   45.6015   31.0990 C   0  0  0  0  0  0  0  0  0  0  0  0
    9.2824   46.9879   30.4422 C   0  0  0  0  0  0  0  0  0  0  0  0
    6.5264   46.5031   30.4838 C   0  0  0  0  0  0  0  0  0  0  0  0
    8.4032   47.8902   29.8315 C   0  0  0  0  0  0  0  0  0  0  0  0
    7.0143   47.6527   29.8477 C   0  0  0  0  0  0  0  0  0  0  0  0
    6.0934   48.5251   29.2502 O   0  0  0  0  0  0  0  0  0  0  0  0
    6.4426   49.7382   28.5876 C   0  0  0  0  0  0  0  0  0  0  0  0
    5.1905   50.4379   28.1198 C   0  0  0  0  0  0  0  0  0  0  0  0
    4.1435   50.7976   29.0139 C   0  0  0  0  0  0  0  0  0  0  0  0
    5.0408   50.7044   26.7457 C   0  0  0  0  0  0  0  0  0  0  0  0
    4.2283   50.5580   30.4315 N   0  0  0  0  0  0  0  0  0  0  0  0
    2.9754   51.3861   28.4966 C   0  0  0  0  0  0  0  0  0  0  0  0
    3.8790   51.3034   26.2578 C   0  0  0  0  0  0  0  0  0  0  0  0
    3.0815   50.3396   31.1602 O   0  0  0  0  0  0  0  0  0  0  0  0
    5.3064   50.7027   31.0428 O   0  0  0  0  0  0  0  0  0  0  0  0
    2.8472   51.6400   27.1307 C   0  0  0  0  0  0  0  0  0  0  0  0
    8.8120   40.1850   34.2133 O   0  0  0  0  0  0  0  0  0  0  0  0
   11.2403   40.7947   33.3700 O   0  0  0  0  0  0  0  0  0  0  0  0
   10.9144   40.6914   31.9982 C   0  0  0  0  0  0  0  0  0  0  0  0
   11.5270   39.3912   31.4385 C   0  0  0  0  0  0  0  0  0  0  0  0
   12.7520   39.0911   32.0836 O   0  0  0  0  0  0  0  0  0  0  0  0
   10.6113   38.1932   31.6451 C   0  0  0  0  0  0  0  0  0  0  0  0
   12.9413   37.6838   32.0297 C   0  0  0  0  0  0  0  0  0  0  0  0
    9.6064   38.0878   30.6599 O   0  0  0  0  0  0  0  0  0  0  0  0
   11.5822   37.0197   31.6877 C   0  0  0  0  0  0  0  0  0  0  0  0
   13.4840   37.2104   33.3254 N   0  0  0  0  0  0  0  0  0  0  0  0
   11.6179   36.3072   30.4690 O   0  0  0  0  0  0  0  0  0  0  0  0
   14.4797   36.3309   33.5738 C   0  0  0  0  0  0  0  0  0  0  0  0
   13.1136   37.6269   34.5702 C   0  0  0  0  0  0  0  0  0  0  0  0
   15.2074   35.6152   32.6747 N   0  0  0  0  0  0  0  0  0  0  0  0
   14.6756   36.2298   34.9190 C   0  0  0  0  0  0  0  0  0  0  0  0
   13.8217   37.0445   35.5793 N   0  0  0  0  0  0  0  0  0  0  0  0
   16.1643   34.7603   33.1551 C   0  0  0  0  0  0  0  0  0  0  0  0
   15.6528   35.3503   35.4136 C   0  0  0  0  0  0  0  0  0  0  0  0
   16.3798   34.6316   34.5046 N   0  0  0  0  0  0  0  0  0  0  0  0
   15.9004   35.1930   36.8094 N   0  0  0  0  0  0  0  0  0  0  0  0
    9.0121   45.4319   33.6714 H   0  0  0  0  0  0  0  0  0  0  0  0
   10.7260   46.9688   33.1213 H   0  0  0  0  0  0  0  0  0  0  0  0
   11.8906   45.7658   32.9469 H   0  0  0  0  0  0  0  0  0  0  0  0
   10.7229   44.8813   31.1557 H   0  0  0  0  0  0  0  0  0  0  0  0
    9.3413   43.8329   31.4764 H   0  0  0  0  0  0  0  0  0  0  0  0
    7.0082   44.7168   31.5813 H   0  0  0  0  0  0  0  0  0  0  0  0
   10.3471   47.1847   30.4113 H   0  0  0  0  0  0  0  0  0  0  0  0
    5.4617   46.3076   30.5023 H   0  0  0  0  0  0  0  0  0  0  0  0
    8.8143   48.7650   29.3468 H   0  0  0  0  0  0  0  0  0  0  0  0
    7.0058   50.4062   29.2725 H   0  0  0  0  0  0  0  0  0  0  0  0
    7.1092   49.5008   27.7296 H   0  0  0  0  0  0  0  0  0  0  0  0
    5.8225   50.4408   26.0440 H   0  0  0  0  0  0  0  0  0  0  0  0
    2.1639   51.6646   29.1568 H   0  0  0  0  0  0  0  0  0  0  0  0
    3.7765   51.5013   25.1986 H   0  0  0  0  0  0  0  0  0  0  0  0
    1.9453   52.1010   26.7487 H   0  0  0  0  0  0  0  0  0  0  0  0
   11.3777   41.5549   31.4744 H   0  0  0  0  0  0  0  0  0  0  0  0
    9.8234   40.7201   31.7654 H   0  0  0  0  0  0  0  0  0  0  0  0
   11.7312   39.5363   30.3532 H   0  0  0  0  0  0  0  0  0  0  0  0
   10.1202   38.2696   32.6410 H   0  0  0  0  0  0  0  0  0  0  0  0
   13.6850   37.4639   31.2321 H   0  0  0  0  0  0  0  0  0  0  0  0
   10.0251   38.1792   29.7654 H   0  0  0  0  0  0  0  0  0  0  0  0
   11.2757   36.3135   32.4907 H   0  0  0  0  0  0  0  0  0  0  0  0
   11.9838   36.9111   29.7708 H   0  0  0  0  0  0  0  0  0  0  0  0
   12.3307   38.3536   34.7458 H   0  0  0  0  0  0  0  0  0  0  0  0
   16.7566   34.1787   32.4623 H   0  0  0  0  0  0  0  0  0  0  0  0
   15.3535   35.7355   37.5144 H   0  0  0  0  0  0  0  0  0  0  0  0
   16.6353   34.5301   37.1419 H   0  0  0  0  0  0  0  0  0  0  0  0
  1  2  2  0
  1  3  1  0
  3  4  1  0
  4  5  1  0
  6  1  1  0
  7  6  1  0
  6  8  1  0
  8  9  1  0
  9 10  2  0
 11  9  1  0
 10 12  1  0
 13 11  2  0
 12 14  2  0
 14 13  1  0
 14 15  1  0
 15 16  1  0
 16 17  1  0
 17 18  2  0
 19 17  1  0
 18 20  1  0
 18 21  1  0
 22 19  2  0
 20 23  1  0
 20 24  2  0
 21 25  2  0
 25 22  1  0
  4 26  2  0
  4 27  1  0
 28 27  1  0
 28 29  1  0
 29 30  1  0
 29 31  1  0
 30 32  1  0
 31 33  1  0
 31 34  1  0
 34 32  1  0
 32 35  1  0
 34 36  1  0
 37 35  1  0
 38 35  1  0
 39 37  2  0
 37 40  1  0
 41 38  2  0
 42 39  1  0
 40 43  2  0
 40 41  1  0
 44 42  2  0
 44 43  1  0
 43 45  1  0
  6 46  1  1
  7 47  1  0
  7 48  1  0
  8 49  1  0
  8 50  1  0
 10 51  1  0
 11 52  1  0
 12 53  1  0
 13 54  1  0
 16 55  1  0
 16 56  1  0
 19 57  1  0
 21 58  1  0
 22 59  1  0
 25 60  1  0
 28 61  1  0
 28 62  1  0
 29 63  1  0
 31 64  1  0
 32 65  1  0
 33 66  1  0
 34 67  1  0
 36 68  1  0
 38 69  1  0
 42 70  1  0
 45 71  1  0
 45 72  1  0
M  CHG  3   5  -1  20   1  23  -1
M  END
>  <EmbedRMS>  (147) 
0.0808312568538

$$$$
