@<TRIPOS>MOLECULE
*****
 34 37 0 0 0
SMALL
GASTEIGER

@<TRIPOS>ATOM
      1 N          15.9370   35.1580   36.7890 N.pl3   1  LIG1       -0.1054
      2 O          10.3650   41.5580   35.7250 O.3     1  LIG1       -0.4273
      3 O          11.5760   36.2770   30.4350 O.3     1  LIG1       -0.2155
      4 O           9.5860   38.1290   30.6440 O.3     1  LIG1       -0.2175
      5 O          11.4021   43.5430   34.3699 O.2     1  LIG1       -0.2482
      6 N          11.0790   45.9430   33.5210 N.3     1  LIG1       -0.1206
      7 C           9.9890   45.0380   33.2670 C.3     1  LIG1        0.1946
      8 C          10.2970   43.6750   33.8400 C.2     1  LIG1        0.3389
      9 C           9.7390   44.8420   31.7520 C.3     1  LIG1        0.0568
     10 C           8.8090   45.7890   31.1010 C.ar    1  LIG1       -0.0202
     11 C           7.3840   45.5720   31.0990 C.ar    1  LIG1       -0.0042
     12 C           9.2950   46.9710   30.4470 C.ar    1  LIG1       -0.0042
     13 C           6.5000   46.5060   30.4720 C.ar    1  LIG1       -0.0003
     14 C           8.4060   47.8990   29.8240 C.ar    1  LIG1       -0.0003
     15 C           7.0020   47.6770   29.8300 C.ar    1  LIG1       -0.0000
     16 P           9.9070   41.3260   34.3470 P.3     1  LIG1        0.2723
     17 O           8.9270   40.2590   34.2280 O.2     1  LIG1       -0.5082
     18 O           9.2860   42.6450   33.6730 O.3     1  LIG1       -0.4091
     19 C          10.8810   40.7280   31.9500 C.3     1  LIG1        0.1823
     20 O          11.1300   40.9360   33.3650 O.3     1  LIG1       -0.3024
     21 C          11.4820   39.4050   31.4190 C.3     1  LIG1        0.1802
     22 O          12.7140   39.0900   32.1450 O.3     1  LIG1       -0.3306
     23 C          10.6130   38.2020   31.6200 C.3     1  LIG1        0.2161
     24 C          11.5840   37.0310   31.6370 C.3     1  LIG1        0.2337
     25 C          12.9400   37.6750   32.0030 C.3     1  LIG1        0.2409
     26 N          16.4330   34.5830   34.5260 N.ar    1  LIG1       -0.2040
     27 C          16.1720   34.7500   33.1780 C.ar    1  LIG1        0.2016
     28 N          15.2460   35.5870   32.6170 N.ar    1  LIG1       -0.2048
     29 C          14.5230   36.2850   33.5750 C.ar    1  LIG1        0.1692
     30 C          14.6660   36.2580   34.9810 C.ar    1  LIG1        0.1518
     31 C          15.6870   35.3110   35.4610 C.ar    1  LIG1        0.1919
     32 N          13.7580   37.1140   35.6130 N.ar    1  LIG1       -0.2193
     33 C          13.1280   37.6450   34.6070 C.ar    1  LIG1        0.1816
     34 N          13.5140   37.2250   33.3300 N.ar    1  LIG1       -0.2693
@<TRIPOS>BOND
     1     5     8    2
     2     6     7    1
     3     7     8    1
     4     7     9    1
     5     8    18    1
     6     9    10    1
     7    10    11   ar
     8    10    12   ar
     9    11    13   ar
    10    12    14   ar
    11    13    15   ar
    12    14    15   ar
    13    16     2    1
    14    16    17    2
    15    16    18    1
    16    16    20    1
    17    19    20    1
    18    19    21    1
    19    21    22    1
    20    21    23    1
    21    22    25    1
    22    23     4    1
    23    23    24    1
    24    24     3    1
    25    24    25    1
    26    25    34    1
    27    26    27   ar
    28    26    31   ar
    29    27    28   ar
    30    28    29   ar
    31    29    30   ar
    32    29    34   ar
    33    30    31   ar
    34    30    32   ar
    35    31     1    1
    36    32    33   ar
    37    33    34   ar
