@<TRIPOS>MOLECULE
*****
 34 36 0 0 0
SMALL
GASTEIGER

@<TRIPOS>ATOM
      1 N           9.2800   45.3380   34.3680 N.3     1  LIG1       -0.1210
      2 C           8.7360   44.1060   33.8130 C.3     1  LIG1        0.1903
      3 C           6.6440   45.0870   31.4130 C.3     1  LIG1        0.0235
      4 C           8.1850   45.1190   31.4450 C.3     1  LIG1        0.0039
      5 C           6.0310   46.3730   30.8240 C.3     1  LIG1        0.1156
      6 C           9.5120   42.9320   34.3490 C.2     1  LIG1        0.3385
      7 O          10.5120   43.1130   35.0420 O.2     1  LIG1       -0.2482
      8 N           6.5800   47.5830   31.4270 N.am    1  LIG1       -0.1978
      9 O           7.5840   48.2910   29.5140 O.2     1  LIG1       -0.2633
     10 O           9.7510   40.2310   36.0120 O.co2   1  LIG1       -0.4273
     11 O           8.5220   39.2240   33.9420 O.2     1  LIG1       -0.5082
     12 O           9.0190   41.5980   33.9870 O.3     1  LIG1       -0.4091
     13 C           8.8850   44.0340   32.2750 C.3     1  LIG1        0.0305
     14 C           7.2020   48.4860   30.6790 C.2     1  LIG1        0.3201
     15 P           9.4670   40.1590   34.5450 P.3     1  LIG1        0.2723
     16 C          10.7670   40.1110   32.2500 C.3     1  LIG1        0.1823
     17 O          10.8420   40.1520   33.6930 O.3     1  LIG1       -0.3024
     18 C          11.5770   38.9400   31.6920 C.3     1  LIG1        0.1802
     19 O          12.9200   38.9430   32.2130 O.3     1  LIG1       -0.3306
     20 C          11.0250   37.5910   32.1270 C.3     1  LIG1        0.2161
     21 O           9.9550   37.1500   31.3000 O.3     1  LIG1       -0.2175
     22 C          12.2160   36.6770   31.9390 C.3     1  LIG1        0.2337
     23 O          12.2800   36.3310   30.5700 O.3     1  LIG1       -0.2155
     24 C          13.3690   37.5760   32.2600 C.3     1  LIG1        0.2409
     25 N          16.7040   34.9650   35.1470 N.ar    1  LIG1       -0.2040
     26 C          16.5900   34.9930   33.8070 C.ar    1  LIG1        0.2016
     27 N          15.6430   35.7270   33.2040 N.ar    1  LIG1       -0.2048
     28 C          14.7900   36.4490   33.9700 C.ar    1  LIG1        0.1692
     29 C          14.8750   36.4340   35.3510 C.ar    1  LIG1        0.1518
     30 C          15.8700   35.6530   35.9380 C.ar    1  LIG1        0.1919
     31 N          16.0190   35.6410   37.2740 N.pl3   1  LIG1       -0.1054
     32 N          13.8890   37.2460   35.8430 N.ar    1  LIG1       -0.2193
     33 C          13.2130   37.7700   34.7830 C.ar    1  LIG1        0.1816
     34 N          13.7770   37.2870   33.6510 N.ar    1  LIG1       -0.2693
@<TRIPOS>BOND
     1     2     1    1
     2     2     6    1
     3     2    13    1
     4     3     4    1
     5     3     5    1
     6     4    13    1
     7     5     8    1
     8     6     7    2
     9     6    12    1
    10     8    14   am
    11     9    14    2
    12    10    15    1
    13    11    15    2
    14    15    12    1
    15    15    17    1
    16    16    17    1
    17    18    16    1
    18    18    19    1
    19    18    20    1
    20    19    24    1
    21    20    21    1
    22    20    22    1
    23    22    23    1
    24    22    24    1
    25    24    34    1
    26    25    26   ar
    27    25    30   ar
    28    26    27   ar
    29    27    28   ar
    30    28    29   ar
    31    28    34   ar
    32    29    30   ar
    33    29    32   ar
    34    30    31    1
    35    32    33   ar
    36    33    34   ar
