
     RDKit          3D

 75 78  0  0  0  0  0  0  0  0999 V2000
    9.4312   42.9412   34.3440 C   0  0  0  0  0  0  0  0  0  0  0  0
   10.4886   43.0411   35.0294 O   0  0  0  0  0  0  0  0  0  0  0  0
    8.8558   41.7129   34.0298 O   0  0  0  0  0  0  0  0  0  0  0  0
    9.4933   40.2164   34.4707 P   0  0  0  0  0  0  0  0  0  0  0  0
    9.7290   40.1745   36.1317 O   0  0  0  0  0  0  0  0  0  0  0  0
    8.7484   44.1360   33.7721 C   0  0  1  0  0  0  0  0  0  0  0  0
    9.3038   45.3665   34.3387 N   0  0  0  0  0  0  0  0  0  0  0  0
    8.8893   44.0517   32.2309 C   0  0  0  0  0  0  0  0  0  0  0  0
    8.2015   45.1720   31.4435 C   0  0  0  0  0  0  0  0  0  0  0  0
    6.6643   45.1065   31.4887 C   0  0  0  0  0  0  0  0  0  0  0  0
    6.0268   46.3236   30.8123 C   0  0  0  0  0  0  0  0  0  0  0  0
    6.5084   47.5644   31.4190 N   0  0  0  0  0  0  0  0  0  0  0  0
    7.2419   48.5407   30.6824 C   0  0  0  0  0  0  0  0  0  0  0  0
    7.5835   49.7473   31.3024 O   0  0  0  0  0  0  0  0  0  0  0  0
    7.5940   48.3105   29.4938 O   0  0  0  0  0  0  0  0  0  0  0  0
    8.2881   50.7958   30.6394 C   0  0  0  0  0  0  0  0  0  0  0  0
    7.4204   51.4408   29.5825 C   0  0  0  0  0  0  0  0  0  0  0  0
    7.8826   51.4585   28.2534 C   0  0  0  0  0  0  0  0  0  0  0  0
    6.1395   51.9839   29.8788 C   0  0  0  0  0  0  0  0  0  0  0  0
    7.0946   51.9887   27.2315 C   0  0  0  0  0  0  0  0  0  0  0  0
    5.3564   52.4986   28.8299 C   0  0  0  0  0  0  0  0  0  0  0  0
    5.6056   52.0038   31.2158 N   0  0  0  0  0  0  0  0  0  0  0  0
    5.8326   52.5039   27.5184 C   0  0  0  0  0  0  0  0  0  0  0  0
    4.2448   51.9479   31.4124 O   0  0  0  0  0  0  0  0  0  0  0  0
    6.3428   52.2335   32.1959 O   0  0  0  0  0  0  0  0  0  0  0  0
    8.5369   39.1403   34.0143 O   0  0  0  0  0  0  0  0  0  0  0  0
   10.9796   40.0883   33.6889 O   0  0  0  0  0  0  0  0  0  0  0  0
   10.8017   40.0949   32.2901 C   0  0  0  0  0  0  0  0  0  0  0  0
   11.5885   38.9267   31.7042 C   0  0  0  0  0  0  0  0  0  0  0  0
   12.9237   38.9445   32.1722 O   0  0  0  0  0  0  0  0  0  0  0  0
   11.0029   37.5726   32.0908 C   0  0  0  0  0  0  0  0  0  0  0  0
   13.3555   37.5960   32.2595 C   0  0  0  0  0  0  0  0  0  0  0  0
    9.9379   37.1847   31.2657 O   0  0  0  0  0  0  0  0  0  0  0  0
   12.1931   36.6769   31.8952 C   0  0  0  0  0  0  0  0  0  0  0  0
   13.8028   37.2977   33.6186 N   0  0  0  0  0  0  0  0  0  0  0  0
   12.2918   36.2396   30.5587 O   0  0  0  0  0  0  0  0  0  0  0  0
   14.7926   36.4727   33.9858 C   0  0  0  0  0  0  0  0  0  0  0  0
   13.2750   37.7302   34.7935 C   0  0  0  0  0  0  0  0  0  0  0  0
   15.6241   35.7586   33.1857 N   0  0  0  0  0  0  0  0  0  0  0  0
   14.8721   36.4408   35.3326 C   0  0  0  0  0  0  0  0  0  0  0  0
   13.9204   37.2263   35.8802 N   0  0  0  0  0  0  0  0  0  0  0  0
   16.5870   34.9924   33.7800 C   0  0  0  0  0  0  0  0  0  0  0  0
   15.8572   35.6717   35.9441 C   0  0  0  0  0  0  0  0  0  0  0  0
   16.7022   34.9585   35.1437 N   0  0  0  0  0  0  0  0  0  0  0  0
   16.0097   35.6384   37.3561 N   0  0  0  0  0  0  0  0  0  0  0  0
    7.6764   44.0635   34.0547 H   0  0  0  0  0  0  0  0  0  0  0  0
   10.2152   45.5879   33.8747 H   0  0  0  0  0  0  0  0  0  0  0  0
    8.6468   46.1559   34.1429 H   0  0  0  0  0  0  0  0  0  0  0  0
    8.4830   43.0816   31.8668 H   0  0  0  0  0  0  0  0  0  0  0  0
    9.9708   44.0641   31.9680 H   0  0  0  0  0  0  0  0  0  0  0  0
    8.5715   46.1486   31.8172 H   0  0  0  0  0  0  0  0  0  0  0  0
    8.5198   45.0956   30.3807 H   0  0  0  0  0  0  0  0  0  0  0  0
    6.3147   44.1801   30.9835 H   0  0  0  0  0  0  0  0  0  0  0  0
    6.3142   45.0783   32.5413 H   0  0  0  0  0  0  0  0  0  0  0  0
    4.9235   46.2700   30.9302 H   0  0  0  0  0  0  0  0  0  0  0  0
    6.2448   46.2897   29.7232 H   0  0  0  0  0  0  0  0  0  0  0  0
    6.2850   47.7544   32.4219 H   0  0  0  0  0  0  0  0  0  0  0  0
    9.2288   50.3880   30.2079 H   0  0  0  0  0  0  0  0  0  0  0  0
    8.5923   51.5599   31.3834 H   0  0  0  0  0  0  0  0  0  0  0  0
    8.8536   51.0498   28.0021 H   0  0  0  0  0  0  0  0  0  0  0  0
    7.4612   51.9934   26.2130 H   0  0  0  0  0  0  0  0  0  0  0  0
    4.3766   52.9129   29.0304 H   0  0  0  0  0  0  0  0  0  0  0  0
    5.2216   52.9106   26.7229 H   0  0  0  0  0  0  0  0  0  0  0  0
    9.7472   40.0378   31.9304 H   0  0  0  0  0  0  0  0  0  0  0  0
   11.2240   41.0428   31.8929 H   0  0  0  0  0  0  0  0  0  0  0  0
   11.5927   39.0434   30.5966 H   0  0  0  0  0  0  0  0  0  0  0  0
   10.7003   37.5443   33.1641 H   0  0  0  0  0  0  0  0  0  0  0  0
   14.2051   37.4477   31.5560 H   0  0  0  0  0  0  0  0  0  0  0  0
    9.1374   37.6722   31.5906 H   0  0  0  0  0  0  0  0  0  0  0  0
   12.1305   35.7856   32.5586 H   0  0  0  0  0  0  0  0  0  0  0  0
   12.4606   37.0186   29.9674 H   0  0  0  0  0  0  0  0  0  0  0  0
   12.4327   38.4001   34.8694 H   0  0  0  0  0  0  0  0  0  0  0  0
   17.2665   34.4146   33.1690 H   0  0  0  0  0  0  0  0  0  0  0  0
   15.3754   36.1866   37.9788 H   0  0  0  0  0  0  0  0  0  0  0  0
   16.7634   35.0601   37.7894 H   0  0  0  0  0  0  0  0  0  0  0  0
  1  2  2  0
  1  3  1  0
  3  4  1  0
  4  5  1  0
  6  1  1  0
  7  6  1  0
  6  8  1  0
  8  9  1  0
  9 10  1  0
 10 11  1  0
 11 12  1  0
 12 13  1  0
 13 14  1  0
 13 15  2  0
 14 16  1  0
 16 17  1  0
 17 18  2  0
 19 17  1  0
 18 20  1  0
 21 19  2  0
 19 22  1  0
 20 23  2  0
 23 21  1  0
 22 24  1  0
 22 25  2  0
  4 26  2  0
  4 27  1  0
 28 27  1  0
 28 29  1  0
 29 30  1  0
 29 31  1  0
 30 32  1  0
 31 33  1  0
 31 34  1  0
 34 32  1  0
 32 35  1  0
 34 36  1  0
 37 35  1  0
 38 35  1  0
 39 37  2  0
 37 40  1  0
 41 38  2  0
 42 39  1  0
 40 43  2  0
 40 41  1  0
 44 42  2  0
 44 43  1  0
 43 45  1  0
  6 46  1  6
  7 47  1  0
  7 48  1  0
  8 49  1  0
  8 50  1  0
  9 51  1  0
  9 52  1  0
 10 53  1  0
 10 54  1  0
 11 55  1  0
 11 56  1  0
 12 57  1  0
 16 58  1  0
 16 59  1  0
 18 60  1  0
 20 61  1  0
 21 62  1  0
 23 63  1  0
 28 64  1  0
 28 65  1  0
 29 66  1  0
 31 67  1  0
 32 68  1  0
 33 69  1  0
 34 70  1  0
 36 71  1  0
 38 72  1  0
 42 73  1  0
 45 74  1  0
 45 75  1  0
M  CHG  3   5  -1  22   1  24  -1
M  END
>  <EmbedRMS>  (1) 
0.0748449675623

$$$$

     RDKit          3D

 75 78  0  0  0  0  0  0  0  0999 V2000
    9.4315   42.9426   34.3424 C   0  0  0  0  0  0  0  0  0  0  0  0
   10.4885   43.0417   35.0286 O   0  0  0  0  0  0  0  0  0  0  0  0
    8.8558   41.7142   34.0280 O   0  0  0  0  0  0  0  0  0  0  0  0
    9.4943   40.2173   34.4671 P   0  0  0  0  0  0  0  0  0  0  0  0
    9.7315   40.1748   36.1282 O   0  0  0  0  0  0  0  0  0  0  0  0
    8.7494   44.1390   33.7712 C   0  0  1  0  0  0  0  0  0  0  0  0
    9.3056   45.3686   34.3394 N   0  0  0  0  0  0  0  0  0  0  0  0
    8.8909   44.0584   32.2297 C   0  0  0  0  0  0  0  0  0  0  0  0
    8.2004   45.1796   31.4445 C   0  0  0  0  0  0  0  0  0  0  0  0
    6.6625   45.1100   31.4882 C   0  0  0  0  0  0  0  0  0  0  0  0
    6.0173   46.3211   30.8045 C   0  0  0  0  0  0  0  0  0  0  0  0
    6.4810   47.5684   31.4106 N   0  0  0  0  0  0  0  0  0  0  0  0
    7.2924   48.5040   30.7055 C   0  0  0  0  0  0  0  0  0  0  0  0
    7.8641   49.5663   31.4103 O   0  0  0  0  0  0  0  0  0  0  0  0
    7.5795   48.3158   29.4924 O   0  0  0  0  0  0  0  0  0  0  0  0
    9.1025   50.1643   31.0347 C   0  0  0  0  0  0  0  0  0  0  0  0
   10.2231   49.1540   31.1510 C   0  0  0  0  0  0  0  0  0  0  0  0
   10.7575   48.6118   29.9672 C   0  0  0  0  0  0  0  0  0  0  0  0
   10.7393   48.7227   32.4062 C   0  0  0  0  0  0  0  0  0  0  0  0
   11.7761   47.6603   30.0137 C   0  0  0  0  0  0  0  0  0  0  0  0
   11.7772   47.7731   32.4258 C   0  0  0  0  0  0  0  0  0  0  0  0
   10.2580   49.2431   33.6607 N   0  0  0  0  0  0  0  0  0  0  0  0
   12.2846   47.2414   31.2403 C   0  0  0  0  0  0  0  0  0  0  0  0
   11.0922   49.2734   34.7548 O   0  0  0  0  0  0  0  0  0  0  0  0
    9.0539   49.5253   33.8226 O   0  0  0  0  0  0  0  0  0  0  0  0
    8.5372   39.1408   34.0123 O   0  0  0  0  0  0  0  0  0  0  0  0
   10.9794   40.0899   33.6813 O   0  0  0  0  0  0  0  0  0  0  0  0
   10.7982   40.0852   32.2817 C   0  0  0  0  0  0  0  0  0  0  0  0
   11.5886   38.9144   31.7009 C   0  0  0  0  0  0  0  0  0  0  0  0
   12.9214   38.9368   32.1699 O   0  0  0  0  0  0  0  0  0  0  0  0
   11.0047   37.5662   32.0991 C   0  0  0  0  0  0  0  0  0  0  0  0
   13.3510   37.5886   32.2602 C   0  0  0  0  0  0  0  0  0  0  0  0
    9.9296   37.1962   31.2780 O   0  0  0  0  0  0  0  0  0  0  0  0
   12.1922   36.6660   31.9047 C   0  0  0  0  0  0  0  0  0  0  0  0
   13.8033   37.2967   33.6188 N   0  0  0  0  0  0  0  0  0  0  0  0
   12.3006   36.2865   30.5562 O   0  0  0  0  0  0  0  0  0  0  0  0
   14.7933   36.4724   33.9860 C   0  0  0  0  0  0  0  0  0  0  0  0
   13.2753   37.7296   34.7935 C   0  0  0  0  0  0  0  0  0  0  0  0
   15.6243   35.7579   33.1860 N   0  0  0  0  0  0  0  0  0  0  0  0
   14.8728   36.4410   35.3328 C   0  0  0  0  0  0  0  0  0  0  0  0
   13.9209   37.2263   35.8804 N   0  0  0  0  0  0  0  0  0  0  0  0
   16.5873   34.9919   33.7803 C   0  0  0  0  0  0  0  0  0  0  0  0
   15.8577   35.6717   35.9443 C   0  0  0  0  0  0  0  0  0  0  0  0
   16.7025   34.9583   35.1440 N   0  0  0  0  0  0  0  0  0  0  0  0
   16.0100   35.6384   37.3563 N   0  0  0  0  0  0  0  0  0  0  0  0
    7.6772   44.0674   34.0530 H   0  0  0  0  0  0  0  0  0  0  0  0
   10.2212   45.5847   33.8817 H   0  0  0  0  0  0  0  0  0  0  0  0
    8.6545   46.1613   34.1374 H   0  0  0  0  0  0  0  0  0  0  0  0
    9.9727   44.0753   31.9675 H   0  0  0  0  0  0  0  0  0  0  0  0
    8.4877   43.0879   31.8632 H   0  0  0  0  0  0  0  0  0  0  0  0
    8.5205   45.1077   30.3819 H   0  0  0  0  0  0  0  0  0  0  0  0
    8.5670   46.1569   31.8205 H   0  0  0  0  0  0  0  0  0  0  0  0
    6.3173   44.1795   30.9877 H   0  0  0  0  0  0  0  0  0  0  0  0
    6.3122   45.0851   32.5409 H   0  0  0  0  0  0  0  0  0  0  0  0
    6.2436   46.2868   29.7171 H   0  0  0  0  0  0  0  0  0  0  0  0
    4.9137   46.2568   30.9136 H   0  0  0  0  0  0  0  0  0  0  0  0
    6.2668   47.7482   32.4174 H   0  0  0  0  0  0  0  0  0  0  0  0
    9.3108   51.0334   31.6932 H   0  0  0  0  0  0  0  0  0  0  0  0
    9.0184   50.5620   29.9994 H   0  0  0  0  0  0  0  0  0  0  0  0
   10.3782   48.9197   29.0006 H   0  0  0  0  0  0  0  0  0  0  0  0
   12.1724   47.2469   29.0952 H   0  0  0  0  0  0  0  0  0  0  0  0
   12.1862   47.4279   33.3668 H   0  0  0  0  0  0  0  0  0  0  0  0
   13.0752   46.5030   31.2737 H   0  0  0  0  0  0  0  0  0  0  0  0
   11.2131   41.0323   31.8751 H   0  0  0  0  0  0  0  0  0  0  0  0
    9.7427   40.0143   31.9263 H   0  0  0  0  0  0  0  0  0  0  0  0
   11.5981   39.0108   30.5905 H   0  0  0  0  0  0  0  0  0  0  0  0
   10.7008   37.5605   33.1721 H   0  0  0  0  0  0  0  0  0  0  0  0
   14.1976   37.4380   31.5532 H   0  0  0  0  0  0  0  0  0  0  0  0
    9.5180   36.3963   31.6978 H   0  0  0  0  0  0  0  0  0  0  0  0
   12.1418   35.7698   32.5693 H   0  0  0  0  0  0  0  0  0  0  0  0
   11.7729   35.4524   30.4489 H   0  0  0  0  0  0  0  0  0  0  0  0
   12.4321   38.3985   34.8692 H   0  0  0  0  0  0  0  0  0  0  0  0
   17.2667   34.4138   33.1694 H   0  0  0  0  0  0  0  0  0  0  0  0
   15.3757   36.1867   37.9790 H   0  0  0  0  0  0  0  0  0  0  0  0
   16.7634   35.0598   37.7897 H   0  0  0  0  0  0  0  0  0  0  0  0
  1  2  2  0
  1  3  1  0
  3  4  1  0
  4  5  1  0
  6  1  1  0
  7  6  1  0
  6  8  1  0
  8  9  1  0
  9 10  1  0
 10 11  1  0
 11 12  1  0
 12 13  1  0
 13 14  1  0
 13 15  2  0
 14 16  1  0
 16 17  1  0
 17 18  2  0
 19 17  1  0
 18 20  1  0
 21 19  2  0
 19 22  1  0
 20 23  2  0
 23 21  1  0
 22 24  1  0
 22 25  2  0
  4 26  2  0
  4 27  1  0
 28 27  1  0
 28 29  1  0
 29 30  1  0
 29 31  1  0
 30 32  1  0
 31 33  1  0
 31 34  1  0
 34 32  1  0
 32 35  1  0
 34 36  1  0
 37 35  1  0
 38 35  1  0
 39 37  2  0
 37 40  1  0
 41 38  2  0
 42 39  1  0
 40 43  2  0
 40 41  1  0
 44 42  2  0
 44 43  1  0
 43 45  1  0
  6 46  1  6
  7 47  1  0
  7 48  1  0
  8 49  1  0
  8 50  1  0
  9 51  1  0
  9 52  1  0
 10 53  1  0
 10 54  1  0
 11 55  1  0
 11 56  1  0
 12 57  1  0
 16 58  1  0
 16 59  1  0
 18 60  1  0
 20 61  1  0
 21 62  1  0
 23 63  1  0
 28 64  1  0
 28 65  1  0
 29 66  1  0
 31 67  1  0
 32 68  1  0
 33 69  1  0
 34 70  1  0
 36 71  1  0
 38 72  1  0
 42 73  1  0
 45 74  1  0
 45 75  1  0
M  CHG  3   5  -1  22   1  24  -1
M  END
>  <EmbedRMS>  (2) 
0.0758470608067

$$$$

     RDKit          3D

 75 78  0  0  0  0  0  0  0  0999 V2000
    9.4333   42.9365   34.3462 C   0  0  0  0  0  0  0  0  0  0  0  0
   10.4907   43.0330   35.0319 O   0  0  0  0  0  0  0  0  0  0  0  0
    8.8563   41.7104   34.0296 O   0  0  0  0  0  0  0  0  0  0  0  0
    9.4945   40.2142   34.4680 P   0  0  0  0  0  0  0  0  0  0  0  0
    9.7309   40.1726   36.1291 O   0  0  0  0  0  0  0  0  0  0  0  0
    8.7506   44.1348   33.7741 C   0  0  1  0  0  0  0  0  0  0  0  0
    9.2963   45.3821   34.3133 N   0  0  0  0  0  0  0  0  0  0  0  0
    8.8893   44.0528   32.2358 C   0  0  0  0  0  0  0  0  0  0  0  0
    8.2028   45.1824   31.4615 C   0  0  0  0  0  0  0  0  0  0  0  0
    6.6653   45.1046   31.4855 C   0  0  0  0  0  0  0  0  0  0  0  0
    6.0270   46.3225   30.8105 C   0  0  0  0  0  0  0  0  0  0  0  0
    6.5061   47.5640   31.4180 N   0  0  0  0  0  0  0  0  0  0  0  0
    7.2436   48.5392   30.6836 C   0  0  0  0  0  0  0  0  0  0  0  0
    7.5940   49.7399   31.3066 O   0  0  0  0  0  0  0  0  0  0  0  0
    7.5935   48.3117   29.4937 O   0  0  0  0  0  0  0  0  0  0  0  0
    8.3459   50.7576   30.6511 C   0  0  0  0  0  0  0  0  0  0  0  0
    8.5193   51.9364   31.5777 C   0  0  0  0  0  0  0  0  0  0  0  0
    7.3735   52.4729   32.1932 C   0  0  0  0  0  0  0  0  0  0  0  0
    9.7890   52.4973   31.8741 C   0  0  0  0  0  0  0  0  0  0  0  0
    7.4816   53.5117   33.1190 C   0  0  0  0  0  0  0  0  0  0  0  0
    9.8798   53.5301   32.8239 C   0  0  0  0  0  0  0  0  0  0  0  0
   10.9810   52.0628   31.2020 N   0  0  0  0  0  0  0  0  0  0  0  0
    8.7336   54.0322   33.4417 C   0  0  0  0  0  0  0  0  0  0  0  0
   11.0097   52.0017   29.8278 O   0  0  0  0  0  0  0  0  0  0  0  0
   12.0553   51.9752   31.8318 O   0  0  0  0  0  0  0  0  0  0  0  0
    8.5372   39.1386   34.0125 O   0  0  0  0  0  0  0  0  0  0  0  0
   10.9804   40.0880   33.6837 O   0  0  0  0  0  0  0  0  0  0  0  0
   10.8025   40.0899   32.2839 C   0  0  0  0  0  0  0  0  0  0  0  0
   11.5888   38.9174   31.7007 C   0  0  0  0  0  0  0  0  0  0  0  0
   12.9219   38.9373   32.1692 O   0  0  0  0  0  0  0  0  0  0  0  0
   11.0028   37.5682   32.0980 C   0  0  0  0  0  0  0  0  0  0  0  0
   13.3496   37.5885   32.2601 C   0  0  0  0  0  0  0  0  0  0  0  0
    9.9343   37.1822   31.2756 O   0  0  0  0  0  0  0  0  0  0  0  0
   12.1891   36.6677   31.9049 C   0  0  0  0  0  0  0  0  0  0  0  0
   13.8025   37.2965   33.6186 N   0  0  0  0  0  0  0  0  0  0  0  0
   12.2991   36.2867   30.5567 O   0  0  0  0  0  0  0  0  0  0  0  0
   14.7929   36.4725   33.9858 C   0  0  0  0  0  0  0  0  0  0  0  0
   13.2749   37.7294   34.7935 C   0  0  0  0  0  0  0  0  0  0  0  0
   15.6240   35.7580   33.1858 N   0  0  0  0  0  0  0  0  0  0  0  0
   14.8727   36.4411   35.3327 C   0  0  0  0  0  0  0  0  0  0  0  0
   13.9208   37.2263   35.8803 N   0  0  0  0  0  0  0  0  0  0  0  0
   16.5871   34.9921   33.7801 C   0  0  0  0  0  0  0  0  0  0  0  0
   15.8576   35.6718   35.9441 C   0  0  0  0  0  0  0  0  0  0  0  0
   16.7024   34.9584   35.1438 N   0  0  0  0  0  0  0  0  0  0  0  0
   16.0099   35.6384   37.3562 N   0  0  0  0  0  0  0  0  0  0  0  0
    7.6771   44.0707   34.0504 H   0  0  0  0  0  0  0  0  0  0  0  0
    9.1827   45.3821   35.3535 H   0  0  0  0  0  0  0  0  0  0  0  0
   10.3192   45.4407   34.0999 H   0  0  0  0  0  0  0  0  0  0  0  0
    9.9711   44.0682   31.9739 H   0  0  0  0  0  0  0  0  0  0  0  0
    8.4817   43.0851   31.8668 H   0  0  0  0  0  0  0  0  0  0  0  0
    8.5552   46.1511   31.8742 H   0  0  0  0  0  0  0  0  0  0  0  0
    8.5385   45.1364   30.4022 H   0  0  0  0  0  0  0  0  0  0  0  0
    6.3020   45.0643   32.5334 H   0  0  0  0  0  0  0  0  0  0  0  0
    6.3297   44.1799   30.9678 H   0  0  0  0  0  0  0  0  0  0  0  0
    6.2465   46.2897   29.7217 H   0  0  0  0  0  0  0  0  0  0  0  0
    4.9235   46.2672   30.9264 H   0  0  0  0  0  0  0  0  0  0  0  0
    6.2819   47.7531   32.4208 H   0  0  0  0  0  0  0  0  0  0  0  0
    7.8007   51.0943   29.7429 H   0  0  0  0  0  0  0  0  0  0  0  0
    9.3172   50.3243   30.3405 H   0  0  0  0  0  0  0  0  0  0  0  0
    6.3927   52.0715   31.9681 H   0  0  0  0  0  0  0  0  0  0  0  0
    6.5930   53.9084   33.5929 H   0  0  0  0  0  0  0  0  0  0  0  0
   10.8409   53.9663   33.0658 H   0  0  0  0  0  0  0  0  0  0  0  0
    8.8155   54.8351   34.1630 H   0  0  0  0  0  0  0  0  0  0  0  0
    9.7476   40.0331   31.9256 H   0  0  0  0  0  0  0  0  0  0  0  0
   11.2258   41.0357   31.8830 H   0  0  0  0  0  0  0  0  0  0  0  0
   11.5974   39.0148   30.5904 H   0  0  0  0  0  0  0  0  0  0  0  0
   10.7023   37.5455   33.1719 H   0  0  0  0  0  0  0  0  0  0  0  0
   14.1957   37.4366   31.5528 H   0  0  0  0  0  0  0  0  0  0  0  0
    9.1339   37.6658   31.6069 H   0  0  0  0  0  0  0  0  0  0  0  0
   12.1381   35.7717   32.5697 H   0  0  0  0  0  0  0  0  0  0  0  0
   11.7707   35.4530   30.4496 H   0  0  0  0  0  0  0  0  0  0  0  0
   12.4314   38.3980   34.8694 H   0  0  0  0  0  0  0  0  0  0  0  0
   17.2665   34.4140   33.1691 H   0  0  0  0  0  0  0  0  0  0  0  0
   16.7633   35.0598   37.7895 H   0  0  0  0  0  0  0  0  0  0  0  0
   15.3757   36.1868   37.9789 H   0  0  0  0  0  0  0  0  0  0  0  0
  1  2  2  0
  1  3  1  0
  3  4  1  0
  4  5  1  0
  6  1  1  0
  7  6  1  0
  6  8  1  0
  8  9  1  0
  9 10  1  0
 10 11  1  0
 11 12  1  0
 12 13  1  0
 13 14  1  0
 13 15  2  0
 14 16  1  0
 16 17  1  0
 17 18  2  0
 19 17  1  0
 18 20  1  0
 21 19  2  0
 19 22  1  0
 20 23  2  0
 23 21  1  0
 22 24  1  0
 22 25  2  0
  4 26  2  0
  4 27  1  0
 28 27  1  0
 28 29  1  0
 29 30  1  0
 29 31  1  0
 30 32  1  0
 31 33  1  0
 31 34  1  0
 34 32  1  0
 32 35  1  0
 34 36  1  0
 37 35  1  0
 38 35  1  0
 39 37  2  0
 37 40  1  0
 41 38  2  0
 42 39  1  0
 40 43  2  0
 40 41  1  0
 44 42  2  0
 44 43  1  0
 43 45  1  0
  6 46  1  6
  7 47  1  0
  7 48  1  0
  8 49  1  0
  8 50  1  0
  9 51  1  0
  9 52  1  0
 10 53  1  0
 10 54  1  0
 11 55  1  0
 11 56  1  0
 12 57  1  0
 16 58  1  0
 16 59  1  0
 18 60  1  0
 20 61  1  0
 21 62  1  0
 23 63  1  0
 28 64  1  0
 28 65  1  0
 29 66  1  0
 31 67  1  0
 32 68  1  0
 33 69  1  0
 34 70  1  0
 36 71  1  0
 38 72  1  0
 42 73  1  0
 45 74  1  0
 45 75  1  0
M  CHG  3   5  -1  22   1  24  -1
M  END
>  <EmbedRMS>  (3) 
0.0742184600006

$$$$

     RDKit          3D

 75 78  0  0  0  0  0  0  0  0999 V2000
    9.4309   42.9413   34.3438 C   0  0  0  0  0  0  0  0  0  0  0  0
   10.4884   43.0411   35.0293 O   0  0  0  0  0  0  0  0  0  0  0  0
    8.8557   41.7130   34.0291 O   0  0  0  0  0  0  0  0  0  0  0  0
    9.4946   40.2164   34.4676 P   0  0  0  0  0  0  0  0  0  0  0  0
    9.7319   40.1740   36.1286 O   0  0  0  0  0  0  0  0  0  0  0  0
    8.7481   44.1363   33.7722 C   0  0  1  0  0  0  0  0  0  0  0  0
    9.3036   45.3669   34.3389 N   0  0  0  0  0  0  0  0  0  0  0  0
    8.8891   44.0522   32.2310 C   0  0  0  0  0  0  0  0  0  0  0  0
    8.2016   45.1727   31.4438 C   0  0  0  0  0  0  0  0  0  0  0  0
    6.6643   45.1061   31.4864 C   0  0  0  0  0  0  0  0  0  0  0  0
    6.0277   46.3240   30.8099 C   0  0  0  0  0  0  0  0  0  0  0  0
    6.5058   47.5639   31.4217 N   0  0  0  0  0  0  0  0  0  0  0  0
    7.2513   48.5403   30.6842 C   0  0  0  0  0  0  0  0  0  0  0  0
    7.6474   49.7507   31.2655 O   0  0  0  0  0  0  0  0  0  0  0  0
    7.5871   48.3089   29.4935 O   0  0  0  0  0  0  0  0  0  0  0  0
    7.3693   50.1146   32.6150 C   0  0  0  0  0  0  0  0  0  0  0  0
    7.9934   51.4558   32.9171 C   0  0  0  0  0  0  0  0  0  0  0  0
    9.3523   51.6420   32.6029 C   0  0  0  0  0  0  0  0  0  0  0  0
    7.2600   52.5363   33.4755 C   0  0  0  0  0  0  0  0  0  0  0  0
    9.9636   52.8830   32.7878 C   0  0  0  0  0  0  0  0  0  0  0  0
    7.8873   53.7838   33.6341 C   0  0  0  0  0  0  0  0  0  0  0  0
    5.9010   52.3859   33.9136 N   0  0  0  0  0  0  0  0  0  0  0  0
    9.2294   53.9549   33.2920 C   0  0  0  0  0  0  0  0  0  0  0  0
    5.0099   53.4198   33.7409 O   0  0  0  0  0  0  0  0  0  0  0  0
    5.5890   51.4423   34.6689 O   0  0  0  0  0  0  0  0  0  0  0  0
    8.5375   39.1401   34.0125 O   0  0  0  0  0  0  0  0  0  0  0  0
   10.9796   40.0898   33.6814 O   0  0  0  0  0  0  0  0  0  0  0  0
   10.7982   40.0850   32.2818 C   0  0  0  0  0  0  0  0  0  0  0  0
   11.5886   38.9143   31.7009 C   0  0  0  0  0  0  0  0  0  0  0  0
   12.9214   38.9368   32.1699 O   0  0  0  0  0  0  0  0  0  0  0  0
   11.0047   37.5661   32.0991 C   0  0  0  0  0  0  0  0  0  0  0  0
   13.3510   37.5885   32.2602 C   0  0  0  0  0  0  0  0  0  0  0  0
    9.9296   37.1962   31.2780 O   0  0  0  0  0  0  0  0  0  0  0  0
   12.1923   36.6659   31.9047 C   0  0  0  0  0  0  0  0  0  0  0  0
   13.8033   37.2967   33.6188 N   0  0  0  0  0  0  0  0  0  0  0  0
   12.3007   36.2865   30.5562 O   0  0  0  0  0  0  0  0  0  0  0  0
   14.7933   36.4724   33.9860 C   0  0  0  0  0  0  0  0  0  0  0  0
   13.2753   37.7296   34.7935 C   0  0  0  0  0  0  0  0  0  0  0  0
   15.6243   35.7579   33.1860 N   0  0  0  0  0  0  0  0  0  0  0  0
   14.8728   36.4410   35.3328 C   0  0  0  0  0  0  0  0  0  0  0  0
   13.9209   37.2263   35.8804 N   0  0  0  0  0  0  0  0  0  0  0  0
   16.5873   34.9919   33.7803 C   0  0  0  0  0  0  0  0  0  0  0  0
   15.8577   35.6716   35.9443 C   0  0  0  0  0  0  0  0  0  0  0  0
   16.7025   34.9583   35.1440 N   0  0  0  0  0  0  0  0  0  0  0  0
   16.0100   35.6384   37.3563 N   0  0  0  0  0  0  0  0  0  0  0  0
    7.6760   44.0639   34.0546 H   0  0  0  0  0  0  0  0  0  0  0  0
   10.2147   45.5887   33.8745 H   0  0  0  0  0  0  0  0  0  0  0  0
    8.6463   46.1563   34.1437 H   0  0  0  0  0  0  0  0  0  0  0  0
    9.9707   44.0645   31.9682 H   0  0  0  0  0  0  0  0  0  0  0  0
    8.4828   43.0822   31.8666 H   0  0  0  0  0  0  0  0  0  0  0  0
    8.5217   45.0978   30.3814 H   0  0  0  0  0  0  0  0  0  0  0  0
    8.5701   46.1493   31.8192 H   0  0  0  0  0  0  0  0  0  0  0  0
    6.3125   45.0761   32.5384 H   0  0  0  0  0  0  0  0  0  0  0  0
    6.3163   44.1801   30.9794 H   0  0  0  0  0  0  0  0  0  0  0  0
    6.2488   46.2916   29.7215 H   0  0  0  0  0  0  0  0  0  0  0  0
    4.9240   46.2685   30.9239 H   0  0  0  0  0  0  0  0  0  0  0  0
    6.2744   47.7261   32.4264 H   0  0  0  0  0  0  0  0  0  0  0  0
    7.8098   49.3595   33.3015 H   0  0  0  0  0  0  0  0  0  0  0  0
    6.2700   50.1281   32.7505 H   0  0  0  0  0  0  0  0  0  0  0  0
    9.9367   50.8259   32.1952 H   0  0  0  0  0  0  0  0  0  0  0  0
   11.0069   53.0154   32.5320 H   0  0  0  0  0  0  0  0  0  0  0  0
    7.3411   54.6204   34.0516 H   0  0  0  0  0  0  0  0  0  0  0  0
    9.7043   54.9177   33.4303 H   0  0  0  0  0  0  0  0  0  0  0  0
   11.2130   41.0321   31.8752 H   0  0  0  0  0  0  0  0  0  0  0  0
    9.7426   40.0141   31.9266 H   0  0  0  0  0  0  0  0  0  0  0  0
   11.5981   39.0108   30.5905 H   0  0  0  0  0  0  0  0  0  0  0  0
   10.7008   37.5603   33.1721 H   0  0  0  0  0  0  0  0  0  0  0  0
   14.1977   37.4380   31.5532 H   0  0  0  0  0  0  0  0  0  0  0  0
    9.5180   36.3962   31.6978 H   0  0  0  0  0  0  0  0  0  0  0  0
   12.1418   35.7698   32.5692 H   0  0  0  0  0  0  0  0  0  0  0  0
   11.7729   35.4524   30.4489 H   0  0  0  0  0  0  0  0  0  0  0  0
   12.4321   38.3985   34.8692 H   0  0  0  0  0  0  0  0  0  0  0  0
   17.2667   34.4138   33.1694 H   0  0  0  0  0  0  0  0  0  0  0  0
   16.7634   35.0598   37.7897 H   0  0  0  0  0  0  0  0  0  0  0  0
   15.3757   36.1867   37.9790 H   0  0  0  0  0  0  0  0  0  0  0  0
  1  2  2  0
  1  3  1  0
  3  4  1  0
  4  5  1  0
  6  1  1  0
  7  6  1  0
  6  8  1  0
  8  9  1  0
  9 10  1  0
 10 11  1  0
 11 12  1  0
 12 13  1  0
 13 14  1  0
 13 15  2  0
 14 16  1  0
 16 17  1  0
 17 18  2  0
 19 17  1  0
 18 20  1  0
 21 19  2  0
 19 22  1  0
 20 23  2  0
 23 21  1  0
 22 24  1  0
 22 25  2  0
  4 26  2  0
  4 27  1  0
 28 27  1  0
 28 29  1  0
 29 30  1  0
 29 31  1  0
 30 32  1  0
 31 33  1  0
 31 34  1  0
 34 32  1  0
 32 35  1  0
 34 36  1  0
 37 35  1  0
 38 35  1  0
 39 37  2  0
 37 40  1  0
 41 38  2  0
 42 39  1  0
 40 43  2  0
 40 41  1  0
 44 42  2  0
 44 43  1  0
 43 45  1  0
  6 46  1  6
  7 47  1  0
  7 48  1  0
  8 49  1  0
  8 50  1  0
  9 51  1  0
  9 52  1  0
 10 53  1  0
 10 54  1  0
 11 55  1  0
 11 56  1  0
 12 57  1  0
 16 58  1  0
 16 59  1  0
 18 60  1  0
 20 61  1  0
 21 62  1  0
 23 63  1  0
 28 64  1  0
 28 65  1  0
 29 66  1  0
 31 67  1  0
 32 68  1  0
 33 69  1  0
 34 70  1  0
 36 71  1  0
 38 72  1  0
 42 73  1  0
 45 74  1  0
 45 75  1  0
M  CHG  3   5  -1  22   1  24  -1
M  END
>  <EmbedRMS>  (4) 
0.0736903064817

$$$$

     RDKit          3D

 75 78  0  0  0  0  0  0  0  0999 V2000
    9.4333   42.9369   34.3462 C   0  0  0  0  0  0  0  0  0  0  0  0
   10.4908   43.0333   35.0318 O   0  0  0  0  0  0  0  0  0  0  0  0
    8.8559   41.7106   34.0303 O   0  0  0  0  0  0  0  0  0  0  0  0
    9.4931   40.2143   34.4703 P   0  0  0  0  0  0  0  0  0  0  0  0
    9.7293   40.1728   36.1312 O   0  0  0  0  0  0  0  0  0  0  0  0
    8.7507   44.1353   33.7741 C   0  0  1  0  0  0  0  0  0  0  0  0
    9.2963   45.3827   34.3133 N   0  0  0  0  0  0  0  0  0  0  0  0
    8.8892   44.0535   32.2358 C   0  0  0  0  0  0  0  0  0  0  0  0
    8.2025   45.1833   31.4618 C   0  0  0  0  0  0  0  0  0  0  0  0
    6.6649   45.1047   31.4850 C   0  0  0  0  0  0  0  0  0  0  0  0
    6.0256   46.3219   30.8088 C   0  0  0  0  0  0  0  0  0  0  0  0
    6.5026   47.5638   31.4167 N   0  0  0  0  0  0  0  0  0  0  0  0
    7.2539   48.5327   30.6884 C   0  0  0  0  0  0  0  0  0  0  0  0
    7.6520   49.7069   31.3316 O   0  0  0  0  0  0  0  0  0  0  0  0
    7.5889   48.3143   29.4926 O   0  0  0  0  0  0  0  0  0  0  0  0
    8.4642   50.6937   30.7034 C   0  0  0  0  0  0  0  0  0  0  0  0
    8.8341   51.7578   31.7062 C   0  0  0  0  0  0  0  0  0  0  0  0
    8.4716   53.0913   31.4392 C   0  0  0  0  0  0  0  0  0  0  0  0
    9.4984   51.4504   32.9267 C   0  0  0  0  0  0  0  0  0  0  0  0
    8.7470   54.1030   32.3596 C   0  0  0  0  0  0  0  0  0  0  0  0
    9.7512   52.4846   33.8458 C   0  0  0  0  0  0  0  0  0  0  0  0
    9.9002   50.1094   33.2657 N   0  0  0  0  0  0  0  0  0  0  0  0
    9.3820   53.7998   33.5618 C   0  0  0  0  0  0  0  0  0  0  0  0
    9.9629   49.7246   34.5854 O   0  0  0  0  0  0  0  0  0  0  0  0
   10.3454   49.3341   32.3952 O   0  0  0  0  0  0  0  0  0  0  0  0
    8.5365   39.1384   34.0136 O   0  0  0  0  0  0  0  0  0  0  0  0
   10.9788   40.0867   33.6873 O   0  0  0  0  0  0  0  0  0  0  0  0
   10.7993   40.0944   32.2885 C   0  0  0  0  0  0  0  0  0  0  0  0
   11.5957   38.9351   31.6994 C   0  0  0  0  0  0  0  0  0  0  0  0
   12.9257   38.9478   32.1798 O   0  0  0  0  0  0  0  0  0  0  0  0
   11.0070   37.5757   32.0732 C   0  0  0  0  0  0  0  0  0  0  0  0
   13.3571   37.5979   32.2612 C   0  0  0  0  0  0  0  0  0  0  0  0
    9.9093   37.1807   31.2875 O   0  0  0  0  0  0  0  0  0  0  0  0
   12.1967   36.6763   31.8894 C   0  0  0  0  0  0  0  0  0  0  0  0
   13.8018   37.2956   33.6197 N   0  0  0  0  0  0  0  0  0  0  0  0
   12.3049   36.2360   30.5555 O   0  0  0  0  0  0  0  0  0  0  0  0
   14.7922   36.4716   33.9864 C   0  0  0  0  0  0  0  0  0  0  0  0
   13.2747   37.7291   34.7944 C   0  0  0  0  0  0  0  0  0  0  0  0
   15.6240   35.7581   33.1861 N   0  0  0  0  0  0  0  0  0  0  0  0
   14.8721   36.4401   35.3331 C   0  0  0  0  0  0  0  0  0  0  0  0
   13.9206   37.2257   35.8810 N   0  0  0  0  0  0  0  0  0  0  0  0
   16.5873   34.9924   33.7802 C   0  0  0  0  0  0  0  0  0  0  0  0
   15.8576   35.6714   35.9444 C   0  0  0  0  0  0  0  0  0  0  0  0
   16.7026   34.9585   35.1439 N   0  0  0  0  0  0  0  0  0  0  0  0
   16.0102   35.6382   37.3564 N   0  0  0  0  0  0  0  0  0  0  0  0
    7.6771   44.0713   34.0504 H   0  0  0  0  0  0  0  0  0  0  0  0
    9.1835   45.3826   35.3535 H   0  0  0  0  0  0  0  0  0  0  0  0
   10.3190   45.4420   34.0991 H   0  0  0  0  0  0  0  0  0  0  0  0
    9.9710   44.0692   31.9739 H   0  0  0  0  0  0  0  0  0  0  0  0
    8.4817   43.0858   31.8667 H   0  0  0  0  0  0  0  0  0  0  0  0
    8.5540   46.1521   31.8755 H   0  0  0  0  0  0  0  0  0  0  0  0
    8.5387   45.1383   30.4028 H   0  0  0  0  0  0  0  0  0  0  0  0
    6.3011   45.0646   32.5327 H   0  0  0  0  0  0  0  0  0  0  0  0
    6.3302   44.1796   30.9675 H   0  0  0  0  0  0  0  0  0  0  0  0
    4.9221   46.2653   30.9234 H   0  0  0  0  0  0  0  0  0  0  0  0
    6.2467   46.2893   29.7203 H   0  0  0  0  0  0  0  0  0  0  0  0
    6.2821   47.7497   32.4210 H   0  0  0  0  0  0  0  0  0  0  0  0
    9.3880   50.2324   30.2946 H   0  0  0  0  0  0  0  0  0  0  0  0
    7.9046   51.1256   29.8448 H   0  0  0  0  0  0  0  0  0  0  0  0
    7.9653   53.3514   30.5177 H   0  0  0  0  0  0  0  0  0  0  0  0
    8.4614   55.1242   32.1422 H   0  0  0  0  0  0  0  0  0  0  0  0
   10.2515   52.2744   34.7826 H   0  0  0  0  0  0  0  0  0  0  0  0
    9.5907   54.5862   34.2757 H   0  0  0  0  0  0  0  0  0  0  0  0
    9.7448   40.0200   31.9304 H   0  0  0  0  0  0  0  0  0  0  0  0
   11.2094   41.0480   31.8921 H   0  0  0  0  0  0  0  0  0  0  0  0
   11.6206   39.0685   30.5942 H   0  0  0  0  0  0  0  0  0  0  0  0
   10.7059   37.5563   33.1438 H   0  0  0  0  0  0  0  0  0  0  0  0
   14.2095   37.4543   31.5601 H   0  0  0  0  0  0  0  0  0  0  0  0
   10.0865   37.4209   30.3413 H   0  0  0  0  0  0  0  0  0  0  0  0
   12.1276   35.7872   32.5549 H   0  0  0  0  0  0  0  0  0  0  0  0
   12.5031   37.0109   29.9672 H   0  0  0  0  0  0  0  0  0  0  0  0
   12.4328   38.3996   34.8703 H   0  0  0  0  0  0  0  0  0  0  0  0
   17.2670   34.4149   33.1690 H   0  0  0  0  0  0  0  0  0  0  0  0
   16.7640   35.0601   37.7896 H   0  0  0  0  0  0  0  0  0  0  0  0
   15.3758   36.1862   37.9792 H   0  0  0  0  0  0  0  0  0  0  0  0
  1  2  2  0
  1  3  1  0
  3  4  1  0
  4  5  1  0
  6  1  1  0
  7  6  1  0
  6  8  1  0
  8  9  1  0
  9 10  1  0
 10 11  1  0
 11 12  1  0
 12 13  1  0
 13 14  1  0
 13 15  2  0
 14 16  1  0
 16 17  1  0
 17 18  2  0
 19 17  1  0
 18 20  1  0
 21 19  2  0
 19 22  1  0
 20 23  2  0
 23 21  1  0
 22 24  1  0
 22 25  2  0
  4 26  2  0
  4 27  1  0
 28 27  1  0
 28 29  1  0
 29 30  1  0
 29 31  1  0
 30 32  1  0
 31 33  1  0
 31 34  1  0
 34 32  1  0
 32 35  1  0
 34 36  1  0
 37 35  1  0
 38 35  1  0
 39 37  2  0
 37 40  1  0
 41 38  2  0
 42 39  1  0
 40 43  2  0
 40 41  1  0
 44 42  2  0
 44 43  1  0
 43 45  1  0
  6 46  1  6
  7 47  1  0
  7 48  1  0
  8 49  1  0
  8 50  1  0
  9 51  1  0
  9 52  1  0
 10 53  1  0
 10 54  1  0
 11 55  1  0
 11 56  1  0
 12 57  1  0
 16 58  1  0
 16 59  1  0
 18 60  1  0
 20 61  1  0
 21 62  1  0
 23 63  1  0
 28 64  1  0
 28 65  1  0
 29 66  1  0
 31 67  1  0
 32 68  1  0
 33 69  1  0
 34 70  1  0
 36 71  1  0
 38 72  1  0
 42 73  1  0
 45 74  1  0
 45 75  1  0
M  CHG  3   5  -1  22   1  24  -1
M  END
>  <EmbedRMS>  (5) 
0.0764273275191

$$$$

     RDKit          3D

 75 78  0  0  0  0  0  0  0  0999 V2000
    9.4312   42.9411   34.3439 C   0  0  0  0  0  0  0  0  0  0  0  0
   10.4886   43.0410   35.0294 O   0  0  0  0  0  0  0  0  0  0  0  0
    8.8558   41.7128   34.0296 O   0  0  0  0  0  0  0  0  0  0  0  0
    9.4933   40.2162   34.4702 P   0  0  0  0  0  0  0  0  0  0  0  0
    9.7295   40.1742   36.1312 O   0  0  0  0  0  0  0  0  0  0  0  0
    8.7484   44.1359   33.7721 C   0  0  1  0  0  0  0  0  0  0  0  0
    9.3039   45.3664   34.3388 N   0  0  0  0  0  0  0  0  0  0  0  0
    8.8892   44.0518   32.2309 C   0  0  0  0  0  0  0  0  0  0  0  0
    8.2015   45.1720   31.4435 C   0  0  0  0  0  0  0  0  0  0  0  0
    6.6642   45.1065   31.4887 C   0  0  0  0  0  0  0  0  0  0  0  0
    6.0268   46.3237   30.8123 C   0  0  0  0  0  0  0  0  0  0  0  0
    6.5083   47.5645   31.4190 N   0  0  0  0  0  0  0  0  0  0  0  0
    7.2423   48.5405   30.6826 C   0  0  0  0  0  0  0  0  0  0  0  0
    7.5850   49.7466   31.3029 O   0  0  0  0  0  0  0  0  0  0  0  0
    7.5940   48.3106   29.4938 O   0  0  0  0  0  0  0  0  0  0  0  0
    8.2920   50.7939   30.6406 C   0  0  0  0  0  0  0  0  0  0  0  0
    7.4279   51.4399   29.5817 C   0  0  0  0  0  0  0  0  0  0  0  0
    7.9020   51.4763   28.2572 C   0  0  0  0  0  0  0  0  0  0  0  0
    6.1393   51.9645   29.8717 C   0  0  0  0  0  0  0  0  0  0  0  0
    7.1176   52.0087   27.2336 C   0  0  0  0  0  0  0  0  0  0  0  0
    5.3595   52.4829   28.8211 C   0  0  0  0  0  0  0  0  0  0  0  0
    5.5996   51.9622   31.2063 N   0  0  0  0  0  0  0  0  0  0  0  0
    5.8475   52.5074   27.5142 C   0  0  0  0  0  0  0  0  0  0  0  0
    6.3960   52.2585   32.2876 O   0  0  0  0  0  0  0  0  0  0  0  0
    4.3688   51.8486   31.3826 O   0  0  0  0  0  0  0  0  0  0  0  0
    8.5368   39.1399   34.0138 O   0  0  0  0  0  0  0  0  0  0  0  0
   10.9789   40.0874   33.6872 O   0  0  0  0  0  0  0  0  0  0  0  0
   10.7993   40.0946   32.2885 C   0  0  0  0  0  0  0  0  0  0  0  0
   11.5957   38.9351   31.6994 C   0  0  0  0  0  0  0  0  0  0  0  0
   12.9257   38.9478   32.1798 O   0  0  0  0  0  0  0  0  0  0  0  0
   11.0070   37.5758   32.0732 C   0  0  0  0  0  0  0  0  0  0  0  0
   13.3571   37.5980   32.2612 C   0  0  0  0  0  0  0  0  0  0  0  0
    9.9093   37.1808   31.2875 O   0  0  0  0  0  0  0  0  0  0  0  0
   12.1967   36.6764   31.8894 C   0  0  0  0  0  0  0  0  0  0  0  0
   13.8018   37.2956   33.6197 N   0  0  0  0  0  0  0  0  0  0  0  0
   12.3048   36.2360   30.5555 O   0  0  0  0  0  0  0  0  0  0  0  0
   14.7922   36.4716   33.9864 C   0  0  0  0  0  0  0  0  0  0  0  0
   13.2747   37.7291   34.7944 C   0  0  0  0  0  0  0  0  0  0  0  0
   15.6239   35.7581   33.1861 N   0  0  0  0  0  0  0  0  0  0  0  0
   14.8721   36.4402   35.3331 C   0  0  0  0  0  0  0  0  0  0  0  0
   13.9206   37.2257   35.8810 N   0  0  0  0  0  0  0  0  0  0  0  0
   16.5873   34.9924   33.7802 C   0  0  0  0  0  0  0  0  0  0  0  0
   15.8576   35.6714   35.9444 C   0  0  0  0  0  0  0  0  0  0  0  0
   16.7026   34.9585   35.1439 N   0  0  0  0  0  0  0  0  0  0  0  0
   16.0102   35.6382   37.3564 N   0  0  0  0  0  0  0  0  0  0  0  0
    7.6764   44.0634   34.0548 H   0  0  0  0  0  0  0  0  0  0  0  0
    8.6469   46.1558   34.1430 H   0  0  0  0  0  0  0  0  0  0  0  0
   10.2152   45.5879   33.8747 H   0  0  0  0  0  0  0  0  0  0  0  0
    9.9708   44.0641   31.9679 H   0  0  0  0  0  0  0  0  0  0  0  0
    8.4830   43.0817   31.8667 H   0  0  0  0  0  0  0  0  0  0  0  0
    8.5198   45.0958   30.3807 H   0  0  0  0  0  0  0  0  0  0  0  0
    8.5714   46.1486   31.8173 H   0  0  0  0  0  0  0  0  0  0  0  0
    6.3142   45.0783   32.5413 H   0  0  0  0  0  0  0  0  0  0  0  0
    6.3147   44.1801   30.9836 H   0  0  0  0  0  0  0  0  0  0  0  0
    6.2449   46.2897   29.7232 H   0  0  0  0  0  0  0  0  0  0  0  0
    4.9234   46.2700   30.9300 H   0  0  0  0  0  0  0  0  0  0  0  0
    6.2849   47.7544   32.4218 H   0  0  0  0  0  0  0  0  0  0  0  0
    9.2330   50.3849   30.2111 H   0  0  0  0  0  0  0  0  0  0  0  0
    8.5957   51.5580   31.3845 H   0  0  0  0  0  0  0  0  0  0  0  0
    8.8798   51.0811   28.0109 H   0  0  0  0  0  0  0  0  0  0  0  0
    7.4934   52.0283   26.2187 H   0  0  0  0  0  0  0  0  0  0  0  0
    4.3732   52.8839   29.0180 H   0  0  0  0  0  0  0  0  0  0  0  0
    5.2393   52.9160   26.7174 H   0  0  0  0  0  0  0  0  0  0  0  0
   11.2092   41.0481   31.8916 H   0  0  0  0  0  0  0  0  0  0  0  0
    9.7448   40.0200   31.9304 H   0  0  0  0  0  0  0  0  0  0  0  0
   11.6207   39.0685   30.5942 H   0  0  0  0  0  0  0  0  0  0  0  0
   10.7059   37.5564   33.1439 H   0  0  0  0  0  0  0  0  0  0  0  0
   14.2095   37.4543   31.5601 H   0  0  0  0  0  0  0  0  0  0  0  0
   10.0864   37.4210   30.3414 H   0  0  0  0  0  0  0  0  0  0  0  0
   12.1275   35.7872   32.5550 H   0  0  0  0  0  0  0  0  0  0  0  0
   12.5031   37.0109   29.9673 H   0  0  0  0  0  0  0  0  0  0  0  0
   12.4328   38.3997   34.8703 H   0  0  0  0  0  0  0  0  0  0  0  0
   17.2670   34.4149   33.1690 H   0  0  0  0  0  0  0  0  0  0  0  0
   16.7640   35.0601   37.7896 H   0  0  0  0  0  0  0  0  0  0  0  0
   15.3758   36.1862   37.9792 H   0  0  0  0  0  0  0  0  0  0  0  0
  1  2  2  0
  1  3  1  0
  3  4  1  0
  4  5  1  0
  6  1  1  0
  7  6  1  0
  6  8  1  0
  8  9  1  0
  9 10  1  0
 10 11  1  0
 11 12  1  0
 12 13  1  0
 13 14  1  0
 13 15  2  0
 14 16  1  0
 16 17  1  0
 17 18  2  0
 19 17  1  0
 18 20  1  0
 21 19  2  0
 19 22  1  0
 20 23  2  0
 23 21  1  0
 22 24  1  0
 22 25  2  0
  4 26  2  0
  4 27  1  0
 28 27  1  0
 28 29  1  0
 29 30  1  0
 29 31  1  0
 30 32  1  0
 31 33  1  0
 31 34  1  0
 34 32  1  0
 32 35  1  0
 34 36  1  0
 37 35  1  0
 38 35  1  0
 39 37  2  0
 37 40  1  0
 41 38  2  0
 42 39  1  0
 40 43  2  0
 40 41  1  0
 44 42  2  0
 44 43  1  0
 43 45  1  0
  6 46  1  6
  7 47  1  0
  7 48  1  0
  8 49  1  0
  8 50  1  0
  9 51  1  0
  9 52  1  0
 10 53  1  0
 10 54  1  0
 11 55  1  0
 11 56  1  0
 12 57  1  0
 16 58  1  0
 16 59  1  0
 18 60  1  0
 20 61  1  0
 21 62  1  0
 23 63  1  0
 28 64  1  0
 28 65  1  0
 29 66  1  0
 31 67  1  0
 32 68  1  0
 33 69  1  0
 34 70  1  0
 36 71  1  0
 38 72  1  0
 42 73  1  0
 45 74  1  0
 45 75  1  0
M  CHG  3   5  -1  22   1  24  -1
M  END
>  <EmbedRMS>  (6) 
0.0753256925196

$$$$

     RDKit          3D

 75 78  0  0  0  0  0  0  0  0999 V2000
    9.4333   42.9364   34.3461 C   0  0  0  0  0  0  0  0  0  0  0  0
   10.4907   43.0329   35.0319 O   0  0  0  0  0  0  0  0  0  0  0  0
    8.8563   41.7103   34.0295 O   0  0  0  0  0  0  0  0  0  0  0  0
    9.4943   40.2139   34.4679 P   0  0  0  0  0  0  0  0  0  0  0  0
    9.7310   40.1724   36.1290 O   0  0  0  0  0  0  0  0  0  0  0  0
    8.7506   44.1348   33.7741 C   0  0  1  0  0  0  0  0  0  0  0  0
    9.2963   45.3820   34.3134 N   0  0  0  0  0  0  0  0  0  0  0  0
    8.8893   44.0528   32.2358 C   0  0  0  0  0  0  0  0  0  0  0  0
    8.2028   45.1824   31.4615 C   0  0  0  0  0  0  0  0  0  0  0  0
    6.6654   45.1046   31.4855 C   0  0  0  0  0  0  0  0  0  0  0  0
    6.0270   46.3225   30.8105 C   0  0  0  0  0  0  0  0  0  0  0  0
    6.5062   47.5640   31.4180 N   0  0  0  0  0  0  0  0  0  0  0  0
    7.2436   48.5392   30.6835 C   0  0  0  0  0  0  0  0  0  0  0  0
    7.5937   49.7401   31.3064 O   0  0  0  0  0  0  0  0  0  0  0  0
    7.5935   48.3116   29.4937 O   0  0  0  0  0  0  0  0  0  0  0  0
    8.3455   50.7577   30.6507 C   0  0  0  0  0  0  0  0  0  0  0  0
    8.5181   51.9370   31.5768 C   0  0  0  0  0  0  0  0  0  0  0  0
    7.3718   52.4737   32.1912 C   0  0  0  0  0  0  0  0  0  0  0  0
    9.7875   52.4982   31.8739 C   0  0  0  0  0  0  0  0  0  0  0  0
    7.4791   53.5131   33.1165 C   0  0  0  0  0  0  0  0  0  0  0  0
    9.8775   53.5317   32.8232 C   0  0  0  0  0  0  0  0  0  0  0  0
   10.9801   52.0635   31.2031 N   0  0  0  0  0  0  0  0  0  0  0  0
    8.7307   54.0340   33.4398 C   0  0  0  0  0  0  0  0  0  0  0  0
   11.0100   52.0018   29.8289 O   0  0  0  0  0  0  0  0  0  0  0  0
   12.0538   51.9761   31.8339 O   0  0  0  0  0  0  0  0  0  0  0  0
    8.5372   39.1382   34.0121 O   0  0  0  0  0  0  0  0  0  0  0  0
   10.9798   40.0871   33.6829 O   0  0  0  0  0  0  0  0  0  0  0  0
   10.8002   40.0905   32.2832 C   0  0  0  0  0  0  0  0  0  0  0  0
   11.5958   38.9271   31.6963 C   0  0  0  0  0  0  0  0  0  0  0  0
   12.9239   38.9409   32.1766 O   0  0  0  0  0  0  0  0  0  0  0  0
   11.0062   37.5719   32.0793 C   0  0  0  0  0  0  0  0  0  0  0  0
   13.3507   37.5905   32.2614 C   0  0  0  0  0  0  0  0  0  0  0  0
    9.9064   37.1792   31.2946 O   0  0  0  0  0  0  0  0  0  0  0  0
   12.1920   36.6671   31.9003 C   0  0  0  0  0  0  0  0  0  0  0  0
   13.8017   37.2948   33.6193 N   0  0  0  0  0  0  0  0  0  0  0  0
   12.3134   36.2787   30.5560 O   0  0  0  0  0  0  0  0  0  0  0  0
   14.7927   36.4716   33.9861 C   0  0  0  0  0  0  0  0  0  0  0  0
   13.2746   37.7284   34.7941 C   0  0  0  0  0  0  0  0  0  0  0  0
   15.6240   35.7576   33.1859 N   0  0  0  0  0  0  0  0  0  0  0  0
   14.8728   36.4406   35.3329 C   0  0  0  0  0  0  0  0  0  0  0  0
   13.9209   37.2258   35.8807 N   0  0  0  0  0  0  0  0  0  0  0  0
   16.5874   34.9920   33.7802 C   0  0  0  0  0  0  0  0  0  0  0  0
   15.8579   35.6716   35.9443 C   0  0  0  0  0  0  0  0  0  0  0  0
   16.7028   34.9584   35.1439 N   0  0  0  0  0  0  0  0  0  0  0  0
   16.0103   35.6383   37.3563 N   0  0  0  0  0  0  0  0  0  0  0  0
    7.6771   44.0706   34.0504 H   0  0  0  0  0  0  0  0  0  0  0  0
   10.3192   45.4406   34.1000 H   0  0  0  0  0  0  0  0  0  0  0  0
    9.1828   45.3819   35.3535 H   0  0  0  0  0  0  0  0  0  0  0  0
    9.9711   44.0682   31.9739 H   0  0  0  0  0  0  0  0  0  0  0  0
    8.4817   43.0851   31.8668 H   0  0  0  0  0  0  0  0  0  0  0  0
    8.5552   46.1511   31.8742 H   0  0  0  0  0  0  0  0  0  0  0  0
    8.5385   45.1364   30.4023 H   0  0  0  0  0  0  0  0  0  0  0  0
    6.3020   45.0643   32.5334 H   0  0  0  0  0  0  0  0  0  0  0  0
    6.3297   44.1799   30.9678 H   0  0  0  0  0  0  0  0  0  0  0  0
    4.9235   46.2672   30.9265 H   0  0  0  0  0  0  0  0  0  0  0  0
    6.2465   46.2897   29.7217 H   0  0  0  0  0  0  0  0  0  0  0  0
    6.2819   47.7531   32.4208 H   0  0  0  0  0  0  0  0  0  0  0  0
    9.3171   50.3246   30.3408 H   0  0  0  0  0  0  0  0  0  0  0  0
    7.8006   51.0938   29.7421 H   0  0  0  0  0  0  0  0  0  0  0  0
    6.3912   52.0721   31.9655 H   0  0  0  0  0  0  0  0  0  0  0  0
    6.5901   53.9101   33.5894 H   0  0  0  0  0  0  0  0  0  0  0  0
   10.8384   53.9681   33.0657 H   0  0  0  0  0  0  0  0  0  0  0  0
    8.8120   54.8374   34.1607 H   0  0  0  0  0  0  0  0  0  0  0  0
    9.7455   40.0168   31.9263 H   0  0  0  0  0  0  0  0  0  0  0  0
   11.2116   41.0420   31.8834 H   0  0  0  0  0  0  0  0  0  0  0  0
   11.6245   39.0449   30.5888 H   0  0  0  0  0  0  0  0  0  0  0  0
   10.7051   37.5579   33.1500 H   0  0  0  0  0  0  0  0  0  0  0  0
   14.1985   37.4426   31.5553 H   0  0  0  0  0  0  0  0  0  0  0  0
   10.0893   37.4057   30.3459 H   0  0  0  0  0  0  0  0  0  0  0  0
   12.1337   35.7754   32.5703 H   0  0  0  0  0  0  0  0  0  0  0  0
   11.7934   35.4394   30.4513 H   0  0  0  0  0  0  0  0  0  0  0  0
   12.4314   38.3973   34.8700 H   0  0  0  0  0  0  0  0  0  0  0  0
   17.2669   34.4141   33.1691 H   0  0  0  0  0  0  0  0  0  0  0  0
   16.7638   35.0599   37.7896 H   0  0  0  0  0  0  0  0  0  0  0  0
   15.3759   36.1864   37.9790 H   0  0  0  0  0  0  0  0  0  0  0  0
  1  2  2  0
  1  3  1  0
  3  4  1  0
  4  5  1  0
  6  1  1  0
  7  6  1  0
  6  8  1  0
  8  9  1  0
  9 10  1  0
 10 11  1  0
 11 12  1  0
 12 13  1  0
 13 14  1  0
 13 15  2  0
 14 16  1  0
 16 17  1  0
 17 18  2  0
 19 17  1  0
 18 20  1  0
 21 19  2  0
 19 22  1  0
 20 23  2  0
 23 21  1  0
 22 24  1  0
 22 25  2  0
  4 26  2  0
  4 27  1  0
 28 27  1  0
 28 29  1  0
 29 30  1  0
 29 31  1  0
 30 32  1  0
 31 33  1  0
 31 34  1  0
 34 32  1  0
 32 35  1  0
 34 36  1  0
 37 35  1  0
 38 35  1  0
 39 37  2  0
 37 40  1  0
 41 38  2  0
 42 39  1  0
 40 43  2  0
 40 41  1  0
 44 42  2  0
 44 43  1  0
 43 45  1  0
  6 46  1  6
  7 47  1  0
  7 48  1  0
  8 49  1  0
  8 50  1  0
  9 51  1  0
  9 52  1  0
 10 53  1  0
 10 54  1  0
 11 55  1  0
 11 56  1  0
 12 57  1  0
 16 58  1  0
 16 59  1  0
 18 60  1  0
 20 61  1  0
 21 62  1  0
 23 63  1  0
 28 64  1  0
 28 65  1  0
 29 66  1  0
 31 67  1  0
 32 68  1  0
 33 69  1  0
 34 70  1  0
 36 71  1  0
 38 72  1  0
 42 73  1  0
 45 74  1  0
 45 75  1  0
M  CHG  3   5  -1  22   1  24  -1
M  END
>  <EmbedRMS>  (7) 
0.0747945462261

$$$$

     RDKit          3D

 75 78  0  0  0  0  0  0  0  0999 V2000
    9.4332   42.9366   34.3464 C   0  0  0  0  0  0  0  0  0  0  0  0
   10.4908   43.0331   35.0319 O   0  0  0  0  0  0  0  0  0  0  0  0
    8.8559   41.7105   34.0306 O   0  0  0  0  0  0  0  0  0  0  0  0
    9.4931   40.2143   34.4708 P   0  0  0  0  0  0  0  0  0  0  0  0
    9.7288   40.1729   36.1318 O   0  0  0  0  0  0  0  0  0  0  0  0
    8.7506   44.1349   33.7741 C   0  0  1  0  0  0  0  0  0  0  0  0
    9.2963   45.3821   34.3133 N   0  0  0  0  0  0  0  0  0  0  0  0
    8.8893   44.0527   32.2359 C   0  0  0  0  0  0  0  0  0  0  0  0
    8.2028   45.1823   31.4615 C   0  0  0  0  0  0  0  0  0  0  0  0
    6.6653   45.1046   31.4855 C   0  0  0  0  0  0  0  0  0  0  0  0
    6.0270   46.3225   30.8105 C   0  0  0  0  0  0  0  0  0  0  0  0
    6.5063   47.5640   31.4180 N   0  0  0  0  0  0  0  0  0  0  0  0
    7.2435   48.5392   30.6835 C   0  0  0  0  0  0  0  0  0  0  0  0
    7.5926   49.7404   31.3061 O   0  0  0  0  0  0  0  0  0  0  0  0
    7.5935   48.3117   29.4937 O   0  0  0  0  0  0  0  0  0  0  0  0
    8.3387   50.7593   30.6486 C   0  0  0  0  0  0  0  0  0  0  0  0
    8.5334   51.9236   31.5852 C   0  0  0  0  0  0  0  0  0  0  0  0
    9.7644   52.0461   32.2555 C   0  0  0  0  0  0  0  0  0  0  0  0
    7.5286   52.9085   31.7919 C   0  0  0  0  0  0  0  0  0  0  0  0
   10.0113   53.1291   33.0997 C   0  0  0  0  0  0  0  0  0  0  0  0
    7.8060   53.9998   32.6349 C   0  0  0  0  0  0  0  0  0  0  0  0
    6.2408   52.8368   31.1513 N   0  0  0  0  0  0  0  0  0  0  0  0
    9.0361   54.1064   33.2852 C   0  0  0  0  0  0  0  0  0  0  0  0
    5.5452   53.9921   30.8775 O   0  0  0  0  0  0  0  0  0  0  0  0
    5.6675   51.7407   30.9872 O   0  0  0  0  0  0  0  0  0  0  0  0
    8.5366   39.1385   34.0140 O   0  0  0  0  0  0  0  0  0  0  0  0
   10.9795   40.0875   33.6890 O   0  0  0  0  0  0  0  0  0  0  0  0
   10.8017   40.0947   32.2902 C   0  0  0  0  0  0  0  0  0  0  0  0
   11.5885   38.9266   31.7041 C   0  0  0  0  0  0  0  0  0  0  0  0
   12.9237   38.9445   32.1721 O   0  0  0  0  0  0  0  0  0  0  0  0
   11.0029   37.5726   32.0908 C   0  0  0  0  0  0  0  0  0  0  0  0
   13.3555   37.5960   32.2594 C   0  0  0  0  0  0  0  0  0  0  0  0
    9.9380   37.1846   31.2656 O   0  0  0  0  0  0  0  0  0  0  0  0
   12.1932   36.6769   31.8952 C   0  0  0  0  0  0  0  0  0  0  0  0
   13.8028   37.2977   33.6186 N   0  0  0  0  0  0  0  0  0  0  0  0
   12.2918   36.2396   30.5587 O   0  0  0  0  0  0  0  0  0  0  0  0
   14.7926   36.4727   33.9858 C   0  0  0  0  0  0  0  0  0  0  0  0
   13.2750   37.7302   34.7935 C   0  0  0  0  0  0  0  0  0  0  0  0
   15.6241   35.7586   33.1857 N   0  0  0  0  0  0  0  0  0  0  0  0
   14.8721   36.4408   35.3326 C   0  0  0  0  0  0  0  0  0  0  0  0
   13.9204   37.2263   35.8802 N   0  0  0  0  0  0  0  0  0  0  0  0
   16.5870   34.9924   33.7800 C   0  0  0  0  0  0  0  0  0  0  0  0
   15.8572   35.6717   35.9441 C   0  0  0  0  0  0  0  0  0  0  0  0
   16.7022   34.9585   35.1437 N   0  0  0  0  0  0  0  0  0  0  0  0
   16.0098   35.6384   37.3561 N   0  0  0  0  0  0  0  0  0  0  0  0
    7.6770   44.0708   34.0504 H   0  0  0  0  0  0  0  0  0  0  0  0
   10.3192   45.4408   34.0999 H   0  0  0  0  0  0  0  0  0  0  0  0
    9.1827   45.3822   35.3534 H   0  0  0  0  0  0  0  0  0  0  0  0
    9.9711   44.0680   31.9740 H   0  0  0  0  0  0  0  0  0  0  0  0
    8.4816   43.0850   31.8670 H   0  0  0  0  0  0  0  0  0  0  0  0
    8.5384   45.1362   30.4022 H   0  0  0  0  0  0  0  0  0  0  0  0
    8.5552   46.1510   31.8742 H   0  0  0  0  0  0  0  0  0  0  0  0
    6.3020   45.0643   32.5333 H   0  0  0  0  0  0  0  0  0  0  0  0
    6.3296   44.1799   30.9678 H   0  0  0  0  0  0  0  0  0  0  0  0
    6.2466   46.2897   29.7217 H   0  0  0  0  0  0  0  0  0  0  0  0
    4.9235   46.2673   30.9264 H   0  0  0  0  0  0  0  0  0  0  0  0
    6.2817   47.7532   32.4208 H   0  0  0  0  0  0  0  0  0  0  0  0
    7.8162   51.0912   29.7255 H   0  0  0  0  0  0  0  0  0  0  0  0
    9.3213   50.3430   30.3346 H   0  0  0  0  0  0  0  0  0  0  0  0
   10.5406   51.3027   32.1204 H   0  0  0  0  0  0  0  0  0  0  0  0
   10.9636   53.2128   33.6075 H   0  0  0  0  0  0  0  0  0  0  0  0
    7.0591   54.7651   32.8041 H   0  0  0  0  0  0  0  0  0  0  0  0
    9.2316   54.9475   33.9378 H   0  0  0  0  0  0  0  0  0  0  0  0
    9.7472   40.0378   31.9304 H   0  0  0  0  0  0  0  0  0  0  0  0
   11.2242   41.0427   31.8934 H   0  0  0  0  0  0  0  0  0  0  0  0
   11.5927   39.0434   30.5965 H   0  0  0  0  0  0  0  0  0  0  0  0
   10.7003   37.5442   33.1640 H   0  0  0  0  0  0  0  0  0  0  0  0
   14.2052   37.4477   31.5560 H   0  0  0  0  0  0  0  0  0  0  0  0
    9.1374   37.6722   31.5905 H   0  0  0  0  0  0  0  0  0  0  0  0
   12.1305   35.7855   32.5585 H   0  0  0  0  0  0  0  0  0  0  0  0
   12.4606   37.0186   29.9674 H   0  0  0  0  0  0  0  0  0  0  0  0
   12.4327   38.4000   34.8694 H   0  0  0  0  0  0  0  0  0  0  0  0
   17.2666   34.4146   33.1690 H   0  0  0  0  0  0  0  0  0  0  0  0
   16.7634   35.0601   37.7894 H   0  0  0  0  0  0  0  0  0  0  0  0
   15.3754   36.1866   37.9788 H   0  0  0  0  0  0  0  0  0  0  0  0
  1  2  2  0
  1  3  1  0
  3  4  1  0
  4  5  1  0
  6  1  1  0
  7  6  1  0
  6  8  1  0
  8  9  1  0
  9 10  1  0
 10 11  1  0
 11 12  1  0
 12 13  1  0
 13 14  1  0
 13 15  2  0
 14 16  1  0
 16 17  1  0
 17 18  2  0
 19 17  1  0
 18 20  1  0
 21 19  2  0
 19 22  1  0
 20 23  2  0
 23 21  1  0
 22 24  1  0
 22 25  2  0
  4 26  2  0
  4 27  1  0
 28 27  1  0
 28 29  1  0
 29 30  1  0
 29 31  1  0
 30 32  1  0
 31 33  1  0
 31 34  1  0
 34 32  1  0
 32 35  1  0
 34 36  1  0
 37 35  1  0
 38 35  1  0
 39 37  2  0
 37 40  1  0
 41 38  2  0
 42 39  1  0
 40 43  2  0
 40 41  1  0
 44 42  2  0
 44 43  1  0
 43 45  1  0
  6 46  1  6
  7 47  1  0
  7 48  1  0
  8 49  1  0
  8 50  1  0
  9 51  1  0
  9 52  1  0
 10 53  1  0
 10 54  1  0
 11 55  1  0
 11 56  1  0
 12 57  1  0
 16 58  1  0
 16 59  1  0
 18 60  1  0
 20 61  1  0
 21 62  1  0
 23 63  1  0
 28 64  1  0
 28 65  1  0
 29 66  1  0
 31 67  1  0
 32 68  1  0
 33 69  1  0
 34 70  1  0
 36 71  1  0
 38 72  1  0
 42 73  1  0
 45 74  1  0
 45 75  1  0
M  CHG  3   5  -1  22   1  24  -1
M  END
>  <EmbedRMS>  (8) 
0.0757059313715

$$$$

     RDKit          3D

 75 78  0  0  0  0  0  0  0  0999 V2000
    9.4334   42.9369   34.3457 C   0  0  0  0  0  0  0  0  0  0  0  0
   10.4908   43.0333   35.0315 O   0  0  0  0  0  0  0  0  0  0  0  0
    8.8559   41.7108   34.0301 O   0  0  0  0  0  0  0  0  0  0  0  0
    9.4930   40.2145   34.4707 P   0  0  0  0  0  0  0  0  0  0  0  0
    9.7287   40.1732   36.1317 O   0  0  0  0  0  0  0  0  0  0  0  0
    8.7510   44.1355   33.7737 C   0  0  1  0  0  0  0  0  0  0  0  0
    9.2967   45.3822   34.3136 N   0  0  0  0  0  0  0  0  0  0  0  0
    8.8900   44.0553   32.2354 C   0  0  0  0  0  0  0  0  0  0  0  0
    8.2028   45.1860   31.4625 C   0  0  0  0  0  0  0  0  0  0  0  0
    6.6652   45.1062   31.4856 C   0  0  0  0  0  0  0  0  0  0  0  0
    6.0239   46.3220   30.8083 C   0  0  0  0  0  0  0  0  0  0  0  0
    6.4971   47.5658   31.4155 N   0  0  0  0  0  0  0  0  0  0  0  0
    7.2578   48.5292   30.6899 C   0  0  0  0  0  0  0  0  0  0  0  0
    7.6755   49.6954   31.3388 O   0  0  0  0  0  0  0  0  0  0  0  0
    7.5903   48.3102   29.4935 O   0  0  0  0  0  0  0  0  0  0  0  0
    8.6303   50.5967   30.7817 C   0  0  0  0  0  0  0  0  0  0  0  0
    9.9921   49.9437   30.7039 C   0  0  0  0  0  0  0  0  0  0  0  0
   10.6354   49.8760   29.4544 C   0  0  0  0  0  0  0  0  0  0  0  0
   10.6073   49.3402   31.8344 C   0  0  0  0  0  0  0  0  0  0  0  0
   11.8558   49.2141   29.3159 C   0  0  0  0  0  0  0  0  0  0  0  0
   11.8296   48.6631   31.6678 C   0  0  0  0  0  0  0  0  0  0  0  0
   10.0052   49.3832   33.1414 N   0  0  0  0  0  0  0  0  0  0  0  0
   12.4491   48.6045   30.4191 C   0  0  0  0  0  0  0  0  0  0  0  0
    9.3772   50.5219   33.5891 O   0  0  0  0  0  0  0  0  0  0  0  0
   10.1870   48.4453   33.9450 O   0  0  0  0  0  0  0  0  0  0  0  0
    8.5366   39.1387   34.0140 O   0  0  0  0  0  0  0  0  0  0  0  0
   10.9794   40.0875   33.6889 O   0  0  0  0  0  0  0  0  0  0  0  0
   10.8018   40.0948   32.2901 C   0  0  0  0  0  0  0  0  0  0  0  0
   11.5885   38.9266   31.7041 C   0  0  0  0  0  0  0  0  0  0  0  0
   12.9237   38.9445   32.1721 O   0  0  0  0  0  0  0  0  0  0  0  0
   11.0029   37.5726   32.0907 C   0  0  0  0  0  0  0  0  0  0  0  0
   13.3555   37.5960   32.2594 C   0  0  0  0  0  0  0  0  0  0  0  0
    9.9380   37.1846   31.2656 O   0  0  0  0  0  0  0  0  0  0  0  0
   12.1932   36.6769   31.8952 C   0  0  0  0  0  0  0  0  0  0  0  0
   13.8028   37.2977   33.6186 N   0  0  0  0  0  0  0  0  0  0  0  0
   12.2918   36.2396   30.5587 O   0  0  0  0  0  0  0  0  0  0  0  0
   14.7926   36.4727   33.9858 C   0  0  0  0  0  0  0  0  0  0  0  0
   13.2750   37.7302   34.7935 C   0  0  0  0  0  0  0  0  0  0  0  0
   15.6241   35.7586   33.1857 N   0  0  0  0  0  0  0  0  0  0  0  0
   14.8721   36.4408   35.3326 C   0  0  0  0  0  0  0  0  0  0  0  0
   13.9204   37.2263   35.8802 N   0  0  0  0  0  0  0  0  0  0  0  0
   16.5870   34.9924   33.7800 C   0  0  0  0  0  0  0  0  0  0  0  0
   15.8572   35.6717   35.9441 C   0  0  0  0  0  0  0  0  0  0  0  0
   16.7022   34.9585   35.1437 N   0  0  0  0  0  0  0  0  0  0  0  0
   16.0097   35.6384   37.3561 N   0  0  0  0  0  0  0  0  0  0  0  0
    7.6773   44.0715   34.0497 H   0  0  0  0  0  0  0  0  0  0  0  0
    9.1839   45.3819   35.3538 H   0  0  0  0  0  0  0  0  0  0  0  0
   10.3193   45.4414   34.0992 H   0  0  0  0  0  0  0  0  0  0  0  0
    8.4832   43.0877   31.8652 H   0  0  0  0  0  0  0  0  0  0  0  0
    9.9718   44.0721   31.9739 H   0  0  0  0  0  0  0  0  0  0  0  0
    8.5394   45.1425   30.4035 H   0  0  0  0  0  0  0  0  0  0  0  0
    8.5538   46.1548   31.8769 H   0  0  0  0  0  0  0  0  0  0  0  0
    6.3314   44.1802   30.9692 H   0  0  0  0  0  0  0  0  0  0  0  0
    6.3015   45.0667   32.5334 H   0  0  0  0  0  0  0  0  0  0  0  0
    4.9204   46.2630   30.9217 H   0  0  0  0  0  0  0  0  0  0  0  0
    6.2458   46.2889   29.7200 H   0  0  0  0  0  0  0  0  0  0  0  0
    6.2761   47.7521   32.4196 H   0  0  0  0  0  0  0  0  0  0  0  0
    8.6913   51.5045   31.4154 H   0  0  0  0  0  0  0  0  0  0  0  0
    8.2768   50.9334   29.7823 H   0  0  0  0  0  0  0  0  0  0  0  0
   10.1849   50.3250   28.5778 H   0  0  0  0  0  0  0  0  0  0  0  0
   12.3382   49.1663   28.3481 H   0  0  0  0  0  0  0  0  0  0  0  0
   12.3130   48.1899   32.5133 H   0  0  0  0  0  0  0  0  0  0  0  0
   13.3929   48.0865   30.3075 H   0  0  0  0  0  0  0  0  0  0  0  0
   11.2243   41.0427   31.8934 H   0  0  0  0  0  0  0  0  0  0  0  0
    9.7473   40.0379   31.9303 H   0  0  0  0  0  0  0  0  0  0  0  0
   11.5927   39.0434   30.5965 H   0  0  0  0  0  0  0  0  0  0  0  0
   10.7003   37.5442   33.1640 H   0  0  0  0  0  0  0  0  0  0  0  0
   14.2052   37.4477   31.5560 H   0  0  0  0  0  0  0  0  0  0  0  0
    9.1374   37.6722   31.5904 H   0  0  0  0  0  0  0  0  0  0  0  0
   12.1305   35.7855   32.5585 H   0  0  0  0  0  0  0  0  0  0  0  0
   12.4606   37.0186   29.9674 H   0  0  0  0  0  0  0  0  0  0  0  0
   12.4327   38.4001   34.8694 H   0  0  0  0  0  0  0  0  0  0  0  0
   17.2666   34.4146   33.1690 H   0  0  0  0  0  0  0  0  0  0  0  0
   16.7634   35.0601   37.7894 H   0  0  0  0  0  0  0  0  0  0  0  0
   15.3754   36.1866   37.9788 H   0  0  0  0  0  0  0  0  0  0  0  0
  1  2  2  0
  1  3  1  0
  3  4  1  0
  4  5  1  0
  6  1  1  0
  7  6  1  0
  6  8  1  0
  8  9  1  0
  9 10  1  0
 10 11  1  0
 11 12  1  0
 12 13  1  0
 13 14  1  0
 13 15  2  0
 14 16  1  0
 16 17  1  0
 17 18  2  0
 19 17  1  0
 18 20  1  0
 21 19  2  0
 19 22  1  0
 20 23  2  0
 23 21  1  0
 22 24  1  0
 22 25  2  0
  4 26  2  0
  4 27  1  0
 28 27  1  0
 28 29  1  0
 29 30  1  0
 29 31  1  0
 30 32  1  0
 31 33  1  0
 31 34  1  0
 34 32  1  0
 32 35  1  0
 34 36  1  0
 37 35  1  0
 38 35  1  0
 39 37  2  0
 37 40  1  0
 41 38  2  0
 42 39  1  0
 40 43  2  0
 40 41  1  0
 44 42  2  0
 44 43  1  0
 43 45  1  0
  6 46  1  6
  7 47  1  0
  7 48  1  0
  8 49  1  0
  8 50  1  0
  9 51  1  0
  9 52  1  0
 10 53  1  0
 10 54  1  0
 11 55  1  0
 11 56  1  0
 12 57  1  0
 16 58  1  0
 16 59  1  0
 18 60  1  0
 20 61  1  0
 21 62  1  0
 23 63  1  0
 28 64  1  0
 28 65  1  0
 29 66  1  0
 31 67  1  0
 32 68  1  0
 33 69  1  0
 34 70  1  0
 36 71  1  0
 38 72  1  0
 42 73  1  0
 45 74  1  0
 45 75  1  0
M  CHG  3   5  -1  22   1  24  -1
M  END
>  <EmbedRMS>  (9) 
0.0762242242179

$$$$

     RDKit          3D

 75 78  0  0  0  0  0  0  0  0999 V2000
    9.4333   42.9365   34.3462 C   0  0  0  0  0  0  0  0  0  0  0  0
   10.4907   43.0330   35.0319 O   0  0  0  0  0  0  0  0  0  0  0  0
    8.8563   41.7104   34.0296 O   0  0  0  0  0  0  0  0  0  0  0  0
    9.4945   40.2142   34.4680 P   0  0  0  0  0  0  0  0  0  0  0  0
    9.7309   40.1726   36.1291 O   0  0  0  0  0  0  0  0  0  0  0  0
    8.7506   44.1348   33.7741 C   0  0  1  0  0  0  0  0  0  0  0  0
    9.2963   45.3820   34.3133 N   0  0  0  0  0  0  0  0  0  0  0  0
    8.8893   44.0527   32.2358 C   0  0  0  0  0  0  0  0  0  0  0  0
    8.2028   45.1822   31.4614 C   0  0  0  0  0  0  0  0  0  0  0  0
    6.6654   45.1046   31.4855 C   0  0  0  0  0  0  0  0  0  0  0  0
    6.0272   46.3228   30.8108 C   0  0  0  0  0  0  0  0  0  0  0  0
    6.5071   47.5639   31.4183 N   0  0  0  0  0  0  0  0  0  0  0  0
    7.2415   48.5404   30.6827 C   0  0  0  0  0  0  0  0  0  0  0  0
    7.5826   49.7468   31.3033 O   0  0  0  0  0  0  0  0  0  0  0  0
    7.5944   48.3107   29.4942 O   0  0  0  0  0  0  0  0  0  0  0  0
    8.2899   50.7945   30.6418 C   0  0  0  0  0  0  0  0  0  0  0  0
    7.4271   51.4392   29.5809 C   0  0  0  0  0  0  0  0  0  0  0  0
    7.9037   51.4755   28.2574 C   0  0  0  0  0  0  0  0  0  0  0  0
    6.1374   51.9626   29.8682 C   0  0  0  0  0  0  0  0  0  0  0  0
    7.1207   52.0067   27.2319 C   0  0  0  0  0  0  0  0  0  0  0  0
    5.3592   52.4797   28.8159 C   0  0  0  0  0  0  0  0  0  0  0  0
    5.5952   51.9605   31.2018 N   0  0  0  0  0  0  0  0  0  0  0  0
    5.8496   52.5042   27.5099 C   0  0  0  0  0  0  0  0  0  0  0  0
    6.3892   52.2579   32.2845 O   0  0  0  0  0  0  0  0  0  0  0  0
    4.3642   51.8458   31.3758 O   0  0  0  0  0  0  0  0  0  0  0  0
    8.5372   39.1386   34.0125 O   0  0  0  0  0  0  0  0  0  0  0  0
   10.9804   40.0880   33.6837 O   0  0  0  0  0  0  0  0  0  0  0  0
   10.8025   40.0899   32.2839 C   0  0  0  0  0  0  0  0  0  0  0  0
   11.5888   38.9174   31.7007 C   0  0  0  0  0  0  0  0  0  0  0  0
   12.9219   38.9373   32.1692 O   0  0  0  0  0  0  0  0  0  0  0  0
   11.0028   37.5682   32.0980 C   0  0  0  0  0  0  0  0  0  0  0  0
   13.3496   37.5885   32.2601 C   0  0  0  0  0  0  0  0  0  0  0  0
    9.9343   37.1822   31.2756 O   0  0  0  0  0  0  0  0  0  0  0  0
   12.1891   36.6677   31.9049 C   0  0  0  0  0  0  0  0  0  0  0  0
   13.8025   37.2965   33.6186 N   0  0  0  0  0  0  0  0  0  0  0  0
   12.2991   36.2867   30.5567 O   0  0  0  0  0  0  0  0  0  0  0  0
   14.7929   36.4725   33.9858 C   0  0  0  0  0  0  0  0  0  0  0  0
   13.2749   37.7294   34.7935 C   0  0  0  0  0  0  0  0  0  0  0  0
   15.6240   35.7580   33.1858 N   0  0  0  0  0  0  0  0  0  0  0  0
   14.8727   36.4411   35.3327 C   0  0  0  0  0  0  0  0  0  0  0  0
   13.9208   37.2263   35.8803 N   0  0  0  0  0  0  0  0  0  0  0  0
   16.5871   34.9921   33.7801 C   0  0  0  0  0  0  0  0  0  0  0  0
   15.8576   35.6718   35.9441 C   0  0  0  0  0  0  0  0  0  0  0  0
   16.7024   34.9584   35.1438 N   0  0  0  0  0  0  0  0  0  0  0  0
   16.0099   35.6384   37.3562 N   0  0  0  0  0  0  0  0  0  0  0  0
    7.6770   44.0706   34.0504 H   0  0  0  0  0  0  0  0  0  0  0  0
   10.3192   45.4406   34.1000 H   0  0  0  0  0  0  0  0  0  0  0  0
    9.1827   45.3820   35.3534 H   0  0  0  0  0  0  0  0  0  0  0  0
    8.4816   43.0850   31.8668 H   0  0  0  0  0  0  0  0  0  0  0  0
    9.9711   44.0680   31.9739 H   0  0  0  0  0  0  0  0  0  0  0  0
    8.5384   45.1361   30.4021 H   0  0  0  0  0  0  0  0  0  0  0  0
    8.5554   46.1509   31.8740 H   0  0  0  0  0  0  0  0  0  0  0  0
    6.3296   44.1801   30.9675 H   0  0  0  0  0  0  0  0  0  0  0  0
    6.3020   45.0641   32.5333 H   0  0  0  0  0  0  0  0  0  0  0  0
    6.2463   46.2901   29.7219 H   0  0  0  0  0  0  0  0  0  0  0  0
    4.9238   46.2679   30.9271 H   0  0  0  0  0  0  0  0  0  0  0  0
    6.2816   47.7540   32.4207 H   0  0  0  0  0  0  0  0  0  0  0  0
    9.2320   50.3861   30.2142 H   0  0  0  0  0  0  0  0  0  0  0  0
    8.5915   51.5592   31.3858 H   0  0  0  0  0  0  0  0  0  0  0  0
    8.8824   51.0812   28.0131 H   0  0  0  0  0  0  0  0  0  0  0  0
    7.4985   52.0261   26.2178 H   0  0  0  0  0  0  0  0  0  0  0  0
    4.3721   52.8799   29.0106 H   0  0  0  0  0  0  0  0  0  0  0  0
    5.2426   52.9118   26.7118 H   0  0  0  0  0  0  0  0  0  0  0  0
    9.7476   40.0331   31.9256 H   0  0  0  0  0  0  0  0  0  0  0  0
   11.2258   41.0357   31.8830 H   0  0  0  0  0  0  0  0  0  0  0  0
   11.5974   39.0148   30.5904 H   0  0  0  0  0  0  0  0  0  0  0  0
   10.7024   37.5455   33.1719 H   0  0  0  0  0  0  0  0  0  0  0  0
   14.1957   37.4366   31.5528 H   0  0  0  0  0  0  0  0  0  0  0  0
    9.1339   37.6658   31.6069 H   0  0  0  0  0  0  0  0  0  0  0  0
   12.1381   35.7717   32.5697 H   0  0  0  0  0  0  0  0  0  0  0  0
   11.7707   35.4530   30.4496 H   0  0  0  0  0  0  0  0  0  0  0  0
   12.4314   38.3980   34.8694 H   0  0  0  0  0  0  0  0  0  0  0  0
   17.2665   34.4140   33.1691 H   0  0  0  0  0  0  0  0  0  0  0  0
   15.3757   36.1868   37.9789 H   0  0  0  0  0  0  0  0  0  0  0  0
   16.7633   35.0598   37.7895 H   0  0  0  0  0  0  0  0  0  0  0  0
  1  2  2  0
  1  3  1  0
  3  4  1  0
  4  5  1  0
  6  1  1  0
  7  6  1  0
  6  8  1  0
  8  9  1  0
  9 10  1  0
 10 11  1  0
 11 12  1  0
 12 13  1  0
 13 14  1  0
 13 15  2  0
 14 16  1  0
 16 17  1  0
 17 18  2  0
 19 17  1  0
 18 20  1  0
 21 19  2  0
 19 22  1  0
 20 23  2  0
 23 21  1  0
 22 24  1  0
 22 25  2  0
  4 26  2  0
  4 27  1  0
 28 27  1  0
 28 29  1  0
 29 30  1  0
 29 31  1  0
 30 32  1  0
 31 33  1  0
 31 34  1  0
 34 32  1  0
 32 35  1  0
 34 36  1  0
 37 35  1  0
 38 35  1  0
 39 37  2  0
 37 40  1  0
 41 38  2  0
 42 39  1  0
 40 43  2  0
 40 41  1  0
 44 42  2  0
 44 43  1  0
 43 45  1  0
  6 46  1  6
  7 47  1  0
  7 48  1  0
  8 49  1  0
  8 50  1  0
  9 51  1  0
  9 52  1  0
 10 53  1  0
 10 54  1  0
 11 55  1  0
 11 56  1  0
 12 57  1  0
 16 58  1  0
 16 59  1  0
 18 60  1  0
 20 61  1  0
 21 62  1  0
 23 63  1  0
 28 64  1  0
 28 65  1  0
 29 66  1  0
 31 67  1  0
 32 68  1  0
 33 69  1  0
 34 70  1  0
 36 71  1  0
 38 72  1  0
 42 73  1  0
 45 74  1  0
 45 75  1  0
M  CHG  3   5  -1  22   1  24  -1
M  END
>  <EmbedRMS>  (10) 
0.0741591603613

$$$$

     RDKit          3D

 75 78  0  0  0  0  0  0  0  0999 V2000
    9.4335   42.9367   34.3454 C   0  0  0  0  0  0  0  0  0  0  0  0
   10.4907   43.0330   35.0314 O   0  0  0  0  0  0  0  0  0  0  0  0
    8.8563   41.7106   34.0290 O   0  0  0  0  0  0  0  0  0  0  0  0
    9.4941   40.2141   34.4677 P   0  0  0  0  0  0  0  0  0  0  0  0
    9.7310   40.1727   36.1288 O   0  0  0  0  0  0  0  0  0  0  0  0
    8.7510   44.1354   33.7737 C   0  0  1  0  0  0  0  0  0  0  0  0
    9.2967   45.3820   34.3137 N   0  0  0  0  0  0  0  0  0  0  0  0
    8.8900   44.0553   32.2353 C   0  0  0  0  0  0  0  0  0  0  0  0
    8.2028   45.1860   31.4625 C   0  0  0  0  0  0  0  0  0  0  0  0
    6.6652   45.1062   31.4856 C   0  0  0  0  0  0  0  0  0  0  0  0
    6.0239   46.3220   30.8083 C   0  0  0  0  0  0  0  0  0  0  0  0
    6.4971   47.5658   31.4155 N   0  0  0  0  0  0  0  0  0  0  0  0
    7.2578   48.5292   30.6899 C   0  0  0  0  0  0  0  0  0  0  0  0
    7.6755   49.6954   31.3389 O   0  0  0  0  0  0  0  0  0  0  0  0
    7.5903   48.3103   29.4935 O   0  0  0  0  0  0  0  0  0  0  0  0
    8.6302   50.5967   30.7817 C   0  0  0  0  0  0  0  0  0  0  0  0
    9.9920   49.9438   30.7036 C   0  0  0  0  0  0  0  0  0  0  0  0
   10.6352   49.8765   29.4540 C   0  0  0  0  0  0  0  0  0  0  0  0
   10.6074   49.3401   31.8340 C   0  0  0  0  0  0  0  0  0  0  0  0
   11.8557   49.2147   29.3153 C   0  0  0  0  0  0  0  0  0  0  0  0
   11.8297   48.6631   31.6671 C   0  0  0  0  0  0  0  0  0  0  0  0
   10.0054   49.3828   33.1411 N   0  0  0  0  0  0  0  0  0  0  0  0
   12.4491   48.6049   30.4183 C   0  0  0  0  0  0  0  0  0  0  0  0
    9.3773   50.5213   33.5890 O   0  0  0  0  0  0  0  0  0  0  0  0
   10.1875   48.4448   33.9445 O   0  0  0  0  0  0  0  0  0  0  0  0
    8.5369   39.1384   34.0122 O   0  0  0  0  0  0  0  0  0  0  0  0
   10.9795   40.0869   33.6827 O   0  0  0  0  0  0  0  0  0  0  0  0
   10.7997   40.0899   32.2830 C   0  0  0  0  0  0  0  0  0  0  0  0
   11.5968   38.9274   31.6962 C   0  0  0  0  0  0  0  0  0  0  0  0
   12.9243   38.9425   32.1784 O   0  0  0  0  0  0  0  0  0  0  0  0
   11.0086   37.5713   32.0780 C   0  0  0  0  0  0  0  0  0  0  0  0
   13.3529   37.5929   32.2623 C   0  0  0  0  0  0  0  0  0  0  0  0
    9.9098   37.1770   31.2925 O   0  0  0  0  0  0  0  0  0  0  0  0
   12.1943   36.6683   31.8995 C   0  0  0  0  0  0  0  0  0  0  0  0
   13.8019   37.2950   33.6199 N   0  0  0  0  0  0  0  0  0  0  0  0
   12.3027   36.2773   30.5558 O   0  0  0  0  0  0  0  0  0  0  0  0
   14.7926   36.4715   33.9864 C   0  0  0  0  0  0  0  0  0  0  0  0
   13.2749   37.7286   34.7946 C   0  0  0  0  0  0  0  0  0  0  0  0
   15.6239   35.7577   33.1860 N   0  0  0  0  0  0  0  0  0  0  0  0
   14.8727   36.4403   35.3332 C   0  0  0  0  0  0  0  0  0  0  0  0
   13.9210   37.2257   35.8811 N   0  0  0  0  0  0  0  0  0  0  0  0
   16.5873   34.9921   33.7802 C   0  0  0  0  0  0  0  0  0  0  0  0
   15.8579   35.6714   35.9444 C   0  0  0  0  0  0  0  0  0  0  0  0
   16.7028   34.9583   35.1439 N   0  0  0  0  0  0  0  0  0  0  0  0
   16.0104   35.6381   37.3564 N   0  0  0  0  0  0  0  0  0  0  0  0
    7.6773   44.0713   34.0496 H   0  0  0  0  0  0  0  0  0  0  0  0
    9.1839   45.3816   35.3539 H   0  0  0  0  0  0  0  0  0  0  0  0
   10.3193   45.4413   34.0993 H   0  0  0  0  0  0  0  0  0  0  0  0
    8.4832   43.0879   31.8650 H   0  0  0  0  0  0  0  0  0  0  0  0
    9.9718   44.0722   31.9738 H   0  0  0  0  0  0  0  0  0  0  0  0
    8.5537   46.1549   31.8771 H   0  0  0  0  0  0  0  0  0  0  0  0
    8.5394   45.1427   30.4035 H   0  0  0  0  0  0  0  0  0  0  0  0
    6.3314   44.1802   30.9691 H   0  0  0  0  0  0  0  0  0  0  0  0
    6.3015   45.0667   32.5334 H   0  0  0  0  0  0  0  0  0  0  0  0
    6.2457   46.2889   29.7200 H   0  0  0  0  0  0  0  0  0  0  0  0
    4.9204   46.2630   30.9217 H   0  0  0  0  0  0  0  0  0  0  0  0
    6.2761   47.7521   32.4195 H   0  0  0  0  0  0  0  0  0  0  0  0
    8.6913   51.5045   31.4155 H   0  0  0  0  0  0  0  0  0  0  0  0
    8.2766   50.9336   29.7824 H   0  0  0  0  0  0  0  0  0  0  0  0
   10.1846   50.3257   28.5776 H   0  0  0  0  0  0  0  0  0  0  0  0
   12.3380   49.1672   28.3474 H   0  0  0  0  0  0  0  0  0  0  0  0
   12.3132   48.1898   32.5124 H   0  0  0  0  0  0  0  0  0  0  0  0
   13.3929   48.0869   30.3064 H   0  0  0  0  0  0  0  0  0  0  0  0
    9.7450   40.0146   31.9262 H   0  0  0  0  0  0  0  0  0  0  0  0
   11.2097   41.0419   31.8830 H   0  0  0  0  0  0  0  0  0  0  0  0
   11.6265   39.0456   30.5888 H   0  0  0  0  0  0  0  0  0  0  0  0
   10.7064   37.5574   33.1484 H   0  0  0  0  0  0  0  0  0  0  0  0
   14.2021   37.4484   31.5574 H   0  0  0  0  0  0  0  0  0  0  0  0
   10.0952   37.3990   30.3433 H   0  0  0  0  0  0  0  0  0  0  0  0
   12.1163   35.7745   32.5633 H   0  0  0  0  0  0  0  0  0  0  0  0
   12.9615   35.5349   30.5312 H   0  0  0  0  0  0  0  0  0  0  0  0
   12.4321   38.3982   34.8705 H   0  0  0  0  0  0  0  0  0  0  0  0
   17.2669   34.4143   33.1690 H   0  0  0  0  0  0  0  0  0  0  0  0
   15.3761   36.1862   37.9792 H   0  0  0  0  0  0  0  0  0  0  0  0
   16.7641   35.0598   37.7896 H   0  0  0  0  0  0  0  0  0  0  0  0
  1  2  2  0
  1  3  1  0
  3  4  1  0
  4  5  1  0
  6  1  1  0
  7  6  1  0
  6  8  1  0
  8  9  1  0
  9 10  1  0
 10 11  1  0
 11 12  1  0
 12 13  1  0
 13 14  1  0
 13 15  2  0
 14 16  1  0
 16 17  1  0
 17 18  2  0
 19 17  1  0
 18 20  1  0
 21 19  2  0
 19 22  1  0
 20 23  2  0
 23 21  1  0
 22 24  1  0
 22 25  2  0
  4 26  2  0
  4 27  1  0
 28 27  1  0
 28 29  1  0
 29 30  1  0
 29 31  1  0
 30 32  1  0
 31 33  1  0
 31 34  1  0
 34 32  1  0
 32 35  1  0
 34 36  1  0
 37 35  1  0
 38 35  1  0
 39 37  2  0
 37 40  1  0
 41 38  2  0
 42 39  1  0
 40 43  2  0
 40 41  1  0
 44 42  2  0
 44 43  1  0
 43 45  1  0
  6 46  1  6
  7 47  1  0
  7 48  1  0
  8 49  1  0
  8 50  1  0
  9 51  1  0
  9 52  1  0
 10 53  1  0
 10 54  1  0
 11 55  1  0
 11 56  1  0
 12 57  1  0
 16 58  1  0
 16 59  1  0
 18 60  1  0
 20 61  1  0
 21 62  1  0
 23 63  1  0
 28 64  1  0
 28 65  1  0
 29 66  1  0
 31 67  1  0
 32 68  1  0
 33 69  1  0
 34 70  1  0
 36 71  1  0
 38 72  1  0
 42 73  1  0
 45 74  1  0
 45 75  1  0
M  CHG  3   5  -1  22   1  24  -1
M  END
>  <EmbedRMS>  (11) 
0.0751275459042

$$$$

     RDKit          3D

 75 78  0  0  0  0  0  0  0  0999 V2000
    9.4328   42.9367   34.3463 C   0  0  0  0  0  0  0  0  0  0  0  0
   10.4905   43.0332   35.0318 O   0  0  0  0  0  0  0  0  0  0  0  0
    8.8558   41.7105   34.0300 O   0  0  0  0  0  0  0  0  0  0  0  0
    9.4944   40.2142   34.4677 P   0  0  0  0  0  0  0  0  0  0  0  0
    9.7317   40.1724   36.1287 O   0  0  0  0  0  0  0  0  0  0  0  0
    8.7502   44.1350   33.7741 C   0  0  1  0  0  0  0  0  0  0  0  0
    9.2957   45.3823   34.3133 N   0  0  0  0  0  0  0  0  0  0  0  0
    8.8891   44.0526   32.2359 C   0  0  0  0  0  0  0  0  0  0  0  0
    8.2031   45.1823   31.4613 C   0  0  0  0  0  0  0  0  0  0  0  0
    6.6656   45.1033   31.4819 C   0  0  0  0  0  0  0  0  0  0  0  0
    6.0281   46.3239   30.8102 C   0  0  0  0  0  0  0  0  0  0  0  0
    6.5100   47.5618   31.4225 N   0  0  0  0  0  0  0  0  0  0  0  0
    7.2429   48.5448   30.6813 C   0  0  0  0  0  0  0  0  0  0  0  0
    7.6086   49.7732   31.2494 O   0  0  0  0  0  0  0  0  0  0  0  0
    7.5905   48.3072   29.4952 O   0  0  0  0  0  0  0  0  0  0  0  0
    7.2758   50.1876   32.5743 C   0  0  0  0  0  0  0  0  0  0  0  0
    5.7929   50.4608   32.6990 C   0  0  0  0  0  0  0  0  0  0  0  0
    5.1730   51.2500   31.7131 C   0  0  0  0  0  0  0  0  0  0  0  0
    5.0051   49.9242   33.7502 C   0  0  0  0  0  0  0  0  0  0  0  0
    3.7939   51.4635   31.7343 C   0  0  0  0  0  0  0  0  0  0  0  0
    3.6149   50.1333   33.7437 C   0  0  0  0  0  0  0  0  0  0  0  0
    5.5953   49.1946   34.8370 N   0  0  0  0  0  0  0  0  0  0  0  0
    3.0148   50.8970   32.7416 C   0  0  0  0  0  0  0  0  0  0  0  0
    6.6722   49.7203   35.5130 O   0  0  0  0  0  0  0  0  0  0  0  0
    5.0056   48.2050   35.3178 O   0  0  0  0  0  0  0  0  0  0  0  0
    8.5373   39.1383   34.0122 O   0  0  0  0  0  0  0  0  0  0  0  0
   10.9795   40.0890   33.6815 O   0  0  0  0  0  0  0  0  0  0  0  0
   10.7982   40.0848   32.2819 C   0  0  0  0  0  0  0  0  0  0  0  0
   11.5886   38.9142   31.7009 C   0  0  0  0  0  0  0  0  0  0  0  0
   12.9213   38.9367   32.1698 O   0  0  0  0  0  0  0  0  0  0  0  0
   11.0047   37.5660   32.0990 C   0  0  0  0  0  0  0  0  0  0  0  0
   13.3510   37.5885   32.2601 C   0  0  0  0  0  0  0  0  0  0  0  0
    9.9296   37.1961   31.2780 O   0  0  0  0  0  0  0  0  0  0  0  0
   12.1923   36.6659   31.9047 C   0  0  0  0  0  0  0  0  0  0  0  0
   13.8033   37.2966   33.6188 N   0  0  0  0  0  0  0  0  0  0  0  0
   12.3007   36.2864   30.5561 O   0  0  0  0  0  0  0  0  0  0  0  0
   14.7933   36.4724   33.9860 C   0  0  0  0  0  0  0  0  0  0  0  0
   13.2753   37.7296   34.7935 C   0  0  0  0  0  0  0  0  0  0  0  0
   15.6243   35.7579   33.1860 N   0  0  0  0  0  0  0  0  0  0  0  0
   14.8728   36.4410   35.3328 C   0  0  0  0  0  0  0  0  0  0  0  0
   13.9209   37.2263   35.8804 N   0  0  0  0  0  0  0  0  0  0  0  0
   16.5873   34.9919   33.7803 C   0  0  0  0  0  0  0  0  0  0  0  0
   15.8577   35.6716   35.9443 C   0  0  0  0  0  0  0  0  0  0  0  0
   16.7025   34.9583   35.1440 N   0  0  0  0  0  0  0  0  0  0  0  0
   16.0100   35.6384   37.3563 N   0  0  0  0  0  0  0  0  0  0  0  0
    7.6765   44.0710   34.0501 H   0  0  0  0  0  0  0  0  0  0  0  0
   10.3187   45.4408   34.1008 H   0  0  0  0  0  0  0  0  0  0  0  0
    9.1809   45.3830   35.3533 H   0  0  0  0  0  0  0  0  0  0  0  0
    8.4814   43.0850   31.8669 H   0  0  0  0  0  0  0  0  0  0  0  0
    9.9710   44.0678   31.9743 H   0  0  0  0  0  0  0  0  0  0  0  0
    8.5543   46.1506   31.8759 H   0  0  0  0  0  0  0  0  0  0  0  0
    8.5409   45.1377   30.4027 H   0  0  0  0  0  0  0  0  0  0  0  0
    6.3002   45.0586   32.5289 H   0  0  0  0  0  0  0  0  0  0  0  0
    6.3314   44.1805   30.9600 H   0  0  0  0  0  0  0  0  0  0  0  0
    4.9248   46.2698   30.9289 H   0  0  0  0  0  0  0  0  0  0  0  0
    6.2449   46.2939   29.7210 H   0  0  0  0  0  0  0  0  0  0  0  0
    6.3026   47.7087   32.4337 H   0  0  0  0  0  0  0  0  0  0  0  0
    7.8204   51.1305   32.7898 H   0  0  0  0  0  0  0  0  0  0  0  0
    7.6423   49.4249   33.2896 H   0  0  0  0  0  0  0  0  0  0  0  0
    5.7582   51.6851   30.9121 H   0  0  0  0  0  0  0  0  0  0  0  0
    3.3276   52.0629   30.9631 H   0  0  0  0  0  0  0  0  0  0  0  0
    2.9975   49.7243   34.5337 H   0  0  0  0  0  0  0  0  0  0  0  0
    1.9448   51.0601   32.7534 H   0  0  0  0  0  0  0  0  0  0  0  0
   11.2131   41.0320   31.8756 H   0  0  0  0  0  0  0  0  0  0  0  0
    9.7427   40.0140   31.9266 H   0  0  0  0  0  0  0  0  0  0  0  0
   11.5980   39.0108   30.5904 H   0  0  0  0  0  0  0  0  0  0  0  0
   10.7009   37.5602   33.1721 H   0  0  0  0  0  0  0  0  0  0  0  0
   14.1977   37.4380   31.5532 H   0  0  0  0  0  0  0  0  0  0  0  0
    9.5181   36.3961   31.6977 H   0  0  0  0  0  0  0  0  0  0  0  0
   12.1419   35.7697   32.5692 H   0  0  0  0  0  0  0  0  0  0  0  0
   11.7730   35.4523   30.4489 H   0  0  0  0  0  0  0  0  0  0  0  0
   12.4321   38.3984   34.8692 H   0  0  0  0  0  0  0  0  0  0  0  0
   17.2667   34.4138   33.1694 H   0  0  0  0  0  0  0  0  0  0  0  0
   16.7634   35.0598   37.7897 H   0  0  0  0  0  0  0  0  0  0  0  0
   15.3757   36.1867   37.9790 H   0  0  0  0  0  0  0  0  0  0  0  0
  1  2  2  0
  1  3  1  0
  3  4  1  0
  4  5  1  0
  6  1  1  0
  7  6  1  0
  6  8  1  0
  8  9  1  0
  9 10  1  0
 10 11  1  0
 11 12  1  0
 12 13  1  0
 13 14  1  0
 13 15  2  0
 14 16  1  0
 16 17  1  0
 17 18  2  0
 19 17  1  0
 18 20  1  0
 21 19  2  0
 19 22  1  0
 20 23  2  0
 23 21  1  0
 22 24  1  0
 22 25  2  0
  4 26  2  0
  4 27  1  0
 28 27  1  0
 28 29  1  0
 29 30  1  0
 29 31  1  0
 30 32  1  0
 31 33  1  0
 31 34  1  0
 34 32  1  0
 32 35  1  0
 34 36  1  0
 37 35  1  0
 38 35  1  0
 39 37  2  0
 37 40  1  0
 41 38  2  0
 42 39  1  0
 40 43  2  0
 40 41  1  0
 44 42  2  0
 44 43  1  0
 43 45  1  0
  6 46  1  6
  7 47  1  0
  7 48  1  0
  8 49  1  0
  8 50  1  0
  9 51  1  0
  9 52  1  0
 10 53  1  0
 10 54  1  0
 11 55  1  0
 11 56  1  0
 12 57  1  0
 16 58  1  0
 16 59  1  0
 18 60  1  0
 20 61  1  0
 21 62  1  0
 23 63  1  0
 28 64  1  0
 28 65  1  0
 29 66  1  0
 31 67  1  0
 32 68  1  0
 33 69  1  0
 34 70  1  0
 36 71  1  0
 38 72  1  0
 42 73  1  0
 45 74  1  0
 45 75  1  0
M  CHG  3   5  -1  22   1  24  -1
M  END
>  <EmbedRMS>  (12) 
0.0742330095864

$$$$

     RDKit          3D

 75 78  0  0  0  0  0  0  0  0999 V2000
    9.4333   42.9365   34.3462 C   0  0  0  0  0  0  0  0  0  0  0  0
   10.4907   43.0330   35.0319 O   0  0  0  0  0  0  0  0  0  0  0  0
    8.8563   41.7104   34.0296 O   0  0  0  0  0  0  0  0  0  0  0  0
    9.4945   40.2142   34.4680 P   0  0  0  0  0  0  0  0  0  0  0  0
    9.7309   40.1726   36.1291 O   0  0  0  0  0  0  0  0  0  0  0  0
    8.7506   44.1348   33.7741 C   0  0  1  0  0  0  0  0  0  0  0  0
    9.2963   45.3821   34.3133 N   0  0  0  0  0  0  0  0  0  0  0  0
    8.8893   44.0527   32.2358 C   0  0  0  0  0  0  0  0  0  0  0  0
    8.2028   45.1823   31.4615 C   0  0  0  0  0  0  0  0  0  0  0  0
    6.6653   45.1046   31.4855 C   0  0  0  0  0  0  0  0  0  0  0  0
    6.0270   46.3226   30.8105 C   0  0  0  0  0  0  0  0  0  0  0  0
    6.5064   47.5640   31.4180 N   0  0  0  0  0  0  0  0  0  0  0  0
    7.2434   48.5393   30.6834 C   0  0  0  0  0  0  0  0  0  0  0  0
    7.5913   49.7409   31.3056 O   0  0  0  0  0  0  0  0  0  0  0  0
    7.5935   48.3117   29.4937 O   0  0  0  0  0  0  0  0  0  0  0  0
    8.3332   50.7628   30.6468 C   0  0  0  0  0  0  0  0  0  0  0  0
    8.5089   51.9410   31.5727 C   0  0  0  0  0  0  0  0  0  0  0  0
    9.8150   52.3523   31.8989 C   0  0  0  0  0  0  0  0  0  0  0  0
    7.4024   52.6187   32.1569 C   0  0  0  0  0  0  0  0  0  0  0  0
   10.0300   53.4033   32.7909 C   0  0  0  0  0  0  0  0  0  0  0  0
    7.6443   53.6650   33.0653 C   0  0  0  0  0  0  0  0  0  0  0  0
    6.0393   52.2547   31.8677 N   0  0  0  0  0  0  0  0  0  0  0  0
    8.9472   54.0557   33.3757 C   0  0  0  0  0  0  0  0  0  0  0  0
    5.0594   52.4589   32.8120 O   0  0  0  0  0  0  0  0  0  0  0  0
    5.6991   51.9058   30.7190 O   0  0  0  0  0  0  0  0  0  0  0  0
    8.5372   39.1386   34.0125 O   0  0  0  0  0  0  0  0  0  0  0  0
   10.9804   40.0880   33.6837 O   0  0  0  0  0  0  0  0  0  0  0  0
   10.8025   40.0899   32.2839 C   0  0  0  0  0  0  0  0  0  0  0  0
   11.5888   38.9174   31.7007 C   0  0  0  0  0  0  0  0  0  0  0  0
   12.9219   38.9373   32.1692 O   0  0  0  0  0  0  0  0  0  0  0  0
   11.0028   37.5682   32.0980 C   0  0  0  0  0  0  0  0  0  0  0  0
   13.3496   37.5885   32.2601 C   0  0  0  0  0  0  0  0  0  0  0  0
    9.9343   37.1822   31.2756 O   0  0  0  0  0  0  0  0  0  0  0  0
   12.1891   36.6677   31.9049 C   0  0  0  0  0  0  0  0  0  0  0  0
   13.8025   37.2965   33.6186 N   0  0  0  0  0  0  0  0  0  0  0  0
   12.2991   36.2867   30.5567 O   0  0  0  0  0  0  0  0  0  0  0  0
   14.7929   36.4725   33.9858 C   0  0  0  0  0  0  0  0  0  0  0  0
   13.2749   37.7294   34.7935 C   0  0  0  0  0  0  0  0  0  0  0  0
   15.6240   35.7580   33.1858 N   0  0  0  0  0  0  0  0  0  0  0  0
   14.8727   36.4411   35.3327 C   0  0  0  0  0  0  0  0  0  0  0  0
   13.9208   37.2263   35.8803 N   0  0  0  0  0  0  0  0  0  0  0  0
   16.5871   34.9921   33.7801 C   0  0  0  0  0  0  0  0  0  0  0  0
   15.8576   35.6718   35.9441 C   0  0  0  0  0  0  0  0  0  0  0  0
   16.7024   34.9584   35.1438 N   0  0  0  0  0  0  0  0  0  0  0  0
   16.0099   35.6384   37.3562 N   0  0  0  0  0  0  0  0  0  0  0  0
    7.6770   44.0707   34.0504 H   0  0  0  0  0  0  0  0  0  0  0  0
    9.1827   45.3821   35.3535 H   0  0  0  0  0  0  0  0  0  0  0  0
   10.3192   45.4407   34.1000 H   0  0  0  0  0  0  0  0  0  0  0  0
    9.9711   44.0681   31.9739 H   0  0  0  0  0  0  0  0  0  0  0  0
    8.4816   43.0851   31.8668 H   0  0  0  0  0  0  0  0  0  0  0  0
    8.5384   45.1363   30.4022 H   0  0  0  0  0  0  0  0  0  0  0  0
    8.5552   46.1510   31.8742 H   0  0  0  0  0  0  0  0  0  0  0  0
    6.3020   45.0643   32.5334 H   0  0  0  0  0  0  0  0  0  0  0  0
    6.3296   44.1800   30.9678 H   0  0  0  0  0  0  0  0  0  0  0  0
    4.9235   46.2674   30.9265 H   0  0  0  0  0  0  0  0  0  0  0  0
    6.2465   46.2898   29.7217 H   0  0  0  0  0  0  0  0  0  0  0  0
    6.2816   47.7534   32.4207 H   0  0  0  0  0  0  0  0  0  0  0  0
    7.8090   51.0866   29.7230 H   0  0  0  0  0  0  0  0  0  0  0  0
    9.3175   50.3482   30.3364 H   0  0  0  0  0  0  0  0  0  0  0  0
   10.6744   51.8531   31.4685 H   0  0  0  0  0  0  0  0  0  0  0  0
   11.0397   53.7082   33.0341 H   0  0  0  0  0  0  0  0  0  0  0  0
    6.8185   54.1928   33.5253 H   0  0  0  0  0  0  0  0  0  0  0  0
    9.1171   54.8681   34.0705 H   0  0  0  0  0  0  0  0  0  0  0  0
    9.7476   40.0331   31.9256 H   0  0  0  0  0  0  0  0  0  0  0  0
   11.2258   41.0357   31.8830 H   0  0  0  0  0  0  0  0  0  0  0  0
   11.5974   39.0148   30.5904 H   0  0  0  0  0  0  0  0  0  0  0  0
   10.7023   37.5455   33.1719 H   0  0  0  0  0  0  0  0  0  0  0  0
   14.1957   37.4366   31.5528 H   0  0  0  0  0  0  0  0  0  0  0  0
    9.1340   37.6658   31.6069 H   0  0  0  0  0  0  0  0  0  0  0  0
   12.1381   35.7717   32.5697 H   0  0  0  0  0  0  0  0  0  0  0  0
   11.7707   35.4530   30.4496 H   0  0  0  0  0  0  0  0  0  0  0  0
   12.4314   38.3980   34.8694 H   0  0  0  0  0  0  0  0  0  0  0  0
   17.2665   34.4140   33.1691 H   0  0  0  0  0  0  0  0  0  0  0  0
   15.3757   36.1868   37.9789 H   0  0  0  0  0  0  0  0  0  0  0  0
   16.7633   35.0598   37.7895 H   0  0  0  0  0  0  0  0  0  0  0  0
  1  2  2  0
  1  3  1  0
  3  4  1  0
  4  5  1  0
  6  1  1  0
  7  6  1  0
  6  8  1  0
  8  9  1  0
  9 10  1  0
 10 11  1  0
 11 12  1  0
 12 13  1  0
 13 14  1  0
 13 15  2  0
 14 16  1  0
 16 17  1  0
 17 18  2  0
 19 17  1  0
 18 20  1  0
 21 19  2  0
 19 22  1  0
 20 23  2  0
 23 21  1  0
 22 24  1  0
 22 25  2  0
  4 26  2  0
  4 27  1  0
 28 27  1  0
 28 29  1  0
 29 30  1  0
 29 31  1  0
 30 32  1  0
 31 33  1  0
 31 34  1  0
 34 32  1  0
 32 35  1  0
 34 36  1  0
 37 35  1  0
 38 35  1  0
 39 37  2  0
 37 40  1  0
 41 38  2  0
 42 39  1  0
 40 43  2  0
 40 41  1  0
 44 42  2  0
 44 43  1  0
 43 45  1  0
  6 46  1  6
  7 47  1  0
  7 48  1  0
  8 49  1  0
  8 50  1  0
  9 51  1  0
  9 52  1  0
 10 53  1  0
 10 54  1  0
 11 55  1  0
 11 56  1  0
 12 57  1  0
 16 58  1  0
 16 59  1  0
 18 60  1  0
 20 61  1  0
 21 62  1  0
 23 63  1  0
 28 64  1  0
 28 65  1  0
 29 66  1  0
 31 67  1  0
 32 68  1  0
 33 69  1  0
 34 70  1  0
 36 71  1  0
 38 72  1  0
 42 73  1  0
 45 74  1  0
 45 75  1  0
M  CHG  3   5  -1  22   1  24  -1
M  END
>  <EmbedRMS>  (13) 
0.0742071817376

$$$$

     RDKit          3D

 75 78  0  0  0  0  0  0  0  0999 V2000
    9.4337   42.9375   34.3450 C   0  0  0  0  0  0  0  0  0  0  0  0
   10.4909   43.0337   35.0312 O   0  0  0  0  0  0  0  0  0  0  0  0
    8.8564   41.7113   34.0288 O   0  0  0  0  0  0  0  0  0  0  0  0
    9.4943   40.2148   34.4677 P   0  0  0  0  0  0  0  0  0  0  0  0
    9.7307   40.1732   36.1289 O   0  0  0  0  0  0  0  0  0  0  0  0
    8.7514   44.1366   33.7733 C   0  0  1  0  0  0  0  0  0  0  0  0
    9.2971   45.3835   34.3132 N   0  0  0  0  0  0  0  0  0  0  0  0
    8.8901   44.0569   32.2349 C   0  0  0  0  0  0  0  0  0  0  0  0
    8.2020   45.1876   31.4624 C   0  0  0  0  0  0  0  0  0  0  0  0
    6.6642   45.1069   31.4851 C   0  0  0  0  0  0  0  0  0  0  0  0
    6.0208   46.3211   30.8055 C   0  0  0  0  0  0  0  0  0  0  0  0
    6.4884   47.5666   31.4130 N   0  0  0  0  0  0  0  0  0  0  0  0
    7.2742   48.5175   30.6982 C   0  0  0  0  0  0  0  0  0  0  0  0
    7.7681   49.6363   31.3760 O   0  0  0  0  0  0  0  0  0  0  0  0
    7.5864   48.3123   29.4937 O   0  0  0  0  0  0  0  0  0  0  0  0
    8.8556   50.4186   30.8860 C   0  0  0  0  0  0  0  0  0  0  0  0
   10.1290   49.5996   30.8862 C   0  0  0  0  0  0  0  0  0  0  0  0
   10.4514   48.8689   32.0453 C   0  0  0  0  0  0  0  0  0  0  0  0
   10.9630   49.4863   29.7443 C   0  0  0  0  0  0  0  0  0  0  0  0
   11.5453   48.0026   32.0608 C   0  0  0  0  0  0  0  0  0  0  0  0
   12.0523   48.5972   29.7742 C   0  0  0  0  0  0  0  0  0  0  0  0
   10.7404   50.2784   28.5675 N   0  0  0  0  0  0  0  0  0  0  0  0
   12.3383   47.8593   30.9239 C   0  0  0  0  0  0  0  0  0  0  0  0
   10.5490   51.6363   28.6797 O   0  0  0  0  0  0  0  0  0  0  0  0
   10.9471   49.7900   27.4374 O   0  0  0  0  0  0  0  0  0  0  0  0
    8.5371   39.1392   34.0123 O   0  0  0  0  0  0  0  0  0  0  0  0
   10.9804   40.0881   33.6836 O   0  0  0  0  0  0  0  0  0  0  0  0
   10.8026   40.0900   32.2838 C   0  0  0  0  0  0  0  0  0  0  0  0
   11.5889   38.9174   31.7007 C   0  0  0  0  0  0  0  0  0  0  0  0
   12.9220   38.9373   32.1692 O   0  0  0  0  0  0  0  0  0  0  0  0
   11.0028   37.5682   32.0980 C   0  0  0  0  0  0  0  0  0  0  0  0
   13.3496   37.5885   32.2601 C   0  0  0  0  0  0  0  0  0  0  0  0
    9.9343   37.1823   31.2756 O   0  0  0  0  0  0  0  0  0  0  0  0
   12.1891   36.6677   31.9049 C   0  0  0  0  0  0  0  0  0  0  0  0
   13.8025   37.2965   33.6186 N   0  0  0  0  0  0  0  0  0  0  0  0
   12.2991   36.2867   30.5568 O   0  0  0  0  0  0  0  0  0  0  0  0
   14.7929   36.4725   33.9858 C   0  0  0  0  0  0  0  0  0  0  0  0
   13.2749   37.7294   34.7935 C   0  0  0  0  0  0  0  0  0  0  0  0
   15.6240   35.7580   33.1858 N   0  0  0  0  0  0  0  0  0  0  0  0
   14.8727   36.4411   35.3327 C   0  0  0  0  0  0  0  0  0  0  0  0
   13.9208   37.2263   35.8803 N   0  0  0  0  0  0  0  0  0  0  0  0
   16.5871   34.9921   33.7801 C   0  0  0  0  0  0  0  0  0  0  0  0
   15.8576   35.6718   35.9441 C   0  0  0  0  0  0  0  0  0  0  0  0
   16.7024   34.9584   35.1438 N   0  0  0  0  0  0  0  0  0  0  0  0
   16.0099   35.6384   37.3562 N   0  0  0  0  0  0  0  0  0  0  0  0
    7.6777   44.0726   34.0492 H   0  0  0  0  0  0  0  0  0  0  0  0
    9.1852   45.3825   35.3535 H   0  0  0  0  0  0  0  0  0  0  0  0
   10.3195   45.4432   34.0981 H   0  0  0  0  0  0  0  0  0  0  0  0
    8.4841   43.0893   31.8643 H   0  0  0  0  0  0  0  0  0  0  0  0
    9.9720   44.0751   31.9732 H   0  0  0  0  0  0  0  0  0  0  0  0
    8.5391   45.1455   30.4035 H   0  0  0  0  0  0  0  0  0  0  0  0
    8.5516   46.1565   31.8777 H   0  0  0  0  0  0  0  0  0  0  0  0
    6.3003   45.0682   32.5328 H   0  0  0  0  0  0  0  0  0  0  0  0
    6.3315   44.1798   30.9698 H   0  0  0  0  0  0  0  0  0  0  0  0
    6.2457   46.2883   29.7178 H   0  0  0  0  0  0  0  0  0  0  0  0
    4.9172   46.2590   30.9158 H   0  0  0  0  0  0  0  0  0  0  0  0
    6.2691   47.7498   32.4180 H   0  0  0  0  0  0  0  0  0  0  0  0
    8.9947   51.2905   31.5586 H   0  0  0  0  0  0  0  0  0  0  0  0
    8.5902   50.8024   29.8807 H   0  0  0  0  0  0  0  0  0  0  0  0
    9.8339   48.9474   32.9318 H   0  0  0  0  0  0  0  0  0  0  0  0
   11.7721   47.4339   32.9534 H   0  0  0  0  0  0  0  0  0  0  0  0
   12.6961   48.4930   28.9098 H   0  0  0  0  0  0  0  0  0  0  0  0
   13.1837   47.1835   30.9367 H   0  0  0  0  0  0  0  0  0  0  0  0
    9.7477   40.0333   31.9254 H   0  0  0  0  0  0  0  0  0  0  0  0
   11.2260   41.0358   31.8829 H   0  0  0  0  0  0  0  0  0  0  0  0
   11.5975   39.0148   30.5904 H   0  0  0  0  0  0  0  0  0  0  0  0
   10.7023   37.5456   33.1719 H   0  0  0  0  0  0  0  0  0  0  0  0
   14.1957   37.4366   31.5528 H   0  0  0  0  0  0  0  0  0  0  0  0
    9.1340   37.6659   31.6068 H   0  0  0  0  0  0  0  0  0  0  0  0
   12.1380   35.7717   32.5697 H   0  0  0  0  0  0  0  0  0  0  0  0
   11.7707   35.4530   30.4496 H   0  0  0  0  0  0  0  0  0  0  0  0
   12.4314   38.3980   34.8694 H   0  0  0  0  0  0  0  0  0  0  0  0
   17.2665   34.4140   33.1691 H   0  0  0  0  0  0  0  0  0  0  0  0
   16.7633   35.0599   37.7895 H   0  0  0  0  0  0  0  0  0  0  0  0
   15.3757   36.1868   37.9789 H   0  0  0  0  0  0  0  0  0  0  0  0
  1  2  2  0
  1  3  1  0
  3  4  1  0
  4  5  1  0
  6  1  1  0
  7  6  1  0
  6  8  1  0
  8  9  1  0
  9 10  1  0
 10 11  1  0
 11 12  1  0
 12 13  1  0
 13 14  1  0
 13 15  2  0
 14 16  1  0
 16 17  1  0
 17 18  2  0
 19 17  1  0
 18 20  1  0
 21 19  2  0
 19 22  1  0
 20 23  2  0
 23 21  1  0
 22 24  1  0
 22 25  2  0
  4 26  2  0
  4 27  1  0
 28 27  1  0
 28 29  1  0
 29 30  1  0
 29 31  1  0
 30 32  1  0
 31 33  1  0
 31 34  1  0
 34 32  1  0
 32 35  1  0
 34 36  1  0
 37 35  1  0
 38 35  1  0
 39 37  2  0
 37 40  1  0
 41 38  2  0
 42 39  1  0
 40 43  2  0
 40 41  1  0
 44 42  2  0
 44 43  1  0
 43 45  1  0
  6 46  1  6
  7 47  1  0
  7 48  1  0
  8 49  1  0
  8 50  1  0
  9 51  1  0
  9 52  1  0
 10 53  1  0
 10 54  1  0
 11 55  1  0
 11 56  1  0
 12 57  1  0
 16 58  1  0
 16 59  1  0
 18 60  1  0
 20 61  1  0
 21 62  1  0
 23 63  1  0
 28 64  1  0
 28 65  1  0
 29 66  1  0
 31 67  1  0
 32 68  1  0
 33 69  1  0
 34 70  1  0
 36 71  1  0
 38 72  1  0
 42 73  1  0
 45 74  1  0
 45 75  1  0
M  CHG  3   5  -1  22   1  24  -1
M  END
>  <EmbedRMS>  (14) 
0.0754625719609

$$$$

     RDKit          3D

 75 78  0  0  0  0  0  0  0  0999 V2000
    9.4333   42.9357   34.3455 C   0  0  0  0  0  0  0  0  0  0  0  0
   10.4908   43.0324   35.0312 O   0  0  0  0  0  0  0  0  0  0  0  0
    8.8558   41.7097   34.0300 O   0  0  0  0  0  0  0  0  0  0  0  0
    9.4931   40.2137   34.4703 P   0  0  0  0  0  0  0  0  0  0  0  0
    9.7292   40.1727   36.1313 O   0  0  0  0  0  0  0  0  0  0  0  0
    8.7506   44.1336   33.7736 C   0  0  1  0  0  0  0  0  0  0  0  0
    9.2957   45.3793   34.3142 N   0  0  0  0  0  0  0  0  0  0  0  0
    8.8901   44.0537   32.2357 C   0  0  0  0  0  0  0  0  0  0  0  0
    8.2041   45.1852   31.4638 C   0  0  0  0  0  0  0  0  0  0  0  0
    6.6670   45.1060   31.4859 C   0  0  0  0  0  0  0  0  0  0  0  0
    6.0293   46.3245   30.8117 C   0  0  0  0  0  0  0  0  0  0  0  0
    6.5071   47.5658   31.4218 N   0  0  0  0  0  0  0  0  0  0  0  0
    7.2313   48.5501   30.6742 C   0  0  0  0  0  0  0  0  0  0  0  0
    7.5430   49.8055   31.2123 O   0  0  0  0  0  0  0  0  0  0  0  0
    7.5994   48.2988   29.4972 O   0  0  0  0  0  0  0  0  0  0  0  0
    7.2046   50.2418   32.5278 C   0  0  0  0  0  0  0  0  0  0  0  0
    8.0963   49.5983   33.5649 C   0  0  0  0  0  0  0  0  0  0  0  0
    7.4962   48.9619   34.6671 C   0  0  0  0  0  0  0  0  0  0  0  0
    9.5135   49.6155   33.4626 C   0  0  0  0  0  0  0  0  0  0  0  0
    8.2757   48.3434   35.6448 C   0  0  0  0  0  0  0  0  0  0  0  0
   10.2795   48.9680   34.4491 C   0  0  0  0  0  0  0  0  0  0  0  0
   10.1888   50.2733   32.3755 N   0  0  0  0  0  0  0  0  0  0  0  0
    9.6645   48.3462   35.5358 C   0  0  0  0  0  0  0  0  0  0  0  0
    9.7624   51.5012   31.9260 O   0  0  0  0  0  0  0  0  0  0  0  0
   11.2683   49.8184   31.9438 O   0  0  0  0  0  0  0  0  0  0  0  0
    8.5367   39.1377   34.0136 O   0  0  0  0  0  0  0  0  0  0  0  0
   10.9788   40.0864   33.6874 O   0  0  0  0  0  0  0  0  0  0  0  0
   10.7993   40.0944   32.2886 C   0  0  0  0  0  0  0  0  0  0  0  0
   11.5957   38.9351   31.6994 C   0  0  0  0  0  0  0  0  0  0  0  0
   12.9257   38.9477   32.1798 O   0  0  0  0  0  0  0  0  0  0  0  0
   11.0070   37.5757   32.0732 C   0  0  0  0  0  0  0  0  0  0  0  0
   13.3571   37.5979   32.2612 C   0  0  0  0  0  0  0  0  0  0  0  0
    9.9093   37.1807   31.2875 O   0  0  0  0  0  0  0  0  0  0  0  0
   12.1968   36.6763   31.8893 C   0  0  0  0  0  0  0  0  0  0  0  0
   13.8018   37.2956   33.6197 N   0  0  0  0  0  0  0  0  0  0  0  0
   12.3049   36.2360   30.5554 O   0  0  0  0  0  0  0  0  0  0  0  0
   14.7922   36.4716   33.9864 C   0  0  0  0  0  0  0  0  0  0  0  0
   13.2747   37.7291   34.7944 C   0  0  0  0  0  0  0  0  0  0  0  0
   15.6240   35.7581   33.1861 N   0  0  0  0  0  0  0  0  0  0  0  0
   14.8721   36.4401   35.3331 C   0  0  0  0  0  0  0  0  0  0  0  0
   13.9206   37.2257   35.8810 N   0  0  0  0  0  0  0  0  0  0  0  0
   16.5873   34.9924   33.7802 C   0  0  0  0  0  0  0  0  0  0  0  0
   15.8576   35.6714   35.9444 C   0  0  0  0  0  0  0  0  0  0  0  0
   16.7026   34.9585   35.1439 N   0  0  0  0  0  0  0  0  0  0  0  0
   16.0102   35.6382   37.3564 N   0  0  0  0  0  0  0  0  0  0  0  0
    7.6769   44.0694   34.0496 H   0  0  0  0  0  0  0  0  0  0  0  0
   10.3171   45.4428   34.0957 H   0  0  0  0  0  0  0  0  0  0  0  0
    9.1879   45.3729   35.3550 H   0  0  0  0  0  0  0  0  0  0  0  0
    8.4825   43.0867   31.8650 H   0  0  0  0  0  0  0  0  0  0  0  0
    9.9720   44.0696   31.9744 H   0  0  0  0  0  0  0  0  0  0  0  0
    8.5413   45.1427   30.4049 H   0  0  0  0  0  0  0  0  0  0  0  0
    8.5548   46.1533   31.8803 H   0  0  0  0  0  0  0  0  0  0  0  0
    6.3026   45.0646   32.5334 H   0  0  0  0  0  0  0  0  0  0  0  0
    6.3324   44.1818   30.9667 H   0  0  0  0  0  0  0  0  0  0  0  0
    4.9258   46.2682   30.9270 H   0  0  0  0  0  0  0  0  0  0  0  0
    6.2483   46.2919   29.7229 H   0  0  0  0  0  0  0  0  0  0  0  0
    6.2709   47.7313   32.4237 H   0  0  0  0  0  0  0  0  0  0  0  0
    6.1264   50.0517   32.7216 H   0  0  0  0  0  0  0  0  0  0  0  0
    7.3361   51.3417   32.5824 H   0  0  0  0  0  0  0  0  0  0  0  0
    6.4184   48.9417   34.7717 H   0  0  0  0  0  0  0  0  0  0  0  0
    7.8011   47.8557   36.4865 H   0  0  0  0  0  0  0  0  0  0  0  0
   11.3604   48.9644   34.3878 H   0  0  0  0  0  0  0  0  0  0  0  0
   10.2668   47.8610   36.2931 H   0  0  0  0  0  0  0  0  0  0  0  0
   11.2095   41.0479   31.8923 H   0  0  0  0  0  0  0  0  0  0  0  0
    9.7449   40.0200   31.9304 H   0  0  0  0  0  0  0  0  0  0  0  0
   11.6206   39.0685   30.5942 H   0  0  0  0  0  0  0  0  0  0  0  0
   10.7060   37.5562   33.1438 H   0  0  0  0  0  0  0  0  0  0  0  0
   14.2095   37.4543   31.5601 H   0  0  0  0  0  0  0  0  0  0  0  0
   10.0865   37.4209   30.3413 H   0  0  0  0  0  0  0  0  0  0  0  0
   12.1276   35.7872   32.5549 H   0  0  0  0  0  0  0  0  0  0  0  0
   12.5031   37.0109   29.9672 H   0  0  0  0  0  0  0  0  0  0  0  0
   12.4328   38.3996   34.8703 H   0  0  0  0  0  0  0  0  0  0  0  0
   17.2670   34.4149   33.1691 H   0  0  0  0  0  0  0  0  0  0  0  0
   15.3758   36.1862   37.9792 H   0  0  0  0  0  0  0  0  0  0  0  0
   16.7640   35.0601   37.7896 H   0  0  0  0  0  0  0  0  0  0  0  0
  1  2  2  0
  1  3  1  0
  3  4  1  0
  4  5  1  0
  6  1  1  0
  7  6  1  0
  6  8  1  0
  8  9  1  0
  9 10  1  0
 10 11  1  0
 11 12  1  0
 12 13  1  0
 13 14  1  0
 13 15  2  0
 14 16  1  0
 16 17  1  0
 17 18  2  0
 19 17  1  0
 18 20  1  0
 21 19  2  0
 19 22  1  0
 20 23  2  0
 23 21  1  0
 22 24  1  0
 22 25  2  0
  4 26  2  0
  4 27  1  0
 28 27  1  0
 28 29  1  0
 29 30  1  0
 29 31  1  0
 30 32  1  0
 31 33  1  0
 31 34  1  0
 34 32  1  0
 32 35  1  0
 34 36  1  0
 37 35  1  0
 38 35  1  0
 39 37  2  0
 37 40  1  0
 41 38  2  0
 42 39  1  0
 40 43  2  0
 40 41  1  0
 44 42  2  0
 44 43  1  0
 43 45  1  0
  6 46  1  6
  7 47  1  0
  7 48  1  0
  8 49  1  0
  8 50  1  0
  9 51  1  0
  9 52  1  0
 10 53  1  0
 10 54  1  0
 11 55  1  0
 11 56  1  0
 12 57  1  0
 16 58  1  0
 16 59  1  0
 18 60  1  0
 20 61  1  0
 21 62  1  0
 23 63  1  0
 28 64  1  0
 28 65  1  0
 29 66  1  0
 31 67  1  0
 32 68  1  0
 33 69  1  0
 34 70  1  0
 36 71  1  0
 38 72  1  0
 42 73  1  0
 45 74  1  0
 45 75  1  0
M  CHG  3   5  -1  22   1  24  -1
M  END
>  <EmbedRMS>  (15) 
0.0761681045252

$$$$

     RDKit          3D

 75 78  0  0  0  0  0  0  0  0999 V2000
    9.4312   42.9410   34.3437 C   0  0  0  0  0  0  0  0  0  0  0  0
   10.4885   43.0409   35.0294 O   0  0  0  0  0  0  0  0  0  0  0  0
    8.8562   41.7127   34.0287 O   0  0  0  0  0  0  0  0  0  0  0  0
    9.4945   40.2160   34.4677 P   0  0  0  0  0  0  0  0  0  0  0  0
    9.7312   40.1739   36.1288 O   0  0  0  0  0  0  0  0  0  0  0  0
    8.7484   44.1359   33.7721 C   0  0  1  0  0  0  0  0  0  0  0  0
    9.3039   45.3664   34.3388 N   0  0  0  0  0  0  0  0  0  0  0  0
    8.8892   44.0519   32.2308 C   0  0  0  0  0  0  0  0  0  0  0  0
    8.2015   45.1722   31.4435 C   0  0  0  0  0  0  0  0  0  0  0  0
    6.6642   45.1066   31.4887 C   0  0  0  0  0  0  0  0  0  0  0  0
    6.0267   46.3237   30.8123 C   0  0  0  0  0  0  0  0  0  0  0  0
    6.5080   47.5646   31.4190 N   0  0  0  0  0  0  0  0  0  0  0  0
    7.2424   48.5405   30.6826 C   0  0  0  0  0  0  0  0  0  0  0  0
    7.5862   49.7466   31.3028 O   0  0  0  0  0  0  0  0  0  0  0  0
    7.5941   48.3103   29.4938 O   0  0  0  0  0  0  0  0  0  0  0  0
    8.3090   50.7851   30.6432 C   0  0  0  0  0  0  0  0  0  0  0  0
    7.4477   51.4443   29.5895 C   0  0  0  0  0  0  0  0  0  0  0  0
    6.1767   51.9132   29.9682 C   0  0  0  0  0  0  0  0  0  0  0  0
    7.8525   51.5629   28.2349 C   0  0  0  0  0  0  0  0  0  0  0  0
    5.3045   52.4520   29.0212 C   0  0  0  0  0  0  0  0  0  0  0  0
    6.9532   52.0907   27.2919 C   0  0  0  0  0  0  0  0  0  0  0  0
    9.1690   51.1845   27.8060 N   0  0  0  0  0  0  0  0  0  0  0  0
    5.6884   52.5317   27.6837 C   0  0  0  0  0  0  0  0  0  0  0  0
   10.2722   51.6780   28.4635 O   0  0  0  0  0  0  0  0  0  0  0  0
    9.3268   50.6165   26.7056 O   0  0  0  0  0  0  0  0  0  0  0  0
    8.5374   39.1400   34.0124 O   0  0  0  0  0  0  0  0  0  0  0  0
   10.9799   40.0879   33.6828 O   0  0  0  0  0  0  0  0  0  0  0  0
   10.8002   40.0907   32.2831 C   0  0  0  0  0  0  0  0  0  0  0  0
   11.5958   38.9271   31.6964 C   0  0  0  0  0  0  0  0  0  0  0  0
   12.9239   38.9409   32.1767 O   0  0  0  0  0  0  0  0  0  0  0  0
   11.0062   37.5720   32.0794 C   0  0  0  0  0  0  0  0  0  0  0  0
   13.3506   37.5906   32.2614 C   0  0  0  0  0  0  0  0  0  0  0  0
    9.9064   37.1793   31.2946 O   0  0  0  0  0  0  0  0  0  0  0  0
   12.1920   36.6672   31.9003 C   0  0  0  0  0  0  0  0  0  0  0  0
   13.8017   37.2948   33.6193 N   0  0  0  0  0  0  0  0  0  0  0  0
   12.3133   36.2788   30.5561 O   0  0  0  0  0  0  0  0  0  0  0  0
   14.7927   36.4717   33.9862 C   0  0  0  0  0  0  0  0  0  0  0  0
   13.2746   37.7284   34.7941 C   0  0  0  0  0  0  0  0  0  0  0  0
   15.6240   35.7576   33.1859 N   0  0  0  0  0  0  0  0  0  0  0  0
   14.8728   36.4406   35.3330 C   0  0  0  0  0  0  0  0  0  0  0  0
   13.9209   37.2258   35.8808 N   0  0  0  0  0  0  0  0  0  0  0  0
   16.5874   34.9920   33.7802 C   0  0  0  0  0  0  0  0  0  0  0  0
   15.8579   35.6716   35.9443 C   0  0  0  0  0  0  0  0  0  0  0  0
   16.7028   34.9584   35.1439 N   0  0  0  0  0  0  0  0  0  0  0  0
   16.0103   35.6383   37.3563 N   0  0  0  0  0  0  0  0  0  0  0  0
    7.6764   44.0633   34.0547 H   0  0  0  0  0  0  0  0  0  0  0  0
   10.2152   45.5879   33.8748 H   0  0  0  0  0  0  0  0  0  0  0  0
    8.6468   46.1558   34.1431 H   0  0  0  0  0  0  0  0  0  0  0  0
    8.4830   43.0818   31.8666 H   0  0  0  0  0  0  0  0  0  0  0  0
    9.9708   44.0643   31.9679 H   0  0  0  0  0  0  0  0  0  0  0  0
    8.5198   45.0959   30.3807 H   0  0  0  0  0  0  0  0  0  0  0  0
    8.5714   46.1488   31.8173 H   0  0  0  0  0  0  0  0  0  0  0  0
    6.3147   44.1801   30.9836 H   0  0  0  0  0  0  0  0  0  0  0  0
    6.3142   45.0784   32.5413 H   0  0  0  0  0  0  0  0  0  0  0  0
    6.2448   46.2897   29.7232 H   0  0  0  0  0  0  0  0  0  0  0  0
    4.9233   46.2698   30.9299 H   0  0  0  0  0  0  0  0  0  0  0  0
    6.2850   47.7543   32.4220 H   0  0  0  0  0  0  0  0  0  0  0  0
    9.2452   50.3576   30.2332 H   0  0  0  0  0  0  0  0  0  0  0  0
    8.5923   51.5502   31.3960 H   0  0  0  0  0  0  0  0  0  0  0  0
    5.8529   51.8423   30.9996 H   0  0  0  0  0  0  0  0  0  0  0  0
    4.3255   52.8004   29.3242 H   0  0  0  0  0  0  0  0  0  0  0  0
    7.2440   52.1836   26.2529 H   0  0  0  0  0  0  0  0  0  0  0  0
    5.0087   52.9458   26.9501 H   0  0  0  0  0  0  0  0  0  0  0  0
   11.2114   41.0421   31.8829 H   0  0  0  0  0  0  0  0  0  0  0  0
    9.7454   40.0168   31.9263 H   0  0  0  0  0  0  0  0  0  0  0  0
   11.6246   39.0449   30.5889 H   0  0  0  0  0  0  0  0  0  0  0  0
   10.7050   37.5581   33.1500 H   0  0  0  0  0  0  0  0  0  0  0  0
   14.1984   37.4426   31.5553 H   0  0  0  0  0  0  0  0  0  0  0  0
   10.0893   37.4058   30.3459 H   0  0  0  0  0  0  0  0  0  0  0  0
   12.1337   35.7754   32.5703 H   0  0  0  0  0  0  0  0  0  0  0  0
   11.7933   35.4394   30.4514 H   0  0  0  0  0  0  0  0  0  0  0  0
   12.4314   38.3973   34.8700 H   0  0  0  0  0  0  0  0  0  0  0  0
   17.2669   34.4142   33.1691 H   0  0  0  0  0  0  0  0  0  0  0  0
   16.7638   35.0599   37.7896 H   0  0  0  0  0  0  0  0  0  0  0  0
   15.3759   36.1865   37.9790 H   0  0  0  0  0  0  0  0  0  0  0  0
  1  2  2  0
  1  3  1  0
  3  4  1  0
  4  5  1  0
  6  1  1  0
  7  6  1  0
  6  8  1  0
  8  9  1  0
  9 10  1  0
 10 11  1  0
 11 12  1  0
 12 13  1  0
 13 14  1  0
 13 15  2  0
 14 16  1  0
 16 17  1  0
 17 18  2  0
 19 17  1  0
 18 20  1  0
 21 19  2  0
 19 22  1  0
 20 23  2  0
 23 21  1  0
 22 24  1  0
 22 25  2  0
  4 26  2  0
  4 27  1  0
 28 27  1  0
 28 29  1  0
 29 30  1  0
 29 31  1  0
 30 32  1  0
 31 33  1  0
 31 34  1  0
 34 32  1  0
 32 35  1  0
 34 36  1  0
 37 35  1  0
 38 35  1  0
 39 37  2  0
 37 40  1  0
 41 38  2  0
 42 39  1  0
 40 43  2  0
 40 41  1  0
 44 42  2  0
 44 43  1  0
 43 45  1  0
  6 46  1  6
  7 47  1  0
  7 48  1  0
  8 49  1  0
  8 50  1  0
  9 51  1  0
  9 52  1  0
 10 53  1  0
 10 54  1  0
 11 55  1  0
 11 56  1  0
 12 57  1  0
 16 58  1  0
 16 59  1  0
 18 60  1  0
 20 61  1  0
 21 62  1  0
 23 63  1  0
 28 64  1  0
 28 65  1  0
 29 66  1  0
 31 67  1  0
 32 68  1  0
 33 69  1  0
 34 70  1  0
 36 71  1  0
 38 72  1  0
 42 73  1  0
 45 74  1  0
 45 75  1  0
M  CHG  3   5  -1  22   1  24  -1
M  END
>  <EmbedRMS>  (16) 
0.0739334371002

$$$$

     RDKit          3D

 75 78  0  0  0  0  0  0  0  0999 V2000
    9.4312   42.9412   34.3440 C   0  0  0  0  0  0  0  0  0  0  0  0
   10.4886   43.0411   35.0294 O   0  0  0  0  0  0  0  0  0  0  0  0
    8.8558   41.7129   34.0298 O   0  0  0  0  0  0  0  0  0  0  0  0
    9.4933   40.2164   34.4707 P   0  0  0  0  0  0  0  0  0  0  0  0
    9.7290   40.1745   36.1317 O   0  0  0  0  0  0  0  0  0  0  0  0
    8.7484   44.1360   33.7722 C   0  0  1  0  0  0  0  0  0  0  0  0
    9.3039   45.3666   34.3388 N   0  0  0  0  0  0  0  0  0  0  0  0
    8.8892   44.0518   32.2309 C   0  0  0  0  0  0  0  0  0  0  0  0
    8.2014   45.1721   31.4436 C   0  0  0  0  0  0  0  0  0  0  0  0
    6.6642   45.1065   31.4888 C   0  0  0  0  0  0  0  0  0  0  0  0
    6.0265   46.3234   30.8121 C   0  0  0  0  0  0  0  0  0  0  0  0
    6.5076   47.5645   31.4187 N   0  0  0  0  0  0  0  0  0  0  0  0
    7.2441   48.5394   30.6832 C   0  0  0  0  0  0  0  0  0  0  0  0
    7.5935   49.7408   31.3050 O   0  0  0  0  0  0  0  0  0  0  0  0
    7.5931   48.3115   29.4932 O   0  0  0  0  0  0  0  0  0  0  0  0
    8.3357   50.7620   30.6454 C   0  0  0  0  0  0  0  0  0  0  0  0
    8.5140   51.9398   31.5714 C   0  0  0  0  0  0  0  0  0  0  0  0
    9.8211   52.3495   31.8958 C   0  0  0  0  0  0  0  0  0  0  0  0
    7.4091   52.6186   32.1573 C   0  0  0  0  0  0  0  0  0  0  0  0
   10.0386   53.4001   32.7877 C   0  0  0  0  0  0  0  0  0  0  0  0
    7.6536   53.6645   33.0656 C   0  0  0  0  0  0  0  0  0  0  0  0
    6.0453   52.2562   31.8701 N   0  0  0  0  0  0  0  0  0  0  0  0
    8.9574   54.0536   33.3741 C   0  0  0  0  0  0  0  0  0  0  0  0
    5.0670   52.4616   32.8158 O   0  0  0  0  0  0  0  0  0  0  0  0
    5.7030   51.9078   30.7219 O   0  0  0  0  0  0  0  0  0  0  0  0
    8.5369   39.1403   34.0143 O   0  0  0  0  0  0  0  0  0  0  0  0
   10.9796   40.0883   33.6889 O   0  0  0  0  0  0  0  0  0  0  0  0
   10.8017   40.0949   32.2901 C   0  0  0  0  0  0  0  0  0  0  0  0
   11.5885   38.9267   31.7042 C   0  0  0  0  0  0  0  0  0  0  0  0
   12.9237   38.9445   32.1722 O   0  0  0  0  0  0  0  0  0  0  0  0
   11.0029   37.5726   32.0908 C   0  0  0  0  0  0  0  0  0  0  0  0
   13.3555   37.5960   32.2595 C   0  0  0  0  0  0  0  0  0  0  0  0
    9.9379   37.1847   31.2657 O   0  0  0  0  0  0  0  0  0  0  0  0
   12.1931   36.6769   31.8952 C   0  0  0  0  0  0  0  0  0  0  0  0
   13.8028   37.2977   33.6186 N   0  0  0  0  0  0  0  0  0  0  0  0
   12.2918   36.2396   30.5587 O   0  0  0  0  0  0  0  0  0  0  0  0
   14.7926   36.4727   33.9858 C   0  0  0  0  0  0  0  0  0  0  0  0
   13.2750   37.7302   34.7935 C   0  0  0  0  0  0  0  0  0  0  0  0
   15.6241   35.7586   33.1857 N   0  0  0  0  0  0  0  0  0  0  0  0
   14.8721   36.4408   35.3326 C   0  0  0  0  0  0  0  0  0  0  0  0
   13.9204   37.2263   35.8802 N   0  0  0  0  0  0  0  0  0  0  0  0
   16.5870   34.9925   33.7800 C   0  0  0  0  0  0  0  0  0  0  0  0
   15.8572   35.6717   35.9441 C   0  0  0  0  0  0  0  0  0  0  0  0
   16.7022   34.9586   35.1437 N   0  0  0  0  0  0  0  0  0  0  0  0
   16.0097   35.6384   37.3561 N   0  0  0  0  0  0  0  0  0  0  0  0
    7.6764   44.0635   34.0548 H   0  0  0  0  0  0  0  0  0  0  0  0
    8.6468   46.1559   34.1431 H   0  0  0  0  0  0  0  0  0  0  0  0
   10.2152   45.5880   33.8747 H   0  0  0  0  0  0  0  0  0  0  0  0
    9.9708   44.0642   31.9680 H   0  0  0  0  0  0  0  0  0  0  0  0
    8.4830   43.0817   31.8668 H   0  0  0  0  0  0  0  0  0  0  0  0
    8.5713   46.1487   31.8174 H   0  0  0  0  0  0  0  0  0  0  0  0
    8.5198   45.0958   30.3808 H   0  0  0  0  0  0  0  0  0  0  0  0
    6.3147   44.1799   30.9839 H   0  0  0  0  0  0  0  0  0  0  0  0
    6.3141   45.0785   32.5415 H   0  0  0  0  0  0  0  0  0  0  0  0
    4.9232   46.2694   30.9296 H   0  0  0  0  0  0  0  0  0  0  0  0
    6.2450   46.2894   29.7231 H   0  0  0  0  0  0  0  0  0  0  0  0
    6.2848   47.7540   32.4218 H   0  0  0  0  0  0  0  0  0  0  0  0
    9.3191   50.3464   30.3335 H   0  0  0  0  0  0  0  0  0  0  0  0
    7.8105   51.0866   29.7225 H   0  0  0  0  0  0  0  0  0  0  0  0
   10.6793   51.8494   31.4640 H   0  0  0  0  0  0  0  0  0  0  0  0
   11.0490   53.7038   33.0294 H   0  0  0  0  0  0  0  0  0  0  0  0
    6.8291   54.1931   33.5269 H   0  0  0  0  0  0  0  0  0  0  0  0
    9.1293   54.8657   34.0689 H   0  0  0  0  0  0  0  0  0  0  0  0
   11.2240   41.0428   31.8929 H   0  0  0  0  0  0  0  0  0  0  0  0
    9.7472   40.0378   31.9304 H   0  0  0  0  0  0  0  0  0  0  0  0
   11.5927   39.0434   30.5966 H   0  0  0  0  0  0  0  0  0  0  0  0
   10.7003   37.5443   33.1641 H   0  0  0  0  0  0  0  0  0  0  0  0
   14.2051   37.4477   31.5560 H   0  0  0  0  0  0  0  0  0  0  0  0
    9.1374   37.6722   31.5906 H   0  0  0  0  0  0  0  0  0  0  0  0
   12.1305   35.7856   32.5586 H   0  0  0  0  0  0  0  0  0  0  0  0
   12.4606   37.0186   29.9674 H   0  0  0  0  0  0  0  0  0  0  0  0
   12.4327   38.4001   34.8694 H   0  0  0  0  0  0  0  0  0  0  0  0
   17.2666   34.4146   33.1690 H   0  0  0  0  0  0  0  0  0  0  0  0
   15.3754   36.1866   37.9788 H   0  0  0  0  0  0  0  0  0  0  0  0
   16.7634   35.0601   37.7894 H   0  0  0  0  0  0  0  0  0  0  0  0
  1  2  2  0
  1  3  1  0
  3  4  1  0
  4  5  1  0
  6  1  1  0
  7  6  1  0
  6  8  1  0
  8  9  1  0
  9 10  1  0
 10 11  1  0
 11 12  1  0
 12 13  1  0
 13 14  1  0
 13 15  2  0
 14 16  1  0
 16 17  1  0
 17 18  2  0
 19 17  1  0
 18 20  1  0
 21 19  2  0
 19 22  1  0
 20 23  2  0
 23 21  1  0
 22 24  1  0
 22 25  2  0
  4 26  2  0
  4 27  1  0
 28 27  1  0
 28 29  1  0
 29 30  1  0
 29 31  1  0
 30 32  1  0
 31 33  1  0
 31 34  1  0
 34 32  1  0
 32 35  1  0
 34 36  1  0
 37 35  1  0
 38 35  1  0
 39 37  2  0
 37 40  1  0
 41 38  2  0
 42 39  1  0
 40 43  2  0
 40 41  1  0
 44 42  2  0
 44 43  1  0
 43 45  1  0
  6 46  1  6
  7 47  1  0
  7 48  1  0
  8 49  1  0
  8 50  1  0
  9 51  1  0
  9 52  1  0
 10 53  1  0
 10 54  1  0
 11 55  1  0
 11 56  1  0
 12 57  1  0
 16 58  1  0
 16 59  1  0
 18 60  1  0
 20 61  1  0
 21 62  1  0
 23 63  1  0
 28 64  1  0
 28 65  1  0
 29 66  1  0
 31 67  1  0
 32 68  1  0
 33 69  1  0
 34 70  1  0
 36 71  1  0
 38 72  1  0
 42 73  1  0
 45 74  1  0
 45 75  1  0
M  CHG  3   5  -1  22   1  24  -1
M  END
>  <EmbedRMS>  (17) 
0.0748972748313

$$$$

     RDKit          3D

 75 78  0  0  0  0  0  0  0  0999 V2000
    9.4331   42.9369   34.3464 C   0  0  0  0  0  0  0  0  0  0  0  0
   10.4908   43.0334   35.0317 O   0  0  0  0  0  0  0  0  0  0  0  0
    8.8555   41.7107   34.0308 O   0  0  0  0  0  0  0  0  0  0  0  0
    9.4930   40.2145   34.4706 P   0  0  0  0  0  0  0  0  0  0  0  0
    9.7296   40.1728   36.1314 O   0  0  0  0  0  0  0  0  0  0  0  0
    8.7507   44.1354   33.7741 C   0  0  1  0  0  0  0  0  0  0  0  0
    9.2964   45.3827   34.3132 N   0  0  0  0  0  0  0  0  0  0  0  0
    8.8892   44.0535   32.2358 C   0  0  0  0  0  0  0  0  0  0  0  0
    8.2025   45.1833   31.4618 C   0  0  0  0  0  0  0  0  0  0  0  0
    6.6649   45.1047   31.4850 C   0  0  0  0  0  0  0  0  0  0  0  0
    6.0256   46.3219   30.8088 C   0  0  0  0  0  0  0  0  0  0  0  0
    6.5026   47.5638   31.4167 N   0  0  0  0  0  0  0  0  0  0  0  0
    7.2539   48.5327   30.6884 C   0  0  0  0  0  0  0  0  0  0  0  0
    7.6520   49.7069   31.3316 O   0  0  0  0  0  0  0  0  0  0  0  0
    7.5890   48.3143   29.4926 O   0  0  0  0  0  0  0  0  0  0  0  0
    8.4641   50.6937   30.7034 C   0  0  0  0  0  0  0  0  0  0  0  0
    8.8339   51.7579   31.7064 C   0  0  0  0  0  0  0  0  0  0  0  0
    8.4713   53.0913   31.4394 C   0  0  0  0  0  0  0  0  0  0  0  0
    9.4982   51.4504   32.9269 C   0  0  0  0  0  0  0  0  0  0  0  0
    8.7466   54.1029   32.3599 C   0  0  0  0  0  0  0  0  0  0  0  0
    9.7509   52.4845   33.8461 C   0  0  0  0  0  0  0  0  0  0  0  0
    9.9002   50.1094   33.2657 N   0  0  0  0  0  0  0  0  0  0  0  0
    9.3816   53.7997   33.5621 C   0  0  0  0  0  0  0  0  0  0  0  0
    9.9629   49.7245   34.5854 O   0  0  0  0  0  0  0  0  0  0  0  0
   10.3454   49.3341   32.3952 O   0  0  0  0  0  0  0  0  0  0  0  0
    8.5366   39.1384   34.0139 O   0  0  0  0  0  0  0  0  0  0  0  0
   10.9785   40.0883   33.6869 O   0  0  0  0  0  0  0  0  0  0  0  0
   10.7973   40.0895   32.2883 C   0  0  0  0  0  0  0  0  0  0  0  0
   11.5882   38.9234   31.7043 C   0  0  0  0  0  0  0  0  0  0  0  0
   12.9230   38.9440   32.1728 O   0  0  0  0  0  0  0  0  0  0  0  0
   11.0048   37.5703   32.0916 C   0  0  0  0  0  0  0  0  0  0  0  0
   13.3570   37.5960   32.2595 C   0  0  0  0  0  0  0  0  0  0  0  0
    9.9332   37.1986   31.2676 O   0  0  0  0  0  0  0  0  0  0  0  0
   12.1965   36.6751   31.8949 C   0  0  0  0  0  0  0  0  0  0  0  0
   13.8037   37.2979   33.6187 N   0  0  0  0  0  0  0  0  0  0  0  0
   12.2934   36.2389   30.5581 O   0  0  0  0  0  0  0  0  0  0  0  0
   14.7929   36.4726   33.9860 C   0  0  0  0  0  0  0  0  0  0  0  0
   13.2755   37.7304   34.7934 C   0  0  0  0  0  0  0  0  0  0  0  0
   15.6244   35.7585   33.1859 N   0  0  0  0  0  0  0  0  0  0  0  0
   14.8722   36.4406   35.3328 C   0  0  0  0  0  0  0  0  0  0  0  0
   13.9205   37.2262   35.8803 N   0  0  0  0  0  0  0  0  0  0  0  0
   16.5872   34.9923   33.7802 C   0  0  0  0  0  0  0  0  0  0  0  0
   15.8573   35.6715   35.9442 C   0  0  0  0  0  0  0  0  0  0  0  0
   16.7023   34.9584   35.1439 N   0  0  0  0  0  0  0  0  0  0  0  0
   16.0098   35.6384   37.3563 N   0  0  0  0  0  0  0  0  0  0  0  0
    7.6770   44.0714   34.0504 H   0  0  0  0  0  0  0  0  0  0  0  0
   10.3190   45.4420   34.0991 H   0  0  0  0  0  0  0  0  0  0  0  0
    9.1835   45.3827   35.3535 H   0  0  0  0  0  0  0  0  0  0  0  0
    8.4817   43.0858   31.8668 H   0  0  0  0  0  0  0  0  0  0  0  0
    9.9710   44.0691   31.9739 H   0  0  0  0  0  0  0  0  0  0  0  0
    8.5387   45.1382   30.4028 H   0  0  0  0  0  0  0  0  0  0  0  0
    8.5540   46.1520   31.8754 H   0  0  0  0  0  0  0  0  0  0  0  0
    6.3302   44.1796   30.9675 H   0  0  0  0  0  0  0  0  0  0  0  0
    6.3011   45.0646   32.5326 H   0  0  0  0  0  0  0  0  0  0  0  0
    6.2467   46.2893   29.7203 H   0  0  0  0  0  0  0  0  0  0  0  0
    4.9221   46.2653   30.9233 H   0  0  0  0  0  0  0  0  0  0  0  0
    6.2820   47.7497   32.4209 H   0  0  0  0  0  0  0  0  0  0  0  0
    9.3879   50.2324   30.2947 H   0  0  0  0  0  0  0  0  0  0  0  0
    7.9045   51.1256   29.8449 H   0  0  0  0  0  0  0  0  0  0  0  0
    7.9650   53.3514   30.5180 H   0  0  0  0  0  0  0  0  0  0  0  0
    8.4609   55.1241   32.1427 H   0  0  0  0  0  0  0  0  0  0  0  0
   10.2511   52.2742   34.7829 H   0  0  0  0  0  0  0  0  0  0  0  0
    9.5901   54.5861   34.2761 H   0  0  0  0  0  0  0  0  0  0  0  0
   11.2113   41.0390   31.8862 H   0  0  0  0  0  0  0  0  0  0  0  0
    9.7422   40.0186   31.9315 H   0  0  0  0  0  0  0  0  0  0  0  0
   11.5931   39.0396   30.5966 H   0  0  0  0  0  0  0  0  0  0  0  0
   10.6986   37.5585   33.1640 H   0  0  0  0  0  0  0  0  0  0  0  0
   14.2072   37.4492   31.5564 H   0  0  0  0  0  0  0  0  0  0  0  0
    9.5321   36.3881   31.6771 H   0  0  0  0  0  0  0  0  0  0  0  0
   12.1344   35.7838   32.5583 H   0  0  0  0  0  0  0  0  0  0  0  0
   12.4642   37.0179   29.9674 H   0  0  0  0  0  0  0  0  0  0  0  0
   12.4333   38.4005   34.8692 H   0  0  0  0  0  0  0  0  0  0  0  0
   17.2668   34.4144   33.1692 H   0  0  0  0  0  0  0  0  0  0  0  0
   16.7634   35.0600   37.7896 H   0  0  0  0  0  0  0  0  0  0  0  0
   15.3755   36.1866   37.9789 H   0  0  0  0  0  0  0  0  0  0  0  0
  1  2  2  0
  1  3  1  0
  3  4  1  0
  4  5  1  0
  6  1  1  0
  7  6  1  0
  6  8  1  0
  8  9  1  0
  9 10  1  0
 10 11  1  0
 11 12  1  0
 12 13  1  0
 13 14  1  0
 13 15  2  0
 14 16  1  0
 16 17  1  0
 17 18  2  0
 19 17  1  0
 18 20  1  0
 21 19  2  0
 19 22  1  0
 20 23  2  0
 23 21  1  0
 22 24  1  0
 22 25  2  0
  4 26  2  0
  4 27  1  0
 28 27  1  0
 28 29  1  0
 29 30  1  0
 29 31  1  0
 30 32  1  0
 31 33  1  0
 31 34  1  0
 34 32  1  0
 32 35  1  0
 34 36  1  0
 37 35  1  0
 38 35  1  0
 39 37  2  0
 37 40  1  0
 41 38  2  0
 42 39  1  0
 40 43  2  0
 40 41  1  0
 44 42  2  0
 44 43  1  0
 43 45  1  0
  6 46  1  6
  7 47  1  0
  7 48  1  0
  8 49  1  0
  8 50  1  0
  9 51  1  0
  9 52  1  0
 10 53  1  0
 10 54  1  0
 11 55  1  0
 11 56  1  0
 12 57  1  0
 16 58  1  0
 16 59  1  0
 18 60  1  0
 20 61  1  0
 21 62  1  0
 23 63  1  0
 28 64  1  0
 28 65  1  0
 29 66  1  0
 31 67  1  0
 32 68  1  0
 33 69  1  0
 34 70  1  0
 36 71  1  0
 38 72  1  0
 42 73  1  0
 45 74  1  0
 45 75  1  0
M  CHG  3   5  -1  22   1  24  -1
M  END
>  <EmbedRMS>  (18) 
0.0761356140409

$$$$

     RDKit          3D

 75 78  0  0  0  0  0  0  0  0999 V2000
    9.4299   42.9396   34.3434 C   0  0  0  0  0  0  0  0  0  0  0  0
   10.4912   43.0381   35.0234 O   0  0  0  0  0  0  0  0  0  0  0  0
    8.8549   41.7117   34.0283 O   0  0  0  0  0  0  0  0  0  0  0  0
    9.4942   40.2156   34.4675 P   0  0  0  0  0  0  0  0  0  0  0  0
    9.7308   40.1740   36.1287 O   0  0  0  0  0  0  0  0  0  0  0  0
    8.7411   44.1379   33.7787 C   0  0  1  0  0  0  0  0  0  0  0  0
    9.3013   45.3721   34.3326 N   0  0  0  0  0  0  0  0  0  0  0  0
    8.8962   44.0594   32.2400 C   0  0  0  0  0  0  0  0  0  0  0  0
    8.2029   45.1691   31.4403 C   0  0  0  0  0  0  0  0  0  0  0  0
    6.6655   45.1057   31.4887 C   0  0  0  0  0  0  0  0  0  0  0  0
    6.0288   46.3227   30.8101 C   0  0  0  0  0  0  0  0  0  0  0  0
    6.5057   47.5634   31.4215 N   0  0  0  0  0  0  0  0  0  0  0  0
    7.2503   48.5404   30.6839 C   0  0  0  0  0  0  0  0  0  0  0  0
    7.6432   49.7522   31.2643 O   0  0  0  0  0  0  0  0  0  0  0  0
    7.5874   48.3086   29.4936 O   0  0  0  0  0  0  0  0  0  0  0  0
    7.3605   50.1180   32.6124 C   0  0  0  0  0  0  0  0  0  0  0  0
    7.9787   51.4618   32.9132 C   0  0  0  0  0  0  0  0  0  0  0  0
    9.3378   51.6536   32.6037 C   0  0  0  0  0  0  0  0  0  0  0  0
    7.2377   52.5391   33.4654 C   0  0  0  0  0  0  0  0  0  0  0  0
    9.9427   52.8977   32.7891 C   0  0  0  0  0  0  0  0  0  0  0  0
    7.8591   53.7902   33.6264 C   0  0  0  0  0  0  0  0  0  0  0  0
    5.8792   52.3755   33.9004 N   0  0  0  0  0  0  0  0  0  0  0  0
    9.2018   53.9669   33.2893 C   0  0  0  0  0  0  0  0  0  0  0  0
    5.5481   51.3364   34.7393 O   0  0  0  0  0  0  0  0  0  0  0  0
    5.0528   53.2945   33.7239 O   0  0  0  0  0  0  0  0  0  0  0  0
    8.5374   39.1394   34.0126 O   0  0  0  0  0  0  0  0  0  0  0  0
   10.9801   40.0887   33.6832 O   0  0  0  0  0  0  0  0  0  0  0  0
   10.8020   40.0896   32.2834 C   0  0  0  0  0  0  0  0  0  0  0  0
   11.5900   38.9179   31.7006 C   0  0  0  0  0  0  0  0  0  0  0  0
   12.9224   38.9391   32.1711 O   0  0  0  0  0  0  0  0  0  0  0  0
   11.0052   37.5677   32.0966 C   0  0  0  0  0  0  0  0  0  0  0  0
   13.3518   37.5910   32.2610 C   0  0  0  0  0  0  0  0  0  0  0  0
    9.9381   37.1795   31.2733 O   0  0  0  0  0  0  0  0  0  0  0  0
   12.1912   36.6690   31.9043 C   0  0  0  0  0  0  0  0  0  0  0  0
   13.8027   37.2968   33.6192 N   0  0  0  0  0  0  0  0  0  0  0  0
   12.2877   36.2854   30.5568 O   0  0  0  0  0  0  0  0  0  0  0  0
   14.7928   36.4724   33.9861 C   0  0  0  0  0  0  0  0  0  0  0  0
   13.2751   37.7297   34.7941 C   0  0  0  0  0  0  0  0  0  0  0  0
   15.6239   35.7581   33.1859 N   0  0  0  0  0  0  0  0  0  0  0  0
   14.8726   36.4408   35.3329 C   0  0  0  0  0  0  0  0  0  0  0  0
   13.9209   37.2262   35.8807 N   0  0  0  0  0  0  0  0  0  0  0  0
   16.5870   34.9922   33.7801 C   0  0  0  0  0  0  0  0  0  0  0  0
   15.8576   35.6716   35.9442 C   0  0  0  0  0  0  0  0  0  0  0  0
   16.7024   34.9584   35.1438 N   0  0  0  0  0  0  0  0  0  0  0  0
   16.0101   35.6383   37.3563 N   0  0  0  0  0  0  0  0  0  0  0  0
    7.6666   44.0655   34.0546 H   0  0  0  0  0  0  0  0  0  0  0  0
    9.2335   45.3276   35.3760 H   0  0  0  0  0  0  0  0  0  0  0  0
    8.6806   46.1672   34.0591 H   0  0  0  0  0  0  0  0  0  0  0  0
    9.9809   44.0908   31.9917 H   0  0  0  0  0  0  0  0  0  0  0  0
    8.5083   43.0842   31.8695 H   0  0  0  0  0  0  0  0  0  0  0  0
    8.5758   46.1517   31.7935 H   0  0  0  0  0  0  0  0  0  0  0  0
    8.5175   45.0771   30.3775 H   0  0  0  0  0  0  0  0  0  0  0  0
    6.3166   45.0812   32.5418 H   0  0  0  0  0  0  0  0  0  0  0  0
    6.3140   44.1782   30.9870 H   0  0  0  0  0  0  0  0  0  0  0  0
    6.2509   46.2895   29.7220 H   0  0  0  0  0  0  0  0  0  0  0  0
    4.9250   46.2669   30.9234 H   0  0  0  0  0  0  0  0  0  0  0  0
    6.2738   47.7259   32.4260 H   0  0  0  0  0  0  0  0  0  0  0  0
    7.8015   49.3658   33.3017 H   0  0  0  0  0  0  0  0  0  0  0  0
    6.2607   50.1294   32.7450 H   0  0  0  0  0  0  0  0  0  0  0  0
    9.9273   50.8394   32.1996 H   0  0  0  0  0  0  0  0  0  0  0  0
   10.9865   53.0344   32.5372 H   0  0  0  0  0  0  0  0  0  0  0  0
    7.3075   54.6245   34.0413 H   0  0  0  0  0  0  0  0  0  0  0  0
    9.6720   54.9319   33.4286 H   0  0  0  0  0  0  0  0  0  0  0  0
    9.7471   40.0309   31.9253 H   0  0  0  0  0  0  0  0  0  0  0  0
   11.2238   41.0357   31.8820 H   0  0  0  0  0  0  0  0  0  0  0  0
   11.6000   39.0158   30.5904 H   0  0  0  0  0  0  0  0  0  0  0  0
   10.7034   37.5451   33.1703 H   0  0  0  0  0  0  0  0  0  0  0  0
   14.1992   37.4424   31.5548 H   0  0  0  0  0  0  0  0  0  0  0  0
    9.1370   37.6634   31.6025 H   0  0  0  0  0  0  0  0  0  0  0  0
   12.1204   35.7712   32.5637 H   0  0  0  0  0  0  0  0  0  0  0  0
   12.9457   35.5426   30.5221 H   0  0  0  0  0  0  0  0  0  0  0  0
   12.4322   38.3989   34.8700 H   0  0  0  0  0  0  0  0  0  0  0  0
   17.2664   34.4142   33.1690 H   0  0  0  0  0  0  0  0  0  0  0  0
   15.3759   36.1865   37.9790 H   0  0  0  0  0  0  0  0  0  0  0  0
   16.7636   35.0598   37.7895 H   0  0  0  0  0  0  0  0  0  0  0  0
  1  2  2  0
  1  3  1  0
  3  4  1  0
  4  5  1  0
  6  1  1  0
  7  6  1  0
  6  8  1  0
  8  9  1  0
  9 10  1  0
 10 11  1  0
 11 12  1  0
 12 13  1  0
 13 14  1  0
 13 15  2  0
 14 16  1  0
 16 17  1  0
 17 18  2  0
 19 17  1  0
 18 20  1  0
 21 19  2  0
 19 22  1  0
 20 23  2  0
 23 21  1  0
 22 24  1  0
 22 25  2  0
  4 26  2  0
  4 27  1  0
 28 27  1  0
 28 29  1  0
 29 30  1  0
 29 31  1  0
 30 32  1  0
 31 33  1  0
 31 34  1  0
 34 32  1  0
 32 35  1  0
 34 36  1  0
 37 35  1  0
 38 35  1  0
 39 37  2  0
 37 40  1  0
 41 38  2  0
 42 39  1  0
 40 43  2  0
 40 41  1  0
 44 42  2  0
 44 43  1  0
 43 45  1  0
  6 46  1  6
  7 47  1  0
  7 48  1  0
  8 49  1  0
  8 50  1  0
  9 51  1  0
  9 52  1  0
 10 53  1  0
 10 54  1  0
 11 55  1  0
 11 56  1  0
 12 57  1  0
 16 58  1  0
 16 59  1  0
 18 60  1  0
 20 61  1  0
 21 62  1  0
 23 63  1  0
 28 64  1  0
 28 65  1  0
 29 66  1  0
 31 67  1  0
 32 68  1  0
 33 69  1  0
 34 70  1  0
 36 71  1  0
 38 72  1  0
 42 73  1  0
 45 74  1  0
 45 75  1  0
M  CHG  3   5  -1  22   1  24  -1
M  END
>  <EmbedRMS>  (19) 
0.0735110021635

$$$$

     RDKit          3D

 75 78  0  0  0  0  0  0  0  0999 V2000
    9.4333   42.9369   34.3460 C   0  0  0  0  0  0  0  0  0  0  0  0
   10.4908   43.0333   35.0318 O   0  0  0  0  0  0  0  0  0  0  0  0
    8.8563   41.7107   34.0295 O   0  0  0  0  0  0  0  0  0  0  0  0
    9.4945   40.2144   34.4679 P   0  0  0  0  0  0  0  0  0  0  0  0
    9.7308   40.1727   36.1291 O   0  0  0  0  0  0  0  0  0  0  0  0
    8.7507   44.1354   33.7741 C   0  0  1  0  0  0  0  0  0  0  0  0
    9.2963   45.3827   34.3133 N   0  0  0  0  0  0  0  0  0  0  0  0
    8.8892   44.0536   32.2358 C   0  0  0  0  0  0  0  0  0  0  0  0
    8.2024   45.1834   31.4618 C   0  0  0  0  0  0  0  0  0  0  0  0
    6.6649   45.1047   31.4850 C   0  0  0  0  0  0  0  0  0  0  0  0
    6.0256   46.3219   30.8088 C   0  0  0  0  0  0  0  0  0  0  0  0
    6.5026   47.5638   31.4167 N   0  0  0  0  0  0  0  0  0  0  0  0
    7.2539   48.5327   30.6884 C   0  0  0  0  0  0  0  0  0  0  0  0
    7.6520   49.7069   31.3317 O   0  0  0  0  0  0  0  0  0  0  0  0
    7.5889   48.3143   29.4926 O   0  0  0  0  0  0  0  0  0  0  0  0
    8.4643   50.6937   30.7034 C   0  0  0  0  0  0  0  0  0  0  0  0
    8.8341   51.7578   31.7064 C   0  0  0  0  0  0  0  0  0  0  0  0
    8.4716   53.0912   31.4393 C   0  0  0  0  0  0  0  0  0  0  0  0
    9.4983   51.4504   32.9269 C   0  0  0  0  0  0  0  0  0  0  0  0
    8.7470   54.1029   32.3598 C   0  0  0  0  0  0  0  0  0  0  0  0
    9.7511   52.4845   33.8461 C   0  0  0  0  0  0  0  0  0  0  0  0
    9.9001   50.1093   33.2659 N   0  0  0  0  0  0  0  0  0  0  0  0
    9.3819   53.7997   33.5620 C   0  0  0  0  0  0  0  0  0  0  0  0
    9.9627   49.7245   34.5856 O   0  0  0  0  0  0  0  0  0  0  0  0
   10.3454   49.3340   32.3954 O   0  0  0  0  0  0  0  0  0  0  0  0
    8.5372   39.1388   34.0124 O   0  0  0  0  0  0  0  0  0  0  0  0
   10.9804   40.0881   33.6837 O   0  0  0  0  0  0  0  0  0  0  0  0
   10.8025   40.0900   32.2838 C   0  0  0  0  0  0  0  0  0  0  0  0
   11.5888   38.9174   31.7007 C   0  0  0  0  0  0  0  0  0  0  0  0
   12.9219   38.9373   32.1692 O   0  0  0  0  0  0  0  0  0  0  0  0
   11.0028   37.5682   32.0980 C   0  0  0  0  0  0  0  0  0  0  0  0
   13.3496   37.5885   32.2601 C   0  0  0  0  0  0  0  0  0  0  0  0
    9.9343   37.1822   31.2756 O   0  0  0  0  0  0  0  0  0  0  0  0
   12.1891   36.6677   31.9049 C   0  0  0  0  0  0  0  0  0  0  0  0
   13.8025   37.2965   33.6186 N   0  0  0  0  0  0  0  0  0  0  0  0
   12.2991   36.2867   30.5567 O   0  0  0  0  0  0  0  0  0  0  0  0
   14.7929   36.4725   33.9858 C   0  0  0  0  0  0  0  0  0  0  0  0
   13.2749   37.7294   34.7935 C   0  0  0  0  0  0  0  0  0  0  0  0
   15.6240   35.7580   33.1858 N   0  0  0  0  0  0  0  0  0  0  0  0
   14.8727   36.4411   35.3327 C   0  0  0  0  0  0  0  0  0  0  0  0
   13.9208   37.2263   35.8803 N   0  0  0  0  0  0  0  0  0  0  0  0
   16.5871   34.9921   33.7801 C   0  0  0  0  0  0  0  0  0  0  0  0
   15.8576   35.6718   35.9441 C   0  0  0  0  0  0  0  0  0  0  0  0
   16.7024   34.9584   35.1438 N   0  0  0  0  0  0  0  0  0  0  0  0
   16.0099   35.6384   37.3562 N   0  0  0  0  0  0  0  0  0  0  0  0
    7.6771   44.0712   34.0504 H   0  0  0  0  0  0  0  0  0  0  0  0
    9.1835   45.3826   35.3535 H   0  0  0  0  0  0  0  0  0  0  0  0
   10.3190   45.4421   34.0991 H   0  0  0  0  0  0  0  0  0  0  0  0
    8.4817   43.0859   31.8666 H   0  0  0  0  0  0  0  0  0  0  0  0
    9.9710   44.0693   31.9738 H   0  0  0  0  0  0  0  0  0  0  0  0
    8.5540   46.1521   31.8755 H   0  0  0  0  0  0  0  0  0  0  0  0
    8.5387   45.1384   30.4028 H   0  0  0  0  0  0  0  0  0  0  0  0
    6.3302   44.1796   30.9675 H   0  0  0  0  0  0  0  0  0  0  0  0
    6.3011   45.0646   32.5326 H   0  0  0  0  0  0  0  0  0  0  0  0
    4.9221   46.2653   30.9233 H   0  0  0  0  0  0  0  0  0  0  0  0
    6.2467   46.2893   29.7203 H   0  0  0  0  0  0  0  0  0  0  0  0
    6.2820   47.7497   32.4209 H   0  0  0  0  0  0  0  0  0  0  0  0
    7.9048   51.1255   29.8449 H   0  0  0  0  0  0  0  0  0  0  0  0
    9.3881   50.2323   30.2948 H   0  0  0  0  0  0  0  0  0  0  0  0
    7.9654   53.3513   30.5178 H   0  0  0  0  0  0  0  0  0  0  0  0
    8.4614   55.1241   32.1424 H   0  0  0  0  0  0  0  0  0  0  0  0
   10.2512   52.2742   34.7829 H   0  0  0  0  0  0  0  0  0  0  0  0
    9.5904   54.5861   34.2759 H   0  0  0  0  0  0  0  0  0  0  0  0
    9.7476   40.0332   31.9256 H   0  0  0  0  0  0  0  0  0  0  0  0
   11.2258   41.0357   31.8830 H   0  0  0  0  0  0  0  0  0  0  0  0
   11.5974   39.0148   30.5904 H   0  0  0  0  0  0  0  0  0  0  0  0
   10.7023   37.5455   33.1719 H   0  0  0  0  0  0  0  0  0  0  0  0
   14.1957   37.4366   31.5528 H   0  0  0  0  0  0  0  0  0  0  0  0
    9.1340   37.6658   31.6069 H   0  0  0  0  0  0  0  0  0  0  0  0
   12.1381   35.7717   32.5697 H   0  0  0  0  0  0  0  0  0  0  0  0
   11.7707   35.4530   30.4496 H   0  0  0  0  0  0  0  0  0  0  0  0
   12.4314   38.3980   34.8694 H   0  0  0  0  0  0  0  0  0  0  0  0
   17.2665   34.4140   33.1691 H   0  0  0  0  0  0  0  0  0  0  0  0
   15.3757   36.1868   37.9789 H   0  0  0  0  0  0  0  0  0  0  0  0
   16.7633   35.0598   37.7895 H   0  0  0  0  0  0  0  0  0  0  0  0
  1  2  2  0
  1  3  1  0
  3  4  1  0
  4  5  1  0
  6  1  1  0
  7  6  1  0
  6  8  1  0
  8  9  1  0
  9 10  1  0
 10 11  1  0
 11 12  1  0
 12 13  1  0
 13 14  1  0
 13 15  2  0
 14 16  1  0
 16 17  1  0
 17 18  2  0
 19 17  1  0
 18 20  1  0
 21 19  2  0
 19 22  1  0
 20 23  2  0
 23 21  1  0
 22 24  1  0
 22 25  2  0
  4 26  2  0
  4 27  1  0
 28 27  1  0
 28 29  1  0
 29 30  1  0
 29 31  1  0
 30 32  1  0
 31 33  1  0
 31 34  1  0
 34 32  1  0
 32 35  1  0
 34 36  1  0
 37 35  1  0
 38 35  1  0
 39 37  2  0
 37 40  1  0
 41 38  2  0
 42 39  1  0
 40 43  2  0
 40 41  1  0
 44 42  2  0
 44 43  1  0
 43 45  1  0
  6 46  1  6
  7 47  1  0
  7 48  1  0
  8 49  1  0
  8 50  1  0
  9 51  1  0
  9 52  1  0
 10 53  1  0
 10 54  1  0
 11 55  1  0
 11 56  1  0
 12 57  1  0
 16 58  1  0
 16 59  1  0
 18 60  1  0
 20 61  1  0
 21 62  1  0
 23 63  1  0
 28 64  1  0
 28 65  1  0
 29 66  1  0
 31 67  1  0
 32 68  1  0
 33 69  1  0
 34 70  1  0
 36 71  1  0
 38 72  1  0
 42 73  1  0
 45 74  1  0
 45 75  1  0
M  CHG  3   5  -1  22   1  24  -1
M  END
>  <EmbedRMS>  (20) 
0.0744722723827

$$$$

     RDKit          3D

 75 78  0  0  0  0  0  0  0  0999 V2000
    9.4332   42.9365   34.3464 C   0  0  0  0  0  0  0  0  0  0  0  0
   10.4908   43.0330   35.0319 O   0  0  0  0  0  0  0  0  0  0  0  0
    8.8559   41.7104   34.0304 O   0  0  0  0  0  0  0  0  0  0  0  0
    9.4931   40.2141   34.4703 P   0  0  0  0  0  0  0  0  0  0  0  0
    9.7293   40.1727   36.1313 O   0  0  0  0  0  0  0  0  0  0  0  0
    8.7507   44.1348   33.7741 C   0  0  1  0  0  0  0  0  0  0  0  0
    9.2963   45.3821   34.3133 N   0  0  0  0  0  0  0  0  0  0  0  0
    8.8893   44.0527   32.2359 C   0  0  0  0  0  0  0  0  0  0  0  0
    8.2028   45.1823   31.4615 C   0  0  0  0  0  0  0  0  0  0  0  0
    6.6654   45.1046   31.4855 C   0  0  0  0  0  0  0  0  0  0  0  0
    6.0270   46.3225   30.8104 C   0  0  0  0  0  0  0  0  0  0  0  0
    6.5061   47.5640   31.4180 N   0  0  0  0  0  0  0  0  0  0  0  0
    7.2437   48.5392   30.6836 C   0  0  0  0  0  0  0  0  0  0  0  0
    7.5943   49.7397   31.3068 O   0  0  0  0  0  0  0  0  0  0  0  0
    7.5934   48.3117   29.4937 O   0  0  0  0  0  0  0  0  0  0  0  0
    8.3463   50.7574   30.6514 C   0  0  0  0  0  0  0  0  0  0  0  0
    8.5202   51.9358   31.5783 C   0  0  0  0  0  0  0  0  0  0  0  0
    7.3746   52.4727   32.1939 C   0  0  0  0  0  0  0  0  0  0  0  0
    9.7901   52.4961   31.8750 C   0  0  0  0  0  0  0  0  0  0  0  0
    7.4831   53.5112   33.1200 C   0  0  0  0  0  0  0  0  0  0  0  0
    9.8813   53.5287   32.8251 C   0  0  0  0  0  0  0  0  0  0  0  0
   10.9820   52.0613   31.2029 N   0  0  0  0  0  0  0  0  0  0  0  0
    8.7353   54.0311   33.4430 C   0  0  0  0  0  0  0  0  0  0  0  0
   11.0108   52.0006   29.8287 O   0  0  0  0  0  0  0  0  0  0  0  0
   12.0561   51.9729   31.8328 O   0  0  0  0  0  0  0  0  0  0  0  0
    8.5366   39.1382   34.0136 O   0  0  0  0  0  0  0  0  0  0  0  0
   10.9788   40.0866   33.6873 O   0  0  0  0  0  0  0  0  0  0  0  0
   10.7993   40.0944   32.2886 C   0  0  0  0  0  0  0  0  0  0  0  0
   11.5957   38.9351   31.6994 C   0  0  0  0  0  0  0  0  0  0  0  0
   12.9257   38.9477   32.1798 O   0  0  0  0  0  0  0  0  0  0  0  0
   11.0070   37.5757   32.0732 C   0  0  0  0  0  0  0  0  0  0  0  0
   13.3571   37.5979   32.2612 C   0  0  0  0  0  0  0  0  0  0  0  0
    9.9093   37.1807   31.2875 O   0  0  0  0  0  0  0  0  0  0  0  0
   12.1967   36.6763   31.8894 C   0  0  0  0  0  0  0  0  0  0  0  0
   13.8018   37.2956   33.6197 N   0  0  0  0  0  0  0  0  0  0  0  0
   12.3049   36.2360   30.5555 O   0  0  0  0  0  0  0  0  0  0  0  0
   14.7922   36.4716   33.9864 C   0  0  0  0  0  0  0  0  0  0  0  0
   13.2747   37.7291   34.7944 C   0  0  0  0  0  0  0  0  0  0  0  0
   15.6240   35.7581   33.1861 N   0  0  0  0  0  0  0  0  0  0  0  0
   14.8721   36.4401   35.3331 C   0  0  0  0  0  0  0  0  0  0  0  0
   13.9206   37.2257   35.8810 N   0  0  0  0  0  0  0  0  0  0  0  0
   16.5873   34.9924   33.7802 C   0  0  0  0  0  0  0  0  0  0  0  0
   15.8576   35.6714   35.9444 C   0  0  0  0  0  0  0  0  0  0  0  0
   16.7026   34.9585   35.1439 N   0  0  0  0  0  0  0  0  0  0  0  0
   16.0102   35.6382   37.3564 N   0  0  0  0  0  0  0  0  0  0  0  0
    7.6771   44.0707   34.0504 H   0  0  0  0  0  0  0  0  0  0  0  0
   10.3192   45.4407   34.1000 H   0  0  0  0  0  0  0  0  0  0  0  0
    9.1827   45.3821   35.3535 H   0  0  0  0  0  0  0  0  0  0  0  0
    8.4817   43.0850   31.8669 H   0  0  0  0  0  0  0  0  0  0  0  0
    9.9711   44.0681   31.9740 H   0  0  0  0  0  0  0  0  0  0  0  0
    8.5385   45.1363   30.4023 H   0  0  0  0  0  0  0  0  0  0  0  0
    8.5552   46.1510   31.8742 H   0  0  0  0  0  0  0  0  0  0  0  0
    6.3297   44.1799   30.9678 H   0  0  0  0  0  0  0  0  0  0  0  0
    6.3020   45.0643   32.5333 H   0  0  0  0  0  0  0  0  0  0  0  0
    4.9235   46.2671   30.9263 H   0  0  0  0  0  0  0  0  0  0  0  0
    6.2466   46.2897   29.7217 H   0  0  0  0  0  0  0  0  0  0  0  0
    6.2819   47.7530   32.4208 H   0  0  0  0  0  0  0  0  0  0  0  0
    9.3175   50.3239   30.3406 H   0  0  0  0  0  0  0  0  0  0  0  0
    7.8011   51.0944   29.7434 H   0  0  0  0  0  0  0  0  0  0  0  0
    6.3937   52.0718   31.9686 H   0  0  0  0  0  0  0  0  0  0  0  0
    6.5946   53.9082   33.5940 H   0  0  0  0  0  0  0  0  0  0  0  0
   10.8426   53.9644   33.0673 H   0  0  0  0  0  0  0  0  0  0  0  0
    8.8174   54.8337   34.1645 H   0  0  0  0  0  0  0  0  0  0  0  0
   11.2094   41.0479   31.8921 H   0  0  0  0  0  0  0  0  0  0  0  0
    9.7448   40.0200   31.9304 H   0  0  0  0  0  0  0  0  0  0  0  0
   11.6206   39.0685   30.5942 H   0  0  0  0  0  0  0  0  0  0  0  0
   10.7059   37.5563   33.1438 H   0  0  0  0  0  0  0  0  0  0  0  0
   14.2095   37.4543   31.5601 H   0  0  0  0  0  0  0  0  0  0  0  0
   10.0865   37.4209   30.3413 H   0  0  0  0  0  0  0  0  0  0  0  0
   12.1276   35.7872   32.5549 H   0  0  0  0  0  0  0  0  0  0  0  0
   12.5031   37.0109   29.9672 H   0  0  0  0  0  0  0  0  0  0  0  0
   12.4328   38.3996   34.8703 H   0  0  0  0  0  0  0  0  0  0  0  0
   17.2670   34.4149   33.1691 H   0  0  0  0  0  0  0  0  0  0  0  0
   15.3758   36.1862   37.9792 H   0  0  0  0  0  0  0  0  0  0  0  0
   16.7640   35.0601   37.7896 H   0  0  0  0  0  0  0  0  0  0  0  0
  1  2  2  0
  1  3  1  0
  3  4  1  0
  4  5  1  0
  6  1  1  0
  7  6  1  0
  6  8  1  0
  8  9  1  0
  9 10  1  0
 10 11  1  0
 11 12  1  0
 12 13  1  0
 13 14  1  0
 13 15  2  0
 14 16  1  0
 16 17  1  0
 17 18  2  0
 19 17  1  0
 18 20  1  0
 21 19  2  0
 19 22  1  0
 20 23  2  0
 23 21  1  0
 22 24  1  0
 22 25  2  0
  4 26  2  0
  4 27  1  0
 28 27  1  0
 28 29  1  0
 29 30  1  0
 29 31  1  0
 30 32  1  0
 31 33  1  0
 31 34  1  0
 34 32  1  0
 32 35  1  0
 34 36  1  0
 37 35  1  0
 38 35  1  0
 39 37  2  0
 37 40  1  0
 41 38  2  0
 42 39  1  0
 40 43  2  0
 40 41  1  0
 44 42  2  0
 44 43  1  0
 43 45  1  0
  6 46  1  6
  7 47  1  0
  7 48  1  0
  8 49  1  0
  8 50  1  0
  9 51  1  0
  9 52  1  0
 10 53  1  0
 10 54  1  0
 11 55  1  0
 11 56  1  0
 12 57  1  0
 16 58  1  0
 16 59  1  0
 18 60  1  0
 20 61  1  0
 21 62  1  0
 23 63  1  0
 28 64  1  0
 28 65  1  0
 29 66  1  0
 31 67  1  0
 32 68  1  0
 33 69  1  0
 34 70  1  0
 36 71  1  0
 38 72  1  0
 42 73  1  0
 45 74  1  0
 45 75  1  0
M  CHG  3   5  -1  22   1  24  -1
M  END
>  <EmbedRMS>  (21) 
0.0761824587837

$$$$

     RDKit          3D

 75 78  0  0  0  0  0  0  0  0999 V2000
    9.4333   42.9365   34.3461 C   0  0  0  0  0  0  0  0  0  0  0  0
   10.4907   43.0330   35.0319 O   0  0  0  0  0  0  0  0  0  0  0  0
    8.8563   41.7104   34.0296 O   0  0  0  0  0  0  0  0  0  0  0  0
    9.4944   40.2141   34.4680 P   0  0  0  0  0  0  0  0  0  0  0  0
    9.7309   40.1726   36.1291 O   0  0  0  0  0  0  0  0  0  0  0  0
    8.7506   44.1348   33.7741 C   0  0  1  0  0  0  0  0  0  0  0  0
    9.2963   45.3820   34.3133 N   0  0  0  0  0  0  0  0  0  0  0  0
    8.8893   44.0528   32.2358 C   0  0  0  0  0  0  0  0  0  0  0  0
    8.2028   45.1823   31.4615 C   0  0  0  0  0  0  0  0  0  0  0  0
    6.6653   45.1046   31.4855 C   0  0  0  0  0  0  0  0  0  0  0  0
    6.0270   46.3226   30.8105 C   0  0  0  0  0  0  0  0  0  0  0  0
    6.5063   47.5640   31.4180 N   0  0  0  0  0  0  0  0  0  0  0  0
    7.2435   48.5392   30.6835 C   0  0  0  0  0  0  0  0  0  0  0  0
    7.5936   49.7400   31.3064 O   0  0  0  0  0  0  0  0  0  0  0  0
    7.5934   48.3117   29.4937 O   0  0  0  0  0  0  0  0  0  0  0  0
    8.3435   50.7593   30.6493 C   0  0  0  0  0  0  0  0  0  0  0  0
    8.5790   51.9503   31.5532 C   0  0  0  0  0  0  0  0  0  0  0  0
    7.7853   52.1310   32.7052 C   0  0  0  0  0  0  0  0  0  0  0  0
    9.6004   52.8962   31.2667 C   0  0  0  0  0  0  0  0  0  0  0  0
    8.0202   53.1975   33.5738 C   0  0  0  0  0  0  0  0  0  0  0  0
    9.8297   53.9542   32.1657 C   0  0  0  0  0  0  0  0  0  0  0  0
   10.4118   52.7989   30.0814 N   0  0  0  0  0  0  0  0  0  0  0  0
    9.0450   54.1024   33.3090 C   0  0  0  0  0  0  0  0  0  0  0  0
    9.8551   52.4289   28.8790 O   0  0  0  0  0  0  0  0  0  0  0  0
   11.5907   53.2099   30.0944 O   0  0  0  0  0  0  0  0  0  0  0  0
    8.5371   39.1386   34.0125 O   0  0  0  0  0  0  0  0  0  0  0  0
   10.9802   40.0879   33.6835 O   0  0  0  0  0  0  0  0  0  0  0  0
   10.8020   40.0894   32.2837 C   0  0  0  0  0  0  0  0  0  0  0  0
   11.5900   38.9178   31.7006 C   0  0  0  0  0  0  0  0  0  0  0  0
   12.9224   38.9390   32.1711 O   0  0  0  0  0  0  0  0  0  0  0  0
   11.0052   37.5676   32.0966 C   0  0  0  0  0  0  0  0  0  0  0  0
   13.3518   37.5909   32.2610 C   0  0  0  0  0  0  0  0  0  0  0  0
    9.9381   37.1795   31.2732 O   0  0  0  0  0  0  0  0  0  0  0  0
   12.1912   36.6689   31.9042 C   0  0  0  0  0  0  0  0  0  0  0  0
   13.8027   37.2968   33.6192 N   0  0  0  0  0  0  0  0  0  0  0  0
   12.2877   36.2853   30.5567 O   0  0  0  0  0  0  0  0  0  0  0  0
   14.7928   36.4724   33.9861 C   0  0  0  0  0  0  0  0  0  0  0  0
   13.2751   37.7297   34.7941 C   0  0  0  0  0  0  0  0  0  0  0  0
   15.6239   35.7581   33.1859 N   0  0  0  0  0  0  0  0  0  0  0  0
   14.8726   36.4408   35.3329 C   0  0  0  0  0  0  0  0  0  0  0  0
   13.9209   37.2262   35.8807 N   0  0  0  0  0  0  0  0  0  0  0  0
   16.5871   34.9921   33.7801 C   0  0  0  0  0  0  0  0  0  0  0  0
   15.8576   35.6716   35.9442 C   0  0  0  0  0  0  0  0  0  0  0  0
   16.7024   34.9584   35.1438 N   0  0  0  0  0  0  0  0  0  0  0  0
   16.0101   35.6383   37.3563 N   0  0  0  0  0  0  0  0  0  0  0  0
    7.6770   44.0706   34.0504 H   0  0  0  0  0  0  0  0  0  0  0  0
   10.3192   45.4407   34.1000 H   0  0  0  0  0  0  0  0  0  0  0  0
    9.1827   45.3820   35.3535 H   0  0  0  0  0  0  0  0  0  0  0  0
    9.9711   44.0682   31.9739 H   0  0  0  0  0  0  0  0  0  0  0  0
    8.4817   43.0851   31.8668 H   0  0  0  0  0  0  0  0  0  0  0  0
    8.5552   46.1510   31.8742 H   0  0  0  0  0  0  0  0  0  0  0  0
    8.5384   45.1363   30.4022 H   0  0  0  0  0  0  0  0  0  0  0  0
    6.3297   44.1799   30.9678 H   0  0  0  0  0  0  0  0  0  0  0  0
    6.3020   45.0643   32.5334 H   0  0  0  0  0  0  0  0  0  0  0  0
    6.2464   46.2897   29.7217 H   0  0  0  0  0  0  0  0  0  0  0  0
    4.9235   46.2672   30.9266 H   0  0  0  0  0  0  0  0  0  0  0  0
    6.2821   47.7531   32.4209 H   0  0  0  0  0  0  0  0  0  0  0  0
    9.3230   50.3275   30.3490 H   0  0  0  0  0  0  0  0  0  0  0  0
    7.7950   51.0949   29.7431 H   0  0  0  0  0  0  0  0  0  0  0  0
    6.9807   51.4470   32.9422 H   0  0  0  0  0  0  0  0  0  0  0  0
    7.4066   53.3205   34.4571 H   0  0  0  0  0  0  0  0  0  0  0  0
   10.6081   54.6807   31.9691 H   0  0  0  0  0  0  0  0  0  0  0  0
    9.2264   54.9267   33.9866 H   0  0  0  0  0  0  0  0  0  0  0  0
    9.7472   40.0309   31.9256 H   0  0  0  0  0  0  0  0  0  0  0  0
   11.2239   41.0357   31.8826 H   0  0  0  0  0  0  0  0  0  0  0  0
   11.5999   39.0159   30.5904 H   0  0  0  0  0  0  0  0  0  0  0  0
   10.7034   37.5449   33.1702 H   0  0  0  0  0  0  0  0  0  0  0  0
   14.1993   37.4424   31.5548 H   0  0  0  0  0  0  0  0  0  0  0  0
    9.1370   37.6634   31.6024 H   0  0  0  0  0  0  0  0  0  0  0  0
   12.1204   35.7712   32.5636 H   0  0  0  0  0  0  0  0  0  0  0  0
   12.9457   35.5426   30.5221 H   0  0  0  0  0  0  0  0  0  0  0  0
   12.4322   38.3989   34.8700 H   0  0  0  0  0  0  0  0  0  0  0  0
   17.2664   34.4142   33.1690 H   0  0  0  0  0  0  0  0  0  0  0  0
   16.7636   35.0598   37.7895 H   0  0  0  0  0  0  0  0  0  0  0  0
   15.3759   36.1865   37.9790 H   0  0  0  0  0  0  0  0  0  0  0  0
  1  2  2  0
  1  3  1  0
  3  4  1  0
  4  5  1  0
  6  1  1  0
  7  6  1  0
  6  8  1  0
  8  9  1  0
  9 10  1  0
 10 11  1  0
 11 12  1  0
 12 13  1  0
 13 14  1  0
 13 15  2  0
 14 16  1  0
 16 17  1  0
 17 18  2  0
 19 17  1  0
 18 20  1  0
 21 19  2  0
 19 22  1  0
 20 23  2  0
 23 21  1  0
 22 24  1  0
 22 25  2  0
  4 26  2  0
  4 27  1  0
 28 27  1  0
 28 29  1  0
 29 30  1  0
 29 31  1  0
 30 32  1  0
 31 33  1  0
 31 34  1  0
 34 32  1  0
 32 35  1  0
 34 36  1  0
 37 35  1  0
 38 35  1  0
 39 37  2  0
 37 40  1  0
 41 38  2  0
 42 39  1  0
 40 43  2  0
 40 41  1  0
 44 42  2  0
 44 43  1  0
 43 45  1  0
  6 46  1  6
  7 47  1  0
  7 48  1  0
  8 49  1  0
  8 50  1  0
  9 51  1  0
  9 52  1  0
 10 53  1  0
 10 54  1  0
 11 55  1  0
 11 56  1  0
 12 57  1  0
 16 58  1  0
 16 59  1  0
 18 60  1  0
 20 61  1  0
 21 62  1  0
 23 63  1  0
 28 64  1  0
 28 65  1  0
 29 66  1  0
 31 67  1  0
 32 68  1  0
 33 69  1  0
 34 70  1  0
 36 71  1  0
 38 72  1  0
 42 73  1  0
 45 74  1  0
 45 75  1  0
M  CHG  3   5  -1  22   1  24  -1
M  END
>  <EmbedRMS>  (22) 
0.074087464386

$$$$

     RDKit          3D

 75 78  0  0  0  0  0  0  0  0999 V2000
    9.4314   42.9414   34.3432 C   0  0  0  0  0  0  0  0  0  0  0  0
   10.4887   43.0412   35.0290 O   0  0  0  0  0  0  0  0  0  0  0  0
    8.8559   41.7131   34.0291 O   0  0  0  0  0  0  0  0  0  0  0  0
    9.4932   40.2164   34.4701 P   0  0  0  0  0  0  0  0  0  0  0  0
    9.7293   40.1745   36.1310 O   0  0  0  0  0  0  0  0  0  0  0  0
    8.7487   44.1365   33.7716 C   0  0  1  0  0  0  0  0  0  0  0  0
    9.3037   45.3668   34.3389 N   0  0  0  0  0  0  0  0  0  0  0  0
    8.8898   44.0541   32.2303 C   0  0  0  0  0  0  0  0  0  0  0  0
    8.2015   45.1755   31.4444 C   0  0  0  0  0  0  0  0  0  0  0  0
    6.6641   45.1082   31.4891 C   0  0  0  0  0  0  0  0  0  0  0  0
    6.0238   46.3231   30.8104 C   0  0  0  0  0  0  0  0  0  0  0  0
    6.4994   47.5664   31.4167 N   0  0  0  0  0  0  0  0  0  0  0  0
    7.2564   48.5308   30.6887 C   0  0  0  0  0  0  0  0  0  0  0  0
    7.6656   49.7029   31.3328 O   0  0  0  0  0  0  0  0  0  0  0  0
    7.5905   48.3093   29.4932 O   0  0  0  0  0  0  0  0  0  0  0  0
    8.6027   50.6159   30.7648 C   0  0  0  0  0  0  0  0  0  0  0  0
    9.9754   49.9853   30.6902 C   0  0  0  0  0  0  0  0  0  0  0  0
   10.5999   49.8842   29.4333 C   0  0  0  0  0  0  0  0  0  0  0  0
   10.6217   49.4350   31.8326 C   0  0  0  0  0  0  0  0  0  0  0  0
   11.8304   49.2409   29.2980 C   0  0  0  0  0  0  0  0  0  0  0  0
   11.8537   48.7763   31.6686 C   0  0  0  0  0  0  0  0  0  0  0  0
   10.0461   49.5095   33.1508 N   0  0  0  0  0  0  0  0  0  0  0  0
   12.4534   48.6837   30.4122 C   0  0  0  0  0  0  0  0  0  0  0  0
   10.3459   48.5461   34.0864 O   0  0  0  0  0  0  0  0  0  0  0  0
    9.4126   50.5203   33.5169 O   0  0  0  0  0  0  0  0  0  0  0  0
    8.5368   39.1401   34.0138 O   0  0  0  0  0  0  0  0  0  0  0  0
   10.9789   40.0874   33.6872 O   0  0  0  0  0  0  0  0  0  0  0  0
   10.7994   40.0947   32.2884 C   0  0  0  0  0  0  0  0  0  0  0  0
   11.5957   38.9352   31.6993 C   0  0  0  0  0  0  0  0  0  0  0  0
   12.9257   38.9478   32.1797 O   0  0  0  0  0  0  0  0  0  0  0  0
   11.0071   37.5759   32.0733 C   0  0  0  0  0  0  0  0  0  0  0  0
   13.3571   37.5980   32.2612 C   0  0  0  0  0  0  0  0  0  0  0  0
    9.9093   37.1808   31.2877 O   0  0  0  0  0  0  0  0  0  0  0  0
   12.1968   36.6764   31.8894 C   0  0  0  0  0  0  0  0  0  0  0  0
   13.8018   37.2957   33.6197 N   0  0  0  0  0  0  0  0  0  0  0  0
   12.3048   36.2361   30.5555 O   0  0  0  0  0  0  0  0  0  0  0  0
   14.7922   36.4717   33.9864 C   0  0  0  0  0  0  0  0  0  0  0  0
   13.2747   37.7291   34.7944 C   0  0  0  0  0  0  0  0  0  0  0  0
   15.6240   35.7582   33.1861 N   0  0  0  0  0  0  0  0  0  0  0  0
   14.8721   36.4401   35.3332 C   0  0  0  0  0  0  0  0  0  0  0  0
   13.9205   37.2257   35.8810 N   0  0  0  0  0  0  0  0  0  0  0  0
   16.5873   34.9924   33.7802 C   0  0  0  0  0  0  0  0  0  0  0  0
   15.8575   35.6713   35.9444 C   0  0  0  0  0  0  0  0  0  0  0  0
   16.7025   34.9584   35.1439 N   0  0  0  0  0  0  0  0  0  0  0  0
   16.0101   35.6381   37.3564 N   0  0  0  0  0  0  0  0  0  0  0  0
    7.6766   44.0637   34.0538 H   0  0  0  0  0  0  0  0  0  0  0  0
   10.2140   45.5897   33.8736 H   0  0  0  0  0  0  0  0  0  0  0  0
    8.6452   46.1553   34.1448 H   0  0  0  0  0  0  0  0  0  0  0  0
    9.9715   44.0676   31.9677 H   0  0  0  0  0  0  0  0  0  0  0  0
    8.4842   43.0842   31.8650 H   0  0  0  0  0  0  0  0  0  0  0  0
    8.5701   46.1523   31.8198 H   0  0  0  0  0  0  0  0  0  0  0  0
    8.5207   45.1015   30.3817 H   0  0  0  0  0  0  0  0  0  0  0  0
    6.3163   44.1804   30.9853 H   0  0  0  0  0  0  0  0  0  0  0  0
    6.3138   45.0808   32.5417 H   0  0  0  0  0  0  0  0  0  0  0  0
    6.2440   46.2887   29.7218 H   0  0  0  0  0  0  0  0  0  0  0  0
    4.9205   46.2656   30.9257 H   0  0  0  0  0  0  0  0  0  0  0  0
    6.2800   47.7532   32.4210 H   0  0  0  0  0  0  0  0  0  0  0  0
    8.2409   50.9366   29.7630 H   0  0  0  0  0  0  0  0  0  0  0  0
    8.6483   51.5318   31.3882 H   0  0  0  0  0  0  0  0  0  0  0  0
   10.1265   50.2918   28.5484 H   0  0  0  0  0  0  0  0  0  0  0  0
   12.2977   49.1665   28.3244 H   0  0  0  0  0  0  0  0  0  0  0  0
   12.3617   48.3439   32.5212 H   0  0  0  0  0  0  0  0  0  0  0  0
   13.4053   48.1800   30.3033 H   0  0  0  0  0  0  0  0  0  0  0  0
   11.2095   41.0481   31.8917 H   0  0  0  0  0  0  0  0  0  0  0  0
    9.7449   40.0203   31.9303 H   0  0  0  0  0  0  0  0  0  0  0  0
   11.6206   39.0685   30.5941 H   0  0  0  0  0  0  0  0  0  0  0  0
   10.7061   37.5566   33.1440 H   0  0  0  0  0  0  0  0  0  0  0  0
   14.2095   37.4543   31.5601 H   0  0  0  0  0  0  0  0  0  0  0  0
   10.0864   37.4209   30.3415 H   0  0  0  0  0  0  0  0  0  0  0  0
   12.1277   35.7873   32.5551 H   0  0  0  0  0  0  0  0  0  0  0  0
   12.5029   37.0110   29.9673 H   0  0  0  0  0  0  0  0  0  0  0  0
   12.4329   38.3998   34.8703 H   0  0  0  0  0  0  0  0  0  0  0  0
   17.2670   34.4148   33.1691 H   0  0  0  0  0  0  0  0  0  0  0  0
   15.3757   36.1861   37.9792 H   0  0  0  0  0  0  0  0  0  0  0  0
   16.7640   35.0600   37.7897 H   0  0  0  0  0  0  0  0  0  0  0  0
  1  2  2  0
  1  3  1  0
  3  4  1  0
  4  5  1  0
  6  1  1  0
  7  6  1  0
  6  8  1  0
  8  9  1  0
  9 10  1  0
 10 11  1  0
 11 12  1  0
 12 13  1  0
 13 14  1  0
 13 15  2  0
 14 16  1  0
 16 17  1  0
 17 18  2  0
 19 17  1  0
 18 20  1  0
 21 19  2  0
 19 22  1  0
 20 23  2  0
 23 21  1  0
 22 24  1  0
 22 25  2  0
  4 26  2  0
  4 27  1  0
 28 27  1  0
 28 29  1  0
 29 30  1  0
 29 31  1  0
 30 32  1  0
 31 33  1  0
 31 34  1  0
 34 32  1  0
 32 35  1  0
 34 36  1  0
 37 35  1  0
 38 35  1  0
 39 37  2  0
 37 40  1  0
 41 38  2  0
 42 39  1  0
 40 43  2  0
 40 41  1  0
 44 42  2  0
 44 43  1  0
 43 45  1  0
  6 46  1  6
  7 47  1  0
  7 48  1  0
  8 49  1  0
  8 50  1  0
  9 51  1  0
  9 52  1  0
 10 53  1  0
 10 54  1  0
 11 55  1  0
 11 56  1  0
 12 57  1  0
 16 58  1  0
 16 59  1  0
 18 60  1  0
 20 61  1  0
 21 62  1  0
 23 63  1  0
 28 64  1  0
 28 65  1  0
 29 66  1  0
 31 67  1  0
 32 68  1  0
 33 69  1  0
 34 70  1  0
 36 71  1  0
 38 72  1  0
 42 73  1  0
 45 74  1  0
 45 75  1  0
M  CHG  3   5  -1  22   1  24  -1
M  END
>  <EmbedRMS>  (23) 
0.075800552319

$$$$

     RDKit          3D

 75 78  0  0  0  0  0  0  0  0999 V2000
    9.4331   42.9365   34.3462 C   0  0  0  0  0  0  0  0  0  0  0  0
   10.4907   43.0329   35.0318 O   0  0  0  0  0  0  0  0  0  0  0  0
    8.8558   41.7103   34.0299 O   0  0  0  0  0  0  0  0  0  0  0  0
    9.4944   40.2141   34.4677 P   0  0  0  0  0  0  0  0  0  0  0  0
    9.7317   40.1723   36.1287 O   0  0  0  0  0  0  0  0  0  0  0  0
    8.7506   44.1348   33.7741 C   0  0  1  0  0  0  0  0  0  0  0  0
    9.2963   45.3820   34.3133 N   0  0  0  0  0  0  0  0  0  0  0  0
    8.8893   44.0527   32.2358 C   0  0  0  0  0  0  0  0  0  0  0  0
    8.2029   45.1822   31.4614 C   0  0  0  0  0  0  0  0  0  0  0  0
    6.6654   45.1046   31.4855 C   0  0  0  0  0  0  0  0  0  0  0  0
    6.0273   46.3228   30.8106 C   0  0  0  0  0  0  0  0  0  0  0  0
    6.5069   47.5640   31.4182 N   0  0  0  0  0  0  0  0  0  0  0  0
    7.2419   48.5403   30.6830 C   0  0  0  0  0  0  0  0  0  0  0  0
    7.5773   49.7506   31.3020 O   0  0  0  0  0  0  0  0  0  0  0  0
    7.5941   48.3109   29.4941 O   0  0  0  0  0  0  0  0  0  0  0  0
    8.3265   50.7821   30.6573 C   0  0  0  0  0  0  0  0  0  0  0  0
    7.4681   51.7043   29.8086 C   0  0  0  0  0  0  0  0  0  0  0  0
    6.0861   51.4591   29.6528 C   0  0  0  0  0  0  0  0  0  0  0  0
    8.0281   52.8660   29.2039 C   0  0  0  0  0  0  0  0  0  0  0  0
    5.2834   52.3275   28.9127 C   0  0  0  0  0  0  0  0  0  0  0  0
    7.1946   53.7335   28.4756 C   0  0  0  0  0  0  0  0  0  0  0  0
    9.4206   53.2066   29.3419 N   0  0  0  0  0  0  0  0  0  0  0  0
    5.8358   53.4619   28.3260 C   0  0  0  0  0  0  0  0  0  0  0  0
    9.8053   54.5279   29.3442 O   0  0  0  0  0  0  0  0  0  0  0  0
   10.3042   52.3275   29.2877 O   0  0  0  0  0  0  0  0  0  0  0  0
    8.5373   39.1382   34.0122 O   0  0  0  0  0  0  0  0  0  0  0  0
   10.9795   40.0889   33.6815 O   0  0  0  0  0  0  0  0  0  0  0  0
   10.7982   40.0848   32.2819 C   0  0  0  0  0  0  0  0  0  0  0  0
   11.5886   38.9142   31.7009 C   0  0  0  0  0  0  0  0  0  0  0  0
   12.9214   38.9367   32.1698 O   0  0  0  0  0  0  0  0  0  0  0  0
   11.0047   37.5660   32.0990 C   0  0  0  0  0  0  0  0  0  0  0  0
   13.3511   37.5885   32.2601 C   0  0  0  0  0  0  0  0  0  0  0  0
    9.9296   37.1961   31.2780 O   0  0  0  0  0  0  0  0  0  0  0  0
   12.1923   36.6658   31.9047 C   0  0  0  0  0  0  0  0  0  0  0  0
   13.8033   37.2966   33.6188 N   0  0  0  0  0  0  0  0  0  0  0  0
   12.3007   36.2864   30.5561 O   0  0  0  0  0  0  0  0  0  0  0  0
   14.7933   36.4724   33.9860 C   0  0  0  0  0  0  0  0  0  0  0  0
   13.2753   37.7296   34.7935 C   0  0  0  0  0  0  0  0  0  0  0  0
   15.6243   35.7579   33.1860 N   0  0  0  0  0  0  0  0  0  0  0  0
   14.8728   36.4410   35.3328 C   0  0  0  0  0  0  0  0  0  0  0  0
   13.9209   37.2263   35.8804 N   0  0  0  0  0  0  0  0  0  0  0  0
   16.5873   34.9919   33.7803 C   0  0  0  0  0  0  0  0  0  0  0  0
   15.8577   35.6717   35.9443 C   0  0  0  0  0  0  0  0  0  0  0  0
   16.7025   34.9583   35.1440 N   0  0  0  0  0  0  0  0  0  0  0  0
   16.0100   35.6384   37.3563 N   0  0  0  0  0  0  0  0  0  0  0  0
    7.6770   44.0707   34.0504 H   0  0  0  0  0  0  0  0  0  0  0  0
   10.3192   45.4405   34.1000 H   0  0  0  0  0  0  0  0  0  0  0  0
    9.1827   45.3820   35.3535 H   0  0  0  0  0  0  0  0  0  0  0  0
    8.4816   43.0850   31.8668 H   0  0  0  0  0  0  0  0  0  0  0  0
    9.9711   44.0680   31.9739 H   0  0  0  0  0  0  0  0  0  0  0  0
    8.5554   46.1509   31.8740 H   0  0  0  0  0  0  0  0  0  0  0  0
    8.5385   45.1361   30.4021 H   0  0  0  0  0  0  0  0  0  0  0  0
    6.3296   44.1801   30.9676 H   0  0  0  0  0  0  0  0  0  0  0  0
    6.3020   45.0643   32.5333 H   0  0  0  0  0  0  0  0  0  0  0  0
    4.9238   46.2678   30.9266 H   0  0  0  0  0  0  0  0  0  0  0  0
    6.2466   46.2900   29.7218 H   0  0  0  0  0  0  0  0  0  0  0  0
    6.2806   47.7542   32.4203 H   0  0  0  0  0  0  0  0  0  0  0  0
    8.8126   51.3900   31.4492 H   0  0  0  0  0  0  0  0  0  0  0  0
    9.1257   50.3214   30.0391 H   0  0  0  0  0  0  0  0  0  0  0  0
    5.6090   50.6043   30.1102 H   0  0  0  0  0  0  0  0  0  0  0  0
    4.2261   52.1238   28.8016 H   0  0  0  0  0  0  0  0  0  0  0  0
    7.6028   54.6215   28.0099 H   0  0  0  0  0  0  0  0  0  0  0  0
    5.2087   54.1359   27.7566 H   0  0  0  0  0  0  0  0  0  0  0  0
    9.7427   40.0140   31.9266 H   0  0  0  0  0  0  0  0  0  0  0  0
   11.2131   41.0320   31.8757 H   0  0  0  0  0  0  0  0  0  0  0  0
   11.5980   39.0108   30.5904 H   0  0  0  0  0  0  0  0  0  0  0  0
   10.7009   37.5601   33.1721 H   0  0  0  0  0  0  0  0  0  0  0  0
   14.1977   37.4380   31.5532 H   0  0  0  0  0  0  0  0  0  0  0  0
    9.5181   36.3960   31.6977 H   0  0  0  0  0  0  0  0  0  0  0  0
   12.1419   35.7697   32.5692 H   0  0  0  0  0  0  0  0  0  0  0  0
   11.7730   35.4523   30.4489 H   0  0  0  0  0  0  0  0  0  0  0  0
   12.4321   38.3984   34.8692 H   0  0  0  0  0  0  0  0  0  0  0  0
   17.2667   34.4138   33.1694 H   0  0  0  0  0  0  0  0  0  0  0  0
   15.3757   36.1867   37.9790 H   0  0  0  0  0  0  0  0  0  0  0  0
   16.7634   35.0598   37.7897 H   0  0  0  0  0  0  0  0  0  0  0  0
  1  2  2  0
  1  3  1  0
  3  4  1  0
  4  5  1  0
  6  1  1  0
  7  6  1  0
  6  8  1  0
  8  9  1  0
  9 10  1  0
 10 11  1  0
 11 12  1  0
 12 13  1  0
 13 14  1  0
 13 15  2  0
 14 16  1  0
 16 17  1  0
 17 18  2  0
 19 17  1  0
 18 20  1  0
 21 19  2  0
 19 22  1  0
 20 23  2  0
 23 21  1  0
 22 24  1  0
 22 25  2  0
  4 26  2  0
  4 27  1  0
 28 27  1  0
 28 29  1  0
 29 30  1  0
 29 31  1  0
 30 32  1  0
 31 33  1  0
 31 34  1  0
 34 32  1  0
 32 35  1  0
 34 36  1  0
 37 35  1  0
 38 35  1  0
 39 37  2  0
 37 40  1  0
 41 38  2  0
 42 39  1  0
 40 43  2  0
 40 41  1  0
 44 42  2  0
 44 43  1  0
 43 45  1  0
  6 46  1  6
  7 47  1  0
  7 48  1  0
  8 49  1  0
  8 50  1  0
  9 51  1  0
  9 52  1  0
 10 53  1  0
 10 54  1  0
 11 55  1  0
 11 56  1  0
 12 57  1  0
 16 58  1  0
 16 59  1  0
 18 60  1  0
 20 61  1  0
 21 62  1  0
 23 63  1  0
 28 64  1  0
 28 65  1  0
 29 66  1  0
 31 67  1  0
 32 68  1  0
 33 69  1  0
 34 70  1  0
 36 71  1  0
 38 72  1  0
 42 73  1  0
 45 74  1  0
 45 75  1  0
M  CHG  3   5  -1  22   1  24  -1
M  END
>  <EmbedRMS>  (24) 
0.0743621569771

$$$$

     RDKit          3D

 75 78  0  0  0  0  0  0  0  0999 V2000
    9.4312   42.9411   34.3437 C   0  0  0  0  0  0  0  0  0  0  0  0
   10.4885   43.0409   35.0294 O   0  0  0  0  0  0  0  0  0  0  0  0
    8.8562   41.7128   34.0288 O   0  0  0  0  0  0  0  0  0  0  0  0
    9.4946   40.2162   34.4679 P   0  0  0  0  0  0  0  0  0  0  0  0
    9.7311   40.1742   36.1290 O   0  0  0  0  0  0  0  0  0  0  0  0
    8.7484   44.1359   33.7721 C   0  0  1  0  0  0  0  0  0  0  0  0
    9.3039   45.3665   34.3388 N   0  0  0  0  0  0  0  0  0  0  0  0
    8.8892   44.0519   32.2308 C   0  0  0  0  0  0  0  0  0  0  0  0
    8.2015   45.1721   31.4435 C   0  0  0  0  0  0  0  0  0  0  0  0
    6.6642   45.1066   31.4887 C   0  0  0  0  0  0  0  0  0  0  0  0
    6.0267   46.3237   30.8123 C   0  0  0  0  0  0  0  0  0  0  0  0
    6.5083   47.5645   31.4190 N   0  0  0  0  0  0  0  0  0  0  0  0
    7.2421   48.5406   30.6825 C   0  0  0  0  0  0  0  0  0  0  0  0
    7.5847   49.7468   31.3027 O   0  0  0  0  0  0  0  0  0  0  0  0
    7.5941   48.3104   29.4938 O   0  0  0  0  0  0  0  0  0  0  0  0
    8.2923   50.7939   30.6407 C   0  0  0  0  0  0  0  0  0  0  0  0
    7.4280   51.4400   29.5817 C   0  0  0  0  0  0  0  0  0  0  0  0
    7.8930   51.4563   28.2536 C   0  0  0  0  0  0  0  0  0  0  0  0
    6.1474   51.9854   29.8750 C   0  0  0  0  0  0  0  0  0  0  0  0
    7.1082   51.9875   27.2298 C   0  0  0  0  0  0  0  0  0  0  0  0
    5.3675   52.5011   28.8243 C   0  0  0  0  0  0  0  0  0  0  0  0
    5.6107   52.0068   31.2109 N   0  0  0  0  0  0  0  0  0  0  0  0
    5.8465   52.5051   27.5138 C   0  0  0  0  0  0  0  0  0  0  0  0
    4.2494   51.9536   31.4046 O   0  0  0  0  0  0  0  0  0  0  0  0
    6.3462   52.2355   32.1926 O   0  0  0  0  0  0  0  0  0  0  0  0
    8.5373   39.1403   34.0128 O   0  0  0  0  0  0  0  0  0  0  0  0
   10.9803   40.0887   33.6834 O   0  0  0  0  0  0  0  0  0  0  0  0
   10.8020   40.0896   32.2836 C   0  0  0  0  0  0  0  0  0  0  0  0
   11.5900   38.9179   31.7007 C   0  0  0  0  0  0  0  0  0  0  0  0
   12.9224   38.9391   32.1711 O   0  0  0  0  0  0  0  0  0  0  0  0
   11.0051   37.5677   32.0966 C   0  0  0  0  0  0  0  0  0  0  0  0
   13.3518   37.5910   32.2610 C   0  0  0  0  0  0  0  0  0  0  0  0
    9.9381   37.1796   31.2733 O   0  0  0  0  0  0  0  0  0  0  0  0
   12.1912   36.6690   31.9043 C   0  0  0  0  0  0  0  0  0  0  0  0
   13.8027   37.2968   33.6192 N   0  0  0  0  0  0  0  0  0  0  0  0
   12.2877   36.2854   30.5568 O   0  0  0  0  0  0  0  0  0  0  0  0
   14.7928   36.4724   33.9861 C   0  0  0  0  0  0  0  0  0  0  0  0
   13.2751   37.7297   34.7941 C   0  0  0  0  0  0  0  0  0  0  0  0
   15.6239   35.7581   33.1859 N   0  0  0  0  0  0  0  0  0  0  0  0
   14.8726   36.4408   35.3329 C   0  0  0  0  0  0  0  0  0  0  0  0
   13.9209   37.2262   35.8807 N   0  0  0  0  0  0  0  0  0  0  0  0
   16.5870   34.9922   33.7801 C   0  0  0  0  0  0  0  0  0  0  0  0
   15.8576   35.6716   35.9442 C   0  0  0  0  0  0  0  0  0  0  0  0
   16.7024   34.9584   35.1438 N   0  0  0  0  0  0  0  0  0  0  0  0
   16.0101   35.6383   37.3563 N   0  0  0  0  0  0  0  0  0  0  0  0
    7.6764   44.0634   34.0547 H   0  0  0  0  0  0  0  0  0  0  0  0
    8.6468   46.1558   34.1431 H   0  0  0  0  0  0  0  0  0  0  0  0
   10.2152   45.5879   33.8747 H   0  0  0  0  0  0  0  0  0  0  0  0
    8.4830   43.0818   31.8666 H   0  0  0  0  0  0  0  0  0  0  0  0
    9.9708   44.0643   31.9679 H   0  0  0  0  0  0  0  0  0  0  0  0
    8.5198   45.0959   30.3807 H   0  0  0  0  0  0  0  0  0  0  0  0
    8.5714   46.1487   31.8173 H   0  0  0  0  0  0  0  0  0  0  0  0
    6.3147   44.1801   30.9836 H   0  0  0  0  0  0  0  0  0  0  0  0
    6.3142   45.0784   32.5414 H   0  0  0  0  0  0  0  0  0  0  0  0
    6.2448   46.2897   29.7232 H   0  0  0  0  0  0  0  0  0  0  0  0
    4.9234   46.2700   30.9301 H   0  0  0  0  0  0  0  0  0  0  0  0
    6.2849   47.7545   32.4218 H   0  0  0  0  0  0  0  0  0  0  0  0
    9.2332   50.3843   30.2113 H   0  0  0  0  0  0  0  0  0  0  0  0
    8.5963   51.5578   31.3850 H   0  0  0  0  0  0  0  0  0  0  0  0
    8.8638   51.0458   28.0045 H   0  0  0  0  0  0  0  0  0  0  0  0
    7.4769   51.9912   26.2121 H   0  0  0  0  0  0  0  0  0  0  0  0
    4.3880   52.9172   29.0226 H   0  0  0  0  0  0  0  0  0  0  0  0
    5.2380   52.9126   26.7168 H   0  0  0  0  0  0  0  0  0  0  0  0
    9.7471   40.0309   31.9256 H   0  0  0  0  0  0  0  0  0  0  0  0
   11.2237   41.0358   31.8821 H   0  0  0  0  0  0  0  0  0  0  0  0
   11.5999   39.0159   30.5905 H   0  0  0  0  0  0  0  0  0  0  0  0
   10.7034   37.5451   33.1703 H   0  0  0  0  0  0  0  0  0  0  0  0
   14.1992   37.4424   31.5548 H   0  0  0  0  0  0  0  0  0  0  0  0
    9.1370   37.6634   31.6025 H   0  0  0  0  0  0  0  0  0  0  0  0
   12.1204   35.7713   32.5637 H   0  0  0  0  0  0  0  0  0  0  0  0
   12.9456   35.5426   30.5221 H   0  0  0  0  0  0  0  0  0  0  0  0
   12.4322   38.3989   34.8700 H   0  0  0  0  0  0  0  0  0  0  0  0
   17.2664   34.4142   33.1690 H   0  0  0  0  0  0  0  0  0  0  0  0
   16.7636   35.0598   37.7895 H   0  0  0  0  0  0  0  0  0  0  0  0
   15.3759   36.1865   37.9790 H   0  0  0  0  0  0  0  0  0  0  0  0
  1  2  2  0
  1  3  1  0
  3  4  1  0
  4  5  1  0
  6  1  1  0
  7  6  1  0
  6  8  1  0
  8  9  1  0
  9 10  1  0
 10 11  1  0
 11 12  1  0
 12 13  1  0
 13 14  1  0
 13 15  2  0
 14 16  1  0
 16 17  1  0
 17 18  2  0
 19 17  1  0
 18 20  1  0
 21 19  2  0
 19 22  1  0
 20 23  2  0
 23 21  1  0
 22 24  1  0
 22 25  2  0
  4 26  2  0
  4 27  1  0
 28 27  1  0
 28 29  1  0
 29 30  1  0
 29 31  1  0
 30 32  1  0
 31 33  1  0
 31 34  1  0
 34 32  1  0
 32 35  1  0
 34 36  1  0
 37 35  1  0
 38 35  1  0
 39 37  2  0
 37 40  1  0
 41 38  2  0
 42 39  1  0
 40 43  2  0
 40 41  1  0
 44 42  2  0
 44 43  1  0
 43 45  1  0
  6 46  1  6
  7 47  1  0
  7 48  1  0
  8 49  1  0
  8 50  1  0
  9 51  1  0
  9 52  1  0
 10 53  1  0
 10 54  1  0
 11 55  1  0
 11 56  1  0
 12 57  1  0
 16 58  1  0
 16 59  1  0
 18 60  1  0
 20 61  1  0
 21 62  1  0
 23 63  1  0
 28 64  1  0
 28 65  1  0
 29 66  1  0
 31 67  1  0
 32 68  1  0
 33 69  1  0
 34 70  1  0
 36 71  1  0
 38 72  1  0
 42 73  1  0
 45 74  1  0
 45 75  1  0
M  CHG  3   5  -1  22   1  24  -1
M  END
>  <EmbedRMS>  (25) 
0.0732118470359

$$$$

     RDKit          3D

 75 78  0  0  0  0  0  0  0  0999 V2000
    9.4333   42.9364   34.3461 C   0  0  0  0  0  0  0  0  0  0  0  0
   10.4907   43.0329   35.0319 O   0  0  0  0  0  0  0  0  0  0  0  0
    8.8563   41.7103   34.0295 O   0  0  0  0  0  0  0  0  0  0  0  0
    9.4943   40.2139   34.4679 P   0  0  0  0  0  0  0  0  0  0  0  0
    9.7310   40.1724   36.1290 O   0  0  0  0  0  0  0  0  0  0  0  0
    8.7506   44.1348   33.7741 C   0  0  1  0  0  0  0  0  0  0  0  0
    9.2963   45.3820   34.3134 N   0  0  0  0  0  0  0  0  0  0  0  0
    8.8893   44.0528   32.2358 C   0  0  0  0  0  0  0  0  0  0  0  0
    8.2028   45.1824   31.4615 C   0  0  0  0  0  0  0  0  0  0  0  0
    6.6654   45.1046   31.4855 C   0  0  0  0  0  0  0  0  0  0  0  0
    6.0270   46.3225   30.8105 C   0  0  0  0  0  0  0  0  0  0  0  0
    6.5061   47.5640   31.4180 N   0  0  0  0  0  0  0  0  0  0  0  0
    7.2437   48.5392   30.6836 C   0  0  0  0  0  0  0  0  0  0  0  0
    7.5944   49.7397   31.3067 O   0  0  0  0  0  0  0  0  0  0  0  0
    7.5934   48.3117   29.4937 O   0  0  0  0  0  0  0  0  0  0  0  0
    8.3466   50.7572   30.6513 C   0  0  0  0  0  0  0  0  0  0  0  0
    8.5205   51.9358   31.5781 C   0  0  0  0  0  0  0  0  0  0  0  0
    7.3747   52.4731   32.1931 C   0  0  0  0  0  0  0  0  0  0  0  0
    9.7904   52.4958   31.8752 C   0  0  0  0  0  0  0  0  0  0  0  0
    7.4832   53.5118   33.1190 C   0  0  0  0  0  0  0  0  0  0  0  0
    9.8815   53.5285   32.8251 C   0  0  0  0  0  0  0  0  0  0  0  0
   10.9824   52.0604   31.2038 N   0  0  0  0  0  0  0  0  0  0  0  0
    8.7353   54.0314   33.4424 C   0  0  0  0  0  0  0  0  0  0  0  0
   11.0119   51.9996   29.8295 O   0  0  0  0  0  0  0  0  0  0  0  0
   12.0562   51.9717   31.8342 O   0  0  0  0  0  0  0  0  0  0  0  0
    8.5372   39.1382   34.0121 O   0  0  0  0  0  0  0  0  0  0  0  0
   10.9798   40.0870   33.6829 O   0  0  0  0  0  0  0  0  0  0  0  0
   10.8002   40.0905   32.2833 C   0  0  0  0  0  0  0  0  0  0  0  0
   11.5958   38.9270   31.6963 C   0  0  0  0  0  0  0  0  0  0  0  0
   12.9239   38.9408   32.1766 O   0  0  0  0  0  0  0  0  0  0  0  0
   11.0062   37.5719   32.0793 C   0  0  0  0  0  0  0  0  0  0  0  0
   13.3507   37.5905   32.2614 C   0  0  0  0  0  0  0  0  0  0  0  0
    9.9064   37.1792   31.2946 O   0  0  0  0  0  0  0  0  0  0  0  0
   12.1920   36.6671   31.9003 C   0  0  0  0  0  0  0  0  0  0  0  0
   13.8017   37.2948   33.6193 N   0  0  0  0  0  0  0  0  0  0  0  0
   12.3134   36.2787   30.5560 O   0  0  0  0  0  0  0  0  0  0  0  0
   14.7927   36.4716   33.9861 C   0  0  0  0  0  0  0  0  0  0  0  0
   13.2746   37.7284   34.7941 C   0  0  0  0  0  0  0  0  0  0  0  0
   15.6240   35.7576   33.1859 N   0  0  0  0  0  0  0  0  0  0  0  0
   14.8728   36.4406   35.3330 C   0  0  0  0  0  0  0  0  0  0  0  0
   13.9209   37.2258   35.8807 N   0  0  0  0  0  0  0  0  0  0  0  0
   16.5874   34.9920   33.7802 C   0  0  0  0  0  0  0  0  0  0  0  0
   15.8579   35.6716   35.9443 C   0  0  0  0  0  0  0  0  0  0  0  0
   16.7028   34.9584   35.1439 N   0  0  0  0  0  0  0  0  0  0  0  0
   16.0103   35.6383   37.3563 N   0  0  0  0  0  0  0  0  0  0  0  0
    7.6771   44.0706   34.0504 H   0  0  0  0  0  0  0  0  0  0  0  0
   10.3192   45.4407   34.1000 H   0  0  0  0  0  0  0  0  0  0  0  0
    9.1828   45.3819   35.3535 H   0  0  0  0  0  0  0  0  0  0  0  0
    8.4817   43.0851   31.8668 H   0  0  0  0  0  0  0  0  0  0  0  0
    9.9711   44.0682   31.9739 H   0  0  0  0  0  0  0  0  0  0  0  0
    8.5552   46.1511   31.8743 H   0  0  0  0  0  0  0  0  0  0  0  0
    8.5385   45.1364   30.4023 H   0  0  0  0  0  0  0  0  0  0  0  0
    6.3020   45.0643   32.5334 H   0  0  0  0  0  0  0  0  0  0  0  0
    6.3297   44.1799   30.9678 H   0  0  0  0  0  0  0  0  0  0  0  0
    6.2465   46.2897   29.7217 H   0  0  0  0  0  0  0  0  0  0  0  0
    4.9235   46.2672   30.9264 H   0  0  0  0  0  0  0  0  0  0  0  0
    6.2819   47.7531   32.4208 H   0  0  0  0  0  0  0  0  0  0  0  0
    9.3177   50.3236   30.3407 H   0  0  0  0  0  0  0  0  0  0  0  0
    7.8015   51.0942   29.7431 H   0  0  0  0  0  0  0  0  0  0  0  0
    6.3938   52.0724   31.9675 H   0  0  0  0  0  0  0  0  0  0  0  0
    6.5946   53.9091   33.5925 H   0  0  0  0  0  0  0  0  0  0  0  0
   10.8428   53.9640   33.0676 H   0  0  0  0  0  0  0  0  0  0  0  0
    8.8174   54.8342   34.1638 H   0  0  0  0  0  0  0  0  0  0  0  0
    9.7455   40.0168   31.9263 H   0  0  0  0  0  0  0  0  0  0  0  0
   11.2116   41.0420   31.8834 H   0  0  0  0  0  0  0  0  0  0  0  0
   11.6245   39.0449   30.5888 H   0  0  0  0  0  0  0  0  0  0  0  0
   10.7050   37.5579   33.1499 H   0  0  0  0  0  0  0  0  0  0  0  0
   14.1985   37.4426   31.5553 H   0  0  0  0  0  0  0  0  0  0  0  0
   10.0893   37.4056   30.3459 H   0  0  0  0  0  0  0  0  0  0  0  0
   12.1337   35.7754   32.5703 H   0  0  0  0  0  0  0  0  0  0  0  0
   11.7934   35.4394   30.4513 H   0  0  0  0  0  0  0  0  0  0  0  0
   12.4314   38.3973   34.8700 H   0  0  0  0  0  0  0  0  0  0  0  0
   17.2669   34.4142   33.1692 H   0  0  0  0  0  0  0  0  0  0  0  0
   15.3759   36.1865   37.9790 H   0  0  0  0  0  0  0  0  0  0  0  0
   16.7638   35.0599   37.7896 H   0  0  0  0  0  0  0  0  0  0  0  0
  1  2  2  0
  1  3  1  0
  3  4  1  0
  4  5  1  0
  6  1  1  0
  7  6  1  0
  6  8  1  0
  8  9  1  0
  9 10  1  0
 10 11  1  0
 11 12  1  0
 12 13  1  0
 13 14  1  0
 13 15  2  0
 14 16  1  0
 16 17  1  0
 17 18  2  0
 19 17  1  0
 18 20  1  0
 21 19  2  0
 19 22  1  0
 20 23  2  0
 23 21  1  0
 22 24  1  0
 22 25  2  0
  4 26  2  0
  4 27  1  0
 28 27  1  0
 28 29  1  0
 29 30  1  0
 29 31  1  0
 30 32  1  0
 31 33  1  0
 31 34  1  0
 34 32  1  0
 32 35  1  0
 34 36  1  0
 37 35  1  0
 38 35  1  0
 39 37  2  0
 37 40  1  0
 41 38  2  0
 42 39  1  0
 40 43  2  0
 40 41  1  0
 44 42  2  0
 44 43  1  0
 43 45  1  0
  6 46  1  6
  7 47  1  0
  7 48  1  0
  8 49  1  0
  8 50  1  0
  9 51  1  0
  9 52  1  0
 10 53  1  0
 10 54  1  0
 11 55  1  0
 11 56  1  0
 12 57  1  0
 16 58  1  0
 16 59  1  0
 18 60  1  0
 20 61  1  0
 21 62  1  0
 23 63  1  0
 28 64  1  0
 28 65  1  0
 29 66  1  0
 31 67  1  0
 32 68  1  0
 33 69  1  0
 34 70  1  0
 36 71  1  0
 38 72  1  0
 42 73  1  0
 45 74  1  0
 45 75  1  0
M  CHG  3   5  -1  22   1  24  -1
M  END
>  <EmbedRMS>  (26) 
0.074797805897

$$$$

     RDKit          3D

 75 78  0  0  0  0  0  0  0  0999 V2000
    9.4301   42.9394   34.3434 C   0  0  0  0  0  0  0  0  0  0  0  0
   10.4913   43.0379   35.0234 O   0  0  0  0  0  0  0  0  0  0  0  0
    8.8550   41.7115   34.0283 O   0  0  0  0  0  0  0  0  0  0  0  0
    9.4942   40.2155   34.4675 P   0  0  0  0  0  0  0  0  0  0  0  0
    9.7308   40.1740   36.1287 O   0  0  0  0  0  0  0  0  0  0  0  0
    8.7413   44.1376   33.7786 C   0  0  1  0  0  0  0  0  0  0  0  0
    9.3016   45.3717   34.3325 N   0  0  0  0  0  0  0  0  0  0  0  0
    8.8963   44.0591   32.2399 C   0  0  0  0  0  0  0  0  0  0  0  0
    8.2027   45.1686   31.4400 C   0  0  0  0  0  0  0  0  0  0  0  0
    6.6654   45.1063   31.4910 C   0  0  0  0  0  0  0  0  0  0  0  0
    6.0278   46.3225   30.8126 C   0  0  0  0  0  0  0  0  0  0  0  0
    6.5081   47.5641   31.4188 N   0  0  0  0  0  0  0  0  0  0  0  0
    7.2415   48.5405   30.6822 C   0  0  0  0  0  0  0  0  0  0  0  0
    7.5825   49.7480   31.3014 O   0  0  0  0  0  0  0  0  0  0  0  0
    7.5941   48.3101   29.4937 O   0  0  0  0  0  0  0  0  0  0  0  0
    8.3010   50.7884   30.6402 C   0  0  0  0  0  0  0  0  0  0  0  0
    7.4354   51.4443   29.5875 C   0  0  0  0  0  0  0  0  0  0  0  0
    6.1659   51.9131   29.9715 C   0  0  0  0  0  0  0  0  0  0  0  0
    7.8329   51.5603   28.2295 C   0  0  0  0  0  0  0  0  0  0  0  0
    5.2880   52.4481   29.0276 C   0  0  0  0  0  0  0  0  0  0  0  0
    6.9274   52.0823   27.2903 C   0  0  0  0  0  0  0  0  0  0  0  0
    9.1439   51.1787   27.7873 N   0  0  0  0  0  0  0  0  0  0  0  0
    5.6644   52.5234   27.6877 C   0  0  0  0  0  0  0  0  0  0  0  0
    9.3005   50.5713   26.5628 O   0  0  0  0  0  0  0  0  0  0  0  0
   10.1535   51.6189   28.3747 O   0  0  0  0  0  0  0  0  0  0  0  0
    8.5374   39.1393   34.0126 O   0  0  0  0  0  0  0  0  0  0  0  0
   10.9801   40.0886   33.6832 O   0  0  0  0  0  0  0  0  0  0  0  0
   10.8020   40.0896   32.2834 C   0  0  0  0  0  0  0  0  0  0  0  0
   11.5900   38.9179   31.7006 C   0  0  0  0  0  0  0  0  0  0  0  0
   12.9224   38.9391   32.1711 O   0  0  0  0  0  0  0  0  0  0  0  0
   11.0052   37.5677   32.0966 C   0  0  0  0  0  0  0  0  0  0  0  0
   13.3518   37.5910   32.2610 C   0  0  0  0  0  0  0  0  0  0  0  0
    9.9381   37.1795   31.2733 O   0  0  0  0  0  0  0  0  0  0  0  0
   12.1912   36.6690   31.9043 C   0  0  0  0  0  0  0  0  0  0  0  0
   13.8027   37.2968   33.6192 N   0  0  0  0  0  0  0  0  0  0  0  0
   12.2877   36.2853   30.5568 O   0  0  0  0  0  0  0  0  0  0  0  0
   14.7928   36.4724   33.9861 C   0  0  0  0  0  0  0  0  0  0  0  0
   13.2751   37.7297   34.7941 C   0  0  0  0  0  0  0  0  0  0  0  0
   15.6239   35.7581   33.1859 N   0  0  0  0  0  0  0  0  0  0  0  0
   14.8726   36.4408   35.3329 C   0  0  0  0  0  0  0  0  0  0  0  0
   13.9209   37.2262   35.8807 N   0  0  0  0  0  0  0  0  0  0  0  0
   16.5870   34.9921   33.7801 C   0  0  0  0  0  0  0  0  0  0  0  0
   15.8576   35.6716   35.9442 C   0  0  0  0  0  0  0  0  0  0  0  0
   16.7024   34.9584   35.1438 N   0  0  0  0  0  0  0  0  0  0  0  0
   16.0101   35.6383   37.3563 N   0  0  0  0  0  0  0  0  0  0  0  0
    7.6669   44.0650   34.0547 H   0  0  0  0  0  0  0  0  0  0  0  0
    8.6808   46.1666   34.0588 H   0  0  0  0  0  0  0  0  0  0  0  0
    9.2335   45.3272   35.3759 H   0  0  0  0  0  0  0  0  0  0  0  0
    9.9810   44.0905   31.9915 H   0  0  0  0  0  0  0  0  0  0  0  0
    8.5084   43.0838   31.8695 H   0  0  0  0  0  0  0  0  0  0  0  0
    8.5157   45.0753   30.3769 H   0  0  0  0  0  0  0  0  0  0  0  0
    8.5770   46.1512   31.7918 H   0  0  0  0  0  0  0  0  0  0  0  0
    6.3183   45.0834   32.5446 H   0  0  0  0  0  0  0  0  0  0  0  0
    6.3125   44.1783   30.9911 H   0  0  0  0  0  0  0  0  0  0  0  0
    4.9243   46.2683   30.9295 H   0  0  0  0  0  0  0  0  0  0  0  0
    6.2469   46.2877   29.7238 H   0  0  0  0  0  0  0  0  0  0  0  0
    6.2843   47.7542   32.4216 H   0  0  0  0  0  0  0  0  0  0  0  0
    8.5826   51.5549   31.3922 H   0  0  0  0  0  0  0  0  0  0  0  0
    9.2387   50.3638   30.2308 H   0  0  0  0  0  0  0  0  0  0  0  0
    5.8475   51.8450   31.0047 H   0  0  0  0  0  0  0  0  0  0  0  0
    4.3104   52.7964   29.3347 H   0  0  0  0  0  0  0  0  0  0  0  0
    7.2117   52.1713   26.2493 H   0  0  0  0  0  0  0  0  0  0  0  0
    4.9799   52.9338   26.9564 H   0  0  0  0  0  0  0  0  0  0  0  0
   11.2238   41.0357   31.8820 H   0  0  0  0  0  0  0  0  0  0  0  0
    9.7471   40.0309   31.9253 H   0  0  0  0  0  0  0  0  0  0  0  0
   11.6000   39.0158   30.5904 H   0  0  0  0  0  0  0  0  0  0  0  0
   10.7034   37.5451   33.1703 H   0  0  0  0  0  0  0  0  0  0  0  0
   14.1992   37.4424   31.5548 H   0  0  0  0  0  0  0  0  0  0  0  0
    9.1370   37.6634   31.6025 H   0  0  0  0  0  0  0  0  0  0  0  0
   12.1204   35.7713   32.5637 H   0  0  0  0  0  0  0  0  0  0  0  0
   12.9457   35.5426   30.5221 H   0  0  0  0  0  0  0  0  0  0  0  0
   12.4322   38.3990   34.8700 H   0  0  0  0  0  0  0  0  0  0  0  0
   17.2664   34.4141   33.1690 H   0  0  0  0  0  0  0  0  0  0  0  0
   15.3758   36.1865   37.9790 H   0  0  0  0  0  0  0  0  0  0  0  0
   16.7636   35.0598   37.7895 H   0  0  0  0  0  0  0  0  0  0  0  0
  1  2  2  0
  1  3  1  0
  3  4  1  0
  4  5  1  0
  6  1  1  0
  7  6  1  0
  6  8  1  0
  8  9  1  0
  9 10  1  0
 10 11  1  0
 11 12  1  0
 12 13  1  0
 13 14  1  0
 13 15  2  0
 14 16  1  0
 16 17  1  0
 17 18  2  0
 19 17  1  0
 18 20  1  0
 21 19  2  0
 19 22  1  0
 20 23  2  0
 23 21  1  0
 22 24  1  0
 22 25  2  0
  4 26  2  0
  4 27  1  0
 28 27  1  0
 28 29  1  0
 29 30  1  0
 29 31  1  0
 30 32  1  0
 31 33  1  0
 31 34  1  0
 34 32  1  0
 32 35  1  0
 34 36  1  0
 37 35  1  0
 38 35  1  0
 39 37  2  0
 37 40  1  0
 41 38  2  0
 42 39  1  0
 40 43  2  0
 40 41  1  0
 44 42  2  0
 44 43  1  0
 43 45  1  0
  6 46  1  6
  7 47  1  0
  7 48  1  0
  8 49  1  0
  8 50  1  0
  9 51  1  0
  9 52  1  0
 10 53  1  0
 10 54  1  0
 11 55  1  0
 11 56  1  0
 12 57  1  0
 16 58  1  0
 16 59  1  0
 18 60  1  0
 20 61  1  0
 21 62  1  0
 23 63  1  0
 28 64  1  0
 28 65  1  0
 29 66  1  0
 31 67  1  0
 32 68  1  0
 33 69  1  0
 34 70  1  0
 36 71  1  0
 38 72  1  0
 42 73  1  0
 45 74  1  0
 45 75  1  0
M  CHG  3   5  -1  22   1  24  -1
M  END
>  <EmbedRMS>  (27) 
0.0733605633283

$$$$

     RDKit          3D

 75 78  0  0  0  0  0  0  0  0999 V2000
    9.4332   42.9356   34.3455 C   0  0  0  0  0  0  0  0  0  0  0  0
   10.4906   43.0324   35.0313 O   0  0  0  0  0  0  0  0  0  0  0  0
    8.8562   41.7096   34.0292 O   0  0  0  0  0  0  0  0  0  0  0  0
    9.4944   40.2135   34.4679 P   0  0  0  0  0  0  0  0  0  0  0  0
    9.7310   40.1723   36.1290 O   0  0  0  0  0  0  0  0  0  0  0  0
    8.7503   44.1334   33.7737 C   0  0  1  0  0  0  0  0  0  0  0  0
    9.2955   45.3792   34.3141 N   0  0  0  0  0  0  0  0  0  0  0  0
    8.8900   44.0534   32.2358 C   0  0  0  0  0  0  0  0  0  0  0  0
    8.2042   45.1847   31.4637 C   0  0  0  0  0  0  0  0  0  0  0  0
    6.6670   45.1054   31.4855 C   0  0  0  0  0  0  0  0  0  0  0  0
    6.0295   46.3245   30.8124 C   0  0  0  0  0  0  0  0  0  0  0  0
    6.5096   47.5648   31.4224 N   0  0  0  0  0  0  0  0  0  0  0  0
    7.2295   48.5514   30.6732 C   0  0  0  0  0  0  0  0  0  0  0  0
    7.5339   49.8091   31.2110 O   0  0  0  0  0  0  0  0  0  0  0  0
    7.5990   48.3002   29.4967 O   0  0  0  0  0  0  0  0  0  0  0  0
    7.1898   50.2363   32.5281 C   0  0  0  0  0  0  0  0  0  0  0  0
    8.0995   49.6003   33.5556 C   0  0  0  0  0  0  0  0  0  0  0  0
    9.4869   49.6220   33.3224 C   0  0  0  0  0  0  0  0  0  0  0  0
    7.6082   48.9845   34.7369 C   0  0  0  0  0  0  0  0  0  0  0  0
   10.3702   49.0156   34.2165 C   0  0  0  0  0  0  0  0  0  0  0  0
    8.5116   48.3655   35.6167 C   0  0  0  0  0  0  0  0  0  0  0  0
    6.2135   48.9959   35.0749 N   0  0  0  0  0  0  0  0  0  0  0  0
    9.8832   48.3855   35.3598 C   0  0  0  0  0  0  0  0  0  0  0  0
    5.6450   47.8887   35.6612 O   0  0  0  0  0  0  0  0  0  0  0  0
    5.5781   50.0702   35.0732 O   0  0  0  0  0  0  0  0  0  0  0  0
    8.5373   39.1378   34.0122 O   0  0  0  0  0  0  0  0  0  0  0  0
   10.9798   40.0869   33.6829 O   0  0  0  0  0  0  0  0  0  0  0  0
   10.8003   40.0905   32.2833 C   0  0  0  0  0  0  0  0  0  0  0  0
   11.5958   38.9271   31.6963 C   0  0  0  0  0  0  0  0  0  0  0  0
   12.9239   38.9408   32.1766 O   0  0  0  0  0  0  0  0  0  0  0  0
   11.0062   37.5719   32.0793 C   0  0  0  0  0  0  0  0  0  0  0  0
   13.3507   37.5905   32.2614 C   0  0  0  0  0  0  0  0  0  0  0  0
    9.9064   37.1793   31.2946 O   0  0  0  0  0  0  0  0  0  0  0  0
   12.1920   36.6671   31.9003 C   0  0  0  0  0  0  0  0  0  0  0  0
   13.8017   37.2947   33.6193 N   0  0  0  0  0  0  0  0  0  0  0  0
   12.3133   36.2787   30.5560 O   0  0  0  0  0  0  0  0  0  0  0  0
   14.7927   36.4716   33.9861 C   0  0  0  0  0  0  0  0  0  0  0  0
   13.2746   37.7284   34.7941 C   0  0  0  0  0  0  0  0  0  0  0  0
   15.6240   35.7576   33.1859 N   0  0  0  0  0  0  0  0  0  0  0  0
   14.8728   36.4406   35.3330 C   0  0  0  0  0  0  0  0  0  0  0  0
   13.9209   37.2258   35.8807 N   0  0  0  0  0  0  0  0  0  0  0  0
   16.5874   34.9920   33.7802 C   0  0  0  0  0  0  0  0  0  0  0  0
   15.8579   35.6716   35.9443 C   0  0  0  0  0  0  0  0  0  0  0  0
   16.7028   34.9584   35.1439 N   0  0  0  0  0  0  0  0  0  0  0  0
   16.0103   35.6383   37.3563 N   0  0  0  0  0  0  0  0  0  0  0  0
    7.6767   44.0693   34.0497 H   0  0  0  0  0  0  0  0  0  0  0  0
    9.1865   45.3743   35.3548 H   0  0  0  0  0  0  0  0  0  0  0  0
   10.3172   45.4419   34.0966 H   0  0  0  0  0  0  0  0  0  0  0  0
    9.9719   44.0692   31.9746 H   0  0  0  0  0  0  0  0  0  0  0  0
    8.4824   43.0864   31.8651 H   0  0  0  0  0  0  0  0  0  0  0  0
    8.5416   45.1423   30.4049 H   0  0  0  0  0  0  0  0  0  0  0  0
    8.5550   46.1528   31.8804 H   0  0  0  0  0  0  0  0  0  0  0  0
    6.3325   44.1816   30.9654 H   0  0  0  0  0  0  0  0  0  0  0  0
    6.3025   45.0631   32.5329 H   0  0  0  0  0  0  0  0  0  0  0  0
    4.9262   46.2693   30.9299 H   0  0  0  0  0  0  0  0  0  0  0  0
    6.2467   46.2924   29.7232 H   0  0  0  0  0  0  0  0  0  0  0  0
    6.2843   47.7253   32.4280 H   0  0  0  0  0  0  0  0  0  0  0  0
    7.3309   51.3361   32.5813 H   0  0  0  0  0  0  0  0  0  0  0  0
    6.1144   50.0370   32.7043 H   0  0  0  0  0  0  0  0  0  0  0  0
    9.8861   50.1017   32.4370 H   0  0  0  0  0  0  0  0  0  0  0  0
   11.4345   49.0318   34.0204 H   0  0  0  0  0  0  0  0  0  0  0  0
    8.1531   47.8860   36.5189 H   0  0  0  0  0  0  0  0  0  0  0  0
   10.5696   47.9126   36.0502 H   0  0  0  0  0  0  0  0  0  0  0  0
   11.2117   41.0420   31.8835 H   0  0  0  0  0  0  0  0  0  0  0  0
    9.7455   40.0168   31.9263 H   0  0  0  0  0  0  0  0  0  0  0  0
   11.6245   39.0449   30.5888 H   0  0  0  0  0  0  0  0  0  0  0  0
   10.7050   37.5580   33.1499 H   0  0  0  0  0  0  0  0  0  0  0  0
   14.1985   37.4425   31.5553 H   0  0  0  0  0  0  0  0  0  0  0  0
   10.0893   37.4056   30.3459 H   0  0  0  0  0  0  0  0  0  0  0  0
   12.1337   35.7754   32.5703 H   0  0  0  0  0  0  0  0  0  0  0  0
   11.7934   35.4394   30.4514 H   0  0  0  0  0  0  0  0  0  0  0  0
   12.4313   38.3972   34.8700 H   0  0  0  0  0  0  0  0  0  0  0  0
   17.2669   34.4142   33.1692 H   0  0  0  0  0  0  0  0  0  0  0  0
   16.7638   35.0599   37.7897 H   0  0  0  0  0  0  0  0  0  0  0  0
   15.3759   36.1865   37.9790 H   0  0  0  0  0  0  0  0  0  0  0  0
  1  2  2  0
  1  3  1  0
  3  4  1  0
  4  5  1  0
  6  1  1  0
  7  6  1  0
  6  8  1  0
  8  9  1  0
  9 10  1  0
 10 11  1  0
 11 12  1  0
 12 13  1  0
 13 14  1  0
 13 15  2  0
 14 16  1  0
 16 17  1  0
 17 18  2  0
 19 17  1  0
 18 20  1  0
 21 19  2  0
 19 22  1  0
 20 23  2  0
 23 21  1  0
 22 24  1  0
 22 25  2  0
  4 26  2  0
  4 27  1  0
 28 27  1  0
 28 29  1  0
 29 30  1  0
 29 31  1  0
 30 32  1  0
 31 33  1  0
 31 34  1  0
 34 32  1  0
 32 35  1  0
 34 36  1  0
 37 35  1  0
 38 35  1  0
 39 37  2  0
 37 40  1  0
 41 38  2  0
 42 39  1  0
 40 43  2  0
 40 41  1  0
 44 42  2  0
 44 43  1  0
 43 45  1  0
  6 46  1  6
  7 47  1  0
  7 48  1  0
  8 49  1  0
  8 50  1  0
  9 51  1  0
  9 52  1  0
 10 53  1  0
 10 54  1  0
 11 55  1  0
 11 56  1  0
 12 57  1  0
 16 58  1  0
 16 59  1  0
 18 60  1  0
 20 61  1  0
 21 62  1  0
 23 63  1  0
 28 64  1  0
 28 65  1  0
 29 66  1  0
 31 67  1  0
 32 68  1  0
 33 69  1  0
 34 70  1  0
 36 71  1  0
 38 72  1  0
 42 73  1  0
 45 74  1  0
 45 75  1  0
M  CHG  3   5  -1  22   1  24  -1
M  END
>  <EmbedRMS>  (28) 
0.0747034355064

$$$$

     RDKit          3D

 75 78  0  0  0  0  0  0  0  0999 V2000
    9.4333   42.9364   34.3461 C   0  0  0  0  0  0  0  0  0  0  0  0
   10.4907   43.0329   35.0319 O   0  0  0  0  0  0  0  0  0  0  0  0
    8.8563   41.7103   34.0295 O   0  0  0  0  0  0  0  0  0  0  0  0
    9.4943   40.2139   34.4679 P   0  0  0  0  0  0  0  0  0  0  0  0
    9.7310   40.1724   36.1290 O   0  0  0  0  0  0  0  0  0  0  0  0
    8.7506   44.1348   33.7741 C   0  0  1  0  0  0  0  0  0  0  0  0
    9.2963   45.3820   34.3134 N   0  0  0  0  0  0  0  0  0  0  0  0
    8.8893   44.0528   32.2358 C   0  0  0  0  0  0  0  0  0  0  0  0
    8.2028   45.1824   31.4615 C   0  0  0  0  0  0  0  0  0  0  0  0
    6.6653   45.1046   31.4855 C   0  0  0  0  0  0  0  0  0  0  0  0
    6.0270   46.3225   30.8105 C   0  0  0  0  0  0  0  0  0  0  0  0
    6.5062   47.5640   31.4180 N   0  0  0  0  0  0  0  0  0  0  0  0
    7.2438   48.5391   30.6836 C   0  0  0  0  0  0  0  0  0  0  0  0
    7.5948   49.7394   31.3069 O   0  0  0  0  0  0  0  0  0  0  0  0
    7.5934   48.3118   29.4936 O   0  0  0  0  0  0  0  0  0  0  0  0
    8.3460   50.7581   30.6504 C   0  0  0  0  0  0  0  0  0  0  0  0
    8.5880   51.9491   31.5539 C   0  0  0  0  0  0  0  0  0  0  0  0
    7.8415   52.0999   32.7416 C   0  0  0  0  0  0  0  0  0  0  0  0
    9.5726   52.9246   31.2325 C   0  0  0  0  0  0  0  0  0  0  0  0
    8.0850   53.1666   33.6075 C   0  0  0  0  0  0  0  0  0  0  0  0
    9.8115   53.9812   32.1294 C   0  0  0  0  0  0  0  0  0  0  0  0
   10.3457   52.8587   30.0194 N   0  0  0  0  0  0  0  0  0  0  0  0
    9.0724   54.1007   33.3059 C   0  0  0  0  0  0  0  0  0  0  0  0
   11.6165   53.3855   29.9854 O   0  0  0  0  0  0  0  0  0  0  0  0
    9.8241   52.4845   28.9491 O   0  0  0  0  0  0  0  0  0  0  0  0
    8.5372   39.1382   34.0121 O   0  0  0  0  0  0  0  0  0  0  0  0
   10.9798   40.0870   33.6829 O   0  0  0  0  0  0  0  0  0  0  0  0
   10.8002   40.0905   32.2832 C   0  0  0  0  0  0  0  0  0  0  0  0
   11.5958   38.9271   31.6963 C   0  0  0  0  0  0  0  0  0  0  0  0
   12.9239   38.9408   32.1766 O   0  0  0  0  0  0  0  0  0  0  0  0
   11.0062   37.5719   32.0793 C   0  0  0  0  0  0  0  0  0  0  0  0
   13.3507   37.5905   32.2614 C   0  0  0  0  0  0  0  0  0  0  0  0
    9.9064   37.1792   31.2946 O   0  0  0  0  0  0  0  0  0  0  0  0
   12.1920   36.6671   31.9003 C   0  0  0  0  0  0  0  0  0  0  0  0
   13.8017   37.2948   33.6193 N   0  0  0  0  0  0  0  0  0  0  0  0
   12.3134   36.2787   30.5560 O   0  0  0  0  0  0  0  0  0  0  0  0
   14.7927   36.4716   33.9861 C   0  0  0  0  0  0  0  0  0  0  0  0
   13.2747   37.7284   34.7941 C   0  0  0  0  0  0  0  0  0  0  0  0
   15.6240   35.7576   33.1859 N   0  0  0  0  0  0  0  0  0  0  0  0
   14.8728   36.4406   35.3330 C   0  0  0  0  0  0  0  0  0  0  0  0
   13.9210   37.2258   35.8808 N   0  0  0  0  0  0  0  0  0  0  0  0
   16.5874   34.9920   33.7802 C   0  0  0  0  0  0  0  0  0  0  0  0
   15.8579   35.6716   35.9443 C   0  0  0  0  0  0  0  0  0  0  0  0
   16.7028   34.9584   35.1439 N   0  0  0  0  0  0  0  0  0  0  0  0
   16.0103   35.6383   37.3563 N   0  0  0  0  0  0  0  0  0  0  0  0
    7.6771   44.0706   34.0504 H   0  0  0  0  0  0  0  0  0  0  0  0
    9.1827   45.3820   35.3535 H   0  0  0  0  0  0  0  0  0  0  0  0
   10.3192   45.4406   34.1000 H   0  0  0  0  0  0  0  0  0  0  0  0
    8.4817   43.0851   31.8668 H   0  0  0  0  0  0  0  0  0  0  0  0
    9.9711   44.0682   31.9739 H   0  0  0  0  0  0  0  0  0  0  0  0
    8.5384   45.1364   30.4023 H   0  0  0  0  0  0  0  0  0  0  0  0
    8.5552   46.1510   31.8743 H   0  0  0  0  0  0  0  0  0  0  0  0
    6.3020   45.0643   32.5333 H   0  0  0  0  0  0  0  0  0  0  0  0
    6.3297   44.1799   30.9678 H   0  0  0  0  0  0  0  0  0  0  0  0
    6.2465   46.2897   29.7217 H   0  0  0  0  0  0  0  0  0  0  0  0
    4.9235   46.2672   30.9264 H   0  0  0  0  0  0  0  0  0  0  0  0
    6.2821   47.7530   32.4209 H   0  0  0  0  0  0  0  0  0  0  0  0
    7.7959   51.0948   29.7456 H   0  0  0  0  0  0  0  0  0  0  0  0
    9.3247   50.3259   30.3478 H   0  0  0  0  0  0  0  0  0  0  0  0
    7.0671   51.3930   33.0096 H   0  0  0  0  0  0  0  0  0  0  0  0
    7.5075   53.2667   34.5175 H   0  0  0  0  0  0  0  0  0  0  0  0
   10.5617   54.7293   31.9070 H   0  0  0  0  0  0  0  0  0  0  0  0
    9.2608   54.9250   33.9817 H   0  0  0  0  0  0  0  0  0  0  0  0
    9.7455   40.0168   31.9263 H   0  0  0  0  0  0  0  0  0  0  0  0
   11.2116   41.0420   31.8834 H   0  0  0  0  0  0  0  0  0  0  0  0
   11.6245   39.0449   30.5888 H   0  0  0  0  0  0  0  0  0  0  0  0
   10.7050   37.5580   33.1500 H   0  0  0  0  0  0  0  0  0  0  0  0
   14.1985   37.4426   31.5553 H   0  0  0  0  0  0  0  0  0  0  0  0
   10.0893   37.4056   30.3459 H   0  0  0  0  0  0  0  0  0  0  0  0
   12.1337   35.7754   32.5703 H   0  0  0  0  0  0  0  0  0  0  0  0
   11.7934   35.4394   30.4513 H   0  0  0  0  0  0  0  0  0  0  0  0
   12.4314   38.3973   34.8700 H   0  0  0  0  0  0  0  0  0  0  0  0
   17.2669   34.4141   33.1691 H   0  0  0  0  0  0  0  0  0  0  0  0
   15.3759   36.1864   37.9790 H   0  0  0  0  0  0  0  0  0  0  0  0
   16.7638   35.0599   37.7896 H   0  0  0  0  0  0  0  0  0  0  0  0
  1  2  2  0
  1  3  1  0
  3  4  1  0
  4  5  1  0
  6  1  1  0
  7  6  1  0
  6  8  1  0
  8  9  1  0
  9 10  1  0
 10 11  1  0
 11 12  1  0
 12 13  1  0
 13 14  1  0
 13 15  2  0
 14 16  1  0
 16 17  1  0
 17 18  2  0
 19 17  1  0
 18 20  1  0
 21 19  2  0
 19 22  1  0
 20 23  2  0
 23 21  1  0
 22 24  1  0
 22 25  2  0
  4 26  2  0
  4 27  1  0
 28 27  1  0
 28 29  1  0
 29 30  1  0
 29 31  1  0
 30 32  1  0
 31 33  1  0
 31 34  1  0
 34 32  1  0
 32 35  1  0
 34 36  1  0
 37 35  1  0
 38 35  1  0
 39 37  2  0
 37 40  1  0
 41 38  2  0
 42 39  1  0
 40 43  2  0
 40 41  1  0
 44 42  2  0
 44 43  1  0
 43 45  1  0
  6 46  1  6
  7 47  1  0
  7 48  1  0
  8 49  1  0
  8 50  1  0
  9 51  1  0
  9 52  1  0
 10 53  1  0
 10 54  1  0
 11 55  1  0
 11 56  1  0
 12 57  1  0
 16 58  1  0
 16 59  1  0
 18 60  1  0
 20 61  1  0
 21 62  1  0
 23 63  1  0
 28 64  1  0
 28 65  1  0
 29 66  1  0
 31 67  1  0
 32 68  1  0
 33 69  1  0
 34 70  1  0
 36 71  1  0
 38 72  1  0
 42 73  1  0
 45 74  1  0
 45 75  1  0
M  CHG  3   5  -1  22   1  24  -1
M  END
>  <EmbedRMS>  (29) 
0.0747958419517

$$$$

     RDKit          3D

 75 78  0  0  0  0  0  0  0  0999 V2000
    9.4333   42.9364   34.3461 C   0  0  0  0  0  0  0  0  0  0  0  0
   10.4907   43.0329   35.0318 O   0  0  0  0  0  0  0  0  0  0  0  0
    8.8563   41.7102   34.0295 O   0  0  0  0  0  0  0  0  0  0  0  0
    9.4943   40.2139   34.4679 P   0  0  0  0  0  0  0  0  0  0  0  0
    9.7310   40.1724   36.1290 O   0  0  0  0  0  0  0  0  0  0  0  0
    8.7506   44.1347   33.7741 C   0  0  1  0  0  0  0  0  0  0  0  0
    9.2963   45.3820   34.3133 N   0  0  0  0  0  0  0  0  0  0  0  0
    8.8893   44.0527   32.2358 C   0  0  0  0  0  0  0  0  0  0  0  0
    8.2029   45.1822   31.4614 C   0  0  0  0  0  0  0  0  0  0  0  0
    6.6654   45.1046   31.4854 C   0  0  0  0  0  0  0  0  0  0  0  0
    6.0272   46.3228   30.8107 C   0  0  0  0  0  0  0  0  0  0  0  0
    6.5072   47.5640   31.4182 N   0  0  0  0  0  0  0  0  0  0  0  0
    7.2417   48.5406   30.6828 C   0  0  0  0  0  0  0  0  0  0  0  0
    7.5877   49.7441   31.3063 O   0  0  0  0  0  0  0  0  0  0  0  0
    7.5941   48.3105   29.4945 O   0  0  0  0  0  0  0  0  0  0  0  0
    8.2817   50.8027   30.6481 C   0  0  0  0  0  0  0  0  0  0  0  0
    7.3784   51.5023   29.6590 C   0  0  0  0  0  0  0  0  0  0  0  0
    7.5771   51.2636   28.2863 C   0  0  0  0  0  0  0  0  0  0  0  0
    6.3691   52.4198   30.0650 C   0  0  0  0  0  0  0  0  0  0  0  0
    6.7967   51.9117   27.3289 C   0  0  0  0  0  0  0  0  0  0  0  0
    5.6044   53.0718   29.0803 C   0  0  0  0  0  0  0  0  0  0  0  0
    6.1237   52.7323   31.4498 N   0  0  0  0  0  0  0  0  0  0  0  0
    5.8135   52.8150   27.7250 C   0  0  0  0  0  0  0  0  0  0  0  0
    5.6147   53.9632   31.7953 O   0  0  0  0  0  0  0  0  0  0  0  0
    6.2186   51.8567   32.3333 O   0  0  0  0  0  0  0  0  0  0  0  0
    8.5372   39.1382   34.0121 O   0  0  0  0  0  0  0  0  0  0  0  0
   10.9798   40.0870   33.6829 O   0  0  0  0  0  0  0  0  0  0  0  0
   10.8002   40.0905   32.2833 C   0  0  0  0  0  0  0  0  0  0  0  0
   11.5958   38.9271   31.6963 C   0  0  0  0  0  0  0  0  0  0  0  0
   12.9239   38.9408   32.1766 O   0  0  0  0  0  0  0  0  0  0  0  0
   11.0062   37.5719   32.0793 C   0  0  0  0  0  0  0  0  0  0  0  0
   13.3507   37.5905   32.2614 C   0  0  0  0  0  0  0  0  0  0  0  0
    9.9064   37.1792   31.2946 O   0  0  0  0  0  0  0  0  0  0  0  0
   12.1920   36.6671   31.9003 C   0  0  0  0  0  0  0  0  0  0  0  0
   13.8017   37.2948   33.6193 N   0  0  0  0  0  0  0  0  0  0  0  0
   12.3134   36.2787   30.5560 O   0  0  0  0  0  0  0  0  0  0  0  0
   14.7927   36.4716   33.9861 C   0  0  0  0  0  0  0  0  0  0  0  0
   13.2746   37.7284   34.7941 C   0  0  0  0  0  0  0  0  0  0  0  0
   15.6240   35.7576   33.1859 N   0  0  0  0  0  0  0  0  0  0  0  0
   14.8728   36.4406   35.3330 C   0  0  0  0  0  0  0  0  0  0  0  0
   13.9209   37.2258   35.8807 N   0  0  0  0  0  0  0  0  0  0  0  0
   16.5874   34.9920   33.7802 C   0  0  0  0  0  0  0  0  0  0  0  0
   15.8579   35.6716   35.9443 C   0  0  0  0  0  0  0  0  0  0  0  0
   16.7028   34.9584   35.1439 N   0  0  0  0  0  0  0  0  0  0  0  0
   16.0103   35.6383   37.3563 N   0  0  0  0  0  0  0  0  0  0  0  0
    7.6770   44.0706   34.0503 H   0  0  0  0  0  0  0  0  0  0  0  0
    9.1827   45.3819   35.3534 H   0  0  0  0  0  0  0  0  0  0  0  0
   10.3192   45.4405   34.1000 H   0  0  0  0  0  0  0  0  0  0  0  0
    8.4816   43.0850   31.8668 H   0  0  0  0  0  0  0  0  0  0  0  0
    9.9711   44.0680   31.9739 H   0  0  0  0  0  0  0  0  0  0  0  0
    8.5554   46.1509   31.8741 H   0  0  0  0  0  0  0  0  0  0  0  0
    8.5385   45.1362   30.4021 H   0  0  0  0  0  0  0  0  0  0  0  0
    6.3296   44.1801   30.9674 H   0  0  0  0  0  0  0  0  0  0  0  0
    6.3020   45.0641   32.5332 H   0  0  0  0  0  0  0  0  0  0  0  0
    6.2462   46.2901   29.7218 H   0  0  0  0  0  0  0  0  0  0  0  0
    4.9238   46.2679   30.9271 H   0  0  0  0  0  0  0  0  0  0  0  0
    6.2826   47.7534   32.4209 H   0  0  0  0  0  0  0  0  0  0  0  0
    8.6417   51.5326   31.4032 H   0  0  0  0  0  0  0  0  0  0  0  0
    9.1901   50.3950   30.1519 H   0  0  0  0  0  0  0  0  0  0  0  0
    8.3428   50.5742   27.9527 H   0  0  0  0  0  0  0  0  0  0  0  0
    6.9590   51.7167   26.2767 H   0  0  0  0  0  0  0  0  0  0  0  0
    4.8319   53.7753   29.3634 H   0  0  0  0  0  0  0  0  0  0  0  0
    5.2118   53.3195   26.9799 H   0  0  0  0  0  0  0  0  0  0  0  0
    9.7455   40.0168   31.9263 H   0  0  0  0  0  0  0  0  0  0  0  0
   11.2116   41.0420   31.8834 H   0  0  0  0  0  0  0  0  0  0  0  0
   11.6245   39.0449   30.5888 H   0  0  0  0  0  0  0  0  0  0  0  0
   10.7050   37.5579   33.1499 H   0  0  0  0  0  0  0  0  0  0  0  0
   14.1985   37.4426   31.5553 H   0  0  0  0  0  0  0  0  0  0  0  0
   10.0893   37.4056   30.3459 H   0  0  0  0  0  0  0  0  0  0  0  0
   12.1337   35.7754   32.5703 H   0  0  0  0  0  0  0  0  0  0  0  0
   11.7934   35.4394   30.4513 H   0  0  0  0  0  0  0  0  0  0  0  0
   12.4314   38.3972   34.8700 H   0  0  0  0  0  0  0  0  0  0  0  0
   17.2669   34.4142   33.1692 H   0  0  0  0  0  0  0  0  0  0  0  0
   16.7638   35.0599   37.7897 H   0  0  0  0  0  0  0  0  0  0  0  0
   15.3759   36.1865   37.9790 H   0  0  0  0  0  0  0  0  0  0  0  0
  1  2  2  0
  1  3  1  0
  3  4  1  0
  4  5  1  0
  6  1  1  0
  7  6  1  0
  6  8  1  0
  8  9  1  0
  9 10  1  0
 10 11  1  0
 11 12  1  0
 12 13  1  0
 13 14  1  0
 13 15  2  0
 14 16  1  0
 16 17  1  0
 17 18  2  0
 19 17  1  0
 18 20  1  0
 21 19  2  0
 19 22  1  0
 20 23  2  0
 23 21  1  0
 22 24  1  0
 22 25  2  0
  4 26  2  0
  4 27  1  0
 28 27  1  0
 28 29  1  0
 29 30  1  0
 29 31  1  0
 30 32  1  0
 31 33  1  0
 31 34  1  0
 34 32  1  0
 32 35  1  0
 34 36  1  0
 37 35  1  0
 38 35  1  0
 39 37  2  0
 37 40  1  0
 41 38  2  0
 42 39  1  0
 40 43  2  0
 40 41  1  0
 44 42  2  0
 44 43  1  0
 43 45  1  0
  6 46  1  6
  7 47  1  0
  7 48  1  0
  8 49  1  0
  8 50  1  0
  9 51  1  0
  9 52  1  0
 10 53  1  0
 10 54  1  0
 11 55  1  0
 11 56  1  0
 12 57  1  0
 16 58  1  0
 16 59  1  0
 18 60  1  0
 20 61  1  0
 21 62  1  0
 23 63  1  0
 28 64  1  0
 28 65  1  0
 29 66  1  0
 31 67  1  0
 32 68  1  0
 33 69  1  0
 34 70  1  0
 36 71  1  0
 38 72  1  0
 42 73  1  0
 45 74  1  0
 45 75  1  0
M  CHG  3   5  -1  22   1  24  -1
M  END
>  <EmbedRMS>  (30) 
0.0747369643244

$$$$

     RDKit          3D

 75 78  0  0  0  0  0  0  0  0999 V2000
    9.4316   42.9423   34.3430 C   0  0  0  0  0  0  0  0  0  0  0  0
   10.4887   43.0418   35.0290 O   0  0  0  0  0  0  0  0  0  0  0  0
    8.8558   41.7140   34.0291 O   0  0  0  0  0  0  0  0  0  0  0  0
    9.4931   40.2172   34.4704 P   0  0  0  0  0  0  0  0  0  0  0  0
    9.7288   40.1751   36.1314 O   0  0  0  0  0  0  0  0  0  0  0  0
    8.7493   44.1382   33.7714 C   0  0  1  0  0  0  0  0  0  0  0  0
    9.3057   45.3684   34.3381 N   0  0  0  0  0  0  0  0  0  0  0  0
    8.8897   44.0557   32.2300 C   0  0  0  0  0  0  0  0  0  0  0  0
    8.2004   45.1770   31.4442 C   0  0  0  0  0  0  0  0  0  0  0  0
    6.6628   45.1089   31.4883 C   0  0  0  0  0  0  0  0  0  0  0  0
    6.0204   46.3216   30.8063 C   0  0  0  0  0  0  0  0  0  0  0  0
    6.4888   47.5670   31.4131 N   0  0  0  0  0  0  0  0  0  0  0  0
    7.2752   48.5173   30.6985 C   0  0  0  0  0  0  0  0  0  0  0  0
    7.7686   49.6349   31.3777 O   0  0  0  0  0  0  0  0  0  0  0  0
    7.5864   48.3123   29.4945 O   0  0  0  0  0  0  0  0  0  0  0  0
    8.8695   50.4114   30.9086 C   0  0  0  0  0  0  0  0  0  0  0  0
   10.1364   49.5839   30.9155 C   0  0  0  0  0  0  0  0  0  0  0  0
   10.4935   48.9326   32.1111 C   0  0  0  0  0  0  0  0  0  0  0  0
   10.9966   49.4824   29.7914 C   0  0  0  0  0  0  0  0  0  0  0  0
   11.6699   48.1869   32.1942 C   0  0  0  0  0  0  0  0  0  0  0  0
   12.1883   48.7448   29.9012 C   0  0  0  0  0  0  0  0  0  0  0  0
   10.6876   50.1174   28.5423 N   0  0  0  0  0  0  0  0  0  0  0  0
   12.5178   48.0961   31.0921 C   0  0  0  0  0  0  0  0  0  0  0  0
    9.5093   49.8249   27.8963 O   0  0  0  0  0  0  0  0  0  0  0  0
   11.5826   50.7223   27.9169 O   0  0  0  0  0  0  0  0  0  0  0  0
    8.5367   39.1409   34.0142 O   0  0  0  0  0  0  0  0  0  0  0  0
   10.9794   40.0884   33.6888 O   0  0  0  0  0  0  0  0  0  0  0  0
   10.8017   40.0950   32.2900 C   0  0  0  0  0  0  0  0  0  0  0  0
   11.5885   38.9267   31.7041 C   0  0  0  0  0  0  0  0  0  0  0  0
   12.9237   38.9446   32.1722 O   0  0  0  0  0  0  0  0  0  0  0  0
   11.0029   37.5727   32.0908 C   0  0  0  0  0  0  0  0  0  0  0  0
   13.3555   37.5960   32.2595 C   0  0  0  0  0  0  0  0  0  0  0  0
    9.9379   37.1847   31.2657 O   0  0  0  0  0  0  0  0  0  0  0  0
   12.1931   36.6770   31.8952 C   0  0  0  0  0  0  0  0  0  0  0  0
   13.8028   37.2977   33.6186 N   0  0  0  0  0  0  0  0  0  0  0  0
   12.2917   36.2396   30.5587 O   0  0  0  0  0  0  0  0  0  0  0  0
   14.7926   36.4727   33.9858 C   0  0  0  0  0  0  0  0  0  0  0  0
   13.2750   37.7302   34.7935 C   0  0  0  0  0  0  0  0  0  0  0  0
   15.6241   35.7586   33.1857 N   0  0  0  0  0  0  0  0  0  0  0  0
   14.8721   36.4408   35.3326 C   0  0  0  0  0  0  0  0  0  0  0  0
   13.9204   37.2263   35.8802 N   0  0  0  0  0  0  0  0  0  0  0  0
   16.5870   34.9925   33.7800 C   0  0  0  0  0  0  0  0  0  0  0  0
   15.8572   35.6717   35.9441 C   0  0  0  0  0  0  0  0  0  0  0  0
   16.7022   34.9586   35.1437 N   0  0  0  0  0  0  0  0  0  0  0  0
   16.0097   35.6384   37.3561 N   0  0  0  0  0  0  0  0  0  0  0  0
    7.6773   44.0665   34.0540 H   0  0  0  0  0  0  0  0  0  0  0  0
    8.6501   46.1588   34.1418 H   0  0  0  0  0  0  0  0  0  0  0  0
   10.2173   45.5893   33.8741 H   0  0  0  0  0  0  0  0  0  0  0  0
    9.9712   44.0701   31.9669 H   0  0  0  0  0  0  0  0  0  0  0  0
    8.4845   43.0856   31.8649 H   0  0  0  0  0  0  0  0  0  0  0  0
    8.5199   45.1037   30.3815 H   0  0  0  0  0  0  0  0  0  0  0  0
    8.5680   46.1541   31.8197 H   0  0  0  0  0  0  0  0  0  0  0  0
    6.3162   44.1795   30.9865 H   0  0  0  0  0  0  0  0  0  0  0  0
    6.3124   45.0832   32.5409 H   0  0  0  0  0  0  0  0  0  0  0  0
    4.9167   46.2604   30.9171 H   0  0  0  0  0  0  0  0  0  0  0  0
    6.2451   46.2875   29.7186 H   0  0  0  0  0  0  0  0  0  0  0  0
    6.2701   47.7501   32.4183 H   0  0  0  0  0  0  0  0  0  0  0  0
    8.6283   50.8443   29.9190 H   0  0  0  0  0  0  0  0  0  0  0  0
    9.0106   51.2658   31.6033 H   0  0  0  0  0  0  0  0  0  0  0  0
    9.8561   49.0032   32.9843 H   0  0  0  0  0  0  0  0  0  0  0  0
   11.9279   47.6849   33.1178 H   0  0  0  0  0  0  0  0  0  0  0  0
   12.8556   48.6587   29.0527 H   0  0  0  0  0  0  0  0  0  0  0  0
   13.4328   47.5218   31.1601 H   0  0  0  0  0  0  0  0  0  0  0  0
    9.7472   40.0380   31.9302 H   0  0  0  0  0  0  0  0  0  0  0  0
   11.2241   41.0429   31.8929 H   0  0  0  0  0  0  0  0  0  0  0  0
   11.5928   39.0434   30.5966 H   0  0  0  0  0  0  0  0  0  0  0  0
   10.7003   37.5444   33.1641 H   0  0  0  0  0  0  0  0  0  0  0  0
   14.2051   37.4477   31.5560 H   0  0  0  0  0  0  0  0  0  0  0  0
    9.1374   37.6723   31.5905 H   0  0  0  0  0  0  0  0  0  0  0  0
   12.1304   35.7856   32.5586 H   0  0  0  0  0  0  0  0  0  0  0  0
   12.4606   37.0186   29.9674 H   0  0  0  0  0  0  0  0  0  0  0  0
   12.4327   38.4001   34.8694 H   0  0  0  0  0  0  0  0  0  0  0  0
   17.2666   34.4146   33.1690 H   0  0  0  0  0  0  0  0  0  0  0  0
   15.3754   36.1866   37.9788 H   0  0  0  0  0  0  0  0  0  0  0  0
   16.7634   35.0601   37.7894 H   0  0  0  0  0  0  0  0  0  0  0  0
  1  2  2  0
  1  3  1  0
  3  4  1  0
  4  5  1  0
  6  1  1  0
  7  6  1  0
  6  8  1  0
  8  9  1  0
  9 10  1  0
 10 11  1  0
 11 12  1  0
 12 13  1  0
 13 14  1  0
 13 15  2  0
 14 16  1  0
 16 17  1  0
 17 18  2  0
 19 17  1  0
 18 20  1  0
 21 19  2  0
 19 22  1  0
 20 23  2  0
 23 21  1  0
 22 24  1  0
 22 25  2  0
  4 26  2  0
  4 27  1  0
 28 27  1  0
 28 29  1  0
 29 30  1  0
 29 31  1  0
 30 32  1  0
 31 33  1  0
 31 34  1  0
 34 32  1  0
 32 35  1  0
 34 36  1  0
 37 35  1  0
 38 35  1  0
 39 37  2  0
 37 40  1  0
 41 38  2  0
 42 39  1  0
 40 43  2  0
 40 41  1  0
 44 42  2  0
 44 43  1  0
 43 45  1  0
  6 46  1  6
  7 47  1  0
  7 48  1  0
  8 49  1  0
  8 50  1  0
  9 51  1  0
  9 52  1  0
 10 53  1  0
 10 54  1  0
 11 55  1  0
 11 56  1  0
 12 57  1  0
 16 58  1  0
 16 59  1  0
 18 60  1  0
 20 61  1  0
 21 62  1  0
 23 63  1  0
 28 64  1  0
 28 65  1  0
 29 66  1  0
 31 67  1  0
 32 68  1  0
 33 69  1  0
 34 70  1  0
 36 71  1  0
 38 72  1  0
 42 73  1  0
 45 74  1  0
 45 75  1  0
M  CHG  3   5  -1  22   1  24  -1
M  END
>  <EmbedRMS>  (31) 
0.076175979766

$$$$

     RDKit          3D

 75 78  0  0  0  0  0  0  0  0999 V2000
    9.4298   42.9395   34.3436 C   0  0  0  0  0  0  0  0  0  0  0  0
   10.4912   43.0382   35.0235 O   0  0  0  0  0  0  0  0  0  0  0  0
    8.8545   41.7116   34.0291 O   0  0  0  0  0  0  0  0  0  0  0  0
    9.4929   40.2155   34.4699 P   0  0  0  0  0  0  0  0  0  0  0  0
    9.7292   40.1741   36.1309 O   0  0  0  0  0  0  0  0  0  0  0  0
    8.7410   44.1377   33.7785 C   0  0  1  0  0  0  0  0  0  0  0  0
    9.3011   45.3720   34.3323 N   0  0  0  0  0  0  0  0  0  0  0  0
    8.8962   44.0589   32.2398 C   0  0  0  0  0  0  0  0  0  0  0  0
    8.2030   45.1685   31.4396 C   0  0  0  0  0  0  0  0  0  0  0  0
    6.6655   45.1048   31.4871 C   0  0  0  0  0  0  0  0  0  0  0  0
    6.0281   46.3242   30.8132 C   0  0  0  0  0  0  0  0  0  0  0  0
    6.5118   47.5625   31.4236 N   0  0  0  0  0  0  0  0  0  0  0  0
    7.2387   48.5469   30.6791 C   0  0  0  0  0  0  0  0  0  0  0  0
    7.5894   49.7831   31.2386 O   0  0  0  0  0  0  0  0  0  0  0  0
    7.5940   48.3039   29.4964 O   0  0  0  0  0  0  0  0  0  0  0  0
    7.1902   50.2386   32.5311 C   0  0  0  0  0  0  0  0  0  0  0  0
    5.7029   50.5100   32.5777 C   0  0  0  0  0  0  0  0  0  0  0  0
    4.9358   49.8836   33.5775 C   0  0  0  0  0  0  0  0  0  0  0  0
    5.0536   51.3479   31.6295 C   0  0  0  0  0  0  0  0  0  0  0  0
    3.5519   50.0528   33.6257 C   0  0  0  0  0  0  0  0  0  0  0  0
    3.6558   51.4910   31.6875 C   0  0  0  0  0  0  0  0  0  0  0  0
    5.7793   52.0443   30.5998 N   0  0  0  0  0  0  0  0  0  0  0  0
    2.9124   50.8498   32.6789 C   0  0  0  0  0  0  0  0  0  0  0  0
    5.1699   52.3205   29.3974 O   0  0  0  0  0  0  0  0  0  0  0  0
    6.8943   52.5520   30.8366 O   0  0  0  0  0  0  0  0  0  0  0  0
    8.5369   39.1389   34.0137 O   0  0  0  0  0  0  0  0  0  0  0  0
   10.9787   40.0874   33.6871 O   0  0  0  0  0  0  0  0  0  0  0  0
   10.7992   40.0946   32.2883 C   0  0  0  0  0  0  0  0  0  0  0  0
   11.5957   38.9351   31.6994 C   0  0  0  0  0  0  0  0  0  0  0  0
   12.9257   38.9478   32.1799 O   0  0  0  0  0  0  0  0  0  0  0  0
   11.0070   37.5758   32.0732 C   0  0  0  0  0  0  0  0  0  0  0  0
   13.3571   37.5980   32.2612 C   0  0  0  0  0  0  0  0  0  0  0  0
    9.9093   37.1808   31.2875 O   0  0  0  0  0  0  0  0  0  0  0  0
   12.1967   36.6764   31.8894 C   0  0  0  0  0  0  0  0  0  0  0  0
   13.8018   37.2956   33.6197 N   0  0  0  0  0  0  0  0  0  0  0  0
   12.3048   36.2360   30.5555 O   0  0  0  0  0  0  0  0  0  0  0  0
   14.7922   36.4716   33.9864 C   0  0  0  0  0  0  0  0  0  0  0  0
   13.2747   37.7291   34.7944 C   0  0  0  0  0  0  0  0  0  0  0  0
   15.6240   35.7581   33.1861 N   0  0  0  0  0  0  0  0  0  0  0  0
   14.8721   36.4402   35.3331 C   0  0  0  0  0  0  0  0  0  0  0  0
   13.9206   37.2257   35.8810 N   0  0  0  0  0  0  0  0  0  0  0  0
   16.5873   34.9924   33.7802 C   0  0  0  0  0  0  0  0  0  0  0  0
   15.8576   35.6714   35.9444 C   0  0  0  0  0  0  0  0  0  0  0  0
   16.7026   34.9585   35.1439 N   0  0  0  0  0  0  0  0  0  0  0  0
   16.0102   35.6383   37.3564 N   0  0  0  0  0  0  0  0  0  0  0  0
    7.6665   44.0653   34.0544 H   0  0  0  0  0  0  0  0  0  0  0  0
    9.2334   45.3275   35.3757 H   0  0  0  0  0  0  0  0  0  0  0  0
    8.6799   46.1669   34.0589 H   0  0  0  0  0  0  0  0  0  0  0  0
    9.9809   44.0901   31.9916 H   0  0  0  0  0  0  0  0  0  0  0  0
    8.5082   43.0836   31.8695 H   0  0  0  0  0  0  0  0  0  0  0  0
    8.5762   46.1509   31.7930 H   0  0  0  0  0  0  0  0  0  0  0  0
    8.5181   45.0765   30.3770 H   0  0  0  0  0  0  0  0  0  0  0  0
    6.3143   44.1789   30.9821 H   0  0  0  0  0  0  0  0  0  0  0  0
    6.3165   45.0763   32.5399 H   0  0  0  0  0  0  0  0  0  0  0  0
    6.2427   46.2925   29.7235 H   0  0  0  0  0  0  0  0  0  0  0  0
    4.9251   46.2711   30.9346 H   0  0  0  0  0  0  0  0  0  0  0  0
    6.3157   47.7066   32.4373 H   0  0  0  0  0  0  0  0  0  0  0  0
    7.5074   49.5015   33.3005 H   0  0  0  0  0  0  0  0  0  0  0  0
    7.7337   51.1771   32.7640 H   0  0  0  0  0  0  0  0  0  0  0  0
    5.4079   49.2492   34.3177 H   0  0  0  0  0  0  0  0  0  0  0  0
    2.9733   49.5595   34.3960 H   0  0  0  0  0  0  0  0  0  0  0  0
    3.1394   52.1178   30.9715 H   0  0  0  0  0  0  0  0  0  0  0  0
    1.8381   50.9761   32.7162 H   0  0  0  0  0  0  0  0  0  0  0  0
   11.2092   41.0480   31.8915 H   0  0  0  0  0  0  0  0  0  0  0  0
    9.7448   40.0200   31.9302 H   0  0  0  0  0  0  0  0  0  0  0  0
   11.6207   39.0684   30.5942 H   0  0  0  0  0  0  0  0  0  0  0  0
   10.7059   37.5564   33.1439 H   0  0  0  0  0  0  0  0  0  0  0  0
   14.2095   37.4544   31.5601 H   0  0  0  0  0  0  0  0  0  0  0  0
   10.0864   37.4209   30.3413 H   0  0  0  0  0  0  0  0  0  0  0  0
   12.1276   35.7872   32.5550 H   0  0  0  0  0  0  0  0  0  0  0  0
   12.5031   37.0109   29.9673 H   0  0  0  0  0  0  0  0  0  0  0  0
   12.4328   38.3997   34.8703 H   0  0  0  0  0  0  0  0  0  0  0  0
   17.2670   34.4149   33.1691 H   0  0  0  0  0  0  0  0  0  0  0  0
   15.3758   36.1862   37.9791 H   0  0  0  0  0  0  0  0  0  0  0  0
   16.7640   35.0601   37.7896 H   0  0  0  0  0  0  0  0  0  0  0  0
  1  2  2  0
  1  3  1  0
  3  4  1  0
  4  5  1  0
  6  1  1  0
  7  6  1  0
  6  8  1  0
  8  9  1  0
  9 10  1  0
 10 11  1  0
 11 12  1  0
 12 13  1  0
 13 14  1  0
 13 15  2  0
 14 16  1  0
 16 17  1  0
 17 18  2  0
 19 17  1  0
 18 20  1  0
 21 19  2  0
 19 22  1  0
 20 23  2  0
 23 21  1  0
 22 24  1  0
 22 25  2  0
  4 26  2  0
  4 27  1  0
 28 27  1  0
 28 29  1  0
 29 30  1  0
 29 31  1  0
 30 32  1  0
 31 33  1  0
 31 34  1  0
 34 32  1  0
 32 35  1  0
 34 36  1  0
 37 35  1  0
 38 35  1  0
 39 37  2  0
 37 40  1  0
 41 38  2  0
 42 39  1  0
 40 43  2  0
 40 41  1  0
 44 42  2  0
 44 43  1  0
 43 45  1  0
  6 46  1  6
  7 47  1  0
  7 48  1  0
  8 49  1  0
  8 50  1  0
  9 51  1  0
  9 52  1  0
 10 53  1  0
 10 54  1  0
 11 55  1  0
 11 56  1  0
 12 57  1  0
 16 58  1  0
 16 59  1  0
 18 60  1  0
 20 61  1  0
 21 62  1  0
 23 63  1  0
 28 64  1  0
 28 65  1  0
 29 66  1  0
 31 67  1  0
 32 68  1  0
 33 69  1  0
 34 70  1  0
 36 71  1  0
 38 72  1  0
 42 73  1  0
 45 74  1  0
 45 75  1  0
M  CHG  3   5  -1  22   1  24  -1
M  END
>  <EmbedRMS>  (32) 
0.0752637807087

$$$$

     RDKit          3D

 75 78  0  0  0  0  0  0  0  0999 V2000
    9.4334   42.9368   34.3457 C   0  0  0  0  0  0  0  0  0  0  0  0
   10.4908   43.0332   35.0315 O   0  0  0  0  0  0  0  0  0  0  0  0
    8.8559   41.7107   34.0299 O   0  0  0  0  0  0  0  0  0  0  0  0
    9.4930   40.2143   34.4702 P   0  0  0  0  0  0  0  0  0  0  0  0
    9.7292   40.1730   36.1311 O   0  0  0  0  0  0  0  0  0  0  0  0
    8.7509   44.1355   33.7737 C   0  0  1  0  0  0  0  0  0  0  0  0
    9.2967   45.3822   34.3135 N   0  0  0  0  0  0  0  0  0  0  0  0
    8.8899   44.0552   32.2354 C   0  0  0  0  0  0  0  0  0  0  0  0
    8.2028   45.1858   31.4624 C   0  0  0  0  0  0  0  0  0  0  0  0
    6.6652   45.1062   31.4856 C   0  0  0  0  0  0  0  0  0  0  0  0
    6.0240   46.3220   30.8083 C   0  0  0  0  0  0  0  0  0  0  0  0
    6.4972   47.5657   31.4155 N   0  0  0  0  0  0  0  0  0  0  0  0
    7.2575   48.5294   30.6899 C   0  0  0  0  0  0  0  0  0  0  0  0
    7.6734   49.6965   31.3384 O   0  0  0  0  0  0  0  0  0  0  0  0
    7.5905   48.3103   29.4937 O   0  0  0  0  0  0  0  0  0  0  0  0
    8.6255   50.6000   30.7802 C   0  0  0  0  0  0  0  0  0  0  0  0
    9.9897   49.9510   30.7061 C   0  0  0  0  0  0  0  0  0  0  0  0
   10.6237   49.8615   29.4532 C   0  0  0  0  0  0  0  0  0  0  0  0
   10.6177   49.3729   31.8445 C   0  0  0  0  0  0  0  0  0  0  0  0
   11.8460   49.2026   29.3182 C   0  0  0  0  0  0  0  0  0  0  0  0
   11.8409   48.6984   31.6808 C   0  0  0  0  0  0  0  0  0  0  0  0
   10.0309   49.4347   33.1580 N   0  0  0  0  0  0  0  0  0  0  0  0
   12.4506   48.6177   30.4285 C   0  0  0  0  0  0  0  0  0  0  0  0
   10.2935   48.4428   34.0748 O   0  0  0  0  0  0  0  0  0  0  0  0
    9.4208   50.4542   33.5389 O   0  0  0  0  0  0  0  0  0  0  0  0
    8.5365   39.1383   34.0135 O   0  0  0  0  0  0  0  0  0  0  0  0
   10.9788   40.0866   33.6873 O   0  0  0  0  0  0  0  0  0  0  0  0
   10.7993   40.0944   32.2885 C   0  0  0  0  0  0  0  0  0  0  0  0
   11.5957   38.9351   31.6994 C   0  0  0  0  0  0  0  0  0  0  0  0
   12.9257   38.9478   32.1798 O   0  0  0  0  0  0  0  0  0  0  0  0
   11.0070   37.5757   32.0732 C   0  0  0  0  0  0  0  0  0  0  0  0
   13.3571   37.5979   32.2612 C   0  0  0  0  0  0  0  0  0  0  0  0
    9.9093   37.1807   31.2875 O   0  0  0  0  0  0  0  0  0  0  0  0
   12.1967   36.6764   31.8894 C   0  0  0  0  0  0  0  0  0  0  0  0
   13.8018   37.2956   33.6197 N   0  0  0  0  0  0  0  0  0  0  0  0
   12.3048   36.2360   30.5555 O   0  0  0  0  0  0  0  0  0  0  0  0
   14.7922   36.4716   33.9864 C   0  0  0  0  0  0  0  0  0  0  0  0
   13.2747   37.7291   34.7944 C   0  0  0  0  0  0  0  0  0  0  0  0
   15.6240   35.7581   33.1861 N   0  0  0  0  0  0  0  0  0  0  0  0
   14.8721   36.4402   35.3331 C   0  0  0  0  0  0  0  0  0  0  0  0
   13.9206   37.2257   35.8810 N   0  0  0  0  0  0  0  0  0  0  0  0
   16.5873   34.9924   33.7802 C   0  0  0  0  0  0  0  0  0  0  0  0
   15.8576   35.6714   35.9444 C   0  0  0  0  0  0  0  0  0  0  0  0
   16.7026   34.9585   35.1439 N   0  0  0  0  0  0  0  0  0  0  0  0
   16.0102   35.6382   37.3564 N   0  0  0  0  0  0  0  0  0  0  0  0
    7.6773   44.0715   34.0497 H   0  0  0  0  0  0  0  0  0  0  0  0
    9.1840   45.3819   35.3537 H   0  0  0  0  0  0  0  0  0  0  0  0
   10.3194   45.4413   34.0991 H   0  0  0  0  0  0  0  0  0  0  0  0
    9.9718   44.0719   31.9738 H   0  0  0  0  0  0  0  0  0  0  0  0
    8.4830   43.0876   31.8652 H   0  0  0  0  0  0  0  0  0  0  0  0
    8.5538   46.1547   31.8768 H   0  0  0  0  0  0  0  0  0  0  0  0
    8.5393   45.1423   30.4034 H   0  0  0  0  0  0  0  0  0  0  0  0
    6.3015   45.0666   32.5334 H   0  0  0  0  0  0  0  0  0  0  0  0
    6.3313   44.1802   30.9691 H   0  0  0  0  0  0  0  0  0  0  0  0
    4.9205   46.2630   30.9217 H   0  0  0  0  0  0  0  0  0  0  0  0
    6.2459   46.2889   29.7200 H   0  0  0  0  0  0  0  0  0  0  0  0
    6.2759   47.7521   32.4195 H   0  0  0  0  0  0  0  0  0  0  0  0
    8.6822   51.5098   31.4119 H   0  0  0  0  0  0  0  0  0  0  0  0
    8.2720   50.9330   29.7796 H   0  0  0  0  0  0  0  0  0  0  0  0
   10.1643   50.2907   28.5712 H   0  0  0  0  0  0  0  0  0  0  0  0
   12.3209   49.1376   28.3477 H   0  0  0  0  0  0  0  0  0  0  0  0
   12.3342   48.2444   32.5308 H   0  0  0  0  0  0  0  0  0  0  0  0
   13.3959   48.1018   30.3196 H   0  0  0  0  0  0  0  0  0  0  0  0
   11.2095   41.0480   31.8921 H   0  0  0  0  0  0  0  0  0  0  0  0
    9.7449   40.0201   31.9303 H   0  0  0  0  0  0  0  0  0  0  0  0
   11.6207   39.0685   30.5942 H   0  0  0  0  0  0  0  0  0  0  0  0
   10.7059   37.5563   33.1438 H   0  0  0  0  0  0  0  0  0  0  0  0
   14.2095   37.4543   31.5601 H   0  0  0  0  0  0  0  0  0  0  0  0
   10.0865   37.4210   30.3413 H   0  0  0  0  0  0  0  0  0  0  0  0
   12.1276   35.7872   32.5549 H   0  0  0  0  0  0  0  0  0  0  0  0
   12.5031   37.0109   29.9672 H   0  0  0  0  0  0  0  0  0  0  0  0
   12.4328   38.3996   34.8703 H   0  0  0  0  0  0  0  0  0  0  0  0
   17.2670   34.4149   33.1691 H   0  0  0  0  0  0  0  0  0  0  0  0
   15.3758   36.1862   37.9791 H   0  0  0  0  0  0  0  0  0  0  0  0
   16.7640   35.0601   37.7896 H   0  0  0  0  0  0  0  0  0  0  0  0
  1  2  2  0
  1  3  1  0
  3  4  1  0
  4  5  1  0
  6  1  1  0
  7  6  1  0
  6  8  1  0
  8  9  1  0
  9 10  1  0
 10 11  1  0
 11 12  1  0
 12 13  1  0
 13 14  1  0
 13 15  2  0
 14 16  1  0
 16 17  1  0
 17 18  2  0
 19 17  1  0
 18 20  1  0
 21 19  2  0
 19 22  1  0
 20 23  2  0
 23 21  1  0
 22 24  1  0
 22 25  2  0
  4 26  2  0
  4 27  1  0
 28 27  1  0
 28 29  1  0
 29 30  1  0
 29 31  1  0
 30 32  1  0
 31 33  1  0
 31 34  1  0
 34 32  1  0
 32 35  1  0
 34 36  1  0
 37 35  1  0
 38 35  1  0
 39 37  2  0
 37 40  1  0
 41 38  2  0
 42 39  1  0
 40 43  2  0
 40 41  1  0
 44 42  2  0
 44 43  1  0
 43 45  1  0
  6 46  1  6
  7 47  1  0
  7 48  1  0
  8 49  1  0
  8 50  1  0
  9 51  1  0
  9 52  1  0
 10 53  1  0
 10 54  1  0
 11 55  1  0
 11 56  1  0
 12 57  1  0
 16 58  1  0
 16 59  1  0
 18 60  1  0
 20 61  1  0
 21 62  1  0
 23 63  1  0
 28 64  1  0
 28 65  1  0
 29 66  1  0
 31 67  1  0
 32 68  1  0
 33 69  1  0
 34 70  1  0
 36 71  1  0
 38 72  1  0
 42 73  1  0
 45 74  1  0
 45 75  1  0
M  CHG  3   5  -1  22   1  24  -1
M  END
>  <EmbedRMS>  (33) 
0.0766826041728

$$$$

     RDKit          3D

 75 78  0  0  0  0  0  0  0  0999 V2000
    9.4333   42.9365   34.3462 C   0  0  0  0  0  0  0  0  0  0  0  0
   10.4907   43.0330   35.0319 O   0  0  0  0  0  0  0  0  0  0  0  0
    8.8563   41.7104   34.0296 O   0  0  0  0  0  0  0  0  0  0  0  0
    9.4944   40.2141   34.4680 P   0  0  0  0  0  0  0  0  0  0  0  0
    9.7309   40.1726   36.1291 O   0  0  0  0  0  0  0  0  0  0  0  0
    8.7506   44.1348   33.7741 C   0  0  1  0  0  0  0  0  0  0  0  0
    9.2963   45.3820   34.3133 N   0  0  0  0  0  0  0  0  0  0  0  0
    8.8893   44.0527   32.2358 C   0  0  0  0  0  0  0  0  0  0  0  0
    8.2028   45.1823   31.4615 C   0  0  0  0  0  0  0  0  0  0  0  0
    6.6653   45.1046   31.4855 C   0  0  0  0  0  0  0  0  0  0  0  0
    6.0270   46.3226   30.8105 C   0  0  0  0  0  0  0  0  0  0  0  0
    6.5064   47.5639   31.4180 N   0  0  0  0  0  0  0  0  0  0  0  0
    7.2434   48.5393   30.6834 C   0  0  0  0  0  0  0  0  0  0  0  0
    7.5914   49.7408   31.3057 O   0  0  0  0  0  0  0  0  0  0  0  0
    7.5935   48.3118   29.4937 O   0  0  0  0  0  0  0  0  0  0  0  0
    8.3331   50.7629   30.6468 C   0  0  0  0  0  0  0  0  0  0  0  0
    8.5096   51.9406   31.5732 C   0  0  0  0  0  0  0  0  0  0  0  0
    9.8159   52.3515   31.8988 C   0  0  0  0  0  0  0  0  0  0  0  0
    7.4035   52.6183   32.1583 C   0  0  0  0  0  0  0  0  0  0  0  0
   10.0317   53.4021   32.7911 C   0  0  0  0  0  0  0  0  0  0  0  0
    7.6462   53.6642   33.0670 C   0  0  0  0  0  0  0  0  0  0  0  0
    6.0402   52.2547   31.8697 N   0  0  0  0  0  0  0  0  0  0  0  0
    8.9494   54.0545   33.3767 C   0  0  0  0  0  0  0  0  0  0  0  0
    5.0609   52.4590   32.8146 O   0  0  0  0  0  0  0  0  0  0  0  0
    5.6992   51.9062   30.7212 O   0  0  0  0  0  0  0  0  0  0  0  0
    8.5371   39.1386   34.0125 O   0  0  0  0  0  0  0  0  0  0  0  0
   10.9802   40.0879   33.6835 O   0  0  0  0  0  0  0  0  0  0  0  0
   10.8020   40.0894   32.2837 C   0  0  0  0  0  0  0  0  0  0  0  0
   11.5900   38.9178   31.7006 C   0  0  0  0  0  0  0  0  0  0  0  0
   12.9224   38.9390   32.1711 O   0  0  0  0  0  0  0  0  0  0  0  0
   11.0052   37.5676   32.0966 C   0  0  0  0  0  0  0  0  0  0  0  0
   13.3518   37.5909   32.2610 C   0  0  0  0  0  0  0  0  0  0  0  0
    9.9381   37.1795   31.2732 O   0  0  0  0  0  0  0  0  0  0  0  0
   12.1912   36.6689   31.9042 C   0  0  0  0  0  0  0  0  0  0  0  0
   13.8027   37.2968   33.6192 N   0  0  0  0  0  0  0  0  0  0  0  0
   12.2877   36.2853   30.5567 O   0  0  0  0  0  0  0  0  0  0  0  0
   14.7928   36.4724   33.9861 C   0  0  0  0  0  0  0  0  0  0  0  0
   13.2751   37.7297   34.7941 C   0  0  0  0  0  0  0  0  0  0  0  0
   15.6239   35.7581   33.1859 N   0  0  0  0  0  0  0  0  0  0  0  0
   14.8726   36.4408   35.3329 C   0  0  0  0  0  0  0  0  0  0  0  0
   13.9209   37.2262   35.8807 N   0  0  0  0  0  0  0  0  0  0  0  0
   16.5871   34.9922   33.7801 C   0  0  0  0  0  0  0  0  0  0  0  0
   15.8576   35.6716   35.9442 C   0  0  0  0  0  0  0  0  0  0  0  0
   16.7024   34.9584   35.1438 N   0  0  0  0  0  0  0  0  0  0  0  0
   16.0101   35.6383   37.3563 N   0  0  0  0  0  0  0  0  0  0  0  0
    7.6770   44.0707   34.0504 H   0  0  0  0  0  0  0  0  0  0  0  0
    9.1827   45.3820   35.3535 H   0  0  0  0  0  0  0  0  0  0  0  0
   10.3192   45.4407   34.1000 H   0  0  0  0  0  0  0  0  0  0  0  0
    8.4816   43.0851   31.8668 H   0  0  0  0  0  0  0  0  0  0  0  0
    9.9711   44.0681   31.9739 H   0  0  0  0  0  0  0  0  0  0  0  0
    8.5552   46.1510   31.8742 H   0  0  0  0  0  0  0  0  0  0  0  0
    8.5384   45.1363   30.4022 H   0  0  0  0  0  0  0  0  0  0  0  0
    6.3296   44.1800   30.9678 H   0  0  0  0  0  0  0  0  0  0  0  0
    6.3020   45.0643   32.5334 H   0  0  0  0  0  0  0  0  0  0  0  0
    4.9236   46.2674   30.9265 H   0  0  0  0  0  0  0  0  0  0  0  0
    6.2465   46.2898   29.7217 H   0  0  0  0  0  0  0  0  0  0  0  0
    6.2816   47.7534   32.4207 H   0  0  0  0  0  0  0  0  0  0  0  0
    9.3172   50.3482   30.3357 H   0  0  0  0  0  0  0  0  0  0  0  0
    7.8084   51.0871   29.7235 H   0  0  0  0  0  0  0  0  0  0  0  0
   10.6750   51.8523   31.4677 H   0  0  0  0  0  0  0  0  0  0  0  0
   11.0416   53.7067   33.0337 H   0  0  0  0  0  0  0  0  0  0  0  0
    6.8208   54.1920   33.5276 H   0  0  0  0  0  0  0  0  0  0  0  0
    9.1199   54.8666   34.0718 H   0  0  0  0  0  0  0  0  0  0  0  0
    9.7472   40.0309   31.9256 H   0  0  0  0  0  0  0  0  0  0  0  0
   11.2239   41.0357   31.8826 H   0  0  0  0  0  0  0  0  0  0  0  0
   11.5999   39.0159   30.5904 H   0  0  0  0  0  0  0  0  0  0  0  0
   10.7034   37.5449   33.1702 H   0  0  0  0  0  0  0  0  0  0  0  0
   14.1993   37.4424   31.5548 H   0  0  0  0  0  0  0  0  0  0  0  0
    9.1370   37.6634   31.6024 H   0  0  0  0  0  0  0  0  0  0  0  0
   12.1204   35.7712   32.5636 H   0  0  0  0  0  0  0  0  0  0  0  0
   12.9457   35.5426   30.5220 H   0  0  0  0  0  0  0  0  0  0  0  0
   12.4322   38.3989   34.8700 H   0  0  0  0  0  0  0  0  0  0  0  0
   17.2665   34.4142   33.1690 H   0  0  0  0  0  0  0  0  0  0  0  0
   16.7636   35.0598   37.7895 H   0  0  0  0  0  0  0  0  0  0  0  0
   15.3759   36.1865   37.9790 H   0  0  0  0  0  0  0  0  0  0  0  0
  1  2  2  0
  1  3  1  0
  3  4  1  0
  4  5  1  0
  6  1  1  0
  7  6  1  0
  6  8  1  0
  8  9  1  0
  9 10  1  0
 10 11  1  0
 11 12  1  0
 12 13  1  0
 13 14  1  0
 13 15  2  0
 14 16  1  0
 16 17  1  0
 17 18  2  0
 19 17  1  0
 18 20  1  0
 21 19  2  0
 19 22  1  0
 20 23  2  0
 23 21  1  0
 22 24  1  0
 22 25  2  0
  4 26  2  0
  4 27  1  0
 28 27  1  0
 28 29  1  0
 29 30  1  0
 29 31  1  0
 30 32  1  0
 31 33  1  0
 31 34  1  0
 34 32  1  0
 32 35  1  0
 34 36  1  0
 37 35  1  0
 38 35  1  0
 39 37  2  0
 37 40  1  0
 41 38  2  0
 42 39  1  0
 40 43  2  0
 40 41  1  0
 44 42  2  0
 44 43  1  0
 43 45  1  0
  6 46  1  6
  7 47  1  0
  7 48  1  0
  8 49  1  0
  8 50  1  0
  9 51  1  0
  9 52  1  0
 10 53  1  0
 10 54  1  0
 11 55  1  0
 11 56  1  0
 12 57  1  0
 16 58  1  0
 16 59  1  0
 18 60  1  0
 20 61  1  0
 21 62  1  0
 23 63  1  0
 28 64  1  0
 28 65  1  0
 29 66  1  0
 31 67  1  0
 32 68  1  0
 33 69  1  0
 34 70  1  0
 36 71  1  0
 38 72  1  0
 42 73  1  0
 45 74  1  0
 45 75  1  0
M  CHG  3   5  -1  22   1  24  -1
M  END
>  <EmbedRMS>  (34) 
0.0740811864312

$$$$

     RDKit          3D

 75 78  0  0  0  0  0  0  0  0999 V2000
    9.4310   42.9412   34.3440 C   0  0  0  0  0  0  0  0  0  0  0  0
   10.4886   43.0410   35.0293 O   0  0  0  0  0  0  0  0  0  0  0  0
    8.8553   41.7129   34.0302 O   0  0  0  0  0  0  0  0  0  0  0  0
    9.4932   40.2164   34.4705 P   0  0  0  0  0  0  0  0  0  0  0  0
    9.7299   40.1743   36.1313 O   0  0  0  0  0  0  0  0  0  0  0  0
    8.7484   44.1360   33.7722 C   0  0  1  0  0  0  0  0  0  0  0  0
    9.3039   45.3665   34.3388 N   0  0  0  0  0  0  0  0  0  0  0  0
    8.8892   44.0518   32.2309 C   0  0  0  0  0  0  0  0  0  0  0  0
    8.2015   45.1721   31.4436 C   0  0  0  0  0  0  0  0  0  0  0  0
    6.6642   45.1065   31.4887 C   0  0  0  0  0  0  0  0  0  0  0  0
    6.0266   46.3234   30.8120 C   0  0  0  0  0  0  0  0  0  0  0  0
    6.5076   47.5644   31.4187 N   0  0  0  0  0  0  0  0  0  0  0  0
    7.2438   48.5395   30.6832 C   0  0  0  0  0  0  0  0  0  0  0  0
    7.5922   49.7412   31.3049 O   0  0  0  0  0  0  0  0  0  0  0  0
    7.5932   48.3116   29.4933 O   0  0  0  0  0  0  0  0  0  0  0  0
    8.3330   50.7634   30.6451 C   0  0  0  0  0  0  0  0  0  0  0  0
    8.5086   51.9425   31.5695 C   0  0  0  0  0  0  0  0  0  0  0  0
    9.8140   52.3706   31.8761 C   0  0  0  0  0  0  0  0  0  0  0  0
    7.4031   52.6037   32.1710 C   0  0  0  0  0  0  0  0  0  0  0  0
   10.0287   53.4236   32.7660 C   0  0  0  0  0  0  0  0  0  0  0  0
    7.6443   53.6534   33.0770 C   0  0  0  0  0  0  0  0  0  0  0  0
    6.0433   52.2176   31.8968 N   0  0  0  0  0  0  0  0  0  0  0  0
    8.9465   54.0613   33.3679 C   0  0  0  0  0  0  0  0  0  0  0  0
    5.6511   51.8769   30.6234 O   0  0  0  0  0  0  0  0  0  0  0  0
    5.1685   52.3417   32.7789 O   0  0  0  0  0  0  0  0  0  0  0  0
    8.5368   39.1400   34.0142 O   0  0  0  0  0  0  0  0  0  0  0  0
   10.9786   40.0891   33.6868 O   0  0  0  0  0  0  0  0  0  0  0  0
   10.7973   40.0898   32.2881 C   0  0  0  0  0  0  0  0  0  0  0  0
   11.5882   38.9235   31.7043 C   0  0  0  0  0  0  0  0  0  0  0  0
   12.9230   38.9440   32.1728 O   0  0  0  0  0  0  0  0  0  0  0  0
   11.0048   37.5704   32.0917 C   0  0  0  0  0  0  0  0  0  0  0  0
   13.3570   37.5961   32.2595 C   0  0  0  0  0  0  0  0  0  0  0  0
    9.9331   37.1987   31.2677 O   0  0  0  0  0  0  0  0  0  0  0  0
   12.1965   36.6751   31.8950 C   0  0  0  0  0  0  0  0  0  0  0  0
   13.8037   37.2979   33.6187 N   0  0  0  0  0  0  0  0  0  0  0  0
   12.2934   36.2389   30.5582 O   0  0  0  0  0  0  0  0  0  0  0  0
   14.7929   36.4726   33.9860 C   0  0  0  0  0  0  0  0  0  0  0  0
   13.2755   37.7304   34.7934 C   0  0  0  0  0  0  0  0  0  0  0  0
   15.6244   35.7585   33.1859 N   0  0  0  0  0  0  0  0  0  0  0  0
   14.8722   36.4406   35.3328 C   0  0  0  0  0  0  0  0  0  0  0  0
   13.9205   37.2262   35.8803 N   0  0  0  0  0  0  0  0  0  0  0  0
   16.5872   34.9923   33.7802 C   0  0  0  0  0  0  0  0  0  0  0  0
   15.8573   35.6715   35.9442 C   0  0  0  0  0  0  0  0  0  0  0  0
   16.7023   34.9584   35.1439 N   0  0  0  0  0  0  0  0  0  0  0  0
   16.0098   35.6384   37.3563 N   0  0  0  0  0  0  0  0  0  0  0  0
    7.6763   44.0636   34.0548 H   0  0  0  0  0  0  0  0  0  0  0  0
    8.6469   46.1560   34.1431 H   0  0  0  0  0  0  0  0  0  0  0  0
   10.2152   45.5880   33.8747 H   0  0  0  0  0  0  0  0  0  0  0  0
    9.9708   44.0642   31.9680 H   0  0  0  0  0  0  0  0  0  0  0  0
    8.4831   43.0817   31.8668 H   0  0  0  0  0  0  0  0  0  0  0  0
    8.5713   46.1487   31.8174 H   0  0  0  0  0  0  0  0  0  0  0  0
    8.5198   45.0958   30.3808 H   0  0  0  0  0  0  0  0  0  0  0  0
    6.3147   44.1799   30.9839 H   0  0  0  0  0  0  0  0  0  0  0  0
    6.3141   45.0785   32.5414 H   0  0  0  0  0  0  0  0  0  0  0  0
    4.9232   46.2694   30.9295 H   0  0  0  0  0  0  0  0  0  0  0  0
    6.2451   46.2893   29.7231 H   0  0  0  0  0  0  0  0  0  0  0  0
    6.2847   47.7539   32.4218 H   0  0  0  0  0  0  0  0  0  0  0  0
    7.8080   51.0864   29.7219 H   0  0  0  0  0  0  0  0  0  0  0  0
    9.3174   50.3496   30.3342 H   0  0  0  0  0  0  0  0  0  0  0  0
   10.6732   51.8834   31.4316 H   0  0  0  0  0  0  0  0  0  0  0  0
   11.0380   53.7418   32.9939 H   0  0  0  0  0  0  0  0  0  0  0  0
    6.8179   54.1690   33.5498 H   0  0  0  0  0  0  0  0  0  0  0  0
    9.1161   54.8753   34.0609 H   0  0  0  0  0  0  0  0  0  0  0  0
    9.7421   40.0186   31.9315 H   0  0  0  0  0  0  0  0  0  0  0  0
   11.2111   41.0391   31.8857 H   0  0  0  0  0  0  0  0  0  0  0  0
   11.5932   39.0396   30.5966 H   0  0  0  0  0  0  0  0  0  0  0  0
   10.6985   37.5587   33.1640 H   0  0  0  0  0  0  0  0  0  0  0  0
   14.2072   37.4493   31.5564 H   0  0  0  0  0  0  0  0  0  0  0  0
    9.5321   36.3882   31.6772 H   0  0  0  0  0  0  0  0  0  0  0  0
   12.1344   35.7838   32.5583 H   0  0  0  0  0  0  0  0  0  0  0  0
   12.4641   37.0179   29.9675 H   0  0  0  0  0  0  0  0  0  0  0  0
   12.4333   38.4006   34.8692 H   0  0  0  0  0  0  0  0  0  0  0  0
   17.2668   34.4144   33.1692 H   0  0  0  0  0  0  0  0  0  0  0  0
   16.7634   35.0600   37.7896 H   0  0  0  0  0  0  0  0  0  0  0  0
   15.3755   36.1866   37.9789 H   0  0  0  0  0  0  0  0  0  0  0  0
  1  2  2  0
  1  3  1  0
  3  4  1  0
  4  5  1  0
  6  1  1  0
  7  6  1  0
  6  8  1  0
  8  9  1  0
  9 10  1  0
 10 11  1  0
 11 12  1  0
 12 13  1  0
 13 14  1  0
 13 15  2  0
 14 16  1  0
 16 17  1  0
 17 18  2  0
 19 17  1  0
 18 20  1  0
 21 19  2  0
 19 22  1  0
 20 23  2  0
 23 21  1  0
 22 24  1  0
 22 25  2  0
  4 26  2  0
  4 27  1  0
 28 27  1  0
 28 29  1  0
 29 30  1  0
 29 31  1  0
 30 32  1  0
 31 33  1  0
 31 34  1  0
 34 32  1  0
 32 35  1  0
 34 36  1  0
 37 35  1  0
 38 35  1  0
 39 37  2  0
 37 40  1  0
 41 38  2  0
 42 39  1  0
 40 43  2  0
 40 41  1  0
 44 42  2  0
 44 43  1  0
 43 45  1  0
  6 46  1  6
  7 47  1  0
  7 48  1  0
  8 49  1  0
  8 50  1  0
  9 51  1  0
  9 52  1  0
 10 53  1  0
 10 54  1  0
 11 55  1  0
 11 56  1  0
 12 57  1  0
 16 58  1  0
 16 59  1  0
 18 60  1  0
 20 61  1  0
 21 62  1  0
 23 63  1  0
 28 64  1  0
 28 65  1  0
 29 66  1  0
 31 67  1  0
 32 68  1  0
 33 69  1  0
 34 70  1  0
 36 71  1  0
 38 72  1  0
 42 73  1  0
 45 74  1  0
 45 75  1  0
M  CHG  3   5  -1  22   1  24  -1
M  END
>  <EmbedRMS>  (35) 
0.0750738462159

$$$$

     RDKit          3D

 75 78  0  0  0  0  0  0  0  0999 V2000
    9.4313   42.9407   34.3433 C   0  0  0  0  0  0  0  0  0  0  0  0
   10.4885   43.0415   35.0290 O   0  0  0  0  0  0  0  0  0  0  0  0
    8.8564   41.7124   34.0288 O   0  0  0  0  0  0  0  0  0  0  0  0
    9.4948   40.2160   34.4680 P   0  0  0  0  0  0  0  0  0  0  0  0
    9.7312   40.1741   36.1291 O   0  0  0  0  0  0  0  0  0  0  0  0
    8.7474   44.1342   33.7713 C   0  0  1  0  0  0  0  0  0  0  0  0
    9.2987   45.3653   34.3388 N   0  0  0  0  0  0  0  0  0  0  0  0
    8.8901   44.0521   32.2303 C   0  0  0  0  0  0  0  0  0  0  0  0
    8.2029   45.1736   31.4444 C   0  0  0  0  0  0  0  0  0  0  0  0
    6.6657   45.1068   31.4876 C   0  0  0  0  0  0  0  0  0  0  0  0
    6.0285   46.3259   30.8146 C   0  0  0  0  0  0  0  0  0  0  0  0
    6.5131   47.5648   31.4238 N   0  0  0  0  0  0  0  0  0  0  0  0
    7.2394   48.5472   30.6772 C   0  0  0  0  0  0  0  0  0  0  0  0
    7.5843   49.7874   31.2305 O   0  0  0  0  0  0  0  0  0  0  0  0
    7.5915   48.3032   29.4938 O   0  0  0  0  0  0  0  0  0  0  0  0
    7.2941   50.1988   32.5666 C   0  0  0  0  0  0  0  0  0  0  0  0
    8.1785   49.4926   33.5726 C   0  0  0  0  0  0  0  0  0  0  0  0
    9.5334   49.2822   33.2506 C   0  0  0  0  0  0  0  0  0  0  0  0
    7.7266   49.1746   34.8802 C   0  0  0  0  0  0  0  0  0  0  0  0
   10.4168   48.7481   34.1898 C   0  0  0  0  0  0  0  0  0  0  0  0
    8.6353   48.6544   35.8177 C   0  0  0  0  0  0  0  0  0  0  0  0
    6.3690   49.4006   35.2855 N   0  0  0  0  0  0  0  0  0  0  0  0
    9.9697   48.4389   35.4727 C   0  0  0  0  0  0  0  0  0  0  0  0
    5.3406   48.7735   34.6220 O   0  0  0  0  0  0  0  0  0  0  0  0
    6.1340   49.9410   36.3858 O   0  0  0  0  0  0  0  0  0  0  0  0
    8.5375   39.1401   34.0129 O   0  0  0  0  0  0  0  0  0  0  0  0
   10.9805   40.0886   33.6834 O   0  0  0  0  0  0  0  0  0  0  0  0
   10.8021   40.0896   32.2836 C   0  0  0  0  0  0  0  0  0  0  0  0
   11.5900   38.9179   31.7007 C   0  0  0  0  0  0  0  0  0  0  0  0
   12.9224   38.9391   32.1711 O   0  0  0  0  0  0  0  0  0  0  0  0
   11.0052   37.5677   32.0966 C   0  0  0  0  0  0  0  0  0  0  0  0
   13.3518   37.5909   32.2610 C   0  0  0  0  0  0  0  0  0  0  0  0
    9.9381   37.1796   31.2733 O   0  0  0  0  0  0  0  0  0  0  0  0
   12.1912   36.6690   31.9043 C   0  0  0  0  0  0  0  0  0  0  0  0
   13.8027   37.2968   33.6192 N   0  0  0  0  0  0  0  0  0  0  0  0
   12.2877   36.2853   30.5568 O   0  0  0  0  0  0  0  0  0  0  0  0
   14.7928   36.4724   33.9861 C   0  0  0  0  0  0  0  0  0  0  0  0
   13.2751   37.7297   34.7941 C   0  0  0  0  0  0  0  0  0  0  0  0
   15.6239   35.7581   33.1859 N   0  0  0  0  0  0  0  0  0  0  0  0
   14.8726   36.4408   35.3329 C   0  0  0  0  0  0  0  0  0  0  0  0
   13.9209   37.2262   35.8807 N   0  0  0  0  0  0  0  0  0  0  0  0
   16.5871   34.9922   33.7801 C   0  0  0  0  0  0  0  0  0  0  0  0
   15.8576   35.6716   35.9442 C   0  0  0  0  0  0  0  0  0  0  0  0
   16.7024   34.9584   35.1438 N   0  0  0  0  0  0  0  0  0  0  0  0
   16.0101   35.6383   37.3563 N   0  0  0  0  0  0  0  0  0  0  0  0
    7.6752   44.0592   34.0524 H   0  0  0  0  0  0  0  0  0  0  0  0
   10.2084   45.5917   33.8741 H   0  0  0  0  0  0  0  0  0  0  0  0
    8.6362   46.1491   34.1405 H   0  0  0  0  0  0  0  0  0  0  0  0
    9.9720   44.0657   31.9688 H   0  0  0  0  0  0  0  0  0  0  0  0
    8.4848   43.0823   31.8644 H   0  0  0  0  0  0  0  0  0  0  0  0
    8.5225   45.0996   30.3818 H   0  0  0  0  0  0  0  0  0  0  0  0
    8.5721   46.1499   31.8205 H   0  0  0  0  0  0  0  0  0  0  0  0
    6.3148   45.0755   32.5400 H   0  0  0  0  0  0  0  0  0  0  0  0
    6.3171   44.1817   30.9795 H   0  0  0  0  0  0  0  0  0  0  0  0
    6.2425   46.2931   29.7248 H   0  0  0  0  0  0  0  0  0  0  0  0
    4.9255   46.2730   30.9361 H   0  0  0  0  0  0  0  0  0  0  0  0
    6.3039   47.7203   32.4327 H   0  0  0  0  0  0  0  0  0  0  0  0
    7.5057   51.2858   32.6409 H   0  0  0  0  0  0  0  0  0  0  0  0
    6.2126   50.0733   32.7651 H   0  0  0  0  0  0  0  0  0  0  0  0
    9.9147   49.5478   32.2725 H   0  0  0  0  0  0  0  0  0  0  0  0
   11.4539   48.5862   33.9258 H   0  0  0  0  0  0  0  0  0  0  0  0
    8.3035   48.4079   36.8186 H   0  0  0  0  0  0  0  0  0  0  0  0
   10.6580   48.0305   36.2012 H   0  0  0  0  0  0  0  0  0  0  0  0
    9.7472   40.0310   31.9257 H   0  0  0  0  0  0  0  0  0  0  0  0
   11.2238   41.0358   31.8822 H   0  0  0  0  0  0  0  0  0  0  0  0
   11.5999   39.0159   30.5905 H   0  0  0  0  0  0  0  0  0  0  0  0
   10.7034   37.5451   33.1703 H   0  0  0  0  0  0  0  0  0  0  0  0
   14.1992   37.4424   31.5548 H   0  0  0  0  0  0  0  0  0  0  0  0
    9.1370   37.6635   31.6024 H   0  0  0  0  0  0  0  0  0  0  0  0
   12.1203   35.7713   32.5637 H   0  0  0  0  0  0  0  0  0  0  0  0
   12.9457   35.5426   30.5221 H   0  0  0  0  0  0  0  0  0  0  0  0
   12.4321   38.3989   34.8700 H   0  0  0  0  0  0  0  0  0  0  0  0
   17.2665   34.4142   33.1690 H   0  0  0  0  0  0  0  0  0  0  0  0
   16.7636   35.0598   37.7895 H   0  0  0  0  0  0  0  0  0  0  0  0
   15.3759   36.1865   37.9790 H   0  0  0  0  0  0  0  0  0  0  0  0
  1  2  2  0
  1  3  1  0
  3  4  1  0
  4  5  1  0
  6  1  1  0
  7  6  1  0
  6  8  1  0
  8  9  1  0
  9 10  1  0
 10 11  1  0
 11 12  1  0
 12 13  1  0
 13 14  1  0
 13 15  2  0
 14 16  1  0
 16 17  1  0
 17 18  2  0
 19 17  1  0
 18 20  1  0
 21 19  2  0
 19 22  1  0
 20 23  2  0
 23 21  1  0
 22 24  1  0
 22 25  2  0
  4 26  2  0
  4 27  1  0
 28 27  1  0
 28 29  1  0
 29 30  1  0
 29 31  1  0
 30 32  1  0
 31 33  1  0
 31 34  1  0
 34 32  1  0
 32 35  1  0
 34 36  1  0
 37 35  1  0
 38 35  1  0
 39 37  2  0
 37 40  1  0
 41 38  2  0
 42 39  1  0
 40 43  2  0
 40 41  1  0
 44 42  2  0
 44 43  1  0
 43 45  1  0
  6 46  1  6
  7 47  1  0
  7 48  1  0
  8 49  1  0
  8 50  1  0
  9 51  1  0
  9 52  1  0
 10 53  1  0
 10 54  1  0
 11 55  1  0
 11 56  1  0
 12 57  1  0
 16 58  1  0
 16 59  1  0
 18 60  1  0
 20 61  1  0
 21 62  1  0
 23 63  1  0
 28 64  1  0
 28 65  1  0
 29 66  1  0
 31 67  1  0
 32 68  1  0
 33 69  1  0
 34 70  1  0
 36 71  1  0
 38 72  1  0
 42 73  1  0
 45 74  1  0
 45 75  1  0
M  CHG  3   5  -1  22   1  24  -1
M  END
>  <EmbedRMS>  (36) 
0.0730054448167

$$$$

     RDKit          3D

 75 78  0  0  0  0  0  0  0  0999 V2000
    9.4316   42.9422   34.3429 C   0  0  0  0  0  0  0  0  0  0  0  0
   10.4886   43.0416   35.0290 O   0  0  0  0  0  0  0  0  0  0  0  0
    8.8559   41.7139   34.0289 O   0  0  0  0  0  0  0  0  0  0  0  0
    9.4931   40.2169   34.4699 P   0  0  0  0  0  0  0  0  0  0  0  0
    9.7293   40.1749   36.1309 O   0  0  0  0  0  0  0  0  0  0  0  0
    8.7493   44.1381   33.7714 C   0  0  1  0  0  0  0  0  0  0  0  0
    9.3058   45.3683   34.3382 N   0  0  0  0  0  0  0  0  0  0  0  0
    8.8897   44.0558   32.2300 C   0  0  0  0  0  0  0  0  0  0  0  0
    8.2004   45.1771   31.4442 C   0  0  0  0  0  0  0  0  0  0  0  0
    6.6628   45.1089   31.4883 C   0  0  0  0  0  0  0  0  0  0  0  0
    6.0203   46.3216   30.8062 C   0  0  0  0  0  0  0  0  0  0  0  0
    6.4885   47.5670   31.4130 N   0  0  0  0  0  0  0  0  0  0  0  0
    7.2756   48.5171   30.6987 C   0  0  0  0  0  0  0  0  0  0  0  0
    7.7702   49.6338   31.3784 O   0  0  0  0  0  0  0  0  0  0  0  0
    7.5863   48.3124   29.4945 O   0  0  0  0  0  0  0  0  0  0  0  0
    8.8765   50.4043   30.9128 C   0  0  0  0  0  0  0  0  0  0  0  0
   10.1403   49.5718   30.9345 C   0  0  0  0  0  0  0  0  0  0  0  0
   10.4961   48.9477   32.1448 C   0  0  0  0  0  0  0  0  0  0  0  0
   10.9975   49.4360   29.8104 C   0  0  0  0  0  0  0  0  0  0  0  0
   11.6696   48.1995   32.2446 C   0  0  0  0  0  0  0  0  0  0  0  0
   12.1868   48.6987   29.9379 C   0  0  0  0  0  0  0  0  0  0  0  0
   10.6935   50.0371   28.5435 N   0  0  0  0  0  0  0  0  0  0  0  0
   12.5159   48.0788   31.1442 C   0  0  0  0  0  0  0  0  0  0  0  0
   11.6972   50.6385   27.8200 O   0  0  0  0  0  0  0  0  0  0  0  0
    9.6119   49.7842   27.9749 O   0  0  0  0  0  0  0  0  0  0  0  0
    8.5366   39.1406   34.0137 O   0  0  0  0  0  0  0  0  0  0  0  0
   10.9788   40.0876   33.6872 O   0  0  0  0  0  0  0  0  0  0  0  0
   10.7993   40.0947   32.2884 C   0  0  0  0  0  0  0  0  0  0  0  0
   11.5957   38.9352   31.6994 C   0  0  0  0  0  0  0  0  0  0  0  0
   12.9257   38.9478   32.1799 O   0  0  0  0  0  0  0  0  0  0  0  0
   11.0070   37.5758   32.0732 C   0  0  0  0  0  0  0  0  0  0  0  0
   13.3571   37.5980   32.2612 C   0  0  0  0  0  0  0  0  0  0  0  0
    9.9093   37.1808   31.2875 O   0  0  0  0  0  0  0  0  0  0  0  0
   12.1967   36.6764   31.8894 C   0  0  0  0  0  0  0  0  0  0  0  0
   13.8018   37.2956   33.6197 N   0  0  0  0  0  0  0  0  0  0  0  0
   12.3048   36.2361   30.5555 O   0  0  0  0  0  0  0  0  0  0  0  0
   14.7922   36.4716   33.9864 C   0  0  0  0  0  0  0  0  0  0  0  0
   13.2747   37.7291   34.7944 C   0  0  0  0  0  0  0  0  0  0  0  0
   15.6239   35.7582   33.1861 N   0  0  0  0  0  0  0  0  0  0  0  0
   14.8721   36.4402   35.3331 C   0  0  0  0  0  0  0  0  0  0  0  0
   13.9206   37.2257   35.8810 N   0  0  0  0  0  0  0  0  0  0  0  0
   16.5873   34.9924   33.7802 C   0  0  0  0  0  0  0  0  0  0  0  0
   15.8576   35.6714   35.9444 C   0  0  0  0  0  0  0  0  0  0  0  0
   16.7026   34.9585   35.1439 N   0  0  0  0  0  0  0  0  0  0  0  0
   16.0102   35.6382   37.3564 N   0  0  0  0  0  0  0  0  0  0  0  0
    7.6773   44.0665   34.0540 H   0  0  0  0  0  0  0  0  0  0  0  0
    8.6502   46.1588   34.1418 H   0  0  0  0  0  0  0  0  0  0  0  0
   10.2174   45.5892   33.8742 H   0  0  0  0  0  0  0  0  0  0  0  0
    8.4845   43.0857   31.8648 H   0  0  0  0  0  0  0  0  0  0  0  0
    9.9712   44.0701   31.9669 H   0  0  0  0  0  0  0  0  0  0  0  0
    8.5679   46.1542   31.8197 H   0  0  0  0  0  0  0  0  0  0  0  0
    8.5199   45.1038   30.3816 H   0  0  0  0  0  0  0  0  0  0  0  0
    6.3162   44.1795   30.9866 H   0  0  0  0  0  0  0  0  0  0  0  0
    6.3124   45.0833   32.5409 H   0  0  0  0  0  0  0  0  0  0  0  0
    4.9167   46.2603   30.9170 H   0  0  0  0  0  0  0  0  0  0  0  0
    6.2451   46.2874   29.7186 H   0  0  0  0  0  0  0  0  0  0  0  0
    6.2698   47.7501   32.4182 H   0  0  0  0  0  0  0  0  0  0  0  0
    9.0154   51.2625   31.6033 H   0  0  0  0  0  0  0  0  0  0  0  0
    8.6429   50.8339   29.9199 H   0  0  0  0  0  0  0  0  0  0  0  0
    9.8603   49.0421   33.0168 H   0  0  0  0  0  0  0  0  0  0  0  0
   11.9269   47.7192   33.1799 H   0  0  0  0  0  0  0  0  0  0  0  0
   12.8526   48.5882   29.0911 H   0  0  0  0  0  0  0  0  0  0  0  0
   13.4289   47.5032   31.2253 H   0  0  0  0  0  0  0  0  0  0  0  0
    9.7449   40.0201   31.9302 H   0  0  0  0  0  0  0  0  0  0  0  0
   11.2093   41.0481   31.8916 H   0  0  0  0  0  0  0  0  0  0  0  0
   11.6207   39.0685   30.5942 H   0  0  0  0  0  0  0  0  0  0  0  0
   10.7059   37.5565   33.1439 H   0  0  0  0  0  0  0  0  0  0  0  0
   14.2095   37.4543   31.5601 H   0  0  0  0  0  0  0  0  0  0  0  0
   10.0864   37.4211   30.3414 H   0  0  0  0  0  0  0  0  0  0  0  0
   12.1275   35.7873   32.5550 H   0  0  0  0  0  0  0  0  0  0  0  0
   12.5031   37.0109   29.9673 H   0  0  0  0  0  0  0  0  0  0  0  0
   12.4328   38.3997   34.8703 H   0  0  0  0  0  0  0  0  0  0  0  0
   17.2670   34.4149   33.1690 H   0  0  0  0  0  0  0  0  0  0  0  0
   15.3758   36.1862   37.9791 H   0  0  0  0  0  0  0  0  0  0  0  0
   16.7640   35.0601   37.7896 H   0  0  0  0  0  0  0  0  0  0  0  0
  1  2  2  0
  1  3  1  0
  3  4  1  0
  4  5  1  0
  6  1  1  0
  7  6  1  0
  6  8  1  0
  8  9  1  0
  9 10  1  0
 10 11  1  0
 11 12  1  0
 12 13  1  0
 13 14  1  0
 13 15  2  0
 14 16  1  0
 16 17  1  0
 17 18  2  0
 19 17  1  0
 18 20  1  0
 21 19  2  0
 19 22  1  0
 20 23  2  0
 23 21  1  0
 22 24  1  0
 22 25  2  0
  4 26  2  0
  4 27  1  0
 28 27  1  0
 28 29  1  0
 29 30  1  0
 29 31  1  0
 30 32  1  0
 31 33  1  0
 31 34  1  0
 34 32  1  0
 32 35  1  0
 34 36  1  0
 37 35  1  0
 38 35  1  0
 39 37  2  0
 37 40  1  0
 41 38  2  0
 42 39  1  0
 40 43  2  0
 40 41  1  0
 44 42  2  0
 44 43  1  0
 43 45  1  0
  6 46  1  6
  7 47  1  0
  7 48  1  0
  8 49  1  0
  8 50  1  0
  9 51  1  0
  9 52  1  0
 10 53  1  0
 10 54  1  0
 11 55  1  0
 11 56  1  0
 12 57  1  0
 16 58  1  0
 16 59  1  0
 18 60  1  0
 20 61  1  0
 21 62  1  0
 23 63  1  0
 28 64  1  0
 28 65  1  0
 29 66  1  0
 31 67  1  0
 32 68  1  0
 33 69  1  0
 34 70  1  0
 36 71  1  0
 38 72  1  0
 42 73  1  0
 45 74  1  0
 45 75  1  0
M  CHG  3   5  -1  22   1  24  -1
M  END
>  <EmbedRMS>  (37) 
0.0766624255114

$$$$

     RDKit          3D

 75 78  0  0  0  0  0  0  0  0999 V2000
    9.4313   42.9411   34.3437 C   0  0  0  0  0  0  0  0  0  0  0  0
   10.4885   43.0410   35.0294 O   0  0  0  0  0  0  0  0  0  0  0  0
    8.8562   41.7129   34.0288 O   0  0  0  0  0  0  0  0  0  0  0  0
    9.4947   40.2163   34.4679 P   0  0  0  0  0  0  0  0  0  0  0  0
    9.7311   40.1742   36.1290 O   0  0  0  0  0  0  0  0  0  0  0  0
    8.7484   44.1360   33.7721 C   0  0  1  0  0  0  0  0  0  0  0  0
    9.3039   45.3665   34.3388 N   0  0  0  0  0  0  0  0  0  0  0  0
    8.8892   44.0519   32.2309 C   0  0  0  0  0  0  0  0  0  0  0  0
    8.2014   45.1722   31.4436 C   0  0  0  0  0  0  0  0  0  0  0  0
    6.6642   45.1066   31.4888 C   0  0  0  0  0  0  0  0  0  0  0  0
    6.0265   46.3235   30.8121 C   0  0  0  0  0  0  0  0  0  0  0  0
    6.5075   47.5645   31.4187 N   0  0  0  0  0  0  0  0  0  0  0  0
    7.2443   48.5393   30.6833 C   0  0  0  0  0  0  0  0  0  0  0  0
    7.5947   49.7402   31.3055 O   0  0  0  0  0  0  0  0  0  0  0  0
    7.5930   48.3116   29.4932 O   0  0  0  0  0  0  0  0  0  0  0  0
    8.3367   50.7616   30.6460 C   0  0  0  0  0  0  0  0  0  0  0  0
    8.5175   51.9386   31.5720 C   0  0  0  0  0  0  0  0  0  0  0  0
    9.8247   52.3627   31.8764 C   0  0  0  0  0  0  0  0  0  0  0  0
    7.4151   52.6019   32.1769 C   0  0  0  0  0  0  0  0  0  0  0  0
   10.0442   53.4137   32.7675 C   0  0  0  0  0  0  0  0  0  0  0  0
    7.6611   53.6495   33.0840 C   0  0  0  0  0  0  0  0  0  0  0  0
    6.0536   52.2198   31.9050 N   0  0  0  0  0  0  0  0  0  0  0  0
    8.9649   54.0533   33.3728 C   0  0  0  0  0  0  0  0  0  0  0  0
    5.6578   51.8821   30.6321 O   0  0  0  0  0  0  0  0  0  0  0  0
    5.1811   52.3449   32.7893 O   0  0  0  0  0  0  0  0  0  0  0  0
    8.5375   39.1404   34.0127 O   0  0  0  0  0  0  0  0  0  0  0  0
   10.9805   40.0889   33.6836 O   0  0  0  0  0  0  0  0  0  0  0  0
   10.8025   40.0902   32.2837 C   0  0  0  0  0  0  0  0  0  0  0  0
   11.5888   38.9175   31.7008 C   0  0  0  0  0  0  0  0  0  0  0  0
   12.9219   38.9373   32.1692 O   0  0  0  0  0  0  0  0  0  0  0  0
   11.0028   37.5683   32.0981 C   0  0  0  0  0  0  0  0  0  0  0  0
   13.3496   37.5886   32.2601 C   0  0  0  0  0  0  0  0  0  0  0  0
    9.9343   37.1823   31.2757 O   0  0  0  0  0  0  0  0  0  0  0  0
   12.1891   36.6677   31.9050 C   0  0  0  0  0  0  0  0  0  0  0  0
   13.8025   37.2965   33.6186 N   0  0  0  0  0  0  0  0  0  0  0  0
   12.2990   36.2868   30.5568 O   0  0  0  0  0  0  0  0  0  0  0  0
   14.7929   36.4725   33.9858 C   0  0  0  0  0  0  0  0  0  0  0  0
   13.2749   37.7294   34.7935 C   0  0  0  0  0  0  0  0  0  0  0  0
   15.6240   35.7580   33.1858 N   0  0  0  0  0  0  0  0  0  0  0  0
   14.8727   36.4411   35.3327 C   0  0  0  0  0  0  0  0  0  0  0  0
   13.9208   37.2263   35.8803 N   0  0  0  0  0  0  0  0  0  0  0  0
   16.5871   34.9921   33.7801 C   0  0  0  0  0  0  0  0  0  0  0  0
   15.8576   35.6718   35.9441 C   0  0  0  0  0  0  0  0  0  0  0  0
   16.7024   34.9584   35.1438 N   0  0  0  0  0  0  0  0  0  0  0  0
   16.0099   35.6384   37.3562 N   0  0  0  0  0  0  0  0  0  0  0  0
    7.6764   44.0634   34.0548 H   0  0  0  0  0  0  0  0  0  0  0  0
    8.6468   46.1559   34.1432 H   0  0  0  0  0  0  0  0  0  0  0  0
   10.2152   45.5880   33.8747 H   0  0  0  0  0  0  0  0  0  0  0  0
    8.4830   43.0818   31.8666 H   0  0  0  0  0  0  0  0  0  0  0  0
    9.9708   44.0644   31.9679 H   0  0  0  0  0  0  0  0  0  0  0  0
    8.5712   46.1488   31.8175 H   0  0  0  0  0  0  0  0  0  0  0  0
    8.5198   45.0960   30.3808 H   0  0  0  0  0  0  0  0  0  0  0  0
    6.3147   44.1799   30.9839 H   0  0  0  0  0  0  0  0  0  0  0  0
    6.3141   45.0785   32.5414 H   0  0  0  0  0  0  0  0  0  0  0  0
    6.2450   46.2894   29.7231 H   0  0  0  0  0  0  0  0  0  0  0  0
    4.9231   46.2694   30.9295 H   0  0  0  0  0  0  0  0  0  0  0  0
    6.2848   47.7540   32.4218 H   0  0  0  0  0  0  0  0  0  0  0  0
    9.3194   50.3457   30.3323 H   0  0  0  0  0  0  0  0  0  0  0  0
    7.8107   51.0874   29.7244 H   0  0  0  0  0  0  0  0  0  0  0  0
   10.6816   51.8739   31.4293 H   0  0  0  0  0  0  0  0  0  0  0  0
   11.0548   53.7288   32.9937 H   0  0  0  0  0  0  0  0  0  0  0  0
    6.8371   54.1665   33.5595 H   0  0  0  0  0  0  0  0  0  0  0  0
    9.1383   54.8658   34.0667 H   0  0  0  0  0  0  0  0  0  0  0  0
    9.7476   40.0332   31.9256 H   0  0  0  0  0  0  0  0  0  0  0  0
   11.2257   41.0358   31.8825 H   0  0  0  0  0  0  0  0  0  0  0  0
   11.5975   39.0148   30.5905 H   0  0  0  0  0  0  0  0  0  0  0  0
   10.7023   37.5457   33.1720 H   0  0  0  0  0  0  0  0  0  0  0  0
   14.1957   37.4366   31.5528 H   0  0  0  0  0  0  0  0  0  0  0  0
    9.1339   37.6658   31.6070 H   0  0  0  0  0  0  0  0  0  0  0  0
   12.1380   35.7717   32.5698 H   0  0  0  0  0  0  0  0  0  0  0  0
   11.7707   35.4530   30.4496 H   0  0  0  0  0  0  0  0  0  0  0  0
   12.4314   38.3980   34.8694 H   0  0  0  0  0  0  0  0  0  0  0  0
   17.2665   34.4140   33.1691 H   0  0  0  0  0  0  0  0  0  0  0  0
   15.3757   36.1868   37.9789 H   0  0  0  0  0  0  0  0  0  0  0  0
   16.7633   35.0599   37.7895 H   0  0  0  0  0  0  0  0  0  0  0  0
  1  2  2  0
  1  3  1  0
  3  4  1  0
  4  5  1  0
  6  1  1  0
  7  6  1  0
  6  8  1  0
  8  9  1  0
  9 10  1  0
 10 11  1  0
 11 12  1  0
 12 13  1  0
 13 14  1  0
 13 15  2  0
 14 16  1  0
 16 17  1  0
 17 18  2  0
 19 17  1  0
 18 20  1  0
 21 19  2  0
 19 22  1  0
 20 23  2  0
 23 21  1  0
 22 24  1  0
 22 25  2  0
  4 26  2  0
  4 27  1  0
 28 27  1  0
 28 29  1  0
 29 30  1  0
 29 31  1  0
 30 32  1  0
 31 33  1  0
 31 34  1  0
 34 32  1  0
 32 35  1  0
 34 36  1  0
 37 35  1  0
 38 35  1  0
 39 37  2  0
 37 40  1  0
 41 38  2  0
 42 39  1  0
 40 43  2  0
 40 41  1  0
 44 42  2  0
 44 43  1  0
 43 45  1  0
  6 46  1  6
  7 47  1  0
  7 48  1  0
  8 49  1  0
  8 50  1  0
  9 51  1  0
  9 52  1  0
 10 53  1  0
 10 54  1  0
 11 55  1  0
 11 56  1  0
 12 57  1  0
 16 58  1  0
 16 59  1  0
 18 60  1  0
 20 61  1  0
 21 62  1  0
 23 63  1  0
 28 64  1  0
 28 65  1  0
 29 66  1  0
 31 67  1  0
 32 68  1  0
 33 69  1  0
 34 70  1  0
 36 71  1  0
 38 72  1  0
 42 73  1  0
 45 74  1  0
 45 75  1  0
M  CHG  3   5  -1  22   1  24  -1
M  END
>  <EmbedRMS>  (38) 
0.0733925042793

$$$$

     RDKit          3D

 75 78  0  0  0  0  0  0  0  0999 V2000
    9.4313   42.9416   34.3436 C   0  0  0  0  0  0  0  0  0  0  0  0
   10.4886   43.0413   35.0293 O   0  0  0  0  0  0  0  0  0  0  0  0
    8.8562   41.7133   34.0287 O   0  0  0  0  0  0  0  0  0  0  0  0
    9.4946   40.2166   34.4678 P   0  0  0  0  0  0  0  0  0  0  0  0
    9.7310   40.1744   36.1289 O   0  0  0  0  0  0  0  0  0  0  0  0
    8.7485   44.1368   33.7721 C   0  0  1  0  0  0  0  0  0  0  0  0
    9.3043   45.3674   34.3387 N   0  0  0  0  0  0  0  0  0  0  0  0
    8.8891   44.0530   32.2308 C   0  0  0  0  0  0  0  0  0  0  0  0
    8.2009   45.1735   31.4440 C   0  0  0  0  0  0  0  0  0  0  0  0
    6.6635   45.1067   31.4880 C   0  0  0  0  0  0  0  0  0  0  0  0
    6.0246   46.3225   30.8097 C   0  0  0  0  0  0  0  0  0  0  0  0
    6.5023   47.5643   31.4168 N   0  0  0  0  0  0  0  0  0  0  0  0
    7.2578   48.5307   30.6898 C   0  0  0  0  0  0  0  0  0  0  0  0
    7.6715   49.6962   31.3387 O   0  0  0  0  0  0  0  0  0  0  0  0
    7.5874   48.3148   29.4921 O   0  0  0  0  0  0  0  0  0  0  0  0
    8.5049   50.6706   30.7193 C   0  0  0  0  0  0  0  0  0  0  0  0
    8.9085   51.7101   31.7343 C   0  0  0  0  0  0  0  0  0  0  0  0
    8.6045   53.0598   31.4765 C   0  0  0  0  0  0  0  0  0  0  0  0
    9.5475   51.3640   32.9566 C   0  0  0  0  0  0  0  0  0  0  0  0
    8.9140   54.0509   32.4086 C   0  0  0  0  0  0  0  0  0  0  0  0
    9.8363   52.3785   33.8881 C   0  0  0  0  0  0  0  0  0  0  0  0
    9.8876   50.0023   33.2798 N   0  0  0  0  0  0  0  0  0  0  0  0
    9.5252   53.7106   33.6133 C   0  0  0  0  0  0  0  0  0  0  0  0
   10.3930   49.1554   32.3212 O   0  0  0  0  0  0  0  0  0  0  0  0
    9.8738   49.6199   34.4682 O   0  0  0  0  0  0  0  0  0  0  0  0
    8.5374   39.1406   34.0127 O   0  0  0  0  0  0  0  0  0  0  0  0
   10.9805   40.0889   33.6836 O   0  0  0  0  0  0  0  0  0  0  0  0
   10.8025   40.0902   32.2837 C   0  0  0  0  0  0  0  0  0  0  0  0
   11.5888   38.9175   31.7008 C   0  0  0  0  0  0  0  0  0  0  0  0
   12.9219   38.9374   32.1692 O   0  0  0  0  0  0  0  0  0  0  0  0
   11.0028   37.5683   32.0981 C   0  0  0  0  0  0  0  0  0  0  0  0
   13.3496   37.5886   32.2601 C   0  0  0  0  0  0  0  0  0  0  0  0
    9.9343   37.1823   31.2757 O   0  0  0  0  0  0  0  0  0  0  0  0
   12.1891   36.6677   31.9050 C   0  0  0  0  0  0  0  0  0  0  0  0
   13.8025   37.2965   33.6186 N   0  0  0  0  0  0  0  0  0  0  0  0
   12.2990   36.2868   30.5568 O   0  0  0  0  0  0  0  0  0  0  0  0
   14.7929   36.4725   33.9858 C   0  0  0  0  0  0  0  0  0  0  0  0
   13.2749   37.7295   34.7936 C   0  0  0  0  0  0  0  0  0  0  0  0
   15.6240   35.7580   33.1858 N   0  0  0  0  0  0  0  0  0  0  0  0
   14.8727   36.4411   35.3327 C   0  0  0  0  0  0  0  0  0  0  0  0
   13.9208   37.2263   35.8803 N   0  0  0  0  0  0  0  0  0  0  0  0
   16.5871   34.9921   33.7801 C   0  0  0  0  0  0  0  0  0  0  0  0
   15.8576   35.6718   35.9441 C   0  0  0  0  0  0  0  0  0  0  0  0
   16.7024   34.9584   35.1438 N   0  0  0  0  0  0  0  0  0  0  0  0
   16.0099   35.6384   37.3562 N   0  0  0  0  0  0  0  0  0  0  0  0
    7.6765   44.0645   34.0548 H   0  0  0  0  0  0  0  0  0  0  0  0
    8.6473   46.1571   34.1437 H   0  0  0  0  0  0  0  0  0  0  0  0
   10.2153   45.5894   33.8742 H   0  0  0  0  0  0  0  0  0  0  0  0
    9.9706   44.0658   31.9677 H   0  0  0  0  0  0  0  0  0  0  0  0
    8.4830   43.0829   31.8664 H   0  0  0  0  0  0  0  0  0  0  0  0
    8.5201   45.0985   30.3813 H   0  0  0  0  0  0  0  0  0  0  0  0
    8.5696   46.1502   31.8190 H   0  0  0  0  0  0  0  0  0  0  0  0
    6.3154   44.1794   30.9836 H   0  0  0  0  0  0  0  0  0  0  0  0
    6.3129   45.0790   32.5405 H   0  0  0  0  0  0  0  0  0  0  0  0
    6.2453   46.2887   29.7212 H   0  0  0  0  0  0  0  0  0  0  0  0
    4.9212   46.2666   30.9250 H   0  0  0  0  0  0  0  0  0  0  0  0
    6.2844   47.7494   32.4218 H   0  0  0  0  0  0  0  0  0  0  0  0
    7.9519   51.1285   29.8700 H   0  0  0  0  0  0  0  0  0  0  0  0
    9.4147   50.1922   30.2995 H   0  0  0  0  0  0  0  0  0  0  0  0
    8.1182   53.3489   30.5528 H   0  0  0  0  0  0  0  0  0  0  0  0
    8.6735   55.0851   32.1982 H   0  0  0  0  0  0  0  0  0  0  0  0
   10.3187   52.1379   34.8271 H   0  0  0  0  0  0  0  0  0  0  0  0
    9.7605   54.4811   34.3362 H   0  0  0  0  0  0  0  0  0  0  0  0
    9.7476   40.0331   31.9255 H   0  0  0  0  0  0  0  0  0  0  0  0
   11.2256   41.0358   31.8824 H   0  0  0  0  0  0  0  0  0  0  0  0
   11.5975   39.0148   30.5905 H   0  0  0  0  0  0  0  0  0  0  0  0
   10.7023   37.5457   33.1720 H   0  0  0  0  0  0  0  0  0  0  0  0
   14.1957   37.4366   31.5528 H   0  0  0  0  0  0  0  0  0  0  0  0
    9.1339   37.6659   31.6070 H   0  0  0  0  0  0  0  0  0  0  0  0
   12.1380   35.7718   32.5698 H   0  0  0  0  0  0  0  0  0  0  0  0
   11.7706   35.4530   30.4497 H   0  0  0  0  0  0  0  0  0  0  0  0
   12.4315   38.3981   34.8694 H   0  0  0  0  0  0  0  0  0  0  0  0
   17.2665   34.4140   33.1691 H   0  0  0  0  0  0  0  0  0  0  0  0
   16.7633   35.0598   37.7895 H   0  0  0  0  0  0  0  0  0  0  0  0
   15.3757   36.1867   37.9789 H   0  0  0  0  0  0  0  0  0  0  0  0
  1  2  2  0
  1  3  1  0
  3  4  1  0
  4  5  1  0
  6  1  1  0
  7  6  1  0
  6  8  1  0
  8  9  1  0
  9 10  1  0
 10 11  1  0
 11 12  1  0
 12 13  1  0
 13 14  1  0
 13 15  2  0
 14 16  1  0
 16 17  1  0
 17 18  2  0
 19 17  1  0
 18 20  1  0
 21 19  2  0
 19 22  1  0
 20 23  2  0
 23 21  1  0
 22 24  1  0
 22 25  2  0
  4 26  2  0
  4 27  1  0
 28 27  1  0
 28 29  1  0
 29 30  1  0
 29 31  1  0
 30 32  1  0
 31 33  1  0
 31 34  1  0
 34 32  1  0
 32 35  1  0
 34 36  1  0
 37 35  1  0
 38 35  1  0
 39 37  2  0
 37 40  1  0
 41 38  2  0
 42 39  1  0
 40 43  2  0
 40 41  1  0
 44 42  2  0
 44 43  1  0
 43 45  1  0
  6 46  1  6
  7 47  1  0
  7 48  1  0
  8 49  1  0
  8 50  1  0
  9 51  1  0
  9 52  1  0
 10 53  1  0
 10 54  1  0
 11 55  1  0
 11 56  1  0
 12 57  1  0
 16 58  1  0
 16 59  1  0
 18 60  1  0
 20 61  1  0
 21 62  1  0
 23 63  1  0
 28 64  1  0
 28 65  1  0
 29 66  1  0
 31 67  1  0
 32 68  1  0
 33 69  1  0
 34 70  1  0
 36 71  1  0
 38 72  1  0
 42 73  1  0
 45 74  1  0
 45 75  1  0
M  CHG  3   5  -1  22   1  24  -1
M  END
>  <EmbedRMS>  (39) 
0.0737572493099

$$$$

     RDKit          3D

 75 78  0  0  0  0  0  0  0  0999 V2000
    9.4312   42.9412   34.3440 C   0  0  0  0  0  0  0  0  0  0  0  0
   10.4886   43.0411   35.0294 O   0  0  0  0  0  0  0  0  0  0  0  0
    8.8558   41.7129   34.0298 O   0  0  0  0  0  0  0  0  0  0  0  0
    9.4933   40.2164   34.4707 P   0  0  0  0  0  0  0  0  0  0  0  0
    9.7290   40.1745   36.1317 O   0  0  0  0  0  0  0  0  0  0  0  0
    8.7484   44.1360   33.7721 C   0  0  1  0  0  0  0  0  0  0  0  0
    9.3039   45.3665   34.3387 N   0  0  0  0  0  0  0  0  0  0  0  0
    8.8893   44.0518   32.2309 C   0  0  0  0  0  0  0  0  0  0  0  0
    8.2015   45.1721   31.4435 C   0  0  0  0  0  0  0  0  0  0  0  0
    6.6643   45.1066   31.4887 C   0  0  0  0  0  0  0  0  0  0  0  0
    6.0267   46.3237   30.8123 C   0  0  0  0  0  0  0  0  0  0  0  0
    6.5081   47.5646   31.4190 N   0  0  0  0  0  0  0  0  0  0  0  0
    7.2424   48.5405   30.6827 C   0  0  0  0  0  0  0  0  0  0  0  0
    7.5862   49.7466   31.3028 O   0  0  0  0  0  0  0  0  0  0  0  0
    7.5940   48.3104   29.4938 O   0  0  0  0  0  0  0  0  0  0  0  0
    8.3072   50.7859   30.6426 C   0  0  0  0  0  0  0  0  0  0  0  0
    7.4434   51.4454   29.5911 C   0  0  0  0  0  0  0  0  0  0  0  0
    6.1737   51.9148   29.9734 C   0  0  0  0  0  0  0  0  0  0  0  0
    7.8445   51.5635   28.2354 C   0  0  0  0  0  0  0  0  0  0  0  0
    5.2991   52.4540   29.0287 C   0  0  0  0  0  0  0  0  0  0  0  0
    6.9428   52.0916   27.2948 C   0  0  0  0  0  0  0  0  0  0  0  0
    9.1595   51.1842   27.8027 N   0  0  0  0  0  0  0  0  0  0  0  0
    5.6793   52.5334   27.6901 C   0  0  0  0  0  0  0  0  0  0  0  0
   10.2648   51.6777   28.4566 O   0  0  0  0  0  0  0  0  0  0  0  0
    9.3137   50.6154   26.7023 O   0  0  0  0  0  0  0  0  0  0  0  0
    8.5369   39.1403   34.0143 O   0  0  0  0  0  0  0  0  0  0  0  0
   10.9796   40.0883   33.6889 O   0  0  0  0  0  0  0  0  0  0  0  0
   10.8017   40.0949   32.2901 C   0  0  0  0  0  0  0  0  0  0  0  0
   11.5885   38.9267   31.7042 C   0  0  0  0  0  0  0  0  0  0  0  0
   12.9237   38.9445   32.1722 O   0  0  0  0  0  0  0  0  0  0  0  0
   11.0029   37.5726   32.0908 C   0  0  0  0  0  0  0  0  0  0  0  0
   13.3555   37.5960   32.2595 C   0  0  0  0  0  0  0  0  0  0  0  0
    9.9379   37.1847   31.2657 O   0  0  0  0  0  0  0  0  0  0  0  0
   12.1931   36.6769   31.8952 C   0  0  0  0  0  0  0  0  0  0  0  0
   13.8028   37.2977   33.6186 N   0  0  0  0  0  0  0  0  0  0  0  0
   12.2918   36.2396   30.5587 O   0  0  0  0  0  0  0  0  0  0  0  0
   14.7926   36.4727   33.9858 C   0  0  0  0  0  0  0  0  0  0  0  0
   13.2750   37.7302   34.7935 C   0  0  0  0  0  0  0  0  0  0  0  0
   15.6241   35.7586   33.1857 N   0  0  0  0  0  0  0  0  0  0  0  0
   14.8721   36.4408   35.3326 C   0  0  0  0  0  0  0  0  0  0  0  0
   13.9204   37.2263   35.8802 N   0  0  0  0  0  0  0  0  0  0  0  0
   16.5870   34.9925   33.7800 C   0  0  0  0  0  0  0  0  0  0  0  0
   15.8572   35.6717   35.9441 C   0  0  0  0  0  0  0  0  0  0  0  0
   16.7022   34.9585   35.1437 N   0  0  0  0  0  0  0  0  0  0  0  0
   16.0097   35.6384   37.3561 N   0  0  0  0  0  0  0  0  0  0  0  0
    7.6764   44.0635   34.0547 H   0  0  0  0  0  0  0  0  0  0  0  0
    8.6469   46.1559   34.1430 H   0  0  0  0  0  0  0  0  0  0  0  0
   10.2152   45.5879   33.8747 H   0  0  0  0  0  0  0  0  0  0  0  0
    8.4830   43.0817   31.8667 H   0  0  0  0  0  0  0  0  0  0  0  0
    9.9708   44.0642   31.9679 H   0  0  0  0  0  0  0  0  0  0  0  0
    8.5198   45.0958   30.3807 H   0  0  0  0  0  0  0  0  0  0  0  0
    8.5714   46.1487   31.8172 H   0  0  0  0  0  0  0  0  0  0  0  0
    6.3142   45.0784   32.5413 H   0  0  0  0  0  0  0  0  0  0  0  0
    6.3147   44.1801   30.9836 H   0  0  0  0  0  0  0  0  0  0  0  0
    6.2449   46.2897   29.7232 H   0  0  0  0  0  0  0  0  0  0  0  0
    4.9234   46.2698   30.9300 H   0  0  0  0  0  0  0  0  0  0  0  0
    6.2851   47.7542   32.4220 H   0  0  0  0  0  0  0  0  0  0  0  0
    9.2429   50.3592   30.2304 H   0  0  0  0  0  0  0  0  0  0  0  0
    8.5917   51.5506   31.3954 H   0  0  0  0  0  0  0  0  0  0  0  0
    5.8527   51.8442   31.0056 H   0  0  0  0  0  0  0  0  0  0  0  0
    4.3211   52.8029   29.3343 H   0  0  0  0  0  0  0  0  0  0  0  0
    7.2307   52.1843   26.2550 H   0  0  0  0  0  0  0  0  0  0  0  0
    4.9977   52.9477   26.9584 H   0  0  0  0  0  0  0  0  0  0  0  0
    9.7472   40.0379   31.9304 H   0  0  0  0  0  0  0  0  0  0  0  0
   11.2240   41.0428   31.8929 H   0  0  0  0  0  0  0  0  0  0  0  0
   11.5927   39.0434   30.5966 H   0  0  0  0  0  0  0  0  0  0  0  0
   10.7003   37.5444   33.1640 H   0  0  0  0  0  0  0  0  0  0  0  0
   14.2051   37.4477   31.5560 H   0  0  0  0  0  0  0  0  0  0  0  0
    9.1374   37.6722   31.5906 H   0  0  0  0  0  0  0  0  0  0  0  0
   12.1305   35.7856   32.5586 H   0  0  0  0  0  0  0  0  0  0  0  0
   12.4606   37.0186   29.9674 H   0  0  0  0  0  0  0  0  0  0  0  0
   12.4327   38.4001   34.8694 H   0  0  0  0  0  0  0  0  0  0  0  0
   17.2666   34.4146   33.1690 H   0  0  0  0  0  0  0  0  0  0  0  0
   16.7634   35.0601   37.7894 H   0  0  0  0  0  0  0  0  0  0  0  0
   15.3754   36.1866   37.9788 H   0  0  0  0  0  0  0  0  0  0  0  0
  1  2  2  0
  1  3  1  0
  3  4  1  0
  4  5  1  0
  6  1  1  0
  7  6  1  0
  6  8  1  0
  8  9  1  0
  9 10  1  0
 10 11  1  0
 11 12  1  0
 12 13  1  0
 13 14  1  0
 13 15  2  0
 14 16  1  0
 16 17  1  0
 17 18  2  0
 19 17  1  0
 18 20  1  0
 21 19  2  0
 19 22  1  0
 20 23  2  0
 23 21  1  0
 22 24  1  0
 22 25  2  0
  4 26  2  0
  4 27  1  0
 28 27  1  0
 28 29  1  0
 29 30  1  0
 29 31  1  0
 30 32  1  0
 31 33  1  0
 31 34  1  0
 34 32  1  0
 32 35  1  0
 34 36  1  0
 37 35  1  0
 38 35  1  0
 39 37  2  0
 37 40  1  0
 41 38  2  0
 42 39  1  0
 40 43  2  0
 40 41  1  0
 44 42  2  0
 44 43  1  0
 43 45  1  0
  6 46  1  6
  7 47  1  0
  7 48  1  0
  8 49  1  0
  8 50  1  0
  9 51  1  0
  9 52  1  0
 10 53  1  0
 10 54  1  0
 11 55  1  0
 11 56  1  0
 12 57  1  0
 16 58  1  0
 16 59  1  0
 18 60  1  0
 20 61  1  0
 21 62  1  0
 23 63  1  0
 28 64  1  0
 28 65  1  0
 29 66  1  0
 31 67  1  0
 32 68  1  0
 33 69  1  0
 34 70  1  0
 36 71  1  0
 38 72  1  0
 42 73  1  0
 45 74  1  0
 45 75  1  0
M  CHG  3   5  -1  22   1  24  -1
M  END
>  <EmbedRMS>  (40) 
0.0748581228849

$$$$

     RDKit          3D

 75 78  0  0  0  0  0  0  0  0999 V2000
    9.4311   42.9412   34.3437 C   0  0  0  0  0  0  0  0  0  0  0  0
   10.4884   43.0411   35.0293 O   0  0  0  0  0  0  0  0  0  0  0  0
    8.8561   41.7129   34.0287 O   0  0  0  0  0  0  0  0  0  0  0  0
    9.4944   40.2161   34.4677 P   0  0  0  0  0  0  0  0  0  0  0  0
    9.7313   40.1740   36.1288 O   0  0  0  0  0  0  0  0  0  0  0  0
    8.7482   44.1362   33.7722 C   0  0  1  0  0  0  0  0  0  0  0  0
    9.3036   45.3668   34.3389 N   0  0  0  0  0  0  0  0  0  0  0  0
    8.8891   44.0522   32.2309 C   0  0  0  0  0  0  0  0  0  0  0  0
    8.2016   45.1727   31.4438 C   0  0  0  0  0  0  0  0  0  0  0  0
    6.6644   45.1060   31.4863 C   0  0  0  0  0  0  0  0  0  0  0  0
    6.0277   46.3240   30.8099 C   0  0  0  0  0  0  0  0  0  0  0  0
    6.5058   47.5638   31.4217 N   0  0  0  0  0  0  0  0  0  0  0  0
    7.2510   48.5404   30.6842 C   0  0  0  0  0  0  0  0  0  0  0  0
    7.6449   49.7517   31.2647 O   0  0  0  0  0  0  0  0  0  0  0  0
    7.5874   48.3088   29.4937 O   0  0  0  0  0  0  0  0  0  0  0  0
    7.3612   50.1177   32.6112 C   0  0  0  0  0  0  0  0  0  0  0  0
    7.9275   51.4863   32.8886 C   0  0  0  0  0  0  0  0  0  0  0  0
    9.1567   51.5783   33.5671 C   0  0  0  0  0  0  0  0  0  0  0  0
    7.2507   52.6791   32.5120 C   0  0  0  0  0  0  0  0  0  0  0  0
    9.7024   52.8217   33.8877 C   0  0  0  0  0  0  0  0  0  0  0  0
    7.8121   53.9211   32.8600 C   0  0  0  0  0  0  0  0  0  0  0  0
    5.9981   52.6588   31.8019 N   0  0  0  0  0  0  0  0  0  0  0  0
    9.0291   53.9905   33.5392 C   0  0  0  0  0  0  0  0  0  0  0  0
    5.1039   53.6931   31.9578 O   0  0  0  0  0  0  0  0  0  0  0  0
    5.7755   51.8039   30.9206 O   0  0  0  0  0  0  0  0  0  0  0  0
    8.5372   39.1400   34.0125 O   0  0  0  0  0  0  0  0  0  0  0  0
   10.9796   40.0878   33.6826 O   0  0  0  0  0  0  0  0  0  0  0  0
   10.7996   40.0901   32.2829 C   0  0  0  0  0  0  0  0  0  0  0  0
   11.5968   38.9274   31.6963 C   0  0  0  0  0  0  0  0  0  0  0  0
   12.9242   38.9426   32.1785 O   0  0  0  0  0  0  0  0  0  0  0  0
   11.0085   37.5714   32.0780 C   0  0  0  0  0  0  0  0  0  0  0  0
   13.3528   37.5929   32.2623 C   0  0  0  0  0  0  0  0  0  0  0  0
    9.9098   37.1771   31.2926 O   0  0  0  0  0  0  0  0  0  0  0  0
   12.1942   36.6683   31.8995 C   0  0  0  0  0  0  0  0  0  0  0  0
   13.8019   37.2950   33.6199 N   0  0  0  0  0  0  0  0  0  0  0  0
   12.3026   36.2773   30.5559 O   0  0  0  0  0  0  0  0  0  0  0  0
   14.7926   36.4715   33.9865 C   0  0  0  0  0  0  0  0  0  0  0  0
   13.2749   37.7286   34.7946 C   0  0  0  0  0  0  0  0  0  0  0  0
   15.6239   35.7577   33.1860 N   0  0  0  0  0  0  0  0  0  0  0  0
   14.8727   36.4403   35.3332 C   0  0  0  0  0  0  0  0  0  0  0  0
   13.9210   37.2257   35.8812 N   0  0  0  0  0  0  0  0  0  0  0  0
   16.5873   34.9921   33.7802 C   0  0  0  0  0  0  0  0  0  0  0  0
   15.8579   35.6714   35.9444 C   0  0  0  0  0  0  0  0  0  0  0  0
   16.7028   34.9583   35.1439 N   0  0  0  0  0  0  0  0  0  0  0  0
   16.0104   35.6381   37.3564 N   0  0  0  0  0  0  0  0  0  0  0  0
    7.6761   44.0638   34.0546 H   0  0  0  0  0  0  0  0  0  0  0  0
   10.2147   45.5887   33.8745 H   0  0  0  0  0  0  0  0  0  0  0  0
    8.6463   46.1563   34.1437 H   0  0  0  0  0  0  0  0  0  0  0  0
    8.4829   43.0822   31.8666 H   0  0  0  0  0  0  0  0  0  0  0  0
    9.9707   44.0645   31.9682 H   0  0  0  0  0  0  0  0  0  0  0  0
    8.5217   45.0978   30.3814 H   0  0  0  0  0  0  0  0  0  0  0  0
    8.5701   46.1493   31.8192 H   0  0  0  0  0  0  0  0  0  0  0  0
    6.3125   45.0760   32.5383 H   0  0  0  0  0  0  0  0  0  0  0  0
    6.3164   44.1801   30.9792 H   0  0  0  0  0  0  0  0  0  0  0  0
    4.9240   46.2685   30.9241 H   0  0  0  0  0  0  0  0  0  0  0  0
    6.2486   46.2917   29.7215 H   0  0  0  0  0  0  0  0  0  0  0  0
    6.2754   47.7255   32.4267 H   0  0  0  0  0  0  0  0  0  0  0  0
    7.8150   49.3665   33.2948 H   0  0  0  0  0  0  0  0  0  0  0  0
    6.2653   50.1143   32.7953 H   0  0  0  0  0  0  0  0  0  0  0  0
    9.6943   50.6832   33.8554 H   0  0  0  0  0  0  0  0  0  0  0  0
   10.6475   52.8786   34.4121 H   0  0  0  0  0  0  0  0  0  0  0  0
    7.3133   54.8429   32.5889 H   0  0  0  0  0  0  0  0  0  0  0  0
    9.4528   54.9538   33.7924 H   0  0  0  0  0  0  0  0  0  0  0  0
   11.2095   41.0419   31.8824 H   0  0  0  0  0  0  0  0  0  0  0  0
    9.7449   40.0145   31.9263 H   0  0  0  0  0  0  0  0  0  0  0  0
   11.6265   39.0456   30.5888 H   0  0  0  0  0  0  0  0  0  0  0  0
   10.7064   37.5575   33.1485 H   0  0  0  0  0  0  0  0  0  0  0  0
   14.2020   37.4484   31.5574 H   0  0  0  0  0  0  0  0  0  0  0  0
   10.0952   37.3991   30.3433 H   0  0  0  0  0  0  0  0  0  0  0  0
   12.1162   35.7745   32.5634 H   0  0  0  0  0  0  0  0  0  0  0  0
   12.9614   35.5349   30.5312 H   0  0  0  0  0  0  0  0  0  0  0  0
   12.4321   38.3982   34.8705 H   0  0  0  0  0  0  0  0  0  0  0  0
   17.2669   34.4143   33.1690 H   0  0  0  0  0  0  0  0  0  0  0  0
   15.3761   36.1862   37.9792 H   0  0  0  0  0  0  0  0  0  0  0  0
   16.7641   35.0599   37.7896 H   0  0  0  0  0  0  0  0  0  0  0  0
  1  2  2  0
  1  3  1  0
  3  4  1  0
  4  5  1  0
  6  1  1  0
  7  6  1  0
  6  8  1  0
  8  9  1  0
  9 10  1  0
 10 11  1  0
 11 12  1  0
 12 13  1  0
 13 14  1  0
 13 15  2  0
 14 16  1  0
 16 17  1  0
 17 18  2  0
 19 17  1  0
 18 20  1  0
 21 19  2  0
 19 22  1  0
 20 23  2  0
 23 21  1  0
 22 24  1  0
 22 25  2  0
  4 26  2  0
  4 27  1  0
 28 27  1  0
 28 29  1  0
 29 30  1  0
 29 31  1  0
 30 32  1  0
 31 33  1  0
 31 34  1  0
 34 32  1  0
 32 35  1  0
 34 36  1  0
 37 35  1  0
 38 35  1  0
 39 37  2  0
 37 40  1  0
 41 38  2  0
 42 39  1  0
 40 43  2  0
 40 41  1  0
 44 42  2  0
 44 43  1  0
 43 45  1  0
  6 46  1  6
  7 47  1  0
  7 48  1  0
  8 49  1  0
  8 50  1  0
  9 51  1  0
  9 52  1  0
 10 53  1  0
 10 54  1  0
 11 55  1  0
 11 56  1  0
 12 57  1  0
 16 58  1  0
 16 59  1  0
 18 60  1  0
 20 61  1  0
 21 62  1  0
 23 63  1  0
 28 64  1  0
 28 65  1  0
 29 66  1  0
 31 67  1  0
 32 68  1  0
 33 69  1  0
 34 70  1  0
 36 71  1  0
 38 72  1  0
 42 73  1  0
 45 74  1  0
 45 75  1  0
M  CHG  3   5  -1  22   1  24  -1
M  END
>  <EmbedRMS>  (41) 
0.0738804997444

$$$$

     RDKit          3D

 75 78  0  0  0  0  0  0  0  0999 V2000
    9.4316   42.9406   34.3431 C   0  0  0  0  0  0  0  0  0  0  0  0
   10.4885   43.0411   35.0292 O   0  0  0  0  0  0  0  0  0  0  0  0
    8.8565   41.7123   34.0287 O   0  0  0  0  0  0  0  0  0  0  0  0
    9.4947   40.2158   34.4679 P   0  0  0  0  0  0  0  0  0  0  0  0
    9.7313   40.1739   36.1290 O   0  0  0  0  0  0  0  0  0  0  0  0
    8.7484   44.1344   33.7707 C   0  0  1  0  0  0  0  0  0  0  0  0
    9.3007   45.3654   34.3368 N   0  0  0  0  0  0  0  0  0  0  0  0
    8.8902   44.0519   32.2297 C   0  0  0  0  0  0  0  0  0  0  0  0
    8.2024   45.1729   31.4428 C   0  0  0  0  0  0  0  0  0  0  0  0
    6.6655   45.1083   31.4899 C   0  0  0  0  0  0  0  0  0  0  0  0
    6.0283   46.3258   30.8141 C   0  0  0  0  0  0  0  0  0  0  0  0
    6.5075   47.5671   31.4234 N   0  0  0  0  0  0  0  0  0  0  0  0
    7.2320   48.5503   30.6752 C   0  0  0  0  0  0  0  0  0  0  0  0
    7.5434   49.8062   31.2121 O   0  0  0  0  0  0  0  0  0  0  0  0
    7.6021   48.2971   29.4992 O   0  0  0  0  0  0  0  0  0  0  0  0
    7.1532   50.2677   32.5047 C   0  0  0  0  0  0  0  0  0  0  0  0
    7.9974   49.6455   33.5938 C   0  0  0  0  0  0  0  0  0  0  0  0
    7.3477   49.0655   34.6992 C   0  0  0  0  0  0  0  0  0  0  0  0
    9.4173   49.6383   33.5438 C   0  0  0  0  0  0  0  0  0  0  0  0
    8.0812   48.4778   35.7304 C   0  0  0  0  0  0  0  0  0  0  0  0
   10.1366   49.0185   34.5821 C   0  0  0  0  0  0  0  0  0  0  0  0
   10.1418   50.2476   32.4606 N   0  0  0  0  0  0  0  0  0  0  0  0
    9.4729   48.4515   35.6705 C   0  0  0  0  0  0  0  0  0  0  0  0
    9.7541   51.4678   31.9580 O   0  0  0  0  0  0  0  0  0  0  0  0
   11.2278   49.7609   32.0832 O   0  0  0  0  0  0  0  0  0  0  0  0
    8.5375   39.1398   34.0125 O   0  0  0  0  0  0  0  0  0  0  0  0
   10.9800   40.0877   33.6829 O   0  0  0  0  0  0  0  0  0  0  0  0
   10.8003   40.0907   32.2832 C   0  0  0  0  0  0  0  0  0  0  0  0
   11.5958   38.9271   31.6964 C   0  0  0  0  0  0  0  0  0  0  0  0
   12.9239   38.9409   32.1767 O   0  0  0  0  0  0  0  0  0  0  0  0
   11.0062   37.5720   32.0794 C   0  0  0  0  0  0  0  0  0  0  0  0
   13.3506   37.5905   32.2614 C   0  0  0  0  0  0  0  0  0  0  0  0
    9.9064   37.1793   31.2946 O   0  0  0  0  0  0  0  0  0  0  0  0
   12.1920   36.6672   31.9003 C   0  0  0  0  0  0  0  0  0  0  0  0
   13.8017   37.2948   33.6193 N   0  0  0  0  0  0  0  0  0  0  0  0
   12.3133   36.2788   30.5561 O   0  0  0  0  0  0  0  0  0  0  0  0
   14.7927   36.4717   33.9862 C   0  0  0  0  0  0  0  0  0  0  0  0
   13.2746   37.7284   34.7941 C   0  0  0  0  0  0  0  0  0  0  0  0
   15.6240   35.7576   33.1859 N   0  0  0  0  0  0  0  0  0  0  0  0
   14.8728   36.4406   35.3330 C   0  0  0  0  0  0  0  0  0  0  0  0
   13.9209   37.2258   35.8808 N   0  0  0  0  0  0  0  0  0  0  0  0
   16.5874   34.9920   33.7802 C   0  0  0  0  0  0  0  0  0  0  0  0
   15.8579   35.6716   35.9443 C   0  0  0  0  0  0  0  0  0  0  0  0
   16.7028   34.9584   35.1439 N   0  0  0  0  0  0  0  0  0  0  0  0
   16.0103   35.6383   37.3563 N   0  0  0  0  0  0  0  0  0  0  0  0
    7.6763   44.0606   34.0525 H   0  0  0  0  0  0  0  0  0  0  0  0
    8.6469   46.1510   34.1202 H   0  0  0  0  0  0  0  0  0  0  0  0
   10.2177   45.5827   33.8818 H   0  0  0  0  0  0  0  0  0  0  0  0
    8.4847   43.0819   31.8645 H   0  0  0  0  0  0  0  0  0  0  0  0
    9.9719   44.0653   31.9676 H   0  0  0  0  0  0  0  0  0  0  0  0
    8.5192   45.0952   30.3796 H   0  0  0  0  0  0  0  0  0  0  0  0
    8.5736   46.1503   31.8140 H   0  0  0  0  0  0  0  0  0  0  0  0
    6.3167   45.0810   32.5430 H   0  0  0  0  0  0  0  0  0  0  0  0
    6.3146   44.1819   30.9855 H   0  0  0  0  0  0  0  0  0  0  0  0
    4.9249   46.2705   30.9312 H   0  0  0  0  0  0  0  0  0  0  0  0
    6.2459   46.2922   29.7251 H   0  0  0  0  0  0  0  0  0  0  0  0
    6.2749   47.7332   32.4262 H   0  0  0  0  0  0  0  0  0  0  0  0
    7.2877   51.3681   32.5425 H   0  0  0  0  0  0  0  0  0  0  0  0
    6.0672   50.0838   32.6570 H   0  0  0  0  0  0  0  0  0  0  0  0
    6.2667   49.0672   34.7655 H   0  0  0  0  0  0  0  0  0  0  0  0
    7.5685   48.0345   36.5742 H   0  0  0  0  0  0  0  0  0  0  0  0
   11.2188   48.9958   34.5602 H   0  0  0  0  0  0  0  0  0  0  0  0
   10.0393   47.9880   36.4679 H   0  0  0  0  0  0  0  0  0  0  0  0
   11.2115   41.0421   31.8830 H   0  0  0  0  0  0  0  0  0  0  0  0
    9.7455   40.0168   31.9264 H   0  0  0  0  0  0  0  0  0  0  0  0
   11.6245   39.0450   30.5889 H   0  0  0  0  0  0  0  0  0  0  0  0
   10.7050   37.5581   33.1500 H   0  0  0  0  0  0  0  0  0  0  0  0
   14.1985   37.4426   31.5553 H   0  0  0  0  0  0  0  0  0  0  0  0
   10.0893   37.4058   30.3459 H   0  0  0  0  0  0  0  0  0  0  0  0
   12.1337   35.7754   32.5703 H   0  0  0  0  0  0  0  0  0  0  0  0
   11.7933   35.4394   30.4514 H   0  0  0  0  0  0  0  0  0  0  0  0
   12.4314   38.3973   34.8700 H   0  0  0  0  0  0  0  0  0  0  0  0
   17.2669   34.4142   33.1692 H   0  0  0  0  0  0  0  0  0  0  0  0
   16.7638   35.0599   37.7896 H   0  0  0  0  0  0  0  0  0  0  0  0
   15.3759   36.1865   37.9790 H   0  0  0  0  0  0  0  0  0  0  0  0
  1  2  2  0
  1  3  1  0
  3  4  1  0
  4  5  1  0
  6  1  1  0
  7  6  1  0
  6  8  1  0
  8  9  1  0
  9 10  1  0
 10 11  1  0
 11 12  1  0
 12 13  1  0
 13 14  1  0
 13 15  2  0
 14 16  1  0
 16 17  1  0
 17 18  2  0
 19 17  1  0
 18 20  1  0
 21 19  2  0
 19 22  1  0
 20 23  2  0
 23 21  1  0
 22 24  1  0
 22 25  2  0
  4 26  2  0
  4 27  1  0
 28 27  1  0
 28 29  1  0
 29 30  1  0
 29 31  1  0
 30 32  1  0
 31 33  1  0
 31 34  1  0
 34 32  1  0
 32 35  1  0
 34 36  1  0
 37 35  1  0
 38 35  1  0
 39 37  2  0
 37 40  1  0
 41 38  2  0
 42 39  1  0
 40 43  2  0
 40 41  1  0
 44 42  2  0
 44 43  1  0
 43 45  1  0
  6 46  1  6
  7 47  1  0
  7 48  1  0
  8 49  1  0
  8 50  1  0
  9 51  1  0
  9 52  1  0
 10 53  1  0
 10 54  1  0
 11 55  1  0
 11 56  1  0
 12 57  1  0
 16 58  1  0
 16 59  1  0
 18 60  1  0
 20 61  1  0
 21 62  1  0
 23 63  1  0
 28 64  1  0
 28 65  1  0
 29 66  1  0
 31 67  1  0
 32 68  1  0
 33 69  1  0
 34 70  1  0
 36 71  1  0
 38 72  1  0
 42 73  1  0
 45 74  1  0
 45 75  1  0
M  CHG  3   5  -1  22   1  24  -1
M  END
>  <EmbedRMS>  (42) 
0.0739604403116

$$$$

     RDKit          3D

 75 78  0  0  0  0  0  0  0  0999 V2000
    9.4312   42.9410   34.3437 C   0  0  0  0  0  0  0  0  0  0  0  0
   10.4885   43.0408   35.0293 O   0  0  0  0  0  0  0  0  0  0  0  0
    8.8562   41.7127   34.0287 O   0  0  0  0  0  0  0  0  0  0  0  0
    9.4944   40.2160   34.4677 P   0  0  0  0  0  0  0  0  0  0  0  0
    9.7313   40.1739   36.1288 O   0  0  0  0  0  0  0  0  0  0  0  0
    8.7484   44.1359   33.7721 C   0  0  1  0  0  0  0  0  0  0  0  0
    9.3039   45.3664   34.3388 N   0  0  0  0  0  0  0  0  0  0  0  0
    8.8893   44.0519   32.2308 C   0  0  0  0  0  0  0  0  0  0  0  0
    8.2015   45.1721   31.4435 C   0  0  0  0  0  0  0  0  0  0  0  0
    6.6643   45.1066   31.4887 C   0  0  0  0  0  0  0  0  0  0  0  0
    6.0267   46.3237   30.8123 C   0  0  0  0  0  0  0  0  0  0  0  0
    6.5081   47.5646   31.4190 N   0  0  0  0  0  0  0  0  0  0  0  0
    7.2422   48.5406   30.6826 C   0  0  0  0  0  0  0  0  0  0  0  0
    7.5852   49.7471   31.3025 O   0  0  0  0  0  0  0  0  0  0  0  0
    7.5941   48.3104   29.4938 O   0  0  0  0  0  0  0  0  0  0  0  0
    8.3060   50.7865   30.6420 C   0  0  0  0  0  0  0  0  0  0  0  0
    7.4418   51.4450   29.5897 C   0  0  0  0  0  0  0  0  0  0  0  0
    6.1729   51.9153   29.9736 C   0  0  0  0  0  0  0  0  0  0  0  0
    7.8404   51.5624   28.2321 C   0  0  0  0  0  0  0  0  0  0  0  0
    5.2965   52.4530   29.0299 C   0  0  0  0  0  0  0  0  0  0  0  0
    6.9363   52.0871   27.2931 C   0  0  0  0  0  0  0  0  0  0  0  0
    9.1511   51.1794   27.7902 N   0  0  0  0  0  0  0  0  0  0  0  0
    5.6737   52.5296   27.6903 C   0  0  0  0  0  0  0  0  0  0  0  0
    9.3077   50.5737   26.5649 O   0  0  0  0  0  0  0  0  0  0  0  0
   10.1610   51.6170   28.3791 O   0  0  0  0  0  0  0  0  0  0  0  0
    8.5373   39.1399   34.0125 O   0  0  0  0  0  0  0  0  0  0  0  0
   10.9796   40.0877   33.6826 O   0  0  0  0  0  0  0  0  0  0  0  0
   10.7997   40.0900   32.2829 C   0  0  0  0  0  0  0  0  0  0  0  0
   11.5968   38.9274   31.6963 C   0  0  0  0  0  0  0  0  0  0  0  0
   12.9242   38.9426   32.1785 O   0  0  0  0  0  0  0  0  0  0  0  0
   11.0086   37.5714   32.0780 C   0  0  0  0  0  0  0  0  0  0  0  0
   13.3528   37.5929   32.2623 C   0  0  0  0  0  0  0  0  0  0  0  0
    9.9098   37.1771   31.2926 O   0  0  0  0  0  0  0  0  0  0  0  0
   12.1942   36.6683   31.8995 C   0  0  0  0  0  0  0  0  0  0  0  0
   13.8019   37.2950   33.6199 N   0  0  0  0  0  0  0  0  0  0  0  0
   12.3026   36.2773   30.5559 O   0  0  0  0  0  0  0  0  0  0  0  0
   14.7926   36.4715   33.9865 C   0  0  0  0  0  0  0  0  0  0  0  0
   13.2749   37.7286   34.7946 C   0  0  0  0  0  0  0  0  0  0  0  0
   15.6239   35.7577   33.1860 N   0  0  0  0  0  0  0  0  0  0  0  0
   14.8727   36.4403   35.3332 C   0  0  0  0  0  0  0  0  0  0  0  0
   13.9210   37.2257   35.8812 N   0  0  0  0  0  0  0  0  0  0  0  0
   16.5873   34.9921   33.7802 C   0  0  0  0  0  0  0  0  0  0  0  0
   15.8579   35.6714   35.9444 C   0  0  0  0  0  0  0  0  0  0  0  0
   16.7028   34.9583   35.1439 N   0  0  0  0  0  0  0  0  0  0  0  0
   16.0104   35.6381   37.3564 N   0  0  0  0  0  0  0  0  0  0  0  0
    7.6764   44.0633   34.0547 H   0  0  0  0  0  0  0  0  0  0  0  0
   10.2152   45.5878   33.8748 H   0  0  0  0  0  0  0  0  0  0  0  0
    8.6469   46.1558   34.1431 H   0  0  0  0  0  0  0  0  0  0  0  0
    9.9708   44.0643   31.9679 H   0  0  0  0  0  0  0  0  0  0  0  0
    8.4831   43.0818   31.8665 H   0  0  0  0  0  0  0  0  0  0  0  0
    8.5714   46.1487   31.8173 H   0  0  0  0  0  0  0  0  0  0  0  0
    8.5198   45.0959   30.3807 H   0  0  0  0  0  0  0  0  0  0  0  0
    6.3148   44.1801   30.9835 H   0  0  0  0  0  0  0  0  0  0  0  0
    6.3142   45.0783   32.5413 H   0  0  0  0  0  0  0  0  0  0  0  0
    4.9234   46.2699   30.9300 H   0  0  0  0  0  0  0  0  0  0  0  0
    6.2448   46.2897   29.7232 H   0  0  0  0  0  0  0  0  0  0  0  0
    6.2850   47.7542   32.4220 H   0  0  0  0  0  0  0  0  0  0  0  0
    8.5890   51.5519   31.3947 H   0  0  0  0  0  0  0  0  0  0  0  0
    9.2428   50.3602   30.2324 H   0  0  0  0  0  0  0  0  0  0  0  0
    5.8537   51.8463   31.0065 H   0  0  0  0  0  0  0  0  0  0  0  0
    4.3191   52.8024   29.3369 H   0  0  0  0  0  0  0  0  0  0  0  0
    7.2214   52.1771   26.2524 H   0  0  0  0  0  0  0  0  0  0  0  0
    4.9904   52.9421   26.9592 H   0  0  0  0  0  0  0  0  0  0  0  0
   11.2095   41.0419   31.8824 H   0  0  0  0  0  0  0  0  0  0  0  0
    9.7449   40.0145   31.9263 H   0  0  0  0  0  0  0  0  0  0  0  0
   11.6265   39.0456   30.5888 H   0  0  0  0  0  0  0  0  0  0  0  0
   10.7064   37.5575   33.1485 H   0  0  0  0  0  0  0  0  0  0  0  0
   14.2020   37.4484   31.5574 H   0  0  0  0  0  0  0  0  0  0  0  0
   10.0952   37.3991   30.3433 H   0  0  0  0  0  0  0  0  0  0  0  0
   12.1163   35.7745   32.5634 H   0  0  0  0  0  0  0  0  0  0  0  0
   12.9614   35.5349   30.5312 H   0  0  0  0  0  0  0  0  0  0  0  0
   12.4321   38.3982   34.8705 H   0  0  0  0  0  0  0  0  0  0  0  0
   17.2669   34.4143   33.1690 H   0  0  0  0  0  0  0  0  0  0  0  0
   16.7641   35.0598   37.7896 H   0  0  0  0  0  0  0  0  0  0  0  0
   15.3761   36.1862   37.9792 H   0  0  0  0  0  0  0  0  0  0  0  0
  1  2  2  0
  1  3  1  0
  3  4  1  0
  4  5  1  0
  6  1  1  0
  7  6  1  0
  6  8  1  0
  8  9  1  0
  9 10  1  0
 10 11  1  0
 11 12  1  0
 12 13  1  0
 13 14  1  0
 13 15  2  0
 14 16  1  0
 16 17  1  0
 17 18  2  0
 19 17  1  0
 18 20  1  0
 21 19  2  0
 19 22  1  0
 20 23  2  0
 23 21  1  0
 22 24  1  0
 22 25  2  0
  4 26  2  0
  4 27  1  0
 28 27  1  0
 28 29  1  0
 29 30  1  0
 29 31  1  0
 30 32  1  0
 31 33  1  0
 31 34  1  0
 34 32  1  0
 32 35  1  0
 34 36  1  0
 37 35  1  0
 38 35  1  0
 39 37  2  0
 37 40  1  0
 41 38  2  0
 42 39  1  0
 40 43  2  0
 40 41  1  0
 44 42  2  0
 44 43  1  0
 43 45  1  0
  6 46  1  6
  7 47  1  0
  7 48  1  0
  8 49  1  0
  8 50  1  0
  9 51  1  0
  9 52  1  0
 10 53  1  0
 10 54  1  0
 11 55  1  0
 11 56  1  0
 12 57  1  0
 16 58  1  0
 16 59  1  0
 18 60  1  0
 20 61  1  0
 21 62  1  0
 23 63  1  0
 28 64  1  0
 28 65  1  0
 29 66  1  0
 31 67  1  0
 32 68  1  0
 33 69  1  0
 34 70  1  0
 36 71  1  0
 38 72  1  0
 42 73  1  0
 45 74  1  0
 45 75  1  0
M  CHG  3   5  -1  22   1  24  -1
M  END
>  <EmbedRMS>  (43) 
0.0737384653551

$$$$

     RDKit          3D

 75 78  0  0  0  0  0  0  0  0999 V2000
    9.4333   42.9365   34.3462 C   0  0  0  0  0  0  0  0  0  0  0  0
   10.4907   43.0330   35.0319 O   0  0  0  0  0  0  0  0  0  0  0  0
    8.8563   41.7104   34.0296 O   0  0  0  0  0  0  0  0  0  0  0  0
    9.4945   40.2142   34.4680 P   0  0  0  0  0  0  0  0  0  0  0  0
    9.7309   40.1726   36.1291 O   0  0  0  0  0  0  0  0  0  0  0  0
    8.7506   44.1348   33.7741 C   0  0  1  0  0  0  0  0  0  0  0  0
    9.2963   45.3821   34.3133 N   0  0  0  0  0  0  0  0  0  0  0  0
    8.8893   44.0527   32.2358 C   0  0  0  0  0  0  0  0  0  0  0  0
    8.2028   45.1823   31.4615 C   0  0  0  0  0  0  0  0  0  0  0  0
    6.6653   45.1046   31.4855 C   0  0  0  0  0  0  0  0  0  0  0  0
    6.0270   46.3226   30.8105 C   0  0  0  0  0  0  0  0  0  0  0  0
    6.5064   47.5639   31.4180 N   0  0  0  0  0  0  0  0  0  0  0  0
    7.2434   48.5393   30.6835 C   0  0  0  0  0  0  0  0  0  0  0  0
    7.5913   49.7409   31.3057 O   0  0  0  0  0  0  0  0  0  0  0  0
    7.5935   48.3118   29.4937 O   0  0  0  0  0  0  0  0  0  0  0  0
    8.3325   50.7632   30.6467 C   0  0  0  0  0  0  0  0  0  0  0  0
    8.5082   51.9418   31.5717 C   0  0  0  0  0  0  0  0  0  0  0  0
    9.8136   52.3694   31.8789 C   0  0  0  0  0  0  0  0  0  0  0  0
    7.4026   52.6032   32.1730 C   0  0  0  0  0  0  0  0  0  0  0  0
   10.0283   53.4220   32.7692 C   0  0  0  0  0  0  0  0  0  0  0  0
    7.6439   53.6525   33.0794 C   0  0  0  0  0  0  0  0  0  0  0  0
    6.0428   52.2176   31.8981 N   0  0  0  0  0  0  0  0  0  0  0  0
    8.9460   54.0598   33.3710 C   0  0  0  0  0  0  0  0  0  0  0  0
    5.6510   51.8774   30.6245 O   0  0  0  0  0  0  0  0  0  0  0  0
    5.1677   52.3418   32.7800 O   0  0  0  0  0  0  0  0  0  0  0  0
    8.5372   39.1386   34.0125 O   0  0  0  0  0  0  0  0  0  0  0  0
   10.9804   40.0880   33.6837 O   0  0  0  0  0  0  0  0  0  0  0  0
   10.8025   40.0899   32.2839 C   0  0  0  0  0  0  0  0  0  0  0  0
   11.5888   38.9174   31.7007 C   0  0  0  0  0  0  0  0  0  0  0  0
   12.9219   38.9373   32.1692 O   0  0  0  0  0  0  0  0  0  0  0  0
   11.0028   37.5682   32.0980 C   0  0  0  0  0  0  0  0  0  0  0  0
   13.3496   37.5885   32.2601 C   0  0  0  0  0  0  0  0  0  0  0  0
    9.9343   37.1822   31.2756 O   0  0  0  0  0  0  0  0  0  0  0  0
   12.1891   36.6677   31.9049 C   0  0  0  0  0  0  0  0  0  0  0  0
   13.8025   37.2965   33.6186 N   0  0  0  0  0  0  0  0  0  0  0  0
   12.2991   36.2867   30.5567 O   0  0  0  0  0  0  0  0  0  0  0  0
   14.7929   36.4725   33.9858 C   0  0  0  0  0  0  0  0  0  0  0  0
   13.2749   37.7294   34.7935 C   0  0  0  0  0  0  0  0  0  0  0  0
   15.6240   35.7580   33.1858 N   0  0  0  0  0  0  0  0  0  0  0  0
   14.8727   36.4411   35.3327 C   0  0  0  0  0  0  0  0  0  0  0  0
   13.9208   37.2263   35.8803 N   0  0  0  0  0  0  0  0  0  0  0  0
   16.5871   34.9921   33.7801 C   0  0  0  0  0  0  0  0  0  0  0  0
   15.8576   35.6718   35.9441 C   0  0  0  0  0  0  0  0  0  0  0  0
   16.7024   34.9584   35.1438 N   0  0  0  0  0  0  0  0  0  0  0  0
   16.0099   35.6384   37.3562 N   0  0  0  0  0  0  0  0  0  0  0  0
    7.6770   44.0707   34.0504 H   0  0  0  0  0  0  0  0  0  0  0  0
    9.1827   45.3821   35.3535 H   0  0  0  0  0  0  0  0  0  0  0  0
   10.3192   45.4407   34.1000 H   0  0  0  0  0  0  0  0  0  0  0  0
    9.9711   44.0682   31.9739 H   0  0  0  0  0  0  0  0  0  0  0  0
    8.4817   43.0851   31.8668 H   0  0  0  0  0  0  0  0  0  0  0  0
    8.5552   46.1510   31.8742 H   0  0  0  0  0  0  0  0  0  0  0  0
    8.5384   45.1363   30.4022 H   0  0  0  0  0  0  0  0  0  0  0  0
    6.3020   45.0643   32.5334 H   0  0  0  0  0  0  0  0  0  0  0  0
    6.3296   44.1799   30.9678 H   0  0  0  0  0  0  0  0  0  0  0  0
    4.9236   46.2673   30.9265 H   0  0  0  0  0  0  0  0  0  0  0  0
    6.2465   46.2898   29.7217 H   0  0  0  0  0  0  0  0  0  0  0  0
    6.2815   47.7534   32.4207 H   0  0  0  0  0  0  0  0  0  0  0  0
    9.3169   50.3493   30.3359 H   0  0  0  0  0  0  0  0  0  0  0  0
    7.8079   51.0867   29.7234 H   0  0  0  0  0  0  0  0  0  0  0  0
   10.6728   51.8821   31.4345 H   0  0  0  0  0  0  0  0  0  0  0  0
   11.0376   53.7397   32.9976 H   0  0  0  0  0  0  0  0  0  0  0  0
    6.8174   54.1682   33.5521 H   0  0  0  0  0  0  0  0  0  0  0  0
    9.1157   54.8735   34.0643 H   0  0  0  0  0  0  0  0  0  0  0  0
    9.7476   40.0331   31.9256 H   0  0  0  0  0  0  0  0  0  0  0  0
   11.2258   41.0357   31.8830 H   0  0  0  0  0  0  0  0  0  0  0  0
   11.5974   39.0148   30.5904 H   0  0  0  0  0  0  0  0  0  0  0  0
   10.7023   37.5455   33.1719 H   0  0  0  0  0  0  0  0  0  0  0  0
   14.1957   37.4366   31.5528 H   0  0  0  0  0  0  0  0  0  0  0  0
    9.1340   37.6658   31.6069 H   0  0  0  0  0  0  0  0  0  0  0  0
   12.1381   35.7717   32.5697 H   0  0  0  0  0  0  0  0  0  0  0  0
   11.7707   35.4530   30.4496 H   0  0  0  0  0  0  0  0  0  0  0  0
   12.4314   38.3980   34.8694 H   0  0  0  0  0  0  0  0  0  0  0  0
   17.2665   34.4140   33.1691 H   0  0  0  0  0  0  0  0  0  0  0  0
   15.3757   36.1868   37.9789 H   0  0  0  0  0  0  0  0  0  0  0  0
   16.7633   35.0598   37.7895 H   0  0  0  0  0  0  0  0  0  0  0  0
  1  2  2  0
  1  3  1  0
  3  4  1  0
  4  5  1  0
  6  1  1  0
  7  6  1  0
  6  8  1  0
  8  9  1  0
  9 10  1  0
 10 11  1  0
 11 12  1  0
 12 13  1  0
 13 14  1  0
 13 15  2  0
 14 16  1  0
 16 17  1  0
 17 18  2  0
 19 17  1  0
 18 20  1  0
 21 19  2  0
 19 22  1  0
 20 23  2  0
 23 21  1  0
 22 24  1  0
 22 25  2  0
  4 26  2  0
  4 27  1  0
 28 27  1  0
 28 29  1  0
 29 30  1  0
 29 31  1  0
 30 32  1  0
 31 33  1  0
 31 34  1  0
 34 32  1  0
 32 35  1  0
 34 36  1  0
 37 35  1  0
 38 35  1  0
 39 37  2  0
 37 40  1  0
 41 38  2  0
 42 39  1  0
 40 43  2  0
 40 41  1  0
 44 42  2  0
 44 43  1  0
 43 45  1  0
  6 46  1  6
  7 47  1  0
  7 48  1  0
  8 49  1  0
  8 50  1  0
  9 51  1  0
  9 52  1  0
 10 53  1  0
 10 54  1  0
 11 55  1  0
 11 56  1  0
 12 57  1  0
 16 58  1  0
 16 59  1  0
 18 60  1  0
 20 61  1  0
 21 62  1  0
 23 63  1  0
 28 64  1  0
 28 65  1  0
 29 66  1  0
 31 67  1  0
 32 68  1  0
 33 69  1  0
 34 70  1  0
 36 71  1  0
 38 72  1  0
 42 73  1  0
 45 74  1  0
 45 75  1  0
M  CHG  3   5  -1  22   1  24  -1
M  END
>  <EmbedRMS>  (44) 
0.0742073279087

$$$$

     RDKit          3D

 75 78  0  0  0  0  0  0  0  0999 V2000
    9.4333   42.9369   34.3462 C   0  0  0  0  0  0  0  0  0  0  0  0
   10.4908   43.0333   35.0318 O   0  0  0  0  0  0  0  0  0  0  0  0
    8.8559   41.7106   34.0303 O   0  0  0  0  0  0  0  0  0  0  0  0
    9.4931   40.2143   34.4703 P   0  0  0  0  0  0  0  0  0  0  0  0
    9.7293   40.1728   36.1312 O   0  0  0  0  0  0  0  0  0  0  0  0
    8.7507   44.1353   33.7741 C   0  0  1  0  0  0  0  0  0  0  0  0
    9.2964   45.3827   34.3133 N   0  0  0  0  0  0  0  0  0  0  0  0
    8.8892   44.0535   32.2358 C   0  0  0  0  0  0  0  0  0  0  0  0
    8.2025   45.1833   31.4618 C   0  0  0  0  0  0  0  0  0  0  0  0
    6.6649   45.1047   31.4850 C   0  0  0  0  0  0  0  0  0  0  0  0
    6.0256   46.3219   30.8088 C   0  0  0  0  0  0  0  0  0  0  0  0
    6.5026   47.5638   31.4167 N   0  0  0  0  0  0  0  0  0  0  0  0
    7.2539   48.5328   30.6884 C   0  0  0  0  0  0  0  0  0  0  0  0
    7.6516   49.7071   31.3315 O   0  0  0  0  0  0  0  0  0  0  0  0
    7.5890   48.3143   29.4926 O   0  0  0  0  0  0  0  0  0  0  0  0
    8.4633   50.6942   30.7032 C   0  0  0  0  0  0  0  0  0  0  0  0
    8.8329   51.7585   31.7060 C   0  0  0  0  0  0  0  0  0  0  0  0
    8.4697   53.0917   31.4391 C   0  0  0  0  0  0  0  0  0  0  0  0
    9.4976   51.4514   32.9263 C   0  0  0  0  0  0  0  0  0  0  0  0
    8.7448   54.1036   32.3595 C   0  0  0  0  0  0  0  0  0  0  0  0
    9.7501   52.4857   33.8454 C   0  0  0  0  0  0  0  0  0  0  0  0
    9.9002   50.1105   33.2652 N   0  0  0  0  0  0  0  0  0  0  0  0
    9.3802   53.8007   33.5615 C   0  0  0  0  0  0  0  0  0  0  0  0
    9.9634   49.7258   34.5849 O   0  0  0  0  0  0  0  0  0  0  0  0
   10.3454   49.3354   32.3947 O   0  0  0  0  0  0  0  0  0  0  0  0
    8.5365   39.1384   34.0136 O   0  0  0  0  0  0  0  0  0  0  0  0
   10.9788   40.0867   33.6873 O   0  0  0  0  0  0  0  0  0  0  0  0
   10.7993   40.0944   32.2885 C   0  0  0  0  0  0  0  0  0  0  0  0
   11.5957   38.9351   31.6994 C   0  0  0  0  0  0  0  0  0  0  0  0
   12.9257   38.9477   32.1798 O   0  0  0  0  0  0  0  0  0  0  0  0
   11.0070   37.5757   32.0732 C   0  0  0  0  0  0  0  0  0  0  0  0
   13.3571   37.5979   32.2612 C   0  0  0  0  0  0  0  0  0  0  0  0
    9.9093   37.1807   31.2875 O   0  0  0  0  0  0  0  0  0  0  0  0
   12.1967   36.6763   31.8894 C   0  0  0  0  0  0  0  0  0  0  0  0
   13.8018   37.2956   33.6197 N   0  0  0  0  0  0  0  0  0  0  0  0
   12.3049   36.2360   30.5555 O   0  0  0  0  0  0  0  0  0  0  0  0
   14.7922   36.4716   33.9864 C   0  0  0  0  0  0  0  0  0  0  0  0
   13.2747   37.7291   34.7944 C   0  0  0  0  0  0  0  0  0  0  0  0
   15.6240   35.7582   33.1861 N   0  0  0  0  0  0  0  0  0  0  0  0
   14.8721   36.4402   35.3331 C   0  0  0  0  0  0  0  0  0  0  0  0
   13.9206   37.2257   35.8810 N   0  0  0  0  0  0  0  0  0  0  0  0
   16.5873   34.9924   33.7802 C   0  0  0  0  0  0  0  0  0  0  0  0
   15.8576   35.6714   35.9444 C   0  0  0  0  0  0  0  0  0  0  0  0
   16.7026   34.9585   35.1439 N   0  0  0  0  0  0  0  0  0  0  0  0
   16.0102   35.6382   37.3564 N   0  0  0  0  0  0  0  0  0  0  0  0
    7.6771   44.0713   34.0503 H   0  0  0  0  0  0  0  0  0  0  0  0
    9.1835   45.3826   35.3535 H   0  0  0  0  0  0  0  0  0  0  0  0
   10.3190   45.4420   34.0991 H   0  0  0  0  0  0  0  0  0  0  0  0
    9.9710   44.0691   31.9738 H   0  0  0  0  0  0  0  0  0  0  0  0
    8.4817   43.0858   31.8667 H   0  0  0  0  0  0  0  0  0  0  0  0
    8.5387   45.1383   30.4028 H   0  0  0  0  0  0  0  0  0  0  0  0
    8.5540   46.1521   31.8755 H   0  0  0  0  0  0  0  0  0  0  0  0
    6.3011   45.0645   32.5326 H   0  0  0  0  0  0  0  0  0  0  0  0
    6.3302   44.1796   30.9675 H   0  0  0  0  0  0  0  0  0  0  0  0
    6.2467   46.2893   29.7203 H   0  0  0  0  0  0  0  0  0  0  0  0
    4.9221   46.2653   30.9233 H   0  0  0  0  0  0  0  0  0  0  0  0
    6.2821   47.7497   32.4209 H   0  0  0  0  0  0  0  0  0  0  0  0
    7.9034   51.1258   29.8447 H   0  0  0  0  0  0  0  0  0  0  0  0
    9.3873   50.2332   30.2943 H   0  0  0  0  0  0  0  0  0  0  0  0
    7.9631   53.3516   30.5177 H   0  0  0  0  0  0  0  0  0  0  0  0
    8.4586   55.1246   32.1422 H   0  0  0  0  0  0  0  0  0  0  0  0
   10.2506   52.2756   34.7822 H   0  0  0  0  0  0  0  0  0  0  0  0
    9.5886   54.5872   34.2754 H   0  0  0  0  0  0  0  0  0  0  0  0
   11.2094   41.0479   31.8921 H   0  0  0  0  0  0  0  0  0  0  0  0
    9.7448   40.0200   31.9304 H   0  0  0  0  0  0  0  0  0  0  0  0
   11.6206   39.0685   30.5942 H   0  0  0  0  0  0  0  0  0  0  0  0
   10.7059   37.5563   33.1438 H   0  0  0  0  0  0  0  0  0  0  0  0
   14.2095   37.4543   31.5601 H   0  0  0  0  0  0  0  0  0  0  0  0
   10.0865   37.4209   30.3413 H   0  0  0  0  0  0  0  0  0  0  0  0
   12.1276   35.7872   32.5549 H   0  0  0  0  0  0  0  0  0  0  0  0
   12.5031   37.0109   29.9672 H   0  0  0  0  0  0  0  0  0  0  0  0
   12.4328   38.3996   34.8703 H   0  0  0  0  0  0  0  0  0  0  0  0
   17.2670   34.4149   33.1691 H   0  0  0  0  0  0  0  0  0  0  0  0
   15.3758   36.1862   37.9792 H   0  0  0  0  0  0  0  0  0  0  0  0
   16.7640   35.0601   37.7896 H   0  0  0  0  0  0  0  0  0  0  0  0
  1  2  2  0
  1  3  1  0
  3  4  1  0
  4  5  1  0
  6  1  1  0
  7  6  1  0
  6  8  1  0
  8  9  1  0
  9 10  1  0
 10 11  1  0
 11 12  1  0
 12 13  1  0
 13 14  1  0
 13 15  2  0
 14 16  1  0
 16 17  1  0
 17 18  2  0
 19 17  1  0
 18 20  1  0
 21 19  2  0
 19 22  1  0
 20 23  2  0
 23 21  1  0
 22 24  1  0
 22 25  2  0
  4 26  2  0
  4 27  1  0
 28 27  1  0
 28 29  1  0
 29 30  1  0
 29 31  1  0
 30 32  1  0
 31 33  1  0
 31 34  1  0
 34 32  1  0
 32 35  1  0
 34 36  1  0
 37 35  1  0
 38 35  1  0
 39 37  2  0
 37 40  1  0
 41 38  2  0
 42 39  1  0
 40 43  2  0
 40 41  1  0
 44 42  2  0
 44 43  1  0
 43 45  1  0
  6 46  1  6
  7 47  1  0
  7 48  1  0
  8 49  1  0
  8 50  1  0
  9 51  1  0
  9 52  1  0
 10 53  1  0
 10 54  1  0
 11 55  1  0
 11 56  1  0
 12 57  1  0
 16 58  1  0
 16 59  1  0
 18 60  1  0
 20 61  1  0
 21 62  1  0
 23 63  1  0
 28 64  1  0
 28 65  1  0
 29 66  1  0
 31 67  1  0
 32 68  1  0
 33 69  1  0
 34 70  1  0
 36 71  1  0
 38 72  1  0
 42 73  1  0
 45 74  1  0
 45 75  1  0
M  CHG  3   5  -1  22   1  24  -1
M  END
>  <EmbedRMS>  (45) 
0.0764261469197

$$$$

     RDKit          3D

 75 78  0  0  0  0  0  0  0  0999 V2000
    9.4332   42.9366   34.3464 C   0  0  0  0  0  0  0  0  0  0  0  0
   10.4908   43.0331   35.0319 O   0  0  0  0  0  0  0  0  0  0  0  0
    8.8559   41.7104   34.0306 O   0  0  0  0  0  0  0  0  0  0  0  0
    9.4931   40.2143   34.4708 P   0  0  0  0  0  0  0  0  0  0  0  0
    9.7288   40.1729   36.1318 O   0  0  0  0  0  0  0  0  0  0  0  0
    8.7506   44.1348   33.7741 C   0  0  1  0  0  0  0  0  0  0  0  0
    9.2963   45.3821   34.3133 N   0  0  0  0  0  0  0  0  0  0  0  0
    8.8893   44.0526   32.2358 C   0  0  0  0  0  0  0  0  0  0  0  0
    8.2029   45.1822   31.4614 C   0  0  0  0  0  0  0  0  0  0  0  0
    6.6654   45.1047   31.4855 C   0  0  0  0  0  0  0  0  0  0  0  0
    6.0272   46.3228   30.8106 C   0  0  0  0  0  0  0  0  0  0  0  0
    6.5068   47.5642   31.4180 N   0  0  0  0  0  0  0  0  0  0  0  0
    7.2421   48.5403   30.6827 C   0  0  0  0  0  0  0  0  0  0  0  0
    7.5829   49.7465   31.3039 O   0  0  0  0  0  0  0  0  0  0  0  0
    7.5940   48.3102   29.4948 O   0  0  0  0  0  0  0  0  0  0  0  0
    8.3198   50.7867   30.6620 C   0  0  0  0  0  0  0  0  0  0  0  0
    7.4967   51.4377   29.5731 C   0  0  0  0  0  0  0  0  0  0  0  0
    6.2463   51.9760   29.9276 C   0  0  0  0  0  0  0  0  0  0  0  0
    7.9648   51.5978   28.2412 C   0  0  0  0  0  0  0  0  0  0  0  0
    5.4696   52.6560   28.9887 C   0  0  0  0  0  0  0  0  0  0  0  0
    7.1765   52.3025   27.3158 C   0  0  0  0  0  0  0  0  0  0  0  0
    9.2303   51.0757   27.8094 N   0  0  0  0  0  0  0  0  0  0  0  0
    5.9354   52.8221   27.6860 C   0  0  0  0  0  0  0  0  0  0  0  0
   10.0244   51.8260   26.9732 O   0  0  0  0  0  0  0  0  0  0  0  0
    9.4941   49.8658   27.9624 O   0  0  0  0  0  0  0  0  0  0  0  0
    8.5366   39.1385   34.0140 O   0  0  0  0  0  0  0  0  0  0  0  0
   10.9795   40.0875   33.6890 O   0  0  0  0  0  0  0  0  0  0  0  0
   10.8017   40.0947   32.2902 C   0  0  0  0  0  0  0  0  0  0  0  0
   11.5885   38.9266   31.7041 C   0  0  0  0  0  0  0  0  0  0  0  0
   12.9237   38.9445   32.1721 O   0  0  0  0  0  0  0  0  0  0  0  0
   11.0029   37.5726   32.0908 C   0  0  0  0  0  0  0  0  0  0  0  0
   13.3555   37.5960   32.2594 C   0  0  0  0  0  0  0  0  0  0  0  0
    9.9380   37.1846   31.2656 O   0  0  0  0  0  0  0  0  0  0  0  0
   12.1932   36.6769   31.8952 C   0  0  0  0  0  0  0  0  0  0  0  0
   13.8028   37.2977   33.6186 N   0  0  0  0  0  0  0  0  0  0  0  0
   12.2918   36.2396   30.5587 O   0  0  0  0  0  0  0  0  0  0  0  0
   14.7926   36.4727   33.9858 C   0  0  0  0  0  0  0  0  0  0  0  0
   13.2750   37.7302   34.7935 C   0  0  0  0  0  0  0  0  0  0  0  0
   15.6241   35.7586   33.1857 N   0  0  0  0  0  0  0  0  0  0  0  0
   14.8721   36.4408   35.3326 C   0  0  0  0  0  0  0  0  0  0  0  0
   13.9204   37.2263   35.8802 N   0  0  0  0  0  0  0  0  0  0  0  0
   16.5870   34.9925   33.7800 C   0  0  0  0  0  0  0  0  0  0  0  0
   15.8572   35.6716   35.9441 C   0  0  0  0  0  0  0  0  0  0  0  0
   16.7022   34.9585   35.1437 N   0  0  0  0  0  0  0  0  0  0  0  0
   16.0097   35.6384   37.3561 N   0  0  0  0  0  0  0  0  0  0  0  0
    7.6770   44.0707   34.0504 H   0  0  0  0  0  0  0  0  0  0  0  0
    9.1826   45.3821   35.3534 H   0  0  0  0  0  0  0  0  0  0  0  0
   10.3191   45.4407   34.0999 H   0  0  0  0  0  0  0  0  0  0  0  0
    8.4816   43.0850   31.8669 H   0  0  0  0  0  0  0  0  0  0  0  0
    9.9711   44.0679   31.9739 H   0  0  0  0  0  0  0  0  0  0  0  0
    8.5554   46.1509   31.8739 H   0  0  0  0  0  0  0  0  0  0  0  0
    8.5385   45.1361   30.4021 H   0  0  0  0  0  0  0  0  0  0  0  0
    6.3296   44.1801   30.9677 H   0  0  0  0  0  0  0  0  0  0  0  0
    6.3021   45.0644   32.5333 H   0  0  0  0  0  0  0  0  0  0  0  0
    4.9238   46.2678   30.9267 H   0  0  0  0  0  0  0  0  0  0  0  0
    6.2464   46.2899   29.7217 H   0  0  0  0  0  0  0  0  0  0  0  0
    6.2815   47.7539   32.4205 H   0  0  0  0  0  0  0  0  0  0  0  0
    9.2918   50.3923   30.3087 H   0  0  0  0  0  0  0  0  0  0  0  0
    8.5565   51.5604   31.4224 H   0  0  0  0  0  0  0  0  0  0  0  0
    5.8761   51.8770   30.9410 H   0  0  0  0  0  0  0  0  0  0  0  0
    4.5087   53.0638   29.2751 H   0  0  0  0  0  0  0  0  0  0  0  0
    7.5199   52.4362   26.2977 H   0  0  0  0  0  0  0  0  0  0  0  0
    5.3342   53.3553   26.9608 H   0  0  0  0  0  0  0  0  0  0  0  0
    9.7472   40.0378   31.9304 H   0  0  0  0  0  0  0  0  0  0  0  0
   11.2242   41.0427   31.8935 H   0  0  0  0  0  0  0  0  0  0  0  0
   11.5927   39.0434   30.5965 H   0  0  0  0  0  0  0  0  0  0  0  0
   10.7004   37.5442   33.1640 H   0  0  0  0  0  0  0  0  0  0  0  0
   14.2052   37.4477   31.5560 H   0  0  0  0  0  0  0  0  0  0  0  0
    9.1374   37.6722   31.5905 H   0  0  0  0  0  0  0  0  0  0  0  0
   12.1305   35.7855   32.5585 H   0  0  0  0  0  0  0  0  0  0  0  0
   12.4607   37.0186   29.9674 H   0  0  0  0  0  0  0  0  0  0  0  0
   12.4327   38.4001   34.8694 H   0  0  0  0  0  0  0  0  0  0  0  0
   17.2666   34.4146   33.1690 H   0  0  0  0  0  0  0  0  0  0  0  0
   15.3754   36.1866   37.9788 H   0  0  0  0  0  0  0  0  0  0  0  0
   16.7634   35.0601   37.7894 H   0  0  0  0  0  0  0  0  0  0  0  0
  1  2  2  0
  1  3  1  0
  3  4  1  0
  4  5  1  0
  6  1  1  0
  7  6  1  0
  6  8  1  0
  8  9  1  0
  9 10  1  0
 10 11  1  0
 11 12  1  0
 12 13  1  0
 13 14  1  0
 13 15  2  0
 14 16  1  0
 16 17  1  0
 17 18  2  0
 19 17  1  0
 18 20  1  0
 21 19  2  0
 19 22  1  0
 20 23  2  0
 23 21  1  0
 22 24  1  0
 22 25  2  0
  4 26  2  0
  4 27  1  0
 28 27  1  0
 28 29  1  0
 29 30  1  0
 29 31  1  0
 30 32  1  0
 31 33  1  0
 31 34  1  0
 34 32  1  0
 32 35  1  0
 34 36  1  0
 37 35  1  0
 38 35  1  0
 39 37  2  0
 37 40  1  0
 41 38  2  0
 42 39  1  0
 40 43  2  0
 40 41  1  0
 44 42  2  0
 44 43  1  0
 43 45  1  0
  6 46  1  6
  7 47  1  0
  7 48  1  0
  8 49  1  0
  8 50  1  0
  9 51  1  0
  9 52  1  0
 10 53  1  0
 10 54  1  0
 11 55  1  0
 11 56  1  0
 12 57  1  0
 16 58  1  0
 16 59  1  0
 18 60  1  0
 20 61  1  0
 21 62  1  0
 23 63  1  0
 28 64  1  0
 28 65  1  0
 29 66  1  0
 31 67  1  0
 32 68  1  0
 33 69  1  0
 34 70  1  0
 36 71  1  0
 38 72  1  0
 42 73  1  0
 45 74  1  0
 45 75  1  0
M  CHG  3   5  -1  22   1  24  -1
M  END
>  <EmbedRMS>  (46) 
0.0756647990021

$$$$

     RDKit          3D

 75 78  0  0  0  0  0  0  0  0999 V2000
    9.4335   42.9369   34.3455 C   0  0  0  0  0  0  0  0  0  0  0  0
   10.4908   43.0332   35.0315 O   0  0  0  0  0  0  0  0  0  0  0  0
    8.8563   41.7107   34.0291 O   0  0  0  0  0  0  0  0  0  0  0  0
    9.4944   40.2144   34.4678 P   0  0  0  0  0  0  0  0  0  0  0  0
    9.7308   40.1729   36.1290 O   0  0  0  0  0  0  0  0  0  0  0  0
    8.7510   44.1355   33.7737 C   0  0  1  0  0  0  0  0  0  0  0  0
    9.2967   45.3822   34.3135 N   0  0  0  0  0  0  0  0  0  0  0  0
    8.8899   44.0553   32.2353 C   0  0  0  0  0  0  0  0  0  0  0  0
    8.2028   45.1859   31.4624 C   0  0  0  0  0  0  0  0  0  0  0  0
    6.6651   45.1062   31.4856 C   0  0  0  0  0  0  0  0  0  0  0  0
    6.0239   46.3220   30.8083 C   0  0  0  0  0  0  0  0  0  0  0  0
    6.4971   47.5657   31.4155 N   0  0  0  0  0  0  0  0  0  0  0  0
    7.2575   48.5293   30.6900 C   0  0  0  0  0  0  0  0  0  0  0  0
    7.6734   49.6965   31.3384 O   0  0  0  0  0  0  0  0  0  0  0  0
    7.5907   48.3102   29.4937 O   0  0  0  0  0  0  0  0  0  0  0  0
    8.6279   50.5982   30.7817 C   0  0  0  0  0  0  0  0  0  0  0  0
    9.9915   49.9476   30.7125 C   0  0  0  0  0  0  0  0  0  0  0  0
   10.6289   49.8551   29.4615 C   0  0  0  0  0  0  0  0  0  0  0  0
   10.6156   49.3705   31.8535 C   0  0  0  0  0  0  0  0  0  0  0  0
   11.8506   49.1943   29.3310 C   0  0  0  0  0  0  0  0  0  0  0  0
   11.8383   48.6941   31.6944 C   0  0  0  0  0  0  0  0  0  0  0  0
   10.0252   49.4353   33.1654 N   0  0  0  0  0  0  0  0  0  0  0  0
   12.4514   48.6105   30.4439 C   0  0  0  0  0  0  0  0  0  0  0  0
   10.2841   48.4447   34.0846 O   0  0  0  0  0  0  0  0  0  0  0  0
    9.4154   50.4563   33.5429 O   0  0  0  0  0  0  0  0  0  0  0  0
    8.5372   39.1388   34.0124 O   0  0  0  0  0  0  0  0  0  0  0  0
   10.9804   40.0881   33.6836 O   0  0  0  0  0  0  0  0  0  0  0  0
   10.8026   40.0900   32.2838 C   0  0  0  0  0  0  0  0  0  0  0  0
   11.5889   38.9174   31.7007 C   0  0  0  0  0  0  0  0  0  0  0  0
   12.9220   38.9373   32.1692 O   0  0  0  0  0  0  0  0  0  0  0  0
   11.0028   37.5682   32.0980 C   0  0  0  0  0  0  0  0  0  0  0  0
   13.3496   37.5885   32.2601 C   0  0  0  0  0  0  0  0  0  0  0  0
    9.9343   37.1822   31.2756 O   0  0  0  0  0  0  0  0  0  0  0  0
   12.1891   36.6677   31.9049 C   0  0  0  0  0  0  0  0  0  0  0  0
   13.8025   37.2965   33.6186 N   0  0  0  0  0  0  0  0  0  0  0  0
   12.2991   36.2867   30.5568 O   0  0  0  0  0  0  0  0  0  0  0  0
   14.7929   36.4725   33.9858 C   0  0  0  0  0  0  0  0  0  0  0  0
   13.2749   37.7294   34.7935 C   0  0  0  0  0  0  0  0  0  0  0  0
   15.6240   35.7580   33.1858 N   0  0  0  0  0  0  0  0  0  0  0  0
   14.8727   36.4411   35.3327 C   0  0  0  0  0  0  0  0  0  0  0  0
   13.9208   37.2263   35.8803 N   0  0  0  0  0  0  0  0  0  0  0  0
   16.5871   34.9921   33.7801 C   0  0  0  0  0  0  0  0  0  0  0  0
   15.8576   35.6718   35.9441 C   0  0  0  0  0  0  0  0  0  0  0  0
   16.7024   34.9584   35.1438 N   0  0  0  0  0  0  0  0  0  0  0  0
   16.0099   35.6384   37.3562 N   0  0  0  0  0  0  0  0  0  0  0  0
    7.6773   44.0714   34.0497 H   0  0  0  0  0  0  0  0  0  0  0  0
   10.3193   45.4414   34.0990 H   0  0  0  0  0  0  0  0  0  0  0  0
    9.1841   45.3819   35.3537 H   0  0  0  0  0  0  0  0  0  0  0  0
    8.4831   43.0878   31.8651 H   0  0  0  0  0  0  0  0  0  0  0  0
    9.9718   44.0720   31.9737 H   0  0  0  0  0  0  0  0  0  0  0  0
    8.5393   45.1424   30.4034 H   0  0  0  0  0  0  0  0  0  0  0  0
    8.5537   46.1548   31.8769 H   0  0  0  0  0  0  0  0  0  0  0  0
    6.3015   45.0667   32.5334 H   0  0  0  0  0  0  0  0  0  0  0  0
    6.3313   44.1802   30.9691 H   0  0  0  0  0  0  0  0  0  0  0  0
    4.9204   46.2629   30.9216 H   0  0  0  0  0  0  0  0  0  0  0  0
    6.2459   46.2889   29.7200 H   0  0  0  0  0  0  0  0  0  0  0  0
    6.2757   47.7521   32.4195 H   0  0  0  0  0  0  0  0  0  0  0  0
    8.2776   50.9302   29.7796 H   0  0  0  0  0  0  0  0  0  0  0  0
    8.6838   51.5089   31.4123 H   0  0  0  0  0  0  0  0  0  0  0  0
   10.1725   50.2834   28.5775 H   0  0  0  0  0  0  0  0  0  0  0  0
   12.3282   49.1271   28.3619 H   0  0  0  0  0  0  0  0  0  0  0  0
   12.3287   48.2409   32.5466 H   0  0  0  0  0  0  0  0  0  0  0  0
   13.3963   48.0932   30.3385 H   0  0  0  0  0  0  0  0  0  0  0  0
    9.7477   40.0333   31.9255 H   0  0  0  0  0  0  0  0  0  0  0  0
   11.2260   41.0357   31.8830 H   0  0  0  0  0  0  0  0  0  0  0  0
   11.5975   39.0148   30.5904 H   0  0  0  0  0  0  0  0  0  0  0  0
   10.7023   37.5455   33.1719 H   0  0  0  0  0  0  0  0  0  0  0  0
   14.1957   37.4366   31.5528 H   0  0  0  0  0  0  0  0  0  0  0  0
    9.1340   37.6659   31.6068 H   0  0  0  0  0  0  0  0  0  0  0  0
   12.1380   35.7717   32.5698 H   0  0  0  0  0  0  0  0  0  0  0  0
   11.7707   35.4530   30.4496 H   0  0  0  0  0  0  0  0  0  0  0  0
   12.4314   38.3979   34.8694 H   0  0  0  0  0  0  0  0  0  0  0  0
   17.2665   34.4140   33.1691 H   0  0  0  0  0  0  0  0  0  0  0  0
   15.3757   36.1868   37.9789 H   0  0  0  0  0  0  0  0  0  0  0  0
   16.7633   35.0599   37.7895 H   0  0  0  0  0  0  0  0  0  0  0  0
  1  2  2  0
  1  3  1  0
  3  4  1  0
  4  5  1  0
  6  1  1  0
  7  6  1  0
  6  8  1  0
  8  9  1  0
  9 10  1  0
 10 11  1  0
 11 12  1  0
 12 13  1  0
 13 14  1  0
 13 15  2  0
 14 16  1  0
 16 17  1  0
 17 18  2  0
 19 17  1  0
 18 20  1  0
 21 19  2  0
 19 22  1  0
 20 23  2  0
 23 21  1  0
 22 24  1  0
 22 25  2  0
  4 26  2  0
  4 27  1  0
 28 27  1  0
 28 29  1  0
 29 30  1  0
 29 31  1  0
 30 32  1  0
 31 33  1  0
 31 34  1  0
 34 32  1  0
 32 35  1  0
 34 36  1  0
 37 35  1  0
 38 35  1  0
 39 37  2  0
 37 40  1  0
 41 38  2  0
 42 39  1  0
 40 43  2  0
 40 41  1  0
 44 42  2  0
 44 43  1  0
 43 45  1  0
  6 46  1  6
  7 47  1  0
  7 48  1  0
  8 49  1  0
  8 50  1  0
  9 51  1  0
  9 52  1  0
 10 53  1  0
 10 54  1  0
 11 55  1  0
 11 56  1  0
 12 57  1  0
 16 58  1  0
 16 59  1  0
 18 60  1  0
 20 61  1  0
 21 62  1  0
 23 63  1  0
 28 64  1  0
 28 65  1  0
 29 66  1  0
 31 67  1  0
 32 68  1  0
 33 69  1  0
 34 70  1  0
 36 71  1  0
 38 72  1  0
 42 73  1  0
 45 74  1  0
 45 75  1  0
M  CHG  3   5  -1  22   1  24  -1
M  END
>  <EmbedRMS>  (47) 
0.0747377404338

$$$$

     RDKit          3D

 75 78  0  0  0  0  0  0  0  0999 V2000
    9.4312   42.9411   34.3439 C   0  0  0  0  0  0  0  0  0  0  0  0
   10.4886   43.0410   35.0294 O   0  0  0  0  0  0  0  0  0  0  0  0
    8.8558   41.7128   34.0296 O   0  0  0  0  0  0  0  0  0  0  0  0
    9.4933   40.2162   34.4702 P   0  0  0  0  0  0  0  0  0  0  0  0
    9.7295   40.1742   36.1312 O   0  0  0  0  0  0  0  0  0  0  0  0
    8.7484   44.1359   33.7721 C   0  0  1  0  0  0  0  0  0  0  0  0
    9.3038   45.3664   34.3388 N   0  0  0  0  0  0  0  0  0  0  0  0
    8.8892   44.0517   32.2309 C   0  0  0  0  0  0  0  0  0  0  0  0
    8.2015   45.1720   31.4435 C   0  0  0  0  0  0  0  0  0  0  0  0
    6.6643   45.1065   31.4887 C   0  0  0  0  0  0  0  0  0  0  0  0
    6.0268   46.3237   30.8123 C   0  0  0  0  0  0  0  0  0  0  0  0
    6.5084   47.5645   31.4190 N   0  0  0  0  0  0  0  0  0  0  0  0
    7.2421   48.5406   30.6825 C   0  0  0  0  0  0  0  0  0  0  0  0
    7.5844   49.7469   31.3026 O   0  0  0  0  0  0  0  0  0  0  0  0
    7.5940   48.3105   29.4938 O   0  0  0  0  0  0  0  0  0  0  0  0
    8.2911   50.7944   30.6403 C   0  0  0  0  0  0  0  0  0  0  0  0
    7.4272   51.4393   29.5806 C   0  0  0  0  0  0  0  0  0  0  0  0
    7.9020   51.4755   28.2564 C   0  0  0  0  0  0  0  0  0  0  0  0
    6.1380   51.9631   29.8696 C   0  0  0  0  0  0  0  0  0  0  0  0
    7.1178   52.0069   27.2320 C   0  0  0  0  0  0  0  0  0  0  0  0
    5.3585   52.4804   28.8183 C   0  0  0  0  0  0  0  0  0  0  0  0
    5.5975   51.9610   31.2039 N   0  0  0  0  0  0  0  0  0  0  0  0
    5.8472   52.5047   27.5117 C   0  0  0  0  0  0  0  0  0  0  0  0
    6.3930   52.2584   32.2855 O   0  0  0  0  0  0  0  0  0  0  0  0
    4.3667   51.8465   31.3795 O   0  0  0  0  0  0  0  0  0  0  0  0
    8.5368   39.1399   34.0139 O   0  0  0  0  0  0  0  0  0  0  0  0
   10.9789   40.0874   33.6872 O   0  0  0  0  0  0  0  0  0  0  0  0
   10.7992   40.0946   32.2884 C   0  0  0  0  0  0  0  0  0  0  0  0
   11.5957   38.9351   31.6994 C   0  0  0  0  0  0  0  0  0  0  0  0
   12.9257   38.9478   32.1799 O   0  0  0  0  0  0  0  0  0  0  0  0
   11.0070   37.5758   32.0732 C   0  0  0  0  0  0  0  0  0  0  0  0
   13.3571   37.5980   32.2612 C   0  0  0  0  0  0  0  0  0  0  0  0
    9.9093   37.1808   31.2875 O   0  0  0  0  0  0  0  0  0  0  0  0
   12.1967   36.6764   31.8894 C   0  0  0  0  0  0  0  0  0  0  0  0
   13.8018   37.2956   33.6197 N   0  0  0  0  0  0  0  0  0  0  0  0
   12.3048   36.2360   30.5555 O   0  0  0  0  0  0  0  0  0  0  0  0
   14.7922   36.4716   33.9864 C   0  0  0  0  0  0  0  0  0  0  0  0
   13.2747   37.7291   34.7944 C   0  0  0  0  0  0  0  0  0  0  0  0
   15.6240   35.7582   33.1861 N   0  0  0  0  0  0  0  0  0  0  0  0
   14.8721   36.4402   35.3332 C   0  0  0  0  0  0  0  0  0  0  0  0
   13.9206   37.2257   35.8810 N   0  0  0  0  0  0  0  0  0  0  0  0
   16.5873   34.9924   33.7802 C   0  0  0  0  0  0  0  0  0  0  0  0
   15.8576   35.6714   35.9444 C   0  0  0  0  0  0  0  0  0  0  0  0
   16.7026   34.9585   35.1439 N   0  0  0  0  0  0  0  0  0  0  0  0
   16.0102   35.6383   37.3564 N   0  0  0  0  0  0  0  0  0  0  0  0
    7.6764   44.0634   34.0547 H   0  0  0  0  0  0  0  0  0  0  0  0
    8.6468   46.1558   34.1430 H   0  0  0  0  0  0  0  0  0  0  0  0
   10.2152   45.5879   33.8748 H   0  0  0  0  0  0  0  0  0  0  0  0
    9.9708   44.0641   31.9679 H   0  0  0  0  0  0  0  0  0  0  0  0
    8.4830   43.0817   31.8667 H   0  0  0  0  0  0  0  0  0  0  0  0
    8.5198   45.0957   30.3807 H   0  0  0  0  0  0  0  0  0  0  0  0
    8.5715   46.1486   31.8173 H   0  0  0  0  0  0  0  0  0  0  0  0
    6.3142   45.0783   32.5413 H   0  0  0  0  0  0  0  0  0  0  0  0
    6.3147   44.1801   30.9836 H   0  0  0  0  0  0  0  0  0  0  0  0
    4.9234   46.2700   30.9300 H   0  0  0  0  0  0  0  0  0  0  0  0
    6.2449   46.2897   29.7232 H   0  0  0  0  0  0  0  0  0  0  0  0
    6.2848   47.7545   32.4218 H   0  0  0  0  0  0  0  0  0  0  0  0
    8.5939   51.5590   31.3840 H   0  0  0  0  0  0  0  0  0  0  0  0
    9.2326   50.3857   30.2115 H   0  0  0  0  0  0  0  0  0  0  0  0
    8.8803   51.0809   28.0108 H   0  0  0  0  0  0  0  0  0  0  0  0
    7.4943   52.0262   26.2174 H   0  0  0  0  0  0  0  0  0  0  0  0
    4.3717   52.8807   29.0143 H   0  0  0  0  0  0  0  0  0  0  0  0
    5.2392   52.9125   26.7143 H   0  0  0  0  0  0  0  0  0  0  0  0
    9.7448   40.0200   31.9305 H   0  0  0  0  0  0  0  0  0  0  0  0
   11.2092   41.0480   31.8916 H   0  0  0  0  0  0  0  0  0  0  0  0
   11.6207   39.0685   30.5942 H   0  0  0  0  0  0  0  0  0  0  0  0
   10.7059   37.5564   33.1439 H   0  0  0  0  0  0  0  0  0  0  0  0
   14.2095   37.4543   31.5601 H   0  0  0  0  0  0  0  0  0  0  0  0
   10.0864   37.4210   30.3413 H   0  0  0  0  0  0  0  0  0  0  0  0
   12.1275   35.7872   32.5550 H   0  0  0  0  0  0  0  0  0  0  0  0
   12.5030   37.0109   29.9673 H   0  0  0  0  0  0  0  0  0  0  0  0
   12.4328   38.3996   34.8703 H   0  0  0  0  0  0  0  0  0  0  0  0
   17.2670   34.4149   33.1690 H   0  0  0  0  0  0  0  0  0  0  0  0
   15.3758   36.1862   37.9792 H   0  0  0  0  0  0  0  0  0  0  0  0
   16.7640   35.0601   37.7896 H   0  0  0  0  0  0  0  0  0  0  0  0
  1  2  2  0
  1  3  1  0
  3  4  1  0
  4  5  1  0
  6  1  1  0
  7  6  1  0
  6  8  1  0
  8  9  1  0
  9 10  1  0
 10 11  1  0
 11 12  1  0
 12 13  1  0
 13 14  1  0
 13 15  2  0
 14 16  1  0
 16 17  1  0
 17 18  2  0
 19 17  1  0
 18 20  1  0
 21 19  2  0
 19 22  1  0
 20 23  2  0
 23 21  1  0
 22 24  1  0
 22 25  2  0
  4 26  2  0
  4 27  1  0
 28 27  1  0
 28 29  1  0
 29 30  1  0
 29 31  1  0
 30 32  1  0
 31 33  1  0
 31 34  1  0
 34 32  1  0
 32 35  1  0
 34 36  1  0
 37 35  1  0
 38 35  1  0
 39 37  2  0
 37 40  1  0
 41 38  2  0
 42 39  1  0
 40 43  2  0
 40 41  1  0
 44 42  2  0
 44 43  1  0
 43 45  1  0
  6 46  1  6
  7 47  1  0
  7 48  1  0
  8 49  1  0
  8 50  1  0
  9 51  1  0
  9 52  1  0
 10 53  1  0
 10 54  1  0
 11 55  1  0
 11 56  1  0
 12 57  1  0
 16 58  1  0
 16 59  1  0
 18 60  1  0
 20 61  1  0
 21 62  1  0
 23 63  1  0
 28 64  1  0
 28 65  1  0
 29 66  1  0
 31 67  1  0
 32 68  1  0
 33 69  1  0
 34 70  1  0
 36 71  1  0
 38 72  1  0
 42 73  1  0
 45 74  1  0
 45 75  1  0
M  CHG  3   5  -1  22   1  24  -1
M  END
>  <EmbedRMS>  (48) 
0.0753221849191

$$$$

     RDKit          3D

 75 78  0  0  0  0  0  0  0  0999 V2000
    9.4313   42.9413   34.3436 C   0  0  0  0  0  0  0  0  0  0  0  0
   10.4885   43.0411   35.0293 O   0  0  0  0  0  0  0  0  0  0  0  0
    8.8562   41.7130   34.0286 O   0  0  0  0  0  0  0  0  0  0  0  0
    9.4945   40.2162   34.4677 P   0  0  0  0  0  0  0  0  0  0  0  0
    9.7312   40.1741   36.1288 O   0  0  0  0  0  0  0  0  0  0  0  0
    8.7485   44.1364   33.7721 C   0  0  1  0  0  0  0  0  0  0  0  0
    9.3042   45.3670   34.3387 N   0  0  0  0  0  0  0  0  0  0  0  0
    8.8892   44.0526   32.2308 C   0  0  0  0  0  0  0  0  0  0  0  0
    8.2011   45.1731   31.4439 C   0  0  0  0  0  0  0  0  0  0  0  0
    6.6638   45.1067   31.4884 C   0  0  0  0  0  0  0  0  0  0  0  0
    6.0253   46.3229   30.8107 C   0  0  0  0  0  0  0  0  0  0  0  0
    6.5041   47.5645   31.4176 N   0  0  0  0  0  0  0  0  0  0  0  0
    7.2518   48.5345   30.6871 C   0  0  0  0  0  0  0  0  0  0  0  0
    7.6387   49.7158   31.3246 O   0  0  0  0  0  0  0  0  0  0  0  0
    7.5903   48.3129   29.4928 O   0  0  0  0  0  0  0  0  0  0  0  0
    8.4456   50.7031   30.6920 C   0  0  0  0  0  0  0  0  0  0  0  0
    8.7501   51.8047   31.6730 C   0  0  0  0  0  0  0  0  0  0  0  0
    7.9774   52.9793   31.6252 C   0  0  0  0  0  0  0  0  0  0  0  0
    9.8037   51.7037   32.6208 C   0  0  0  0  0  0  0  0  0  0  0  0
    8.2490   54.0458   32.4829 C   0  0  0  0  0  0  0  0  0  0  0  0
   10.0697   52.7977   33.4654 C   0  0  0  0  0  0  0  0  0  0  0  0
   10.6167   50.5203   32.7321 N   0  0  0  0  0  0  0  0  0  0  0  0
    9.2961   53.9572   33.3977 C   0  0  0  0  0  0  0  0  0  0  0  0
   10.0560   49.2688   32.6266 O   0  0  0  0  0  0  0  0  0  0  0  0
   11.8094   50.6129   33.0897 O   0  0  0  0  0  0  0  0  0  0  0  0
    8.5374   39.1401   34.0124 O   0  0  0  0  0  0  0  0  0  0  0  0
   10.9799   40.0879   33.6828 O   0  0  0  0  0  0  0  0  0  0  0  0
   10.8002   40.0907   32.2831 C   0  0  0  0  0  0  0  0  0  0  0  0
   11.5958   38.9271   31.6964 C   0  0  0  0  0  0  0  0  0  0  0  0
   12.9239   38.9409   32.1767 O   0  0  0  0  0  0  0  0  0  0  0  0
   11.0062   37.5720   32.0794 C   0  0  0  0  0  0  0  0  0  0  0  0
   13.3506   37.5905   32.2614 C   0  0  0  0  0  0  0  0  0  0  0  0
    9.9064   37.1793   31.2946 O   0  0  0  0  0  0  0  0  0  0  0  0
   12.1919   36.6672   31.9004 C   0  0  0  0  0  0  0  0  0  0  0  0
   13.8017   37.2948   33.6193 N   0  0  0  0  0  0  0  0  0  0  0  0
   12.3133   36.2788   30.5561 O   0  0  0  0  0  0  0  0  0  0  0  0
   14.7927   36.4717   33.9862 C   0  0  0  0  0  0  0  0  0  0  0  0
   13.2746   37.7284   34.7941 C   0  0  0  0  0  0  0  0  0  0  0  0
   15.6240   35.7576   33.1859 N   0  0  0  0  0  0  0  0  0  0  0  0
   14.8728   36.4406   35.3330 C   0  0  0  0  0  0  0  0  0  0  0  0
   13.9209   37.2258   35.8808 N   0  0  0  0  0  0  0  0  0  0  0  0
   16.5874   34.9920   33.7802 C   0  0  0  0  0  0  0  0  0  0  0  0
   15.8579   35.6716   35.9443 C   0  0  0  0  0  0  0  0  0  0  0  0
   16.7028   34.9584   35.1439 N   0  0  0  0  0  0  0  0  0  0  0  0
   16.0103   35.6383   37.3563 N   0  0  0  0  0  0  0  0  0  0  0  0
    7.6765   44.0640   34.0547 H   0  0  0  0  0  0  0  0  0  0  0  0
    8.6472   46.1565   34.1433 H   0  0  0  0  0  0  0  0  0  0  0  0
   10.2153   45.5887   33.8743 H   0  0  0  0  0  0  0  0  0  0  0  0
    9.9707   44.0653   31.9678 H   0  0  0  0  0  0  0  0  0  0  0  0
    8.4831   43.0825   31.8664 H   0  0  0  0  0  0  0  0  0  0  0  0
    8.5200   45.0977   30.3811 H   0  0  0  0  0  0  0  0  0  0  0  0
    8.5703   46.1498   31.8184 H   0  0  0  0  0  0  0  0  0  0  0  0
    6.3134   45.0789   32.5410 H   0  0  0  0  0  0  0  0  0  0  0  0
    6.3152   44.1796   30.9838 H   0  0  0  0  0  0  0  0  0  0  0  0
    4.9219   46.2676   30.9268 H   0  0  0  0  0  0  0  0  0  0  0  0
    6.2451   46.2890   29.7220 H   0  0  0  0  0  0  0  0  0  0  0  0
    6.2842   47.7514   32.4218 H   0  0  0  0  0  0  0  0  0  0  0  0
    9.3900   50.2529   30.3165 H   0  0  0  0  0  0  0  0  0  0  0  0
    7.9017   51.1049   29.8088 H   0  0  0  0  0  0  0  0  0  0  0  0
    7.1637   53.0735   30.9164 H   0  0  0  0  0  0  0  0  0  0  0  0
    7.6488   54.9452   32.4343 H   0  0  0  0  0  0  0  0  0  0  0  0
   10.8705   52.7460   34.1924 H   0  0  0  0  0  0  0  0  0  0  0  0
    9.5070   54.7873   34.0594 H   0  0  0  0  0  0  0  0  0  0  0  0
   11.2115   41.0421   31.8829 H   0  0  0  0  0  0  0  0  0  0  0  0
    9.7454   40.0168   31.9263 H   0  0  0  0  0  0  0  0  0  0  0  0
   11.6246   39.0449   30.5889 H   0  0  0  0  0  0  0  0  0  0  0  0
   10.7050   37.5581   33.1500 H   0  0  0  0  0  0  0  0  0  0  0  0
   14.1984   37.4426   31.5553 H   0  0  0  0  0  0  0  0  0  0  0  0
   10.0893   37.4057   30.3459 H   0  0  0  0  0  0  0  0  0  0  0  0
   12.1337   35.7754   32.5703 H   0  0  0  0  0  0  0  0  0  0  0  0
   11.7933   35.4394   30.4514 H   0  0  0  0  0  0  0  0  0  0  0  0
   12.4314   38.3973   34.8699 H   0  0  0  0  0  0  0  0  0  0  0  0
   17.2669   34.4142   33.1692 H   0  0  0  0  0  0  0  0  0  0  0  0
   15.3759   36.1865   37.9790 H   0  0  0  0  0  0  0  0  0  0  0  0
   16.7638   35.0599   37.7896 H   0  0  0  0  0  0  0  0  0  0  0  0
  1  2  2  0
  1  3  1  0
  3  4  1  0
  4  5  1  0
  6  1  1  0
  7  6  1  0
  6  8  1  0
  8  9  1  0
  9 10  1  0
 10 11  1  0
 11 12  1  0
 12 13  1  0
 13 14  1  0
 13 15  2  0
 14 16  1  0
 16 17  1  0
 17 18  2  0
 19 17  1  0
 18 20  1  0
 21 19  2  0
 19 22  1  0
 20 23  2  0
 23 21  1  0
 22 24  1  0
 22 25  2  0
  4 26  2  0
  4 27  1  0
 28 27  1  0
 28 29  1  0
 29 30  1  0
 29 31  1  0
 30 32  1  0
 31 33  1  0
 31 34  1  0
 34 32  1  0
 32 35  1  0
 34 36  1  0
 37 35  1  0
 38 35  1  0
 39 37  2  0
 37 40  1  0
 41 38  2  0
 42 39  1  0
 40 43  2  0
 40 41  1  0
 44 42  2  0
 44 43  1  0
 43 45  1  0
  6 46  1  6
  7 47  1  0
  7 48  1  0
  8 49  1  0
  8 50  1  0
  9 51  1  0
  9 52  1  0
 10 53  1  0
 10 54  1  0
 11 55  1  0
 11 56  1  0
 12 57  1  0
 16 58  1  0
 16 59  1  0
 18 60  1  0
 20 61  1  0
 21 62  1  0
 23 63  1  0
 28 64  1  0
 28 65  1  0
 29 66  1  0
 31 67  1  0
 32 68  1  0
 33 69  1  0
 34 70  1  0
 36 71  1  0
 38 72  1  0
 42 73  1  0
 45 74  1  0
 45 75  1  0
M  CHG  3   5  -1  22   1  24  -1
M  END
>  <EmbedRMS>  (49) 
0.0741772883478

$$$$

     RDKit          3D

 75 78  0  0  0  0  0  0  0  0999 V2000
    9.4329   42.9365   34.3461 C   0  0  0  0  0  0  0  0  0  0  0  0
   10.4905   43.0330   35.0317 O   0  0  0  0  0  0  0  0  0  0  0  0
    8.8557   41.7104   34.0299 O   0  0  0  0  0  0  0  0  0  0  0  0
    9.4943   40.2141   34.4677 P   0  0  0  0  0  0  0  0  0  0  0  0
    9.7317   40.1724   36.1287 O   0  0  0  0  0  0  0  0  0  0  0  0
    8.7504   44.1349   33.7737 C   0  0  1  0  0  0  0  0  0  0  0  0
    9.2961   45.3821   34.3129 N   0  0  0  0  0  0  0  0  0  0  0  0
    8.8893   44.0524   32.2354 C   0  0  0  0  0  0  0  0  0  0  0  0
    8.2034   45.1820   31.4603 C   0  0  0  0  0  0  0  0  0  0  0  0
    6.6659   45.1026   31.4803 C   0  0  0  0  0  0  0  0  0  0  0  0
    6.0263   46.3256   30.8141 C   0  0  0  0  0  0  0  0  0  0  0  0
    6.5139   47.5626   31.4243 N   0  0  0  0  0  0  0  0  0  0  0  0
    7.2284   48.5515   30.6753 C   0  0  0  0  0  0  0  0  0  0  0  0
    7.5501   49.8013   31.2214 O   0  0  0  0  0  0  0  0  0  0  0  0
    7.6015   48.2999   29.4999 O   0  0  0  0  0  0  0  0  0  0  0  0
    7.0055   50.3424   32.4253 C   0  0  0  0  0  0  0  0  0  0  0  0
    5.5447   50.6946   32.2502 C   0  0  0  0  0  0  0  0  0  0  0  0
    4.5834   49.9303   32.9390 C   0  0  0  0  0  0  0  0  0  0  0  0
    5.1140   51.8026   31.4646 C   0  0  0  0  0  0  0  0  0  0  0  0
    3.2246   50.2253   32.8327 C   0  0  0  0  0  0  0  0  0  0  0  0
    3.7380   52.0862   31.3830 C   0  0  0  0  0  0  0  0  0  0  0  0
    6.0373   52.6798   30.7897 N   0  0  0  0  0  0  0  0  0  0  0  0
    2.8024   51.2987   32.0535 C   0  0  0  0  0  0  0  0  0  0  0  0
    5.6927   53.9926   30.5618 O   0  0  0  0  0  0  0  0  0  0  0  0
    7.0886   52.2438   30.2798 O   0  0  0  0  0  0  0  0  0  0  0  0
    8.5371   39.1382   34.0123 O   0  0  0  0  0  0  0  0  0  0  0  0
   10.9792   40.0888   33.6814 O   0  0  0  0  0  0  0  0  0  0  0  0
   10.7976   40.0842   32.2817 C   0  0  0  0  0  0  0  0  0  0  0  0
   11.5897   38.9146   31.7008 C   0  0  0  0  0  0  0  0  0  0  0  0
   12.9218   38.9385   32.1717 O   0  0  0  0  0  0  0  0  0  0  0  0
   11.0070   37.5654   32.0975 C   0  0  0  0  0  0  0  0  0  0  0  0
   13.3533   37.5909   32.2610 C   0  0  0  0  0  0  0  0  0  0  0  0
    9.9333   37.1935   31.2754 O   0  0  0  0  0  0  0  0  0  0  0  0
   12.1945   36.6671   31.9040 C   0  0  0  0  0  0  0  0  0  0  0  0
   13.8036   37.2970   33.6193 N   0  0  0  0  0  0  0  0  0  0  0  0
   12.2893   36.2849   30.5562 O   0  0  0  0  0  0  0  0  0  0  0  0
   14.7931   36.4723   33.9863 C   0  0  0  0  0  0  0  0  0  0  0  0
   13.2756   37.7298   34.7940 C   0  0  0  0  0  0  0  0  0  0  0  0
   15.6242   35.7580   33.1861 N   0  0  0  0  0  0  0  0  0  0  0  0
   14.8727   36.4407   35.3331 C   0  0  0  0  0  0  0  0  0  0  0  0
   13.9210   37.2262   35.8807 N   0  0  0  0  0  0  0  0  0  0  0  0
   16.5872   34.9920   33.7803 C   0  0  0  0  0  0  0  0  0  0  0  0
   15.8577   35.6715   35.9444 C   0  0  0  0  0  0  0  0  0  0  0  0
   16.7025   34.9582   35.1440 N   0  0  0  0  0  0  0  0  0  0  0  0
   16.0101   35.6382   37.3564 N   0  0  0  0  0  0  0  0  0  0  0  0
    7.6768   44.0709   34.0499 H   0  0  0  0  0  0  0  0  0  0  0  0
   10.3190   45.4406   34.0998 H   0  0  0  0  0  0  0  0  0  0  0  0
    9.1822   45.3823   35.3530 H   0  0  0  0  0  0  0  0  0  0  0  0
    9.9712   44.0674   31.9738 H   0  0  0  0  0  0  0  0  0  0  0  0
    8.4815   43.0848   31.8665 H   0  0  0  0  0  0  0  0  0  0  0  0
    8.5413   45.1375   30.4018 H   0  0  0  0  0  0  0  0  0  0  0  0
    8.5548   46.1503   31.8747 H   0  0  0  0  0  0  0  0  0  0  0  0
    6.3006   45.0531   32.5271 H   0  0  0  0  0  0  0  0  0  0  0  0
    6.3321   44.1816   30.9550 H   0  0  0  0  0  0  0  0  0  0  0  0
    6.2341   46.2972   29.7230 H   0  0  0  0  0  0  0  0  0  0  0  0
    4.9239   46.2729   30.9417 H   0  0  0  0  0  0  0  0  0  0  0  0
    6.3527   47.6917   32.4454 H   0  0  0  0  0  0  0  0  0  0  0  0
    7.1675   49.6336   33.2651 H   0  0  0  0  0  0  0  0  0  0  0  0
    7.5676   51.2612   32.6941 H   0  0  0  0  0  0  0  0  0  0  0  0
    4.8827   49.1064   33.5735 H   0  0  0  0  0  0  0  0  0  0  0  0
    2.4975   49.6243   33.3635 H   0  0  0  0  0  0  0  0  0  0  0  0
    3.3850   52.9204   30.7901 H   0  0  0  0  0  0  0  0  0  0  0  0
    1.7474   51.5280   31.9758 H   0  0  0  0  0  0  0  0  0  0  0  0
   11.2111   41.0320   31.8753 H   0  0  0  0  0  0  0  0  0  0  0  0
    9.7422   40.0118   31.9267 H   0  0  0  0  0  0  0  0  0  0  0  0
   11.6005   39.0119   30.5904 H   0  0  0  0  0  0  0  0  0  0  0  0
   10.7015   37.5592   33.1701 H   0  0  0  0  0  0  0  0  0  0  0  0
   14.2012   37.4438   31.5552 H   0  0  0  0  0  0  0  0  0  0  0  0
    9.5289   36.3869   31.6895 H   0  0  0  0  0  0  0  0  0  0  0  0
   12.1244   35.7693   32.5633 H   0  0  0  0  0  0  0  0  0  0  0  0
   12.9478   35.5427   30.5201 H   0  0  0  0  0  0  0  0  0  0  0  0
   12.4328   38.3993   34.8697 H   0  0  0  0  0  0  0  0  0  0  0  0
   17.2666   34.4140   33.1692 H   0  0  0  0  0  0  0  0  0  0  0  0
   16.7636   35.0598   37.7897 H   0  0  0  0  0  0  0  0  0  0  0  0
   15.3759   36.1865   37.9791 H   0  0  0  0  0  0  0  0  0  0  0  0
  1  2  2  0
  1  3  1  0
  3  4  1  0
  4  5  1  0
  6  1  1  0
  7  6  1  0
  6  8  1  0
  8  9  1  0
  9 10  1  0
 10 11  1  0
 11 12  1  0
 12 13  1  0
 13 14  1  0
 13 15  2  0
 14 16  1  0
 16 17  1  0
 17 18  2  0
 19 17  1  0
 18 20  1  0
 21 19  2  0
 19 22  1  0
 20 23  2  0
 23 21  1  0
 22 24  1  0
 22 25  2  0
  4 26  2  0
  4 27  1  0
 28 27  1  0
 28 29  1  0
 29 30  1  0
 29 31  1  0
 30 32  1  0
 31 33  1  0
 31 34  1  0
 34 32  1  0
 32 35  1  0
 34 36  1  0
 37 35  1  0
 38 35  1  0
 39 37  2  0
 37 40  1  0
 41 38  2  0
 42 39  1  0
 40 43  2  0
 40 41  1  0
 44 42  2  0
 44 43  1  0
 43 45  1  0
  6 46  1  6
  7 47  1  0
  7 48  1  0
  8 49  1  0
  8 50  1  0
  9 51  1  0
  9 52  1  0
 10 53  1  0
 10 54  1  0
 11 55  1  0
 11 56  1  0
 12 57  1  0
 16 58  1  0
 16 59  1  0
 18 60  1  0
 20 61  1  0
 21 62  1  0
 23 63  1  0
 28 64  1  0
 28 65  1  0
 29 66  1  0
 31 67  1  0
 32 68  1  0
 33 69  1  0
 34 70  1  0
 36 71  1  0
 38 72  1  0
 42 73  1  0
 45 74  1  0
 45 75  1  0
M  CHG  3   5  -1  22   1  24  -1
M  END
>  <EmbedRMS>  (50) 
0.073850139825

$$$$

     RDKit          3D

 75 78  0  0  0  0  0  0  0  0999 V2000
    9.4297   42.9395   34.3434 C   0  0  0  0  0  0  0  0  0  0  0  0
   10.4911   43.0381   35.0233 O   0  0  0  0  0  0  0  0  0  0  0  0
    8.8545   41.7116   34.0286 O   0  0  0  0  0  0  0  0  0  0  0  0
    9.4941   40.2156   34.4673 P   0  0  0  0  0  0  0  0  0  0  0  0
    9.7316   40.1738   36.1283 O   0  0  0  0  0  0  0  0  0  0  0  0
    8.7409   44.1378   33.7785 C   0  0  1  0  0  0  0  0  0  0  0  0
    9.3011   45.3720   34.3323 N   0  0  0  0  0  0  0  0  0  0  0  0
    8.8962   44.0590   32.2398 C   0  0  0  0  0  0  0  0  0  0  0  0
    8.2031   45.1685   31.4396 C   0  0  0  0  0  0  0  0  0  0  0  0
    6.6656   45.1048   31.4870 C   0  0  0  0  0  0  0  0  0  0  0  0
    6.0281   46.3241   30.8132 C   0  0  0  0  0  0  0  0  0  0  0  0
    6.5119   47.5624   31.4236 N   0  0  0  0  0  0  0  0  0  0  0  0
    7.2379   48.5472   30.6788 C   0  0  0  0  0  0  0  0  0  0  0  0
    7.5855   49.7848   31.2373 O   0  0  0  0  0  0  0  0  0  0  0  0
    7.5945   48.3038   29.4966 O   0  0  0  0  0  0  0  0  0  0  0  0
    7.1812   50.2422   32.5276 C   0  0  0  0  0  0  0  0  0  0  0  0
    5.6929   50.5091   32.5692 C   0  0  0  0  0  0  0  0  0  0  0  0
    4.9247   49.8821   33.5678 C   0  0  0  0  0  0  0  0  0  0  0  0
    5.0439   51.3428   31.6171 C   0  0  0  0  0  0  0  0  0  0  0  0
    3.5401   50.0468   33.6111 C   0  0  0  0  0  0  0  0  0  0  0  0
    3.6454   51.4814   31.6703 C   0  0  0  0  0  0  0  0  0  0  0  0
    5.7706   52.0394   30.5882 N   0  0  0  0  0  0  0  0  0  0  0  0
    2.9010   50.8396   32.6607 C   0  0  0  0  0  0  0  0  0  0  0  0
    5.1640   52.3111   29.3833 O   0  0  0  0  0  0  0  0  0  0  0  0
    6.8832   52.5511   30.8274 O   0  0  0  0  0  0  0  0  0  0  0  0
    8.5374   39.1390   34.0125 O   0  0  0  0  0  0  0  0  0  0  0  0
   10.9792   40.0895   33.6811 O   0  0  0  0  0  0  0  0  0  0  0  0
   10.7976   40.0844   32.2815 C   0  0  0  0  0  0  0  0  0  0  0  0
   11.5897   38.9147   31.7008 C   0  0  0  0  0  0  0  0  0  0  0  0
   12.9218   38.9385   32.1718 O   0  0  0  0  0  0  0  0  0  0  0  0
   11.0070   37.5655   32.0975 C   0  0  0  0  0  0  0  0  0  0  0  0
   13.3532   37.5910   32.2611 C   0  0  0  0  0  0  0  0  0  0  0  0
    9.9333   37.1935   31.2754 O   0  0  0  0  0  0  0  0  0  0  0  0
   12.1945   36.6672   31.9041 C   0  0  0  0  0  0  0  0  0  0  0  0
   13.8036   37.2970   33.6193 N   0  0  0  0  0  0  0  0  0  0  0  0
   12.2893   36.2849   30.5563 O   0  0  0  0  0  0  0  0  0  0  0  0
   14.7931   36.4723   33.9863 C   0  0  0  0  0  0  0  0  0  0  0  0
   13.2756   37.7298   34.7940 C   0  0  0  0  0  0  0  0  0  0  0  0
   15.6242   35.7580   33.1861 N   0  0  0  0  0  0  0  0  0  0  0  0
   14.8727   36.4407   35.3331 C   0  0  0  0  0  0  0  0  0  0  0  0
   13.9210   37.2262   35.8807 N   0  0  0  0  0  0  0  0  0  0  0  0
   16.5872   34.9920   33.7803 C   0  0  0  0  0  0  0  0  0  0  0  0
   15.8577   35.6715   35.9444 C   0  0  0  0  0  0  0  0  0  0  0  0
   16.7025   34.9582   35.1440 N   0  0  0  0  0  0  0  0  0  0  0  0
   16.0101   35.6382   37.3564 N   0  0  0  0  0  0  0  0  0  0  0  0
    7.6665   44.0654   34.0544 H   0  0  0  0  0  0  0  0  0  0  0  0
    9.2333   45.3274   35.3757 H   0  0  0  0  0  0  0  0  0  0  0  0
    8.6800   46.1669   34.0590 H   0  0  0  0  0  0  0  0  0  0  0  0
    8.5082   43.0837   31.8694 H   0  0  0  0  0  0  0  0  0  0  0  0
    9.9809   44.0902   31.9916 H   0  0  0  0  0  0  0  0  0  0  0  0
    8.5762   46.1510   31.7930 H   0  0  0  0  0  0  0  0  0  0  0  0
    8.5182   45.0767   30.3770 H   0  0  0  0  0  0  0  0  0  0  0  0
    6.3165   45.0762   32.5399 H   0  0  0  0  0  0  0  0  0  0  0  0
    6.3144   44.1789   30.9820 H   0  0  0  0  0  0  0  0  0  0  0  0
    4.9251   46.2711   30.9346 H   0  0  0  0  0  0  0  0  0  0  0  0
    6.2426   46.2925   29.7235 H   0  0  0  0  0  0  0  0  0  0  0  0
    6.3161   47.7065   32.4374 H   0  0  0  0  0  0  0  0  0  0  0  0
    7.4983   49.5078   33.2996 H   0  0  0  0  0  0  0  0  0  0  0  0
    7.7212   51.1828   32.7598 H   0  0  0  0  0  0  0  0  0  0  0  0
    5.3965   49.2508   34.3107 H   0  0  0  0  0  0  0  0  0  0  0  0
    2.9606   49.5531   34.3806 H   0  0  0  0  0  0  0  0  0  0  0  0
    3.1292   52.1049   30.9514 H   0  0  0  0  0  0  0  0  0  0  0  0
    1.8261   50.9624   32.6942 H   0  0  0  0  0  0  0  0  0  0  0  0
    9.7422   40.0118   31.9264 H   0  0  0  0  0  0  0  0  0  0  0  0
   11.2110   41.0320   31.8747 H   0  0  0  0  0  0  0  0  0  0  0  0
   11.6005   39.0119   30.5904 H   0  0  0  0  0  0  0  0  0  0  0  0
   10.7015   37.5594   33.1702 H   0  0  0  0  0  0  0  0  0  0  0  0
   14.2012   37.4439   31.5552 H   0  0  0  0  0  0  0  0  0  0  0  0
    9.5289   36.3870   31.6896 H   0  0  0  0  0  0  0  0  0  0  0  0
   12.1243   35.7694   32.5633 H   0  0  0  0  0  0  0  0  0  0  0  0
   12.9478   35.5427   30.5202 H   0  0  0  0  0  0  0  0  0  0  0  0
   12.4328   38.3994   34.8697 H   0  0  0  0  0  0  0  0  0  0  0  0
   17.2667   34.4140   33.1692 H   0  0  0  0  0  0  0  0  0  0  0  0
   16.7636   35.0598   37.7897 H   0  0  0  0  0  0  0  0  0  0  0  0
   15.3759   36.1865   37.9791 H   0  0  0  0  0  0  0  0  0  0  0  0
  1  2  2  0
  1  3  1  0
  3  4  1  0
  4  5  1  0
  6  1  1  0
  7  6  1  0
  6  8  1  0
  8  9  1  0
  9 10  1  0
 10 11  1  0
 11 12  1  0
 12 13  1  0
 13 14  1  0
 13 15  2  0
 14 16  1  0
 16 17  1  0
 17 18  2  0
 19 17  1  0
 18 20  1  0
 21 19  2  0
 19 22  1  0
 20 23  2  0
 23 21  1  0
 22 24  1  0
 22 25  2  0
  4 26  2  0
  4 27  1  0
 28 27  1  0
 28 29  1  0
 29 30  1  0
 29 31  1  0
 30 32  1  0
 31 33  1  0
 31 34  1  0
 34 32  1  0
 32 35  1  0
 34 36  1  0
 37 35  1  0
 38 35  1  0
 39 37  2  0
 37 40  1  0
 41 38  2  0
 42 39  1  0
 40 43  2  0
 40 41  1  0
 44 42  2  0
 44 43  1  0
 43 45  1  0
  6 46  1  6
  7 47  1  0
  7 48  1  0
  8 49  1  0
  8 50  1  0
  9 51  1  0
  9 52  1  0
 10 53  1  0
 10 54  1  0
 11 55  1  0
 11 56  1  0
 12 57  1  0
 16 58  1  0
 16 59  1  0
 18 60  1  0
 20 61  1  0
 21 62  1  0
 23 63  1  0
 28 64  1  0
 28 65  1  0
 29 66  1  0
 31 67  1  0
 32 68  1  0
 33 69  1  0
 34 70  1  0
 36 71  1  0
 38 72  1  0
 42 73  1  0
 45 74  1  0
 45 75  1  0
M  CHG  3   5  -1  22   1  24  -1
M  END
>  <EmbedRMS>  (51) 
0.0733243552005

$$$$

     RDKit          3D

 75 78  0  0  0  0  0  0  0  0999 V2000
    9.4312   42.9416   34.3438 C   0  0  0  0  0  0  0  0  0  0  0  0
   10.4886   43.0413   35.0293 O   0  0  0  0  0  0  0  0  0  0  0  0
    8.8558   41.7132   34.0295 O   0  0  0  0  0  0  0  0  0  0  0  0
    9.4932   40.2165   34.4701 P   0  0  0  0  0  0  0  0  0  0  0  0
    9.7295   40.1744   36.1311 O   0  0  0  0  0  0  0  0  0  0  0  0
    8.7486   44.1368   33.7721 C   0  0  1  0  0  0  0  0  0  0  0  0
    9.3043   45.3674   34.3387 N   0  0  0  0  0  0  0  0  0  0  0  0
    8.8891   44.0529   32.2308 C   0  0  0  0  0  0  0  0  0  0  0  0
    8.2009   45.1734   31.4440 C   0  0  0  0  0  0  0  0  0  0  0  0
    6.6636   45.1067   31.4880 C   0  0  0  0  0  0  0  0  0  0  0  0
    6.0247   46.3225   30.8097 C   0  0  0  0  0  0  0  0  0  0  0  0
    6.5024   47.5642   31.4168 N   0  0  0  0  0  0  0  0  0  0  0  0
    7.2576   48.5308   30.6898 C   0  0  0  0  0  0  0  0  0  0  0  0
    7.6705   49.6967   31.3385 O   0  0  0  0  0  0  0  0  0  0  0  0
    7.5875   48.3148   29.4921 O   0  0  0  0  0  0  0  0  0  0  0  0
    8.5031   50.6717   30.7188 C   0  0  0  0  0  0  0  0  0  0  0  0
    8.9050   51.7123   31.7334 C   0  0  0  0  0  0  0  0  0  0  0  0
    8.5993   53.0615   31.4746 C   0  0  0  0  0  0  0  0  0  0  0  0
    9.5438   51.3678   32.9561 C   0  0  0  0  0  0  0  0  0  0  0  0
    8.9071   54.0535   32.4062 C   0  0  0  0  0  0  0  0  0  0  0  0
    9.8309   52.3833   33.8872 C   0  0  0  0  0  0  0  0  0  0  0  0
    9.8855   50.0067   33.2804 N   0  0  0  0  0  0  0  0  0  0  0  0
    9.5183   53.7148   33.6114 C   0  0  0  0  0  0  0  0  0  0  0  0
   10.3924   49.1598   32.3226 O   0  0  0  0  0  0  0  0  0  0  0  0
    9.8716   49.6251   34.4691 O   0  0  0  0  0  0  0  0  0  0  0  0
    8.5368   39.1402   34.0138 O   0  0  0  0  0  0  0  0  0  0  0  0
   10.9789   40.0875   33.6872 O   0  0  0  0  0  0  0  0  0  0  0  0
   10.7993   40.0946   32.2884 C   0  0  0  0  0  0  0  0  0  0  0  0
   11.5957   38.9352   31.6994 C   0  0  0  0  0  0  0  0  0  0  0  0
   12.9257   38.9478   32.1799 O   0  0  0  0  0  0  0  0  0  0  0  0
   11.0070   37.5758   32.0732 C   0  0  0  0  0  0  0  0  0  0  0  0
   13.3571   37.5980   32.2612 C   0  0  0  0  0  0  0  0  0  0  0  0
    9.9093   37.1808   31.2875 O   0  0  0  0  0  0  0  0  0  0  0  0
   12.1967   36.6764   31.8894 C   0  0  0  0  0  0  0  0  0  0  0  0
   13.8018   37.2956   33.6197 N   0  0  0  0  0  0  0  0  0  0  0  0
   12.3048   36.2360   30.5555 O   0  0  0  0  0  0  0  0  0  0  0  0
   14.7922   36.4716   33.9864 C   0  0  0  0  0  0  0  0  0  0  0  0
   13.2747   37.7291   34.7944 C   0  0  0  0  0  0  0  0  0  0  0  0
   15.6239   35.7581   33.1861 N   0  0  0  0  0  0  0  0  0  0  0  0
   14.8721   36.4402   35.3331 C   0  0  0  0  0  0  0  0  0  0  0  0
   13.9206   37.2257   35.8810 N   0  0  0  0  0  0  0  0  0  0  0  0
   16.5873   34.9924   33.7802 C   0  0  0  0  0  0  0  0  0  0  0  0
   15.8576   35.6714   35.9444 C   0  0  0  0  0  0  0  0  0  0  0  0
   16.7026   34.9585   35.1439 N   0  0  0  0  0  0  0  0  0  0  0  0
   16.0102   35.6382   37.3564 N   0  0  0  0  0  0  0  0  0  0  0  0
    7.6765   44.0646   34.0548 H   0  0  0  0  0  0  0  0  0  0  0  0
    8.6474   46.1571   34.1436 H   0  0  0  0  0  0  0  0  0  0  0  0
   10.2153   45.5893   33.8741 H   0  0  0  0  0  0  0  0  0  0  0  0
    8.4831   43.0828   31.8665 H   0  0  0  0  0  0  0  0  0  0  0  0
    9.9706   44.0657   31.9678 H   0  0  0  0  0  0  0  0  0  0  0  0
    8.5697   46.1502   31.8189 H   0  0  0  0  0  0  0  0  0  0  0  0
    8.5201   45.0984   30.3813 H   0  0  0  0  0  0  0  0  0  0  0  0
    6.3129   45.0789   32.5405 H   0  0  0  0  0  0  0  0  0  0  0  0
    6.3154   44.1793   30.9836 H   0  0  0  0  0  0  0  0  0  0  0  0
    4.9212   46.2666   30.9250 H   0  0  0  0  0  0  0  0  0  0  0  0
    6.2454   46.2887   29.7212 H   0  0  0  0  0  0  0  0  0  0  0  0
    6.2844   47.7493   32.4218 H   0  0  0  0  0  0  0  0  0  0  0  0
    9.4136   50.1940   30.2998 H   0  0  0  0  0  0  0  0  0  0  0  0
    7.9500   51.1284   29.8690 H   0  0  0  0  0  0  0  0  0  0  0  0
    8.1131   53.3494   30.5506 H   0  0  0  0  0  0  0  0  0  0  0  0
    8.6654   55.0873   32.1952 H   0  0  0  0  0  0  0  0  0  0  0  0
   10.3132   52.1439   34.8266 H   0  0  0  0  0  0  0  0  0  0  0  0
    9.7522   54.4860   34.3340 H   0  0  0  0  0  0  0  0  0  0  0  0
   11.2092   41.0481   31.8916 H   0  0  0  0  0  0  0  0  0  0  0  0
    9.7448   40.0200   31.9304 H   0  0  0  0  0  0  0  0  0  0  0  0
   11.6207   39.0685   30.5942 H   0  0  0  0  0  0  0  0  0  0  0  0
   10.7059   37.5565   33.1439 H   0  0  0  0  0  0  0  0  0  0  0  0
   14.2095   37.4543   31.5601 H   0  0  0  0  0  0  0  0  0  0  0  0
   10.0864   37.4210   30.3414 H   0  0  0  0  0  0  0  0  0  0  0  0
   12.1275   35.7872   32.5550 H   0  0  0  0  0  0  0  0  0  0  0  0
   12.5031   37.0109   29.9673 H   0  0  0  0  0  0  0  0  0  0  0  0
   12.4328   38.3997   34.8703 H   0  0  0  0  0  0  0  0  0  0  0  0
   17.2670   34.4149   33.1690 H   0  0  0  0  0  0  0  0  0  0  0  0
   16.7640   35.0601   37.7896 H   0  0  0  0  0  0  0  0  0  0  0  0
   15.3758   36.1862   37.9791 H   0  0  0  0  0  0  0  0  0  0  0  0
  1  2  2  0
  1  3  1  0
  3  4  1  0
  4  5  1  0
  6  1  1  0
  7  6  1  0
  6  8  1  0
  8  9  1  0
  9 10  1  0
 10 11  1  0
 11 12  1  0
 12 13  1  0
 13 14  1  0
 13 15  2  0
 14 16  1  0
 16 17  1  0
 17 18  2  0
 19 17  1  0
 18 20  1  0
 21 19  2  0
 19 22  1  0
 20 23  2  0
 23 21  1  0
 22 24  1  0
 22 25  2  0
  4 26  2  0
  4 27  1  0
 28 27  1  0
 28 29  1  0
 29 30  1  0
 29 31  1  0
 30 32  1  0
 31 33  1  0
 31 34  1  0
 34 32  1  0
 32 35  1  0
 34 36  1  0
 37 35  1  0
 38 35  1  0
 39 37  2  0
 37 40  1  0
 41 38  2  0
 42 39  1  0
 40 43  2  0
 40 41  1  0
 44 42  2  0
 44 43  1  0
 43 45  1  0
  6 46  1  6
  7 47  1  0
  7 48  1  0
  8 49  1  0
  8 50  1  0
  9 51  1  0
  9 52  1  0
 10 53  1  0
 10 54  1  0
 11 55  1  0
 11 56  1  0
 12 57  1  0
 16 58  1  0
 16 59  1  0
 18 60  1  0
 20 61  1  0
 21 62  1  0
 23 63  1  0
 28 64  1  0
 28 65  1  0
 29 66  1  0
 31 67  1  0
 32 68  1  0
 33 69  1  0
 34 70  1  0
 36 71  1  0
 38 72  1  0
 42 73  1  0
 45 74  1  0
 45 75  1  0
M  CHG  3   5  -1  22   1  24  -1
M  END
>  <EmbedRMS>  (52) 
0.0757279343247

$$$$

     RDKit          3D

 75 78  0  0  0  0  0  0  0  0999 V2000
    9.4312   42.9412   34.3440 C   0  0  0  0  0  0  0  0  0  0  0  0
   10.4886   43.0411   35.0294 O   0  0  0  0  0  0  0  0  0  0  0  0
    8.8558   41.7129   34.0298 O   0  0  0  0  0  0  0  0  0  0  0  0
    9.4933   40.2164   34.4707 P   0  0  0  0  0  0  0  0  0  0  0  0
    9.7290   40.1745   36.1317 O   0  0  0  0  0  0  0  0  0  0  0  0
    8.7484   44.1360   33.7722 C   0  0  1  0  0  0  0  0  0  0  0  0
    9.3039   45.3665   34.3388 N   0  0  0  0  0  0  0  0  0  0  0  0
    8.8892   44.0518   32.2309 C   0  0  0  0  0  0  0  0  0  0  0  0
    8.2015   45.1720   31.4435 C   0  0  0  0  0  0  0  0  0  0  0  0
    6.6643   45.1066   31.4887 C   0  0  0  0  0  0  0  0  0  0  0  0
    6.0268   46.3236   30.8122 C   0  0  0  0  0  0  0  0  0  0  0  0
    6.5081   47.5646   31.4189 N   0  0  0  0  0  0  0  0  0  0  0  0
    7.2426   48.5405   30.6827 C   0  0  0  0  0  0  0  0  0  0  0  0
    7.5789   49.7508   31.3012 O   0  0  0  0  0  0  0  0  0  0  0  0
    7.5937   48.3106   29.4937 O   0  0  0  0  0  0  0  0  0  0  0  0
    8.3292   50.7816   30.6565 C   0  0  0  0  0  0  0  0  0  0  0  0
    7.4688   51.7151   29.8232 C   0  0  0  0  0  0  0  0  0  0  0  0
    6.0898   51.4640   29.6514 C   0  0  0  0  0  0  0  0  0  0  0  0
    8.0254   52.8918   29.2490 C   0  0  0  0  0  0  0  0  0  0  0  0
    5.2868   52.3440   28.9252 C   0  0  0  0  0  0  0  0  0  0  0  0
    7.1921   53.7713   28.5336 C   0  0  0  0  0  0  0  0  0  0  0  0
    9.4164   53.2289   29.4055 N   0  0  0  0  0  0  0  0  0  0  0  0
    5.8360   53.4950   28.3683 C   0  0  0  0  0  0  0  0  0  0  0  0
   10.3924   52.2694   29.2722 O   0  0  0  0  0  0  0  0  0  0  0  0
    9.7622   54.4255   29.4917 O   0  0  0  0  0  0  0  0  0  0  0  0
    8.5369   39.1403   34.0143 O   0  0  0  0  0  0  0  0  0  0  0  0
   10.9796   40.0883   33.6889 O   0  0  0  0  0  0  0  0  0  0  0  0
   10.8017   40.0949   32.2901 C   0  0  0  0  0  0  0  0  0  0  0  0
   11.5885   38.9267   31.7042 C   0  0  0  0  0  0  0  0  0  0  0  0
   12.9237   38.9445   32.1722 O   0  0  0  0  0  0  0  0  0  0  0  0
   11.0029   37.5726   32.0908 C   0  0  0  0  0  0  0  0  0  0  0  0
   13.3555   37.5960   32.2595 C   0  0  0  0  0  0  0  0  0  0  0  0
    9.9379   37.1847   31.2657 O   0  0  0  0  0  0  0  0  0  0  0  0
   12.1931   36.6769   31.8952 C   0  0  0  0  0  0  0  0  0  0  0  0
   13.8028   37.2977   33.6186 N   0  0  0  0  0  0  0  0  0  0  0  0
   12.2918   36.2396   30.5587 O   0  0  0  0  0  0  0  0  0  0  0  0
   14.7926   36.4727   33.9858 C   0  0  0  0  0  0  0  0  0  0  0  0
   13.2750   37.7302   34.7935 C   0  0  0  0  0  0  0  0  0  0  0  0
   15.6241   35.7586   33.1857 N   0  0  0  0  0  0  0  0  0  0  0  0
   14.8721   36.4408   35.3326 C   0  0  0  0  0  0  0  0  0  0  0  0
   13.9204   37.2263   35.8802 N   0  0  0  0  0  0  0  0  0  0  0  0
   16.5870   34.9925   33.7800 C   0  0  0  0  0  0  0  0  0  0  0  0
   15.8572   35.6717   35.9441 C   0  0  0  0  0  0  0  0  0  0  0  0
   16.7022   34.9585   35.1437 N   0  0  0  0  0  0  0  0  0  0  0  0
   16.0097   35.6384   37.3561 N   0  0  0  0  0  0  0  0  0  0  0  0
    7.6764   44.0635   34.0548 H   0  0  0  0  0  0  0  0  0  0  0  0
    8.6468   46.1559   34.1430 H   0  0  0  0  0  0  0  0  0  0  0  0
   10.2152   45.5879   33.8747 H   0  0  0  0  0  0  0  0  0  0  0  0
    8.4830   43.0816   31.8668 H   0  0  0  0  0  0  0  0  0  0  0  0
    9.9708   44.0641   31.9680 H   0  0  0  0  0  0  0  0  0  0  0  0
    8.5715   46.1486   31.8173 H   0  0  0  0  0  0  0  0  0  0  0  0
    8.5198   45.0956   30.3807 H   0  0  0  0  0  0  0  0  0  0  0  0
    6.3147   44.1801   30.9838 H   0  0  0  0  0  0  0  0  0  0  0  0
    6.3142   45.0785   32.5414 H   0  0  0  0  0  0  0  0  0  0  0  0
    6.2451   46.2896   29.7231 H   0  0  0  0  0  0  0  0  0  0  0  0
    4.9234   46.2699   30.9297 H   0  0  0  0  0  0  0  0  0  0  0  0
    6.2838   47.7548   32.4215 H   0  0  0  0  0  0  0  0  0  0  0  0
    9.1200   50.3218   30.0275 H   0  0  0  0  0  0  0  0  0  0  0  0
    8.8260   51.3802   31.4489 H   0  0  0  0  0  0  0  0  0  0  0  0
    5.6156   50.5953   30.0850 H   0  0  0  0  0  0  0  0  0  0  0  0
    4.2316   52.1359   28.8016 H   0  0  0  0  0  0  0  0  0  0  0  0
    7.5992   54.6718   28.0912 H   0  0  0  0  0  0  0  0  0  0  0  0
    5.2087   54.1778   27.8096 H   0  0  0  0  0  0  0  0  0  0  0  0
   11.2240   41.0428   31.8929 H   0  0  0  0  0  0  0  0  0  0  0  0
    9.7472   40.0378   31.9304 H   0  0  0  0  0  0  0  0  0  0  0  0
   11.5927   39.0434   30.5966 H   0  0  0  0  0  0  0  0  0  0  0  0
   10.7003   37.5444   33.1641 H   0  0  0  0  0  0  0  0  0  0  0  0
   14.2051   37.4477   31.5560 H   0  0  0  0  0  0  0  0  0  0  0  0
    9.1373   37.6722   31.5906 H   0  0  0  0  0  0  0  0  0  0  0  0
   12.1305   35.7856   32.5586 H   0  0  0  0  0  0  0  0  0  0  0  0
   12.4606   37.0186   29.9674 H   0  0  0  0  0  0  0  0  0  0  0  0
   12.4327   38.4001   34.8694 H   0  0  0  0  0  0  0  0  0  0  0  0
   17.2666   34.4146   33.1690 H   0  0  0  0  0  0  0  0  0  0  0  0
   16.7634   35.0601   37.7894 H   0  0  0  0  0  0  0  0  0  0  0  0
   15.3754   36.1866   37.9788 H   0  0  0  0  0  0  0  0  0  0  0  0
  1  2  2  0
  1  3  1  0
  3  4  1  0
  4  5  1  0
  6  1  1  0
  7  6  1  0
  6  8  1  0
  8  9  1  0
  9 10  1  0
 10 11  1  0
 11 12  1  0
 12 13  1  0
 13 14  1  0
 13 15  2  0
 14 16  1  0
 16 17  1  0
 17 18  2  0
 19 17  1  0
 18 20  1  0
 21 19  2  0
 19 22  1  0
 20 23  2  0
 23 21  1  0
 22 24  1  0
 22 25  2  0
  4 26  2  0
  4 27  1  0
 28 27  1  0
 28 29  1  0
 29 30  1  0
 29 31  1  0
 30 32  1  0
 31 33  1  0
 31 34  1  0
 34 32  1  0
 32 35  1  0
 34 36  1  0
 37 35  1  0
 38 35  1  0
 39 37  2  0
 37 40  1  0
 41 38  2  0
 42 39  1  0
 40 43  2  0
 40 41  1  0
 44 42  2  0
 44 43  1  0
 43 45  1  0
  6 46  1  6
  7 47  1  0
  7 48  1  0
  8 49  1  0
  8 50  1  0
  9 51  1  0
  9 52  1  0
 10 53  1  0
 10 54  1  0
 11 55  1  0
 11 56  1  0
 12 57  1  0
 16 58  1  0
 16 59  1  0
 18 60  1  0
 20 61  1  0
 21 62  1  0
 23 63  1  0
 28 64  1  0
 28 65  1  0
 29 66  1  0
 31 67  1  0
 32 68  1  0
 33 69  1  0
 34 70  1  0
 36 71  1  0
 38 72  1  0
 42 73  1  0
 45 74  1  0
 45 75  1  0
M  CHG  3   5  -1  22   1  24  -1
M  END
>  <EmbedRMS>  (53) 
0.0748631297449

$$$$

     RDKit          3D

 75 78  0  0  0  0  0  0  0  0999 V2000
    9.4315   42.9420   34.3430 C   0  0  0  0  0  0  0  0  0  0  0  0
   10.4886   43.0416   35.0291 O   0  0  0  0  0  0  0  0  0  0  0  0
    8.8563   41.7137   34.0283 O   0  0  0  0  0  0  0  0  0  0  0  0
    9.4945   40.2169   34.4677 P   0  0  0  0  0  0  0  0  0  0  0  0
    9.7309   40.1746   36.1288 O   0  0  0  0  0  0  0  0  0  0  0  0
    8.7490   44.1376   33.7716 C   0  0  1  0  0  0  0  0  0  0  0  0
    9.3050   45.3680   34.3384 N   0  0  0  0  0  0  0  0  0  0  0  0
    8.8894   44.0548   32.2302 C   0  0  0  0  0  0  0  0  0  0  0  0
    8.2006   45.1760   31.4441 C   0  0  0  0  0  0  0  0  0  0  0  0
    6.6631   45.1082   31.4882 C   0  0  0  0  0  0  0  0  0  0  0  0
    6.0220   46.3220   30.8076 C   0  0  0  0  0  0  0  0  0  0  0  0
    6.4936   47.5661   31.4145 N   0  0  0  0  0  0  0  0  0  0  0  0
    7.2692   48.5222   30.6955 C   0  0  0  0  0  0  0  0  0  0  0  0
    7.7282   49.6621   31.3625 O   0  0  0  0  0  0  0  0  0  0  0  0
    7.5865   48.3129   29.4935 O   0  0  0  0  0  0  0  0  0  0  0  0
    8.7632   50.5026   30.8570 C   0  0  0  0  0  0  0  0  0  0  0  0
   10.0862   49.7703   30.8610 C   0  0  0  0  0  0  0  0  0  0  0  0
   10.6142   49.3376   29.6302 C   0  0  0  0  0  0  0  0  0  0  0  0
   10.8169   49.5182   32.0564 C   0  0  0  0  0  0  0  0  0  0  0  0
   11.8352   48.6659   29.5737 C   0  0  0  0  0  0  0  0  0  0  0  0
   12.0522   48.8503   31.9721 C   0  0  0  0  0  0  0  0  0  0  0  0
   10.3543   49.9519   33.3502 N   0  0  0  0  0  0  0  0  0  0  0  0
   12.5530   48.4232   30.7421 C   0  0  0  0  0  0  0  0  0  0  0  0
   11.2636   50.2318   34.3445 O   0  0  0  0  0  0  0  0  0  0  0  0
    9.1413   49.9326   33.6403 O   0  0  0  0  0  0  0  0  0  0  0  0
    8.5373   39.1409   34.0126 O   0  0  0  0  0  0  0  0  0  0  0  0
   10.9804   40.0890   33.6835 O   0  0  0  0  0  0  0  0  0  0  0  0
   10.8025   40.0902   32.2837 C   0  0  0  0  0  0  0  0  0  0  0  0
   11.5889   38.9175   31.7008 C   0  0  0  0  0  0  0  0  0  0  0  0
   12.9219   38.9374   32.1693 O   0  0  0  0  0  0  0  0  0  0  0  0
   11.0028   37.5683   32.0981 C   0  0  0  0  0  0  0  0  0  0  0  0
   13.3496   37.5886   32.2601 C   0  0  0  0  0  0  0  0  0  0  0  0
    9.9343   37.1823   31.2756 O   0  0  0  0  0  0  0  0  0  0  0  0
   12.1890   36.6677   31.9050 C   0  0  0  0  0  0  0  0  0  0  0  0
   13.8025   37.2965   33.6187 N   0  0  0  0  0  0  0  0  0  0  0  0
   12.2990   36.2868   30.5568 O   0  0  0  0  0  0  0  0  0  0  0  0
   14.7929   36.4725   33.9858 C   0  0  0  0  0  0  0  0  0  0  0  0
   13.2749   37.7294   34.7936 C   0  0  0  0  0  0  0  0  0  0  0  0
   15.6240   35.7580   33.1858 N   0  0  0  0  0  0  0  0  0  0  0  0
   14.8727   36.4411   35.3327 C   0  0  0  0  0  0  0  0  0  0  0  0
   13.9208   37.2263   35.8803 N   0  0  0  0  0  0  0  0  0  0  0  0
   16.5871   34.9921   33.7801 C   0  0  0  0  0  0  0  0  0  0  0  0
   15.8576   35.6718   35.9441 C   0  0  0  0  0  0  0  0  0  0  0  0
   16.7024   34.9584   35.1438 N   0  0  0  0  0  0  0  0  0  0  0  0
   16.0099   35.6384   37.3562 N   0  0  0  0  0  0  0  0  0  0  0  0
    7.6770   44.0655   34.0542 H   0  0  0  0  0  0  0  0  0  0  0  0
   10.2156   45.5905   33.8733 H   0  0  0  0  0  0  0  0  0  0  0  0
    8.6479   46.1577   34.1439 H   0  0  0  0  0  0  0  0  0  0  0  0
    8.4838   43.0848   31.8653 H   0  0  0  0  0  0  0  0  0  0  0  0
    9.9709   44.0684   31.9671 H   0  0  0  0  0  0  0  0  0  0  0  0
    8.5200   45.1022   30.3814 H   0  0  0  0  0  0  0  0  0  0  0  0
    8.5686   46.1529   31.8195 H   0  0  0  0  0  0  0  0  0  0  0  0
    6.3127   45.0818   32.5408 H   0  0  0  0  0  0  0  0  0  0  0  0
    6.3160   44.1795   30.9855 H   0  0  0  0  0  0  0  0  0  0  0  0
    6.2453   46.2879   29.7196 H   0  0  0  0  0  0  0  0  0  0  0  0
    4.9184   46.2626   30.9199 H   0  0  0  0  0  0  0  0  0  0  0  0
    6.2745   47.7504   32.4194 H   0  0  0  0  0  0  0  0  0  0  0  0
    8.4905   50.8465   29.8350 H   0  0  0  0  0  0  0  0  0  0  0  0
    8.8399   51.4138   31.4864 H   0  0  0  0  0  0  0  0  0  0  0  0
   10.0774   49.5182   28.7070 H   0  0  0  0  0  0  0  0  0  0  0  0
   12.2270   48.3353   28.6204 H   0  0  0  0  0  0  0  0  0  0  0  0
   12.6269   48.6464   32.8666 H   0  0  0  0  0  0  0  0  0  0  0  0
   13.5013   47.9035   30.6953 H   0  0  0  0  0  0  0  0  0  0  0  0
   11.2258   41.0358   31.8824 H   0  0  0  0  0  0  0  0  0  0  0  0
    9.7476   40.0332   31.9254 H   0  0  0  0  0  0  0  0  0  0  0  0
   11.5975   39.0148   30.5905 H   0  0  0  0  0  0  0  0  0  0  0  0
   10.7023   37.5457   33.1720 H   0  0  0  0  0  0  0  0  0  0  0  0
   14.1957   37.4366   31.5528 H   0  0  0  0  0  0  0  0  0  0  0  0
    9.1339   37.6659   31.6069 H   0  0  0  0  0  0  0  0  0  0  0  0
   12.1380   35.7718   32.5698 H   0  0  0  0  0  0  0  0  0  0  0  0
   11.7706   35.4531   30.4496 H   0  0  0  0  0  0  0  0  0  0  0  0
   12.4314   38.3980   34.8694 H   0  0  0  0  0  0  0  0  0  0  0  0
   17.2665   34.4140   33.1691 H   0  0  0  0  0  0  0  0  0  0  0  0
   16.7633   35.0598   37.7895 H   0  0  0  0  0  0  0  0  0  0  0  0
   15.3757   36.1868   37.9789 H   0  0  0  0  0  0  0  0  0  0  0  0
  1  2  2  0
  1  3  1  0
  3  4  1  0
  4  5  1  0
  6  1  1  0
  7  6  1  0
  6  8  1  0
  8  9  1  0
  9 10  1  0
 10 11  1  0
 11 12  1  0
 12 13  1  0
 13 14  1  0
 13 15  2  0
 14 16  1  0
 16 17  1  0
 17 18  2  0
 19 17  1  0
 18 20  1  0
 21 19  2  0
 19 22  1  0
 20 23  2  0
 23 21  1  0
 22 24  1  0
 22 25  2  0
  4 26  2  0
  4 27  1  0
 28 27  1  0
 28 29  1  0
 29 30  1  0
 29 31  1  0
 30 32  1  0
 31 33  1  0
 31 34  1  0
 34 32  1  0
 32 35  1  0
 34 36  1  0
 37 35  1  0
 38 35  1  0
 39 37  2  0
 37 40  1  0
 41 38  2  0
 42 39  1  0
 40 43  2  0
 40 41  1  0
 44 42  2  0
 44 43  1  0
 43 45  1  0
  6 46  1  6
  7 47  1  0
  7 48  1  0
  8 49  1  0
  8 50  1  0
  9 51  1  0
  9 52  1  0
 10 53  1  0
 10 54  1  0
 11 55  1  0
 11 56  1  0
 12 57  1  0
 16 58  1  0
 16 59  1  0
 18 60  1  0
 20 61  1  0
 21 62  1  0
 23 63  1  0
 28 64  1  0
 28 65  1  0
 29 66  1  0
 31 67  1  0
 32 68  1  0
 33 69  1  0
 34 70  1  0
 36 71  1  0
 38 72  1  0
 42 73  1  0
 45 74  1  0
 45 75  1  0
M  CHG  3   5  -1  22   1  24  -1
M  END
>  <EmbedRMS>  (54) 
0.0743275981005

$$$$

     RDKit          3D

 75 78  0  0  0  0  0  0  0  0999 V2000
    9.4330   42.9368   34.3461 C   0  0  0  0  0  0  0  0  0  0  0  0
   10.4906   43.0332   35.0317 O   0  0  0  0  0  0  0  0  0  0  0  0
    8.8558   41.7106   34.0298 O   0  0  0  0  0  0  0  0  0  0  0  0
    9.4943   40.2143   34.4677 P   0  0  0  0  0  0  0  0  0  0  0  0
    9.7317   40.1725   36.1287 O   0  0  0  0  0  0  0  0  0  0  0  0
    8.7505   44.1354   33.7741 C   0  0  1  0  0  0  0  0  0  0  0  0
    9.2962   45.3826   34.3134 N   0  0  0  0  0  0  0  0  0  0  0  0
    8.8891   44.0536   32.2359 C   0  0  0  0  0  0  0  0  0  0  0  0
    8.2028   45.1837   31.4622 C   0  0  0  0  0  0  0  0  0  0  0  0
    6.6653   45.1046   31.4833 C   0  0  0  0  0  0  0  0  0  0  0  0
    6.0277   46.3225   30.8066 C   0  0  0  0  0  0  0  0  0  0  0  0
    6.5012   47.5635   31.4197 N   0  0  0  0  0  0  0  0  0  0  0  0
    7.2579   48.5356   30.6879 C   0  0  0  0  0  0  0  0  0  0  0  0
    7.6848   49.7288   31.2822 O   0  0  0  0  0  0  0  0  0  0  0  0
    7.5842   48.3109   29.4932 O   0  0  0  0  0  0  0  0  0  0  0  0
    7.4293   50.0774   32.6390 C   0  0  0  0  0  0  0  0  0  0  0  0
    8.1028   51.3877   32.9541 C   0  0  0  0  0  0  0  0  0  0  0  0
    7.3264   52.5608   32.9441 C   0  0  0  0  0  0  0  0  0  0  0  0
    9.4837   51.4705   33.2843 C   0  0  0  0  0  0  0  0  0  0  0  0
    7.8930   53.7929   33.2720 C   0  0  0  0  0  0  0  0  0  0  0  0
   10.0293   52.7210   33.6270 C   0  0  0  0  0  0  0  0  0  0  0  0
   10.3399   50.3125   33.2996 N   0  0  0  0  0  0  0  0  0  0  0  0
    9.2404   53.8720   33.6175 C   0  0  0  0  0  0  0  0  0  0  0  0
   11.4296   50.2757   34.1390 O   0  0  0  0  0  0  0  0  0  0  0  0
   10.2086   49.4075   32.4505 O   0  0  0  0  0  0  0  0  0  0  0  0
    8.5370   39.1384   34.0123 O   0  0  0  0  0  0  0  0  0  0  0  0
   10.9792   40.0888   33.6814 O   0  0  0  0  0  0  0  0  0  0  0  0
   10.7977   40.0842   32.2817 C   0  0  0  0  0  0  0  0  0  0  0  0
   11.5897   38.9146   31.7008 C   0  0  0  0  0  0  0  0  0  0  0  0
   12.9218   38.9385   32.1717 O   0  0  0  0  0  0  0  0  0  0  0  0
   11.0070   37.5654   32.0975 C   0  0  0  0  0  0  0  0  0  0  0  0
   13.3533   37.5909   32.2610 C   0  0  0  0  0  0  0  0  0  0  0  0
    9.9333   37.1935   31.2754 O   0  0  0  0  0  0  0  0  0  0  0  0
   12.1945   36.6671   31.9040 C   0  0  0  0  0  0  0  0  0  0  0  0
   13.8036   37.2970   33.6193 N   0  0  0  0  0  0  0  0  0  0  0  0
   12.2893   36.2849   30.5562 O   0  0  0  0  0  0  0  0  0  0  0  0
   14.7931   36.4723   33.9863 C   0  0  0  0  0  0  0  0  0  0  0  0
   13.2756   37.7298   34.7940 C   0  0  0  0  0  0  0  0  0  0  0  0
   15.6242   35.7580   33.1861 N   0  0  0  0  0  0  0  0  0  0  0  0
   14.8727   36.4407   35.3331 C   0  0  0  0  0  0  0  0  0  0  0  0
   13.9210   37.2262   35.8808 N   0  0  0  0  0  0  0  0  0  0  0  0
   16.5872   34.9920   33.7803 C   0  0  0  0  0  0  0  0  0  0  0  0
   15.8577   35.6715   35.9444 C   0  0  0  0  0  0  0  0  0  0  0  0
   16.7026   34.9582   35.1440 N   0  0  0  0  0  0  0  0  0  0  0  0
   16.0101   35.6382   37.3564 N   0  0  0  0  0  0  0  0  0  0  0  0
    7.6768   44.0714   34.0502 H   0  0  0  0  0  0  0  0  0  0  0  0
   10.3189   45.4419   34.0994 H   0  0  0  0  0  0  0  0  0  0  0  0
    9.1830   45.3826   35.3536 H   0  0  0  0  0  0  0  0  0  0  0  0
    9.9709   44.0691   31.9741 H   0  0  0  0  0  0  0  0  0  0  0  0
    8.4814   43.0861   31.8666 H   0  0  0  0  0  0  0  0  0  0  0  0
    8.5403   45.1396   30.4035 H   0  0  0  0  0  0  0  0  0  0  0  0
    8.5533   46.1523   31.8770 H   0  0  0  0  0  0  0  0  0  0  0  0
    6.2999   45.0636   32.5305 H   0  0  0  0  0  0  0  0  0  0  0  0
    6.3314   44.1799   30.9646 H   0  0  0  0  0  0  0  0  0  0  0  0
    6.2525   46.2911   29.7190 H   0  0  0  0  0  0  0  0  0  0  0  0
    4.9237   46.2646   30.9164 H   0  0  0  0  0  0  0  0  0  0  0  0
    6.2586   47.7288   32.4212 H   0  0  0  0  0  0  0  0  0  0  0  0
    6.3306   50.1573   32.7923 H   0  0  0  0  0  0  0  0  0  0  0  0
    7.8033   49.2868   33.3247 H   0  0  0  0  0  0  0  0  0  0  0  0
    6.2749   52.5223   32.6867 H   0  0  0  0  0  0  0  0  0  0  0  0
    7.2842   54.6878   33.2630 H   0  0  0  0  0  0  0  0  0  0  0  0
   11.0764   52.8089   33.8872 H   0  0  0  0  0  0  0  0  0  0  0  0
    9.6765   54.8286   33.8751 H   0  0  0  0  0  0  0  0  0  0  0  0
   11.2112   41.0320   31.8753 H   0  0  0  0  0  0  0  0  0  0  0  0
    9.7422   40.0118   31.9266 H   0  0  0  0  0  0  0  0  0  0  0  0
   11.6005   39.0119   30.5904 H   0  0  0  0  0  0  0  0  0  0  0  0
   10.7015   37.5593   33.1701 H   0  0  0  0  0  0  0  0  0  0  0  0
   14.2012   37.4438   31.5551 H   0  0  0  0  0  0  0  0  0  0  0  0
    9.5289   36.3869   31.6895 H   0  0  0  0  0  0  0  0  0  0  0  0
   12.1244   35.7693   32.5633 H   0  0  0  0  0  0  0  0  0  0  0  0
   12.9478   35.5427   30.5202 H   0  0  0  0  0  0  0  0  0  0  0  0
   12.4328   38.3993   34.8697 H   0  0  0  0  0  0  0  0  0  0  0  0
   17.2667   34.4140   33.1692 H   0  0  0  0  0  0  0  0  0  0  0  0
   16.7636   35.0598   37.7897 H   0  0  0  0  0  0  0  0  0  0  0  0
   15.3759   36.1865   37.9791 H   0  0  0  0  0  0  0  0  0  0  0  0
  1  2  2  0
  1  3  1  0
  3  4  1  0
  4  5  1  0
  6  1  1  0
  7  6  1  0
  6  8  1  0
  8  9  1  0
  9 10  1  0
 10 11  1  0
 11 12  1  0
 12 13  1  0
 13 14  1  0
 13 15  2  0
 14 16  1  0
 16 17  1  0
 17 18  2  0
 19 17  1  0
 18 20  1  0
 21 19  2  0
 19 22  1  0
 20 23  2  0
 23 21  1  0
 22 24  1  0
 22 25  2  0
  4 26  2  0
  4 27  1  0
 28 27  1  0
 28 29  1  0
 29 30  1  0
 29 31  1  0
 30 32  1  0
 31 33  1  0
 31 34  1  0
 34 32  1  0
 32 35  1  0
 34 36  1  0
 37 35  1  0
 38 35  1  0
 39 37  2  0
 37 40  1  0
 41 38  2  0
 42 39  1  0
 40 43  2  0
 40 41  1  0
 44 42  2  0
 44 43  1  0
 43 45  1  0
  6 46  1  6
  7 47  1  0
  7 48  1  0
  8 49  1  0
  8 50  1  0
  9 51  1  0
  9 52  1  0
 10 53  1  0
 10 54  1  0
 11 55  1  0
 11 56  1  0
 12 57  1  0
 16 58  1  0
 16 59  1  0
 18 60  1  0
 20 61  1  0
 21 62  1  0
 23 63  1  0
 28 64  1  0
 28 65  1  0
 29 66  1  0
 31 67  1  0
 32 68  1  0
 33 69  1  0
 34 70  1  0
 36 71  1  0
 38 72  1  0
 42 73  1  0
 45 74  1  0
 45 75  1  0
M  CHG  3   5  -1  22   1  24  -1
M  END
>  <EmbedRMS>  (55) 
0.0746178901926

$$$$

     RDKit          3D

 75 78  0  0  0  0  0  0  0  0999 V2000
    9.4329   42.9368   34.3466 C   0  0  0  0  0  0  0  0  0  0  0  0
   10.4906   43.0334   35.0319 O   0  0  0  0  0  0  0  0  0  0  0  0
    8.8558   41.7106   34.0307 O   0  0  0  0  0  0  0  0  0  0  0  0
    9.4931   40.2144   34.4709 P   0  0  0  0  0  0  0  0  0  0  0  0
    9.7288   40.1730   36.1318 O   0  0  0  0  0  0  0  0  0  0  0  0
    8.7502   44.1350   33.7741 C   0  0  1  0  0  0  0  0  0  0  0  0
    9.2956   45.3824   34.3132 N   0  0  0  0  0  0  0  0  0  0  0  0
    8.8891   44.0525   32.2359 C   0  0  0  0  0  0  0  0  0  0  0  0
    8.2031   45.1822   31.4613 C   0  0  0  0  0  0  0  0  0  0  0  0
    6.6656   45.1032   31.4819 C   0  0  0  0  0  0  0  0  0  0  0  0
    6.0281   46.3239   30.8102 C   0  0  0  0  0  0  0  0  0  0  0  0
    6.5100   47.5618   31.4225 N   0  0  0  0  0  0  0  0  0  0  0  0
    7.2431   48.5447   30.6814 C   0  0  0  0  0  0  0  0  0  0  0  0
    7.6094   49.7729   31.2497 O   0  0  0  0  0  0  0  0  0  0  0  0
    7.5904   48.3072   29.4952 O   0  0  0  0  0  0  0  0  0  0  0  0
    7.2780   50.1866   32.5751 C   0  0  0  0  0  0  0  0  0  0  0  0
    5.7953   50.4604   32.7014 C   0  0  0  0  0  0  0  0  0  0  0  0
    5.1747   51.2502   31.7164 C   0  0  0  0  0  0  0  0  0  0  0  0
    5.0083   49.9237   33.7532 C   0  0  0  0  0  0  0  0  0  0  0  0
    3.7957   51.4643   31.7391 C   0  0  0  0  0  0  0  0  0  0  0  0
    3.6182   50.1334   33.7481 C   0  0  0  0  0  0  0  0  0  0  0  0
    5.5993   49.1935   34.8391 N   0  0  0  0  0  0  0  0  0  0  0  0
    3.0174   50.8978   32.7470 C   0  0  0  0  0  0  0  0  0  0  0  0
    6.6771   49.7183   35.5142 O   0  0  0  0  0  0  0  0  0  0  0  0
    5.0096   48.2039   35.3201 O   0  0  0  0  0  0  0  0  0  0  0  0
    8.5366   39.1386   34.0140 O   0  0  0  0  0  0  0  0  0  0  0  0
   10.9794   40.0875   33.6890 O   0  0  0  0  0  0  0  0  0  0  0  0
   10.8017   40.0947   32.2902 C   0  0  0  0  0  0  0  0  0  0  0  0
   11.5885   38.9266   31.7041 C   0  0  0  0  0  0  0  0  0  0  0  0
   12.9237   38.9445   32.1721 O   0  0  0  0  0  0  0  0  0  0  0  0
   11.0029   37.5726   32.0908 C   0  0  0  0  0  0  0  0  0  0  0  0
   13.3555   37.5960   32.2595 C   0  0  0  0  0  0  0  0  0  0  0  0
    9.9380   37.1846   31.2656 O   0  0  0  0  0  0  0  0  0  0  0  0
   12.1932   36.6769   31.8952 C   0  0  0  0  0  0  0  0  0  0  0  0
   13.8028   37.2977   33.6186 N   0  0  0  0  0  0  0  0  0  0  0  0
   12.2918   36.2396   30.5587 O   0  0  0  0  0  0  0  0  0  0  0  0
   14.7926   36.4727   33.9858 C   0  0  0  0  0  0  0  0  0  0  0  0
   13.2750   37.7302   34.7935 C   0  0  0  0  0  0  0  0  0  0  0  0
   15.6241   35.7586   33.1857 N   0  0  0  0  0  0  0  0  0  0  0  0
   14.8721   36.4408   35.3326 C   0  0  0  0  0  0  0  0  0  0  0  0
   13.9204   37.2263   35.8802 N   0  0  0  0  0  0  0  0  0  0  0  0
   16.5870   34.9924   33.7800 C   0  0  0  0  0  0  0  0  0  0  0  0
   15.8572   35.6717   35.9441 C   0  0  0  0  0  0  0  0  0  0  0  0
   16.7022   34.9585   35.1437 N   0  0  0  0  0  0  0  0  0  0  0  0
   16.0098   35.6384   37.3561 N   0  0  0  0  0  0  0  0  0  0  0  0
    7.6765   44.0710   34.0501 H   0  0  0  0  0  0  0  0  0  0  0  0
    9.1809   45.3832   35.3532 H   0  0  0  0  0  0  0  0  0  0  0  0
   10.3187   45.4409   34.1008 H   0  0  0  0  0  0  0  0  0  0  0  0
    8.4814   43.0849   31.8670 H   0  0  0  0  0  0  0  0  0  0  0  0
    9.9710   44.0677   31.9743 H   0  0  0  0  0  0  0  0  0  0  0  0
    8.5543   46.1506   31.8758 H   0  0  0  0  0  0  0  0  0  0  0  0
    8.5409   45.1375   30.4027 H   0  0  0  0  0  0  0  0  0  0  0  0
    6.3002   45.0586   32.5289 H   0  0  0  0  0  0  0  0  0  0  0  0
    6.3314   44.1804   30.9600 H   0  0  0  0  0  0  0  0  0  0  0  0
    6.2449   46.2939   29.7210 H   0  0  0  0  0  0  0  0  0  0  0  0
    4.9248   46.2698   30.9288 H   0  0  0  0  0  0  0  0  0  0  0  0
    6.3026   47.7087   32.4337 H   0  0  0  0  0  0  0  0  0  0  0  0
    7.6448   49.4233   33.2896 H   0  0  0  0  0  0  0  0  0  0  0  0
    7.8231   51.1291   32.7907 H   0  0  0  0  0  0  0  0  0  0  0  0
    5.7593   51.6853   30.9150 H   0  0  0  0  0  0  0  0  0  0  0  0
    3.3289   52.0642   30.9686 H   0  0  0  0  0  0  0  0  0  0  0  0
    3.0014   49.7245   34.5386 H   0  0  0  0  0  0  0  0  0  0  0  0
    1.9475   51.0614   32.7599 H   0  0  0  0  0  0  0  0  0  0  0  0
   11.2241   41.0427   31.8934 H   0  0  0  0  0  0  0  0  0  0  0  0
    9.7472   40.0378   31.9304 H   0  0  0  0  0  0  0  0  0  0  0  0
   11.5927   39.0434   30.5965 H   0  0  0  0  0  0  0  0  0  0  0  0
   10.7003   37.5442   33.1640 H   0  0  0  0  0  0  0  0  0  0  0  0
   14.2052   37.4477   31.5560 H   0  0  0  0  0  0  0  0  0  0  0  0
    9.1374   37.6722   31.5905 H   0  0  0  0  0  0  0  0  0  0  0  0
   12.1305   35.7855   32.5585 H   0  0  0  0  0  0  0  0  0  0  0  0
   12.4606   37.0186   29.9674 H   0  0  0  0  0  0  0  0  0  0  0  0
   12.4327   38.4001   34.8694 H   0  0  0  0  0  0  0  0  0  0  0  0
   17.2666   34.4146   33.1690 H   0  0  0  0  0  0  0  0  0  0  0  0
   16.7634   35.0601   37.7894 H   0  0  0  0  0  0  0  0  0  0  0  0
   15.3754   36.1866   37.9788 H   0  0  0  0  0  0  0  0  0  0  0  0
  1  2  2  0
  1  3  1  0
  3  4  1  0
  4  5  1  0
  6  1  1  0
  7  6  1  0
  6  8  1  0
  8  9  1  0
  9 10  1  0
 10 11  1  0
 11 12  1  0
 12 13  1  0
 13 14  1  0
 13 15  2  0
 14 16  1  0
 16 17  1  0
 17 18  2  0
 19 17  1  0
 18 20  1  0
 21 19  2  0
 19 22  1  0
 20 23  2  0
 23 21  1  0
 22 24  1  0
 22 25  2  0
  4 26  2  0
  4 27  1  0
 28 27  1  0
 28 29  1  0
 29 30  1  0
 29 31  1  0
 30 32  1  0
 31 33  1  0
 31 34  1  0
 34 32  1  0
 32 35  1  0
 34 36  1  0
 37 35  1  0
 38 35  1  0
 39 37  2  0
 37 40  1  0
 41 38  2  0
 42 39  1  0
 40 43  2  0
 40 41  1  0
 44 42  2  0
 44 43  1  0
 43 45  1  0
  6 46  1  6
  7 47  1  0
  7 48  1  0
  8 49  1  0
  8 50  1  0
  9 51  1  0
  9 52  1  0
 10 53  1  0
 10 54  1  0
 11 55  1  0
 11 56  1  0
 12 57  1  0
 16 58  1  0
 16 59  1  0
 18 60  1  0
 20 61  1  0
 21 62  1  0
 23 63  1  0
 28 64  1  0
 28 65  1  0
 29 66  1  0
 31 67  1  0
 32 68  1  0
 33 69  1  0
 34 70  1  0
 36 71  1  0
 38 72  1  0
 42 73  1  0
 45 74  1  0
 45 75  1  0
M  CHG  3   5  -1  22   1  24  -1
M  END
>  <EmbedRMS>  (56) 
0.0755403831201

$$$$

     RDKit          3D

 75 78  0  0  0  0  0  0  0  0999 V2000
    9.4312   42.9411   34.3439 C   0  0  0  0  0  0  0  0  0  0  0  0
   10.4886   43.0410   35.0294 O   0  0  0  0  0  0  0  0  0  0  0  0
    8.8558   41.7129   34.0296 O   0  0  0  0  0  0  0  0  0  0  0  0
    9.4933   40.2162   34.4702 P   0  0  0  0  0  0  0  0  0  0  0  0
    9.7295   40.1743   36.1311 O   0  0  0  0  0  0  0  0  0  0  0  0
    8.7484   44.1360   33.7722 C   0  0  1  0  0  0  0  0  0  0  0  0
    9.3039   45.3666   34.3388 N   0  0  0  0  0  0  0  0  0  0  0  0
    8.8892   44.0519   32.2309 C   0  0  0  0  0  0  0  0  0  0  0  0
    8.2014   45.1722   31.4437 C   0  0  0  0  0  0  0  0  0  0  0  0
    6.6642   45.1065   31.4887 C   0  0  0  0  0  0  0  0  0  0  0  0
    6.0263   46.3233   30.8118 C   0  0  0  0  0  0  0  0  0  0  0  0
    6.5070   47.5645   31.4185 N   0  0  0  0  0  0  0  0  0  0  0  0
    7.2455   48.5386   30.6839 C   0  0  0  0  0  0  0  0  0  0  0  0
    7.6030   49.7360   31.3091 O   0  0  0  0  0  0  0  0  0  0  0  0
    7.5925   48.3118   29.4931 O   0  0  0  0  0  0  0  0  0  0  0  0
    8.3610   50.7506   30.6559 C   0  0  0  0  0  0  0  0  0  0  0  0
    8.6387   51.8770   31.6218 C   0  0  0  0  0  0  0  0  0  0  0  0
    9.1908   51.5554   32.8755 C   0  0  0  0  0  0  0  0  0  0  0  0
    8.3377   53.2336   31.3278 C   0  0  0  0  0  0  0  0  0  0  0  0
    9.3967   52.5440   33.8389 C   0  0  0  0  0  0  0  0  0  0  0  0
    8.5321   54.2112   32.3185 C   0  0  0  0  0  0  0  0  0  0  0  0
    7.8667   53.6441   30.0352 N   0  0  0  0  0  0  0  0  0  0  0  0
    9.0578   53.8677   33.5648 C   0  0  0  0  0  0  0  0  0  0  0  0
    6.9312   54.6482   29.9371 O   0  0  0  0  0  0  0  0  0  0  0  0
    8.4754   53.2860   29.0059 O   0  0  0  0  0  0  0  0  0  0  0  0
    8.5368   39.1400   34.0139 O   0  0  0  0  0  0  0  0  0  0  0  0
   10.9789   40.0874   33.6872 O   0  0  0  0  0  0  0  0  0  0  0  0
   10.7993   40.0946   32.2884 C   0  0  0  0  0  0  0  0  0  0  0  0
   11.5957   38.9352   31.6994 C   0  0  0  0  0  0  0  0  0  0  0  0
   12.9257   38.9478   32.1798 O   0  0  0  0  0  0  0  0  0  0  0  0
   11.0070   37.5758   32.0732 C   0  0  0  0  0  0  0  0  0  0  0  0
   13.3571   37.5980   32.2612 C   0  0  0  0  0  0  0  0  0  0  0  0
    9.9093   37.1808   31.2875 O   0  0  0  0  0  0  0  0  0  0  0  0
   12.1967   36.6764   31.8894 C   0  0  0  0  0  0  0  0  0  0  0  0
   13.8018   37.2956   33.6197 N   0  0  0  0  0  0  0  0  0  0  0  0
   12.3048   36.2360   30.5555 O   0  0  0  0  0  0  0  0  0  0  0  0
   14.7922   36.4716   33.9864 C   0  0  0  0  0  0  0  0  0  0  0  0
   13.2747   37.7291   34.7944 C   0  0  0  0  0  0  0  0  0  0  0  0
   15.6240   35.7581   33.1861 N   0  0  0  0  0  0  0  0  0  0  0  0
   14.8721   36.4401   35.3331 C   0  0  0  0  0  0  0  0  0  0  0  0
   13.9206   37.2257   35.8810 N   0  0  0  0  0  0  0  0  0  0  0  0
   16.5873   34.9924   33.7802 C   0  0  0  0  0  0  0  0  0  0  0  0
   15.8576   35.6714   35.9444 C   0  0  0  0  0  0  0  0  0  0  0  0
   16.7026   34.9585   35.1439 N   0  0  0  0  0  0  0  0  0  0  0  0
   16.0102   35.6383   37.3564 N   0  0  0  0  0  0  0  0  0  0  0  0
    7.6764   44.0636   34.0548 H   0  0  0  0  0  0  0  0  0  0  0  0
    8.6469   46.1560   34.1432 H   0  0  0  0  0  0  0  0  0  0  0  0
   10.2152   45.5881   33.8747 H   0  0  0  0  0  0  0  0  0  0  0  0
    8.4831   43.0818   31.8667 H   0  0  0  0  0  0  0  0  0  0  0  0
    9.9708   44.0644   31.9680 H   0  0  0  0  0  0  0  0  0  0  0  0
    8.5711   46.1489   31.8176 H   0  0  0  0  0  0  0  0  0  0  0  0
    8.5199   45.0961   30.3809 H   0  0  0  0  0  0  0  0  0  0  0  0
    6.3140   45.0785   32.5413 H   0  0  0  0  0  0  0  0  0  0  0  0
    6.3149   44.1798   30.9838 H   0  0  0  0  0  0  0  0  0  0  0  0
    4.9230   46.2690   30.9291 H   0  0  0  0  0  0  0  0  0  0  0  0
    6.2450   46.2893   29.7229 H   0  0  0  0  0  0  0  0  0  0  0  0
    6.2856   47.7529   32.4221 H   0  0  0  0  0  0  0  0  0  0  0  0
    7.7917   51.0894   29.7680 H   0  0  0  0  0  0  0  0  0  0  0  0
    9.3306   50.3271   30.3151 H   0  0  0  0  0  0  0  0  0  0  0  0
    9.4459   50.5299   33.1144 H   0  0  0  0  0  0  0  0  0  0  0  0
    9.8125   52.2812   34.8031 H   0  0  0  0  0  0  0  0  0  0  0  0
    8.3014   55.2491   32.1139 H   0  0  0  0  0  0  0  0  0  0  0  0
    9.2139   54.6320   34.3152 H   0  0  0  0  0  0  0  0  0  0  0  0
   11.2092   41.0481   31.8916 H   0  0  0  0  0  0  0  0  0  0  0  0
    9.7448   40.0200   31.9304 H   0  0  0  0  0  0  0  0  0  0  0  0
   11.6207   39.0685   30.5942 H   0  0  0  0  0  0  0  0  0  0  0  0
   10.7059   37.5564   33.1439 H   0  0  0  0  0  0  0  0  0  0  0  0
   14.2095   37.4543   31.5601 H   0  0  0  0  0  0  0  0  0  0  0  0
   10.0864   37.4210   30.3413 H   0  0  0  0  0  0  0  0  0  0  0  0
   12.1275   35.7872   32.5550 H   0  0  0  0  0  0  0  0  0  0  0  0
   12.5031   37.0109   29.9673 H   0  0  0  0  0  0  0  0  0  0  0  0
   12.4328   38.3996   34.8703 H   0  0  0  0  0  0  0  0  0  0  0  0
   17.2670   34.4149   33.1690 H   0  0  0  0  0  0  0  0  0  0  0  0
   15.3758   36.1862   37.9792 H   0  0  0  0  0  0  0  0  0  0  0  0
   16.7640   35.0601   37.7896 H   0  0  0  0  0  0  0  0  0  0  0  0
  1  2  2  0
  1  3  1  0
  3  4  1  0
  4  5  1  0
  6  1  1  0
  7  6  1  0
  6  8  1  0
  8  9  1  0
  9 10  1  0
 10 11  1  0
 11 12  1  0
 12 13  1  0
 13 14  1  0
 13 15  2  0
 14 16  1  0
 16 17  1  0
 17 18  2  0
 19 17  1  0
 18 20  1  0
 21 19  2  0
 19 22  1  0
 20 23  2  0
 23 21  1  0
 22 24  1  0
 22 25  2  0
  4 26  2  0
  4 27  1  0
 28 27  1  0
 28 29  1  0
 29 30  1  0
 29 31  1  0
 30 32  1  0
 31 33  1  0
 31 34  1  0
 34 32  1  0
 32 35  1  0
 34 36  1  0
 37 35  1  0
 38 35  1  0
 39 37  2  0
 37 40  1  0
 41 38  2  0
 42 39  1  0
 40 43  2  0
 40 41  1  0
 44 42  2  0
 44 43  1  0
 43 45  1  0
  6 46  1  6
  7 47  1  0
  7 48  1  0
  8 49  1  0
  8 50  1  0
  9 51  1  0
  9 52  1  0
 10 53  1  0
 10 54  1  0
 11 55  1  0
 11 56  1  0
 12 57  1  0
 16 58  1  0
 16 59  1  0
 18 60  1  0
 20 61  1  0
 21 62  1  0
 23 63  1  0
 28 64  1  0
 28 65  1  0
 29 66  1  0
 31 67  1  0
 32 68  1  0
 33 69  1  0
 34 70  1  0
 36 71  1  0
 38 72  1  0
 42 73  1  0
 45 74  1  0
 45 75  1  0
M  CHG  3   5  -1  22   1  24  -1
M  END
>  <EmbedRMS>  (57) 
0.0754033239085

$$$$

     RDKit          3D

 75 78  0  0  0  0  0  0  0  0999 V2000
    9.4332   42.9366   34.3461 C   0  0  0  0  0  0  0  0  0  0  0  0
   10.4906   43.0331   35.0318 O   0  0  0  0  0  0  0  0  0  0  0  0
    8.8563   41.7104   34.0295 O   0  0  0  0  0  0  0  0  0  0  0  0
    9.4943   40.2140   34.4678 P   0  0  0  0  0  0  0  0  0  0  0  0
    9.7310   40.1724   36.1290 O   0  0  0  0  0  0  0  0  0  0  0  0
    8.7505   44.1349   33.7741 C   0  0  1  0  0  0  0  0  0  0  0  0
    9.2961   45.3822   34.3134 N   0  0  0  0  0  0  0  0  0  0  0  0
    8.8892   44.0529   32.2359 C   0  0  0  0  0  0  0  0  0  0  0  0
    8.2030   45.1829   31.4618 C   0  0  0  0  0  0  0  0  0  0  0  0
    6.6656   45.1042   31.4832 C   0  0  0  0  0  0  0  0  0  0  0  0
    6.0282   46.3232   30.8086 C   0  0  0  0  0  0  0  0  0  0  0  0
    6.5049   47.5634   31.4211 N   0  0  0  0  0  0  0  0  0  0  0  0
    7.2486   48.5412   30.6836 C   0  0  0  0  0  0  0  0  0  0  0  0
    7.6348   49.7561   31.2618 O   0  0  0  0  0  0  0  0  0  0  0  0
    7.5887   48.3084   29.4943 O   0  0  0  0  0  0  0  0  0  0  0  0
    7.3400   50.1272   32.6044 C   0  0  0  0  0  0  0  0  0  0  0  0
    7.8987   51.4991   32.8784 C   0  0  0  0  0  0  0  0  0  0  0  0
    9.1507   51.5994   33.5121 C   0  0  0  0  0  0  0  0  0  0  0  0
    7.1926   52.6853   32.5430 C   0  0  0  0  0  0  0  0  0  0  0  0
    9.6900   52.8462   33.8306 C   0  0  0  0  0  0  0  0  0  0  0  0
    7.7480   53.9317   32.8878 C   0  0  0  0  0  0  0  0  0  0  0  0
    5.9202   52.6482   31.8705 N   0  0  0  0  0  0  0  0  0  0  0  0
    8.9876   54.0098   33.5240 C   0  0  0  0  0  0  0  0  0  0  0  0
    5.6851   51.7435   30.8616 O   0  0  0  0  0  0  0  0  0  0  0  0
    5.0758   53.5437   32.0801 O   0  0  0  0  0  0  0  0  0  0  0  0
    8.5372   39.1383   34.0121 O   0  0  0  0  0  0  0  0  0  0  0  0
   10.9798   40.0871   33.6829 O   0  0  0  0  0  0  0  0  0  0  0  0
   10.8002   40.0905   32.2832 C   0  0  0  0  0  0  0  0  0  0  0  0
   11.5958   38.9271   31.6963 C   0  0  0  0  0  0  0  0  0  0  0  0
   12.9239   38.9409   32.1766 O   0  0  0  0  0  0  0  0  0  0  0  0
   11.0062   37.5719   32.0793 C   0  0  0  0  0  0  0  0  0  0  0  0
   13.3507   37.5905   32.2614 C   0  0  0  0  0  0  0  0  0  0  0  0
    9.9064   37.1793   31.2946 O   0  0  0  0  0  0  0  0  0  0  0  0
   12.1920   36.6671   31.9003 C   0  0  0  0  0  0  0  0  0  0  0  0
   13.8017   37.2948   33.6193 N   0  0  0  0  0  0  0  0  0  0  0  0
   12.3134   36.2787   30.5560 O   0  0  0  0  0  0  0  0  0  0  0  0
   14.7927   36.4716   33.9861 C   0  0  0  0  0  0  0  0  0  0  0  0
   13.2746   37.7284   34.7941 C   0  0  0  0  0  0  0  0  0  0  0  0
   15.6240   35.7576   33.1859 N   0  0  0  0  0  0  0  0  0  0  0  0
   14.8728   36.4406   35.3330 C   0  0  0  0  0  0  0  0  0  0  0  0
   13.9209   37.2258   35.8808 N   0  0  0  0  0  0  0  0  0  0  0  0
   16.5874   34.9920   33.7802 C   0  0  0  0  0  0  0  0  0  0  0  0
   15.8579   35.6716   35.9443 C   0  0  0  0  0  0  0  0  0  0  0  0
   16.7028   34.9584   35.1439 N   0  0  0  0  0  0  0  0  0  0  0  0
   16.0103   35.6383   37.3563 N   0  0  0  0  0  0  0  0  0  0  0  0
    7.6768   44.0709   34.0502 H   0  0  0  0  0  0  0  0  0  0  0  0
    9.1823   45.3824   35.3535 H   0  0  0  0  0  0  0  0  0  0  0  0
   10.3190   45.4409   34.1001 H   0  0  0  0  0  0  0  0  0  0  0  0
    9.9711   44.0682   31.9741 H   0  0  0  0  0  0  0  0  0  0  0  0
    8.4815   43.0854   31.8667 H   0  0  0  0  0  0  0  0  0  0  0  0
    8.5403   45.1382   30.4030 H   0  0  0  0  0  0  0  0  0  0  0  0
    8.5541   46.1514   31.8761 H   0  0  0  0  0  0  0  0  0  0  0  0
    6.3313   44.1802   30.9633 H   0  0  0  0  0  0  0  0  0  0  0  0
    6.3005   45.0618   32.5304 H   0  0  0  0  0  0  0  0  0  0  0  0
    6.2499   46.2922   29.7203 H   0  0  0  0  0  0  0  0  0  0  0  0
    4.9245   46.2667   30.9216 H   0  0  0  0  0  0  0  0  0  0  0  0
    6.2732   47.7251   32.4258 H   0  0  0  0  0  0  0  0  0  0  0  0
    6.2430   50.1179   32.7806 H   0  0  0  0  0  0  0  0  0  0  0  0
    7.7931   49.3833   33.2963 H   0  0  0  0  0  0  0  0  0  0  0  0
    9.7103   50.7077   33.7676 H   0  0  0  0  0  0  0  0  0  0  0  0
   10.6528   52.9097   34.3211 H   0  0  0  0  0  0  0  0  0  0  0  0
    7.2260   54.8492   32.6468 H   0  0  0  0  0  0  0  0  0  0  0  0
    9.4065   54.9757   33.7754 H   0  0  0  0  0  0  0  0  0  0  0  0
   11.2116   41.0420   31.8834 H   0  0  0  0  0  0  0  0  0  0  0  0
    9.7455   40.0168   31.9263 H   0  0  0  0  0  0  0  0  0  0  0  0
   11.6245   39.0449   30.5888 H   0  0  0  0  0  0  0  0  0  0  0  0
   10.7051   37.5579   33.1500 H   0  0  0  0  0  0  0  0  0  0  0  0
   14.1985   37.4426   31.5553 H   0  0  0  0  0  0  0  0  0  0  0  0
   10.0893   37.4056   30.3459 H   0  0  0  0  0  0  0  0  0  0  0  0
   12.1337   35.7754   32.5703 H   0  0  0  0  0  0  0  0  0  0  0  0
   11.7934   35.4394   30.4513 H   0  0  0  0  0  0  0  0  0  0  0  0
   12.4314   38.3972   34.8700 H   0  0  0  0  0  0  0  0  0  0  0  0
   17.2669   34.4142   33.1692 H   0  0  0  0  0  0  0  0  0  0  0  0
   15.3759   36.1865   37.9790 H   0  0  0  0  0  0  0  0  0  0  0  0
   16.7638   35.0599   37.7896 H   0  0  0  0  0  0  0  0  0  0  0  0
  1  2  2  0
  1  3  1  0
  3  4  1  0
  4  5  1  0
  6  1  1  0
  7  6  1  0
  6  8  1  0
  8  9  1  0
  9 10  1  0
 10 11  1  0
 11 12  1  0
 12 13  1  0
 13 14  1  0
 13 15  2  0
 14 16  1  0
 16 17  1  0
 17 18  2  0
 19 17  1  0
 18 20  1  0
 21 19  2  0
 19 22  1  0
 20 23  2  0
 23 21  1  0
 22 24  1  0
 22 25  2  0
  4 26  2  0
  4 27  1  0
 28 27  1  0
 28 29  1  0
 29 30  1  0
 29 31  1  0
 30 32  1  0
 31 33  1  0
 31 34  1  0
 34 32  1  0
 32 35  1  0
 34 36  1  0
 37 35  1  0
 38 35  1  0
 39 37  2  0
 37 40  1  0
 41 38  2  0
 42 39  1  0
 40 43  2  0
 40 41  1  0
 44 42  2  0
 44 43  1  0
 43 45  1  0
  6 46  1  6
  7 47  1  0
  7 48  1  0
  8 49  1  0
  8 50  1  0
  9 51  1  0
  9 52  1  0
 10 53  1  0
 10 54  1  0
 11 55  1  0
 11 56  1  0
 12 57  1  0
 16 58  1  0
 16 59  1  0
 18 60  1  0
 20 61  1  0
 21 62  1  0
 23 63  1  0
 28 64  1  0
 28 65  1  0
 29 66  1  0
 31 67  1  0
 32 68  1  0
 33 69  1  0
 34 70  1  0
 36 71  1  0
 38 72  1  0
 42 73  1  0
 45 74  1  0
 45 75  1  0
M  CHG  3   5  -1  22   1  24  -1
M  END
>  <EmbedRMS>  (58) 
0.0748642887826

$$$$

     RDKit          3D

 75 78  0  0  0  0  0  0  0  0999 V2000
    9.4311   42.9411   34.3438 C   0  0  0  0  0  0  0  0  0  0  0  0
   10.4885   43.0409   35.0293 O   0  0  0  0  0  0  0  0  0  0  0  0
    8.8558   41.7128   34.0292 O   0  0  0  0  0  0  0  0  0  0  0  0
    9.4946   40.2162   34.4676 P   0  0  0  0  0  0  0  0  0  0  0  0
    9.7319   40.1739   36.1286 O   0  0  0  0  0  0  0  0  0  0  0  0
    8.7483   44.1359   33.7721 C   0  0  1  0  0  0  0  0  0  0  0  0
    9.3039   45.3664   34.3388 N   0  0  0  0  0  0  0  0  0  0  0  0
    8.8892   44.0518   32.2308 C   0  0  0  0  0  0  0  0  0  0  0  0
    8.2015   45.1721   31.4435 C   0  0  0  0  0  0  0  0  0  0  0  0
    6.6642   45.1066   31.4886 C   0  0  0  0  0  0  0  0  0  0  0  0
    6.0267   46.3237   30.8123 C   0  0  0  0  0  0  0  0  0  0  0  0
    6.5083   47.5645   31.4190 N   0  0  0  0  0  0  0  0  0  0  0  0
    7.2423   48.5405   30.6826 C   0  0  0  0  0  0  0  0  0  0  0  0
    7.5853   49.7465   31.3030 O   0  0  0  0  0  0  0  0  0  0  0  0
    7.5940   48.3105   29.4938 O   0  0  0  0  0  0  0  0  0  0  0  0
    8.2928   50.7937   30.6411 C   0  0  0  0  0  0  0  0  0  0  0  0
    7.4278   51.4408   29.5832 C   0  0  0  0  0  0  0  0  0  0  0  0
    7.8916   51.4577   28.2547 C   0  0  0  0  0  0  0  0  0  0  0  0
    6.1477   51.9866   29.8780 C   0  0  0  0  0  0  0  0  0  0  0  0
    7.1061   51.9899   27.2320 C   0  0  0  0  0  0  0  0  0  0  0  0
    5.3671   52.5033   28.8283 C   0  0  0  0  0  0  0  0  0  0  0  0
    5.6122   52.0074   31.2144 N   0  0  0  0  0  0  0  0  0  0  0  0
    5.8449   52.5079   27.5175 C   0  0  0  0  0  0  0  0  0  0  0  0
    4.2511   51.9546   31.4093 O   0  0  0  0  0  0  0  0  0  0  0  0
    6.3487   52.2352   32.1956 O   0  0  0  0  0  0  0  0  0  0  0  0
    8.5375   39.1400   34.0125 O   0  0  0  0  0  0  0  0  0  0  0  0
   10.9796   40.0897   33.6814 O   0  0  0  0  0  0  0  0  0  0  0  0
   10.7982   40.0850   32.2818 C   0  0  0  0  0  0  0  0  0  0  0  0
   11.5886   38.9143   31.7009 C   0  0  0  0  0  0  0  0  0  0  0  0
   12.9213   38.9368   32.1699 O   0  0  0  0  0  0  0  0  0  0  0  0
   11.0047   37.5661   32.0991 C   0  0  0  0  0  0  0  0  0  0  0  0
   13.3510   37.5885   32.2602 C   0  0  0  0  0  0  0  0  0  0  0  0
    9.9296   37.1961   31.2780 O   0  0  0  0  0  0  0  0  0  0  0  0
   12.1923   36.6659   31.9047 C   0  0  0  0  0  0  0  0  0  0  0  0
   13.8033   37.2967   33.6188 N   0  0  0  0  0  0  0  0  0  0  0  0
   12.3006   36.2865   30.5562 O   0  0  0  0  0  0  0  0  0  0  0  0
   14.7933   36.4724   33.9860 C   0  0  0  0  0  0  0  0  0  0  0  0
   13.2753   37.7296   34.7935 C   0  0  0  0  0  0  0  0  0  0  0  0
   15.6243   35.7579   33.1860 N   0  0  0  0  0  0  0  0  0  0  0  0
   14.8728   36.4410   35.3328 C   0  0  0  0  0  0  0  0  0  0  0  0
   13.9209   37.2263   35.8804 N   0  0  0  0  0  0  0  0  0  0  0  0
   16.5873   34.9919   33.7803 C   0  0  0  0  0  0  0  0  0  0  0  0
   15.8577   35.6717   35.9443 C   0  0  0  0  0  0  0  0  0  0  0  0
   16.7025   34.9583   35.1440 N   0  0  0  0  0  0  0  0  0  0  0  0
   16.0100   35.6384   37.3563 N   0  0  0  0  0  0  0  0  0  0  0  0
    7.6763   44.0635   34.0547 H   0  0  0  0  0  0  0  0  0  0  0  0
    8.6469   46.1558   34.1431 H   0  0  0  0  0  0  0  0  0  0  0  0
   10.2152   45.5878   33.8748 H   0  0  0  0  0  0  0  0  0  0  0  0
    9.9708   44.0642   31.9679 H   0  0  0  0  0  0  0  0  0  0  0  0
    8.4830   43.0818   31.8666 H   0  0  0  0  0  0  0  0  0  0  0  0
    8.5714   46.1487   31.8173 H   0  0  0  0  0  0  0  0  0  0  0  0
    8.5198   45.0958   30.3807 H   0  0  0  0  0  0  0  0  0  0  0  0
    6.3147   44.1801   30.9835 H   0  0  0  0  0  0  0  0  0  0  0  0
    6.3141   45.0783   32.5413 H   0  0  0  0  0  0  0  0  0  0  0  0
    6.2448   46.2897   29.7232 H   0  0  0  0  0  0  0  0  0  0  0  0
    4.9234   46.2700   30.9301 H   0  0  0  0  0  0  0  0  0  0  0  0
    6.2849   47.7544   32.4218 H   0  0  0  0  0  0  0  0  0  0  0  0
    9.2331   50.3840   30.2106 H   0  0  0  0  0  0  0  0  0  0  0  0
    8.5977   51.5570   31.3856 H   0  0  0  0  0  0  0  0  0  0  0  0
    8.8620   51.0469   28.0045 H   0  0  0  0  0  0  0  0  0  0  0  0
    7.4739   51.9941   26.2140 H   0  0  0  0  0  0  0  0  0  0  0  0
    4.3879   52.9198   29.0278 H   0  0  0  0  0  0  0  0  0  0  0  0
    5.2358   52.9162   26.7213 H   0  0  0  0  0  0  0  0  0  0  0  0
   11.2130   41.0321   31.8752 H   0  0  0  0  0  0  0  0  0  0  0  0
    9.7426   40.0141   31.9266 H   0  0  0  0  0  0  0  0  0  0  0  0
   11.5980   39.0107   30.5905 H   0  0  0  0  0  0  0  0  0  0  0  0
   10.7008   37.5603   33.1721 H   0  0  0  0  0  0  0  0  0  0  0  0
   14.1976   37.4380   31.5532 H   0  0  0  0  0  0  0  0  0  0  0  0
    9.5180   36.3962   31.6978 H   0  0  0  0  0  0  0  0  0  0  0  0
   12.1418   35.7698   32.5692 H   0  0  0  0  0  0  0  0  0  0  0  0
   11.7729   35.4524   30.4489 H   0  0  0  0  0  0  0  0  0  0  0  0
   12.4321   38.3985   34.8692 H   0  0  0  0  0  0  0  0  0  0  0  0
   17.2667   34.4138   33.1694 H   0  0  0  0  0  0  0  0  0  0  0  0
   16.7634   35.0598   37.7897 H   0  0  0  0  0  0  0  0  0  0  0  0
   15.3757   36.1867   37.9790 H   0  0  0  0  0  0  0  0  0  0  0  0
  1  2  2  0
  1  3  1  0
  3  4  1  0
  4  5  1  0
  6  1  1  0
  7  6  1  0
  6  8  1  0
  8  9  1  0
  9 10  1  0
 10 11  1  0
 11 12  1  0
 12 13  1  0
 13 14  1  0
 13 15  2  0
 14 16  1  0
 16 17  1  0
 17 18  2  0
 19 17  1  0
 18 20  1  0
 21 19  2  0
 19 22  1  0
 20 23  2  0
 23 21  1  0
 22 24  1  0
 22 25  2  0
  4 26  2  0
  4 27  1  0
 28 27  1  0
 28 29  1  0
 29 30  1  0
 29 31  1  0
 30 32  1  0
 31 33  1  0
 31 34  1  0
 34 32  1  0
 32 35  1  0
 34 36  1  0
 37 35  1  0
 38 35  1  0
 39 37  2  0
 37 40  1  0
 41 38  2  0
 42 39  1  0
 40 43  2  0
 40 41  1  0
 44 42  2  0
 44 43  1  0
 43 45  1  0
  6 46  1  6
  7 47  1  0
  7 48  1  0
  8 49  1  0
  8 50  1  0
  9 51  1  0
  9 52  1  0
 10 53  1  0
 10 54  1  0
 11 55  1  0
 11 56  1  0
 12 57  1  0
 16 58  1  0
 16 59  1  0
 18 60  1  0
 20 61  1  0
 21 62  1  0
 23 63  1  0
 28 64  1  0
 28 65  1  0
 29 66  1  0
 31 67  1  0
 32 68  1  0
 33 69  1  0
 34 70  1  0
 36 71  1  0
 38 72  1  0
 42 73  1  0
 45 74  1  0
 45 75  1  0
M  CHG  3   5  -1  22   1  24  -1
M  END
>  <EmbedRMS>  (59) 
0.0735330124375

$$$$

     RDKit          3D

 75 78  0  0  0  0  0  0  0  0999 V2000
    9.4303   42.9397   34.3428 C   0  0  0  0  0  0  0  0  0  0  0  0
   10.4914   43.0383   35.0231 O   0  0  0  0  0  0  0  0  0  0  0  0
    8.8551   41.7118   34.0279 O   0  0  0  0  0  0  0  0  0  0  0  0
    9.4943   40.2158   34.4675 P   0  0  0  0  0  0  0  0  0  0  0  0
    9.7307   40.1742   36.1286 O   0  0  0  0  0  0  0  0  0  0  0  0
    8.7413   44.1380   33.7782 C   0  0  1  0  0  0  0  0  0  0  0  0
    9.3005   45.3721   34.3328 N   0  0  0  0  0  0  0  0  0  0  0  0
    8.8970   44.0614   32.2395 C   0  0  0  0  0  0  0  0  0  0  0  0
    8.2028   45.1718   31.4410 C   0  0  0  0  0  0  0  0  0  0  0  0
    6.6652   45.1076   31.4910 C   0  0  0  0  0  0  0  0  0  0  0  0
    6.0250   46.3219   30.8107 C   0  0  0  0  0  0  0  0  0  0  0  0
    6.5002   47.5655   31.4166 N   0  0  0  0  0  0  0  0  0  0  0  0
    7.2580   48.5298   30.6892 C   0  0  0  0  0  0  0  0  0  0  0  0
    7.6732   49.6982   31.3362 O   0  0  0  0  0  0  0  0  0  0  0  0
    7.5883   48.3108   29.4922 O   0  0  0  0  0  0  0  0  0  0  0  0
    8.5874   50.6275   30.7572 C   0  0  0  0  0  0  0  0  0  0  0  0
    9.9610   50.0087   30.6221 C   0  0  0  0  0  0  0  0  0  0  0  0
   10.5489   49.9535   29.3447 C   0  0  0  0  0  0  0  0  0  0  0  0
   10.6461   49.4297   31.7268 C   0  0  0  0  0  0  0  0  0  0  0  0
   11.7809   49.3277   29.1531 C   0  0  0  0  0  0  0  0  0  0  0  0
   11.8790   48.7896   31.5060 C   0  0  0  0  0  0  0  0  0  0  0  0
   10.1092   49.4565   33.0628 N   0  0  0  0  0  0  0  0  0  0  0  0
   12.4421   48.7427   30.2304 C   0  0  0  0  0  0  0  0  0  0  0  0
   10.4417   48.4642   33.9563 O   0  0  0  0  0  0  0  0  0  0  0  0
    9.4802   50.4499   33.4803 O   0  0  0  0  0  0  0  0  0  0  0  0
    8.5375   39.1395   34.0125 O   0  0  0  0  0  0  0  0  0  0  0  0
   10.9804   40.0888   33.6834 O   0  0  0  0  0  0  0  0  0  0  0  0
   10.8025   40.0902   32.2836 C   0  0  0  0  0  0  0  0  0  0  0  0
   11.5889   38.9174   31.7007 C   0  0  0  0  0  0  0  0  0  0  0  0
   12.9219   38.9373   32.1692 O   0  0  0  0  0  0  0  0  0  0  0  0
   11.0028   37.5683   32.0981 C   0  0  0  0  0  0  0  0  0  0  0  0
   13.3496   37.5885   32.2601 C   0  0  0  0  0  0  0  0  0  0  0  0
    9.9343   37.1823   31.2757 O   0  0  0  0  0  0  0  0  0  0  0  0
   12.1891   36.6677   31.9050 C   0  0  0  0  0  0  0  0  0  0  0  0
   13.8025   37.2965   33.6186 N   0  0  0  0  0  0  0  0  0  0  0  0
   12.2990   36.2867   30.5568 O   0  0  0  0  0  0  0  0  0  0  0  0
   14.7929   36.4725   33.9858 C   0  0  0  0  0  0  0  0  0  0  0  0
   13.2749   37.7295   34.7935 C   0  0  0  0  0  0  0  0  0  0  0  0
   15.6240   35.7580   33.1858 N   0  0  0  0  0  0  0  0  0  0  0  0
   14.8727   36.4411   35.3327 C   0  0  0  0  0  0  0  0  0  0  0  0
   13.9208   37.2263   35.8803 N   0  0  0  0  0  0  0  0  0  0  0  0
   16.5871   34.9921   33.7801 C   0  0  0  0  0  0  0  0  0  0  0  0
   15.8576   35.6718   35.9441 C   0  0  0  0  0  0  0  0  0  0  0  0
   16.7024   34.9584   35.1438 N   0  0  0  0  0  0  0  0  0  0  0  0
   16.0099   35.6384   37.3562 N   0  0  0  0  0  0  0  0  0  0  0  0
    7.6668   44.0647   34.0537 H   0  0  0  0  0  0  0  0  0  0  0  0
    8.6764   46.1654   34.0619 H   0  0  0  0  0  0  0  0  0  0  0  0
    9.2352   45.3263   35.3763 H   0  0  0  0  0  0  0  0  0  0  0  0
    9.9817   44.0943   31.9917 H   0  0  0  0  0  0  0  0  0  0  0  0
    8.5101   43.0862   31.8677 H   0  0  0  0  0  0  0  0  0  0  0  0
    8.5758   46.1546   31.7947 H   0  0  0  0  0  0  0  0  0  0  0  0
    8.5167   45.0810   30.3780 H   0  0  0  0  0  0  0  0  0  0  0  0
    6.3142   44.1784   30.9921 H   0  0  0  0  0  0  0  0  0  0  0  0
    6.3178   45.0853   32.5445 H   0  0  0  0  0  0  0  0  0  0  0  0
    4.9215   46.2645   30.9255 H   0  0  0  0  0  0  0  0  0  0  0  0
    6.2462   46.2868   29.7223 H   0  0  0  0  0  0  0  0  0  0  0  0
    6.2814   47.7520   32.4211 H   0  0  0  0  0  0  0  0  0  0  0  0
    8.6496   51.5295   31.3996 H   0  0  0  0  0  0  0  0  0  0  0  0
    8.1901   50.9675   29.7756 H   0  0  0  0  0  0  0  0  0  0  0  0
   10.0462   50.3844   28.4877 H   0  0  0  0  0  0  0  0  0  0  0  0
   12.2199   49.2892   28.1645 H   0  0  0  0  0  0  0  0  0  0  0  0
   12.4163   48.3364   32.3294 H   0  0  0  0  0  0  0  0  0  0  0  0
   13.3953   48.2531   30.0778 H   0  0  0  0  0  0  0  0  0  0  0  0
    9.7477   40.0332   31.9253 H   0  0  0  0  0  0  0  0  0  0  0  0
   11.2258   41.0358   31.8824 H   0  0  0  0  0  0  0  0  0  0  0  0
   11.5975   39.0147   30.5904 H   0  0  0  0  0  0  0  0  0  0  0  0
   10.7023   37.5457   33.1720 H   0  0  0  0  0  0  0  0  0  0  0  0
   14.1957   37.4366   31.5528 H   0  0  0  0  0  0  0  0  0  0  0  0
    9.1339   37.6659   31.6069 H   0  0  0  0  0  0  0  0  0  0  0  0
   12.1380   35.7717   32.5698 H   0  0  0  0  0  0  0  0  0  0  0  0
   11.7707   35.4530   30.4497 H   0  0  0  0  0  0  0  0  0  0  0  0
   12.4314   38.3981   34.8694 H   0  0  0  0  0  0  0  0  0  0  0  0
   17.2665   34.4140   33.1691 H   0  0  0  0  0  0  0  0  0  0  0  0
   15.3757   36.1868   37.9789 H   0  0  0  0  0  0  0  0  0  0  0  0
   16.7633   35.0598   37.7895 H   0  0  0  0  0  0  0  0  0  0  0  0
  1  2  2  0
  1  3  1  0
  3  4  1  0
  4  5  1  0
  6  1  1  0
  7  6  1  0
  6  8  1  0
  8  9  1  0
  9 10  1  0
 10 11  1  0
 11 12  1  0
 12 13  1  0
 13 14  1  0
 13 15  2  0
 14 16  1  0
 16 17  1  0
 17 18  2  0
 19 17  1  0
 18 20  1  0
 21 19  2  0
 19 22  1  0
 20 23  2  0
 23 21  1  0
 22 24  1  0
 22 25  2  0
  4 26  2  0
  4 27  1  0
 28 27  1  0
 28 29  1  0
 29 30  1  0
 29 31  1  0
 30 32  1  0
 31 33  1  0
 31 34  1  0
 34 32  1  0
 32 35  1  0
 34 36  1  0
 37 35  1  0
 38 35  1  0
 39 37  2  0
 37 40  1  0
 41 38  2  0
 42 39  1  0
 40 43  2  0
 40 41  1  0
 44 42  2  0
 44 43  1  0
 43 45  1  0
  6 46  1  6
  7 47  1  0
  7 48  1  0
  8 49  1  0
  8 50  1  0
  9 51  1  0
  9 52  1  0
 10 53  1  0
 10 54  1  0
 11 55  1  0
 11 56  1  0
 12 57  1  0
 16 58  1  0
 16 59  1  0
 18 60  1  0
 20 61  1  0
 21 62  1  0
 23 63  1  0
 28 64  1  0
 28 65  1  0
 29 66  1  0
 31 67  1  0
 32 68  1  0
 33 69  1  0
 34 70  1  0
 36 71  1  0
 38 72  1  0
 42 73  1  0
 45 74  1  0
 45 75  1  0
M  CHG  3   5  -1  22   1  24  -1
M  END
>  <EmbedRMS>  (60) 
0.0739631692557

$$$$

     RDKit          3D

 75 78  0  0  0  0  0  0  0  0999 V2000
    9.4332   42.9366   34.3464 C   0  0  0  0  0  0  0  0  0  0  0  0
   10.4908   43.0331   35.0319 O   0  0  0  0  0  0  0  0  0  0  0  0
    8.8559   41.7104   34.0306 O   0  0  0  0  0  0  0  0  0  0  0  0
    9.4931   40.2143   34.4709 P   0  0  0  0  0  0  0  0  0  0  0  0
    9.7288   40.1729   36.1318 O   0  0  0  0  0  0  0  0  0  0  0  0
    8.7506   44.1348   33.7741 C   0  0  1  0  0  0  0  0  0  0  0  0
    9.2963   45.3821   34.3132 N   0  0  0  0  0  0  0  0  0  0  0  0
    8.8893   44.0526   32.2358 C   0  0  0  0  0  0  0  0  0  0  0  0
    8.2029   45.1822   31.4613 C   0  0  0  0  0  0  0  0  0  0  0  0
    6.6654   45.1046   31.4854 C   0  0  0  0  0  0  0  0  0  0  0  0
    6.0272   46.3228   30.8107 C   0  0  0  0  0  0  0  0  0  0  0  0
    6.5069   47.5640   31.4183 N   0  0  0  0  0  0  0  0  0  0  0  0
    7.2416   48.5403   30.6829 C   0  0  0  0  0  0  0  0  0  0  0  0
    7.5839   49.7467   31.3034 O   0  0  0  0  0  0  0  0  0  0  0  0
    7.5944   48.3107   29.4942 O   0  0  0  0  0  0  0  0  0  0  0  0
    8.3053   50.7864   30.6442 C   0  0  0  0  0  0  0  0  0  0  0  0
    7.4432   51.4449   29.5908 C   0  0  0  0  0  0  0  0  0  0  0  0
    6.1710   51.9106   29.9693 C   0  0  0  0  0  0  0  0  0  0  0  0
    7.8486   51.5661   28.2366 C   0  0  0  0  0  0  0  0  0  0  0  0
    5.2981   52.4486   29.0224 C   0  0  0  0  0  0  0  0  0  0  0  0
    6.9487   52.0931   27.2936 C   0  0  0  0  0  0  0  0  0  0  0  0
    9.1663   51.1913   27.8080 N   0  0  0  0  0  0  0  0  0  0  0  0
    5.6826   52.5308   27.6852 C   0  0  0  0  0  0  0  0  0  0  0  0
   10.2679   51.6861   28.4673 O   0  0  0  0  0  0  0  0  0  0  0  0
    9.3262   50.6256   26.7068 O   0  0  0  0  0  0  0  0  0  0  0  0
    8.5366   39.1385   34.0140 O   0  0  0  0  0  0  0  0  0  0  0  0
   10.9795   40.0875   33.6890 O   0  0  0  0  0  0  0  0  0  0  0  0
   10.8017   40.0947   32.2902 C   0  0  0  0  0  0  0  0  0  0  0  0
   11.5885   38.9266   31.7041 C   0  0  0  0  0  0  0  0  0  0  0  0
   12.9237   38.9445   32.1721 O   0  0  0  0  0  0  0  0  0  0  0  0
   11.0029   37.5725   32.0908 C   0  0  0  0  0  0  0  0  0  0  0  0
   13.3555   37.5960   32.2594 C   0  0  0  0  0  0  0  0  0  0  0  0
    9.9380   37.1846   31.2656 O   0  0  0  0  0  0  0  0  0  0  0  0
   12.1932   36.6769   31.8952 C   0  0  0  0  0  0  0  0  0  0  0  0
   13.8028   37.2977   33.6186 N   0  0  0  0  0  0  0  0  0  0  0  0
   12.2918   36.2396   30.5587 O   0  0  0  0  0  0  0  0  0  0  0  0
   14.7926   36.4727   33.9858 C   0  0  0  0  0  0  0  0  0  0  0  0
   13.2750   37.7302   34.7935 C   0  0  0  0  0  0  0  0  0  0  0  0
   15.6241   35.7586   33.1857 N   0  0  0  0  0  0  0  0  0  0  0  0
   14.8721   36.4408   35.3326 C   0  0  0  0  0  0  0  0  0  0  0  0
   13.9204   37.2263   35.8802 N   0  0  0  0  0  0  0  0  0  0  0  0
   16.5870   34.9924   33.7800 C   0  0  0  0  0  0  0  0  0  0  0  0
   15.8572   35.6717   35.9441 C   0  0  0  0  0  0  0  0  0  0  0  0
   16.7022   34.9585   35.1437 N   0  0  0  0  0  0  0  0  0  0  0  0
   16.0098   35.6384   37.3561 N   0  0  0  0  0  0  0  0  0  0  0  0
    7.6770   44.0707   34.0504 H   0  0  0  0  0  0  0  0  0  0  0  0
   10.3192   45.4407   34.0999 H   0  0  0  0  0  0  0  0  0  0  0  0
    9.1827   45.3821   35.3534 H   0  0  0  0  0  0  0  0  0  0  0  0
    9.9711   44.0679   31.9739 H   0  0  0  0  0  0  0  0  0  0  0  0
    8.4816   43.0849   31.8669 H   0  0  0  0  0  0  0  0  0  0  0  0
    8.5385   45.1360   30.4021 H   0  0  0  0  0  0  0  0  0  0  0  0
    8.5554   46.1509   31.8739 H   0  0  0  0  0  0  0  0  0  0  0  0
    6.3021   45.0641   32.5332 H   0  0  0  0  0  0  0  0  0  0  0  0
    6.3296   44.1801   30.9675 H   0  0  0  0  0  0  0  0  0  0  0  0
    4.9238   46.2677   30.9269 H   0  0  0  0  0  0  0  0  0  0  0  0
    6.2464   46.2901   29.7218 H   0  0  0  0  0  0  0  0  0  0  0  0
    6.2818   47.7536   32.4208 H   0  0  0  0  0  0  0  0  0  0  0  0
    9.2421   50.3603   30.2339 H   0  0  0  0  0  0  0  0  0  0  0  0
    8.5876   51.5516   31.3973 H   0  0  0  0  0  0  0  0  0  0  0  0
    5.8466   51.8378   31.0003 H   0  0  0  0  0  0  0  0  0  0  0  0
    4.3182   52.7945   29.3252 H   0  0  0  0  0  0  0  0  0  0  0  0
    7.2399   52.1880   26.2550 H   0  0  0  0  0  0  0  0  0  0  0  0
    5.0025   52.9442   26.9517 H   0  0  0  0  0  0  0  0  0  0  0  0
   11.2242   41.0427   31.8934 H   0  0  0  0  0  0  0  0  0  0  0  0
    9.7472   40.0378   31.9304 H   0  0  0  0  0  0  0  0  0  0  0  0
   11.5927   39.0434   30.5965 H   0  0  0  0  0  0  0  0  0  0  0  0
   10.7003   37.5442   33.1640 H   0  0  0  0  0  0  0  0  0  0  0  0
   14.2052   37.4477   31.5560 H   0  0  0  0  0  0  0  0  0  0  0  0
    9.1374   37.6722   31.5905 H   0  0  0  0  0  0  0  0  0  0  0  0
   12.1305   35.7855   32.5585 H   0  0  0  0  0  0  0  0  0  0  0  0
   12.4606   37.0186   29.9674 H   0  0  0  0  0  0  0  0  0  0  0  0
   12.4327   38.4000   34.8694 H   0  0  0  0  0  0  0  0  0  0  0  0
   17.2666   34.4146   33.1690 H   0  0  0  0  0  0  0  0  0  0  0  0
   16.7634   35.0601   37.7894 H   0  0  0  0  0  0  0  0  0  0  0  0
   15.3754   36.1866   37.9788 H   0  0  0  0  0  0  0  0  0  0  0  0
  1  2  2  0
  1  3  1  0
  3  4  1  0
  4  5  1  0
  6  1  1  0
  7  6  1  0
  6  8  1  0
  8  9  1  0
  9 10  1  0
 10 11  1  0
 11 12  1  0
 12 13  1  0
 13 14  1  0
 13 15  2  0
 14 16  1  0
 16 17  1  0
 17 18  2  0
 19 17  1  0
 18 20  1  0
 21 19  2  0
 19 22  1  0
 20 23  2  0
 23 21  1  0
 22 24  1  0
 22 25  2  0
  4 26  2  0
  4 27  1  0
 28 27  1  0
 28 29  1  0
 29 30  1  0
 29 31  1  0
 30 32  1  0
 31 33  1  0
 31 34  1  0
 34 32  1  0
 32 35  1  0
 34 36  1  0
 37 35  1  0
 38 35  1  0
 39 37  2  0
 37 40  1  0
 41 38  2  0
 42 39  1  0
 40 43  2  0
 40 41  1  0
 44 42  2  0
 44 43  1  0
 43 45  1  0
  6 46  1  6
  7 47  1  0
  7 48  1  0
  8 49  1  0
  8 50  1  0
  9 51  1  0
  9 52  1  0
 10 53  1  0
 10 54  1  0
 11 55  1  0
 11 56  1  0
 12 57  1  0
 16 58  1  0
 16 59  1  0
 18 60  1  0
 20 61  1  0
 21 62  1  0
 23 63  1  0
 28 64  1  0
 28 65  1  0
 29 66  1  0
 31 67  1  0
 32 68  1  0
 33 69  1  0
 34 70  1  0
 36 71  1  0
 38 72  1  0
 42 73  1  0
 45 74  1  0
 45 75  1  0
M  CHG  3   5  -1  22   1  24  -1
M  END
>  <EmbedRMS>  (61) 
0.0756614246498

$$$$

     RDKit          3D

 75 78  0  0  0  0  0  0  0  0999 V2000
    9.4333   42.9367   34.3460 C   0  0  0  0  0  0  0  0  0  0  0  0
   10.4907   43.0331   35.0318 O   0  0  0  0  0  0  0  0  0  0  0  0
    8.8563   41.7105   34.0294 O   0  0  0  0  0  0  0  0  0  0  0  0
    9.4943   40.2140   34.4678 P   0  0  0  0  0  0  0  0  0  0  0  0
    9.7310   40.1725   36.1289 O   0  0  0  0  0  0  0  0  0  0  0  0
    8.7507   44.1351   33.7740 C   0  0  1  0  0  0  0  0  0  0  0  0
    9.2964   45.3824   34.3133 N   0  0  0  0  0  0  0  0  0  0  0  0
    8.8893   44.0533   32.2357 C   0  0  0  0  0  0  0  0  0  0  0  0
    8.2026   45.1831   31.4617 C   0  0  0  0  0  0  0  0  0  0  0  0
    6.6651   45.1047   31.4852 C   0  0  0  0  0  0  0  0  0  0  0  0
    6.0260   46.3222   30.8094 C   0  0  0  0  0  0  0  0  0  0  0  0
    6.5037   47.5640   31.4171 N   0  0  0  0  0  0  0  0  0  0  0  0
    7.2499   48.5353   30.6865 C   0  0  0  0  0  0  0  0  0  0  0  0
    7.6297   49.7200   31.3219 O   0  0  0  0  0  0  0  0  0  0  0  0
    7.5910   48.3129   29.4932 O   0  0  0  0  0  0  0  0  0  0  0  0
    8.4254   50.7140   30.6852 C   0  0  0  0  0  0  0  0  0  0  0  0
    8.7233   51.8208   31.6633 C   0  0  0  0  0  0  0  0  0  0  0  0
    7.9718   53.0075   31.5829 C   0  0  0  0  0  0  0  0  0  0  0  0
    9.7504   51.7132   32.6413 C   0  0  0  0  0  0  0  0  0  0  0  0
    8.2370   54.0779   32.4375 C   0  0  0  0  0  0  0  0  0  0  0  0
   10.0100   52.8112   33.4814 C   0  0  0  0  0  0  0  0  0  0  0  0
   10.5502   50.5242   32.7875 N   0  0  0  0  0  0  0  0  0  0  0  0
    9.2569   53.9817   33.3816 C   0  0  0  0  0  0  0  0  0  0  0  0
   11.8369   50.6175   33.2665 O   0  0  0  0  0  0  0  0  0  0  0  0
   10.0470   49.3915   32.6435 O   0  0  0  0  0  0  0  0  0  0  0  0
    8.5372   39.1383   34.0121 O   0  0  0  0  0  0  0  0  0  0  0  0
   10.9798   40.0871   33.6829 O   0  0  0  0  0  0  0  0  0  0  0  0
   10.8002   40.0905   32.2832 C   0  0  0  0  0  0  0  0  0  0  0  0
   11.5958   38.9271   31.6963 C   0  0  0  0  0  0  0  0  0  0  0  0
   12.9239   38.9409   32.1766 O   0  0  0  0  0  0  0  0  0  0  0  0
   11.0062   37.5719   32.0793 C   0  0  0  0  0  0  0  0  0  0  0  0
   13.3507   37.5905   32.2614 C   0  0  0  0  0  0  0  0  0  0  0  0
    9.9064   37.1792   31.2946 O   0  0  0  0  0  0  0  0  0  0  0  0
   12.1920   36.6671   31.9003 C   0  0  0  0  0  0  0  0  0  0  0  0
   13.8017   37.2948   33.6193 N   0  0  0  0  0  0  0  0  0  0  0  0
   12.3134   36.2787   30.5560 O   0  0  0  0  0  0  0  0  0  0  0  0
   14.7927   36.4716   33.9862 C   0  0  0  0  0  0  0  0  0  0  0  0
   13.2746   37.7284   34.7941 C   0  0  0  0  0  0  0  0  0  0  0  0
   15.6240   35.7576   33.1859 N   0  0  0  0  0  0  0  0  0  0  0  0
   14.8728   36.4406   35.3330 C   0  0  0  0  0  0  0  0  0  0  0  0
   13.9209   37.2258   35.8808 N   0  0  0  0  0  0  0  0  0  0  0  0
   16.5874   34.9920   33.7802 C   0  0  0  0  0  0  0  0  0  0  0  0
   15.8579   35.6716   35.9443 C   0  0  0  0  0  0  0  0  0  0  0  0
   16.7028   34.9584   35.1439 N   0  0  0  0  0  0  0  0  0  0  0  0
   16.0103   35.6383   37.3563 N   0  0  0  0  0  0  0  0  0  0  0  0
    7.6771   44.0710   34.0503 H   0  0  0  0  0  0  0  0  0  0  0  0
    9.1834   45.3821   35.3535 H   0  0  0  0  0  0  0  0  0  0  0  0
   10.3191   45.4415   34.0992 H   0  0  0  0  0  0  0  0  0  0  0  0
    9.9711   44.0690   31.9738 H   0  0  0  0  0  0  0  0  0  0  0  0
    8.4817   43.0857   31.8666 H   0  0  0  0  0  0  0  0  0  0  0  0
    8.5386   45.1378   30.4026 H   0  0  0  0  0  0  0  0  0  0  0  0
    8.5544   46.1519   31.8751 H   0  0  0  0  0  0  0  0  0  0  0  0
    6.3301   44.1797   30.9677 H   0  0  0  0  0  0  0  0  0  0  0  0
    6.3014   45.0645   32.5330 H   0  0  0  0  0  0  0  0  0  0  0  0
    6.2465   46.2895   29.7208 H   0  0  0  0  0  0  0  0  0  0  0  0
    4.9225   46.2659   30.9245 H   0  0  0  0  0  0  0  0  0  0  0  0
    6.2816   47.7511   32.4209 H   0  0  0  0  0  0  0  0  0  0  0  0
    9.3734   50.2729   30.3081 H   0  0  0  0  0  0  0  0  0  0  0  0
    7.8742   51.1073   29.8027 H   0  0  0  0  0  0  0  0  0  0  0  0
    7.1791   53.1082   30.8516 H   0  0  0  0  0  0  0  0  0  0  0  0
    7.6528   54.9862   32.3639 H   0  0  0  0  0  0  0  0  0  0  0  0
   10.7898   52.7557   34.2303 H   0  0  0  0  0  0  0  0  0  0  0  0
    9.4628   54.8151   34.0409 H   0  0  0  0  0  0  0  0  0  0  0  0
   11.2116   41.0420   31.8834 H   0  0  0  0  0  0  0  0  0  0  0  0
    9.7455   40.0168   31.9263 H   0  0  0  0  0  0  0  0  0  0  0  0
   11.6245   39.0449   30.5888 H   0  0  0  0  0  0  0  0  0  0  0  0
   10.7050   37.5580   33.1500 H   0  0  0  0  0  0  0  0  0  0  0  0
   14.1985   37.4426   31.5553 H   0  0  0  0  0  0  0  0  0  0  0  0
   10.0893   37.4057   30.3459 H   0  0  0  0  0  0  0  0  0  0  0  0
   12.1337   35.7754   32.5703 H   0  0  0  0  0  0  0  0  0  0  0  0
   11.7934   35.4394   30.4513 H   0  0  0  0  0  0  0  0  0  0  0  0
   12.4314   38.3973   34.8700 H   0  0  0  0  0  0  0  0  0  0  0  0
   17.2669   34.4142   33.1691 H   0  0  0  0  0  0  0  0  0  0  0  0
   15.3759   36.1865   37.9790 H   0  0  0  0  0  0  0  0  0  0  0  0
   16.7638   35.0599   37.7896 H   0  0  0  0  0  0  0  0  0  0  0  0
  1  2  2  0
  1  3  1  0
  3  4  1  0
  4  5  1  0
  6  1  1  0
  7  6  1  0
  6  8  1  0
  8  9  1  0
  9 10  1  0
 10 11  1  0
 11 12  1  0
 12 13  1  0
 13 14  1  0
 13 15  2  0
 14 16  1  0
 16 17  1  0
 17 18  2  0
 19 17  1  0
 18 20  1  0
 21 19  2  0
 19 22  1  0
 20 23  2  0
 23 21  1  0
 22 24  1  0
 22 25  2  0
  4 26  2  0
  4 27  1  0
 28 27  1  0
 28 29  1  0
 29 30  1  0
 29 31  1  0
 30 32  1  0
 31 33  1  0
 31 34  1  0
 34 32  1  0
 32 35  1  0
 34 36  1  0
 37 35  1  0
 38 35  1  0
 39 37  2  0
 37 40  1  0
 41 38  2  0
 42 39  1  0
 40 43  2  0
 40 41  1  0
 44 42  2  0
 44 43  1  0
 43 45  1  0
  6 46  1  6
  7 47  1  0
  7 48  1  0
  8 49  1  0
  8 50  1  0
  9 51  1  0
  9 52  1  0
 10 53  1  0
 10 54  1  0
 11 55  1  0
 11 56  1  0
 12 57  1  0
 16 58  1  0
 16 59  1  0
 18 60  1  0
 20 61  1  0
 21 62  1  0
 23 63  1  0
 28 64  1  0
 28 65  1  0
 29 66  1  0
 31 67  1  0
 32 68  1  0
 33 69  1  0
 34 70  1  0
 36 71  1  0
 38 72  1  0
 42 73  1  0
 45 74  1  0
 45 75  1  0
M  CHG  3   5  -1  22   1  24  -1
M  END
>  <EmbedRMS>  (62) 
0.0749486696459

$$$$

     RDKit          3D

 75 78  0  0  0  0  0  0  0  0999 V2000
    9.4334   42.9356   34.3453 C   0  0  0  0  0  0  0  0  0  0  0  0
   10.4907   43.0323   35.0312 O   0  0  0  0  0  0  0  0  0  0  0  0
    8.8562   41.7096   34.0291 O   0  0  0  0  0  0  0  0  0  0  0  0
    9.4942   40.2135   34.4678 P   0  0  0  0  0  0  0  0  0  0  0  0
    9.7310   40.1724   36.1289 O   0  0  0  0  0  0  0  0  0  0  0  0
    8.7506   44.1335   33.7736 C   0  0  1  0  0  0  0  0  0  0  0  0
    9.2957   45.3792   34.3143 N   0  0  0  0  0  0  0  0  0  0  0  0
    8.8900   44.0538   32.2356 C   0  0  0  0  0  0  0  0  0  0  0  0
    8.2041   45.1853   31.4638 C   0  0  0  0  0  0  0  0  0  0  0  0
    6.6670   45.1060   31.4859 C   0  0  0  0  0  0  0  0  0  0  0  0
    6.0293   46.3245   30.8117 C   0  0  0  0  0  0  0  0  0  0  0  0
    6.5071   47.5659   31.4218 N   0  0  0  0  0  0  0  0  0  0  0  0
    7.2313   48.5501   30.6741 C   0  0  0  0  0  0  0  0  0  0  0  0
    7.5430   49.8055   31.2123 O   0  0  0  0  0  0  0  0  0  0  0  0
    7.5993   48.2988   29.4972 O   0  0  0  0  0  0  0  0  0  0  0  0
    7.2047   50.2418   32.5278 C   0  0  0  0  0  0  0  0  0  0  0  0
    8.0964   49.5983   33.5649 C   0  0  0  0  0  0  0  0  0  0  0  0
    7.4963   48.9620   34.6671 C   0  0  0  0  0  0  0  0  0  0  0  0
    9.5136   49.6155   33.4625 C   0  0  0  0  0  0  0  0  0  0  0  0
    8.2759   48.3434   35.6447 C   0  0  0  0  0  0  0  0  0  0  0  0
   10.2796   48.9680   34.4490 C   0  0  0  0  0  0  0  0  0  0  0  0
   10.1888   50.2732   32.3754 N   0  0  0  0  0  0  0  0  0  0  0  0
    9.6647   48.3461   35.5357 C   0  0  0  0  0  0  0  0  0  0  0  0
    9.7625   51.5012   31.9258 O   0  0  0  0  0  0  0  0  0  0  0  0
   11.2684   49.8184   31.9437 O   0  0  0  0  0  0  0  0  0  0  0  0
    8.5371   39.1378   34.0123 O   0  0  0  0  0  0  0  0  0  0  0  0
   10.9796   40.0867   33.6827 O   0  0  0  0  0  0  0  0  0  0  0  0
   10.7997   40.0898   32.2830 C   0  0  0  0  0  0  0  0  0  0  0  0
   11.5968   38.9273   31.6962 C   0  0  0  0  0  0  0  0  0  0  0  0
   12.9243   38.9425   32.1784 O   0  0  0  0  0  0  0  0  0  0  0  0
   11.0086   37.5713   32.0780 C   0  0  0  0  0  0  0  0  0  0  0  0
   13.3529   37.5929   32.2623 C   0  0  0  0  0  0  0  0  0  0  0  0
    9.9098   37.1770   31.2925 O   0  0  0  0  0  0  0  0  0  0  0  0
   12.1943   36.6683   31.8994 C   0  0  0  0  0  0  0  0  0  0  0  0
   13.8019   37.2950   33.6199 N   0  0  0  0  0  0  0  0  0  0  0  0
   12.3027   36.2773   30.5558 O   0  0  0  0  0  0  0  0  0  0  0  0
   14.7926   36.4715   33.9865 C   0  0  0  0  0  0  0  0  0  0  0  0
   13.2749   37.7286   34.7946 C   0  0  0  0  0  0  0  0  0  0  0  0
   15.6239   35.7577   33.1860 N   0  0  0  0  0  0  0  0  0  0  0  0
   14.8727   36.4403   35.3332 C   0  0  0  0  0  0  0  0  0  0  0  0
   13.9210   37.2256   35.8811 N   0  0  0  0  0  0  0  0  0  0  0  0
   16.5873   34.9921   33.7802 C   0  0  0  0  0  0  0  0  0  0  0  0
   15.8579   35.6714   35.9444 C   0  0  0  0  0  0  0  0  0  0  0  0
   16.7028   34.9583   35.1439 N   0  0  0  0  0  0  0  0  0  0  0  0
   16.0104   35.6381   37.3564 N   0  0  0  0  0  0  0  0  0  0  0  0
    7.6769   44.0693   34.0496 H   0  0  0  0  0  0  0  0  0  0  0  0
    9.1879   45.3728   35.3550 H   0  0  0  0  0  0  0  0  0  0  0  0
   10.3172   45.4427   34.0958 H   0  0  0  0  0  0  0  0  0  0  0  0
    9.9720   44.0697   31.9743 H   0  0  0  0  0  0  0  0  0  0  0  0
    8.4825   43.0868   31.8648 H   0  0  0  0  0  0  0  0  0  0  0  0
    8.5413   45.1429   30.4049 H   0  0  0  0  0  0  0  0  0  0  0  0
    8.5548   46.1534   31.8804 H   0  0  0  0  0  0  0  0  0  0  0  0
    6.3324   44.1818   30.9667 H   0  0  0  0  0  0  0  0  0  0  0  0
    6.3026   45.0646   32.5334 H   0  0  0  0  0  0  0  0  0  0  0  0
    4.9258   46.2682   30.9270 H   0  0  0  0  0  0  0  0  0  0  0  0
    6.2483   46.2920   29.7229 H   0  0  0  0  0  0  0  0  0  0  0  0
    6.2709   47.7314   32.4237 H   0  0  0  0  0  0  0  0  0  0  0  0
    7.3362   51.3417   32.5824 H   0  0  0  0  0  0  0  0  0  0  0  0
    6.1265   50.0517   32.7217 H   0  0  0  0  0  0  0  0  0  0  0  0
    6.4185   48.9418   34.7717 H   0  0  0  0  0  0  0  0  0  0  0  0
    7.8013   47.8557   36.4864 H   0  0  0  0  0  0  0  0  0  0  0  0
   11.3606   48.9644   34.3877 H   0  0  0  0  0  0  0  0  0  0  0  0
   10.2669   47.8610   36.2930 H   0  0  0  0  0  0  0  0  0  0  0  0
    9.7450   40.0145   31.9263 H   0  0  0  0  0  0  0  0  0  0  0  0
   11.2097   41.0418   31.8831 H   0  0  0  0  0  0  0  0  0  0  0  0
   11.6265   39.0456   30.5888 H   0  0  0  0  0  0  0  0  0  0  0  0
   10.7064   37.5573   33.1484 H   0  0  0  0  0  0  0  0  0  0  0  0
   14.2021   37.4484   31.5573 H   0  0  0  0  0  0  0  0  0  0  0  0
   10.0952   37.3990   30.3433 H   0  0  0  0  0  0  0  0  0  0  0  0
   12.1163   35.7744   32.5633 H   0  0  0  0  0  0  0  0  0  0  0  0
   12.9615   35.5349   30.5311 H   0  0  0  0  0  0  0  0  0  0  0  0
   12.4321   38.3981   34.8705 H   0  0  0  0  0  0  0  0  0  0  0  0
   17.2669   34.4143   33.1690 H   0  0  0  0  0  0  0  0  0  0  0  0
   15.3761   36.1862   37.9792 H   0  0  0  0  0  0  0  0  0  0  0  0
   16.7641   35.0598   37.7896 H   0  0  0  0  0  0  0  0  0  0  0  0
  1  2  2  0
  1  3  1  0
  3  4  1  0
  4  5  1  0
  6  1  1  0
  7  6  1  0
  6  8  1  0
  8  9  1  0
  9 10  1  0
 10 11  1  0
 11 12  1  0
 12 13  1  0
 13 14  1  0
 13 15  2  0
 14 16  1  0
 16 17  1  0
 17 18  2  0
 19 17  1  0
 18 20  1  0
 21 19  2  0
 19 22  1  0
 20 23  2  0
 23 21  1  0
 22 24  1  0
 22 25  2  0
  4 26  2  0
  4 27  1  0
 28 27  1  0
 28 29  1  0
 29 30  1  0
 29 31  1  0
 30 32  1  0
 31 33  1  0
 31 34  1  0
 34 32  1  0
 32 35  1  0
 34 36  1  0
 37 35  1  0
 38 35  1  0
 39 37  2  0
 37 40  1  0
 41 38  2  0
 42 39  1  0
 40 43  2  0
 40 41  1  0
 44 42  2  0
 44 43  1  0
 43 45  1  0
  6 46  1  6
  7 47  1  0
  7 48  1  0
  8 49  1  0
  8 50  1  0
  9 51  1  0
  9 52  1  0
 10 53  1  0
 10 54  1  0
 11 55  1  0
 11 56  1  0
 12 57  1  0
 16 58  1  0
 16 59  1  0
 18 60  1  0
 20 61  1  0
 21 62  1  0
 23 63  1  0
 28 64  1  0
 28 65  1  0
 29 66  1  0
 31 67  1  0
 32 68  1  0
 33 69  1  0
 34 70  1  0
 36 71  1  0
 38 72  1  0
 42 73  1  0
 45 74  1  0
 45 75  1  0
M  CHG  3   5  -1  22   1  24  -1
M  END
>  <EmbedRMS>  (63) 
0.0745937466508

$$$$

     RDKit          3D

 75 78  0  0  0  0  0  0  0  0999 V2000
    9.4315   42.9419   34.3429 C   0  0  0  0  0  0  0  0  0  0  0  0
   10.4886   43.0414   35.0290 O   0  0  0  0  0  0  0  0  0  0  0  0
    8.8562   41.7136   34.0282 O   0  0  0  0  0  0  0  0  0  0  0  0
    9.4943   40.2166   34.4675 P   0  0  0  0  0  0  0  0  0  0  0  0
    9.7311   40.1744   36.1286 O   0  0  0  0  0  0  0  0  0  0  0  0
    8.7490   44.1376   33.7716 C   0  0  1  0  0  0  0  0  0  0  0  0
    9.3050   45.3680   34.3384 N   0  0  0  0  0  0  0  0  0  0  0  0
    8.8894   44.0548   32.2302 C   0  0  0  0  0  0  0  0  0  0  0  0
    8.2007   45.1760   31.4441 C   0  0  0  0  0  0  0  0  0  0  0  0
    6.6632   45.1082   31.4882 C   0  0  0  0  0  0  0  0  0  0  0  0
    6.0219   46.3220   30.8075 C   0  0  0  0  0  0  0  0  0  0  0  0
    6.4934   47.5661   31.4145 N   0  0  0  0  0  0  0  0  0  0  0  0
    7.2692   48.5221   30.6956 C   0  0  0  0  0  0  0  0  0  0  0  0
    7.7285   49.6617   31.3628 O   0  0  0  0  0  0  0  0  0  0  0  0
    7.5867   48.3129   29.4936 O   0  0  0  0  0  0  0  0  0  0  0  0
    8.7667   50.4995   30.8595 C   0  0  0  0  0  0  0  0  0  0  0  0
   10.0881   49.7644   30.8681 C   0  0  0  0  0  0  0  0  0  0  0  0
   10.6185   49.3287   29.6394 C   0  0  0  0  0  0  0  0  0  0  0  0
   10.8146   49.5118   32.0660 C   0  0  0  0  0  0  0  0  0  0  0  0
   11.8380   48.6538   29.5873 C   0  0  0  0  0  0  0  0  0  0  0  0
   12.0484   48.8406   31.9861 C   0  0  0  0  0  0  0  0  0  0  0  0
   10.3493   49.9482   33.3579 N   0  0  0  0  0  0  0  0  0  0  0  0
   12.5516   48.4107   30.7580 C   0  0  0  0  0  0  0  0  0  0  0  0
   11.2563   50.2270   34.3546 O   0  0  0  0  0  0  0  0  0  0  0  0
    9.1354   49.9322   33.6445 O   0  0  0  0  0  0  0  0  0  0  0  0
    8.5371   39.1405   34.0124 O   0  0  0  0  0  0  0  0  0  0  0  0
   10.9795   40.0878   33.6825 O   0  0  0  0  0  0  0  0  0  0  0  0
   10.7997   40.0901   32.2828 C   0  0  0  0  0  0  0  0  0  0  0  0
   11.5968   38.9275   31.6963 C   0  0  0  0  0  0  0  0  0  0  0  0
   12.9242   38.9426   32.1785 O   0  0  0  0  0  0  0  0  0  0  0  0
   11.0085   37.5714   32.0780 C   0  0  0  0  0  0  0  0  0  0  0  0
   13.3528   37.5929   32.2623 C   0  0  0  0  0  0  0  0  0  0  0  0
    9.9098   37.1771   31.2926 O   0  0  0  0  0  0  0  0  0  0  0  0
   12.1942   36.6684   31.8995 C   0  0  0  0  0  0  0  0  0  0  0  0
   13.8019   37.2950   33.6199 N   0  0  0  0  0  0  0  0  0  0  0  0
   12.3026   36.2773   30.5559 O   0  0  0  0  0  0  0  0  0  0  0  0
   14.7926   36.4715   33.9865 C   0  0  0  0  0  0  0  0  0  0  0  0
   13.2749   37.7286   34.7946 C   0  0  0  0  0  0  0  0  0  0  0  0
   15.6239   35.7577   33.1860 N   0  0  0  0  0  0  0  0  0  0  0  0
   14.8727   36.4403   35.3332 C   0  0  0  0  0  0  0  0  0  0  0  0
   13.9210   37.2257   35.8812 N   0  0  0  0  0  0  0  0  0  0  0  0
   16.5873   34.9921   33.7802 C   0  0  0  0  0  0  0  0  0  0  0  0
   15.8579   35.6714   35.9444 C   0  0  0  0  0  0  0  0  0  0  0  0
   16.7028   34.9583   35.1439 N   0  0  0  0  0  0  0  0  0  0  0  0
   16.0104   35.6381   37.3564 N   0  0  0  0  0  0  0  0  0  0  0  0
    7.6770   44.0655   34.0541 H   0  0  0  0  0  0  0  0  0  0  0  0
   10.2157   45.5905   33.8733 H   0  0  0  0  0  0  0  0  0  0  0  0
    8.6479   46.1577   34.1440 H   0  0  0  0  0  0  0  0  0  0  0  0
    8.4839   43.0848   31.8652 H   0  0  0  0  0  0  0  0  0  0  0  0
    9.9710   44.0685   31.9670 H   0  0  0  0  0  0  0  0  0  0  0  0
    8.5686   46.1530   31.8195 H   0  0  0  0  0  0  0  0  0  0  0  0
    8.5201   45.1022   30.3814 H   0  0  0  0  0  0  0  0  0  0  0  0
    6.3160   44.1795   30.9855 H   0  0  0  0  0  0  0  0  0  0  0  0
    6.3127   45.0818   32.5408 H   0  0  0  0  0  0  0  0  0  0  0  0
    4.9183   46.2625   30.9197 H   0  0  0  0  0  0  0  0  0  0  0  0
    6.2454   46.2879   29.7195 H   0  0  0  0  0  0  0  0  0  0  0  0
    6.2743   47.7503   32.4194 H   0  0  0  0  0  0  0  0  0  0  0  0
    8.8435   51.4113   31.4881 H   0  0  0  0  0  0  0  0  0  0  0  0
    8.4977   50.8430   29.8363 H   0  0  0  0  0  0  0  0  0  0  0  0
   10.0848   49.5096   28.7145 H   0  0  0  0  0  0  0  0  0  0  0  0
   12.2317   48.3210   28.6356 H   0  0  0  0  0  0  0  0  0  0  0  0
   12.6199   48.6362   32.8826 H   0  0  0  0  0  0  0  0  0  0  0  0
   13.4987   47.8884   30.7147 H   0  0  0  0  0  0  0  0  0  0  0  0
   11.2095   41.0420   31.8824 H   0  0  0  0  0  0  0  0  0  0  0  0
    9.7449   40.0146   31.9262 H   0  0  0  0  0  0  0  0  0  0  0  0
   11.6266   39.0456   30.5888 H   0  0  0  0  0  0  0  0  0  0  0  0
   10.7063   37.5576   33.1485 H   0  0  0  0  0  0  0  0  0  0  0  0
   14.2020   37.4484   31.5574 H   0  0  0  0  0  0  0  0  0  0  0  0
   10.0952   37.3992   30.3433 H   0  0  0  0  0  0  0  0  0  0  0  0
   12.1162   35.7745   32.5634 H   0  0  0  0  0  0  0  0  0  0  0  0
   12.9614   35.5349   30.5312 H   0  0  0  0  0  0  0  0  0  0  0  0
   12.4321   38.3982   34.8705 H   0  0  0  0  0  0  0  0  0  0  0  0
   17.2669   34.4143   33.1690 H   0  0  0  0  0  0  0  0  0  0  0  0
   16.7641   35.0599   37.7896 H   0  0  0  0  0  0  0  0  0  0  0  0
   15.3761   36.1862   37.9792 H   0  0  0  0  0  0  0  0  0  0  0  0
  1  2  2  0
  1  3  1  0
  3  4  1  0
  4  5  1  0
  6  1  1  0
  7  6  1  0
  6  8  1  0
  8  9  1  0
  9 10  1  0
 10 11  1  0
 11 12  1  0
 12 13  1  0
 13 14  1  0
 13 15  2  0
 14 16  1  0
 16 17  1  0
 17 18  2  0
 19 17  1  0
 18 20  1  0
 21 19  2  0
 19 22  1  0
 20 23  2  0
 23 21  1  0
 22 24  1  0
 22 25  2  0
  4 26  2  0
  4 27  1  0
 28 27  1  0
 28 29  1  0
 29 30  1  0
 29 31  1  0
 30 32  1  0
 31 33  1  0
 31 34  1  0
 34 32  1  0
 32 35  1  0
 34 36  1  0
 37 35  1  0
 38 35  1  0
 39 37  2  0
 37 40  1  0
 41 38  2  0
 42 39  1  0
 40 43  2  0
 40 41  1  0
 44 42  2  0
 44 43  1  0
 43 45  1  0
  6 46  1  6
  7 47  1  0
  7 48  1  0
  8 49  1  0
  8 50  1  0
  9 51  1  0
  9 52  1  0
 10 53  1  0
 10 54  1  0
 11 55  1  0
 11 56  1  0
 12 57  1  0
 16 58  1  0
 16 59  1  0
 18 60  1  0
 20 61  1  0
 21 62  1  0
 23 63  1  0
 28 64  1  0
 28 65  1  0
 29 66  1  0
 31 67  1  0
 32 68  1  0
 33 69  1  0
 34 70  1  0
 36 71  1  0
 38 72  1  0
 42 73  1  0
 45 74  1  0
 45 75  1  0
M  CHG  3   5  -1  22   1  24  -1
M  END
>  <EmbedRMS>  (64) 
0.0747227936006

$$$$

     RDKit          3D

 75 78  0  0  0  0  0  0  0  0999 V2000
    9.4330   42.9360   34.3458 C   0  0  0  0  0  0  0  0  0  0  0  0
   10.4904   43.0329   35.0315 O   0  0  0  0  0  0  0  0  0  0  0  0
    8.8562   41.7099   34.0294 O   0  0  0  0  0  0  0  0  0  0  0  0
    9.4944   40.2139   34.4680 P   0  0  0  0  0  0  0  0  0  0  0  0
    9.7309   40.1726   36.1291 O   0  0  0  0  0  0  0  0  0  0  0  0
    8.7499   44.1338   33.7738 C   0  0  1  0  0  0  0  0  0  0  0  0
    9.2942   45.3801   34.3141 N   0  0  0  0  0  0  0  0  0  0  0  0
    8.8901   44.0536   32.2359 C   0  0  0  0  0  0  0  0  0  0  0  0
    8.2042   45.1847   31.4635 C   0  0  0  0  0  0  0  0  0  0  0  0
    6.6669   45.1048   31.4842 C   0  0  0  0  0  0  0  0  0  0  0  0
    6.0290   46.3242   30.8114 C   0  0  0  0  0  0  0  0  0  0  0  0
    6.5101   47.5638   31.4219 N   0  0  0  0  0  0  0  0  0  0  0  0
    7.2403   48.5458   30.6784 C   0  0  0  0  0  0  0  0  0  0  0  0
    7.5932   49.7812   31.2371 O   0  0  0  0  0  0  0  0  0  0  0  0
    7.5903   48.3047   29.4938 O   0  0  0  0  0  0  0  0  0  0  0  0
    7.3210   50.1815   32.5804 C   0  0  0  0  0  0  0  0  0  0  0  0
    8.2044   49.4484   33.5682 C   0  0  0  0  0  0  0  0  0  0  0  0
    9.5600   49.2536   33.2396 C   0  0  0  0  0  0  0  0  0  0  0  0
    7.7527   49.0810   34.8641 C   0  0  0  0  0  0  0  0  0  0  0  0
   10.4451   48.6904   34.1597 C   0  0  0  0  0  0  0  0  0  0  0  0
    8.6636   48.5333   35.7825 C   0  0  0  0  0  0  0  0  0  0  0  0
    6.3972   49.2912   35.2852 N   0  0  0  0  0  0  0  0  0  0  0  0
    9.9991   48.3364   35.4310 C   0  0  0  0  0  0  0  0  0  0  0  0
    6.1495   49.8008   36.5388 O   0  0  0  0  0  0  0  0  0  0  0  0
    5.4572   48.7678   34.6535 O   0  0  0  0  0  0  0  0  0  0  0  0
    8.5372   39.1383   34.0126 O   0  0  0  0  0  0  0  0  0  0  0  0
   10.9802   40.0878   33.6835 O   0  0  0  0  0  0  0  0  0  0  0  0
   10.8020   40.0894   32.2837 C   0  0  0  0  0  0  0  0  0  0  0  0
   11.5900   38.9178   31.7006 C   0  0  0  0  0  0  0  0  0  0  0  0
   12.9224   38.9390   32.1711 O   0  0  0  0  0  0  0  0  0  0  0  0
   11.0052   37.5676   32.0966 C   0  0  0  0  0  0  0  0  0  0  0  0
   13.3518   37.5909   32.2610 C   0  0  0  0  0  0  0  0  0  0  0  0
    9.9381   37.1795   31.2732 O   0  0  0  0  0  0  0  0  0  0  0  0
   12.1912   36.6689   31.9042 C   0  0  0  0  0  0  0  0  0  0  0  0
   13.8027   37.2968   33.6192 N   0  0  0  0  0  0  0  0  0  0  0  0
   12.2877   36.2853   30.5567 O   0  0  0  0  0  0  0  0  0  0  0  0
   14.7928   36.4724   33.9861 C   0  0  0  0  0  0  0  0  0  0  0  0
   13.2751   37.7297   34.7941 C   0  0  0  0  0  0  0  0  0  0  0  0
   15.6239   35.7581   33.1859 N   0  0  0  0  0  0  0  0  0  0  0  0
   14.8726   36.4408   35.3329 C   0  0  0  0  0  0  0  0  0  0  0  0
   13.9209   37.2262   35.8807 N   0  0  0  0  0  0  0  0  0  0  0  0
   16.5870   34.9922   33.7801 C   0  0  0  0  0  0  0  0  0  0  0  0
   15.8576   35.6716   35.9442 C   0  0  0  0  0  0  0  0  0  0  0  0
   16.7024   34.9584   35.1438 N   0  0  0  0  0  0  0  0  0  0  0  0
   16.0101   35.6383   37.3563 N   0  0  0  0  0  0  0  0  0  0  0  0
    7.6761   44.0691   34.0492 H   0  0  0  0  0  0  0  0  0  0  0  0
    9.1797   45.3787   35.3542 H   0  0  0  0  0  0  0  0  0  0  0  0
   10.3170   45.4407   34.1012 H   0  0  0  0  0  0  0  0  0  0  0  0
    9.9722   44.0700   31.9751 H   0  0  0  0  0  0  0  0  0  0  0  0
    8.4830   43.0865   31.8651 H   0  0  0  0  0  0  0  0  0  0  0  0
    8.5422   45.1426   30.4049 H   0  0  0  0  0  0  0  0  0  0  0  0
    8.5547   46.1527   31.8805 H   0  0  0  0  0  0  0  0  0  0  0  0
    6.3017   45.0616   32.5313 H   0  0  0  0  0  0  0  0  0  0  0  0
    6.3331   44.1813   30.9634 H   0  0  0  0  0  0  0  0  0  0  0  0
    6.2461   46.2925   29.7222 H   0  0  0  0  0  0  0  0  0  0  0  0
    4.9258   46.2694   30.9294 H   0  0  0  0  0  0  0  0  0  0  0  0
    6.2930   47.7207   32.4287 H   0  0  0  0  0  0  0  0  0  0  0  0
    7.5523   51.2638   32.6651 H   0  0  0  0  0  0  0  0  0  0  0  0
    6.2391   50.0741   32.7857 H   0  0  0  0  0  0  0  0  0  0  0  0
    9.9402   49.5536   32.2710 H   0  0  0  0  0  0  0  0  0  0  0  0
   11.4828   48.5416   33.8907 H   0  0  0  0  0  0  0  0  0  0  0  0
    8.3334   48.2508   36.7743 H   0  0  0  0  0  0  0  0  0  0  0  0
   10.6889   47.9061   36.1455 H   0  0  0  0  0  0  0  0  0  0  0  0
    9.7472   40.0309   31.9256 H   0  0  0  0  0  0  0  0  0  0  0  0
   11.2239   41.0357   31.8827 H   0  0  0  0  0  0  0  0  0  0  0  0
   11.5999   39.0159   30.5904 H   0  0  0  0  0  0  0  0  0  0  0  0
   10.7034   37.5449   33.1702 H   0  0  0  0  0  0  0  0  0  0  0  0
   14.1993   37.4424   31.5548 H   0  0  0  0  0  0  0  0  0  0  0  0
    9.1370   37.6634   31.6023 H   0  0  0  0  0  0  0  0  0  0  0  0
   12.1204   35.7712   32.5636 H   0  0  0  0  0  0  0  0  0  0  0  0
   12.9457   35.5426   30.5220 H   0  0  0  0  0  0  0  0  0  0  0  0
   12.4322   38.3989   34.8700 H   0  0  0  0  0  0  0  0  0  0  0  0
   17.2664   34.4142   33.1690 H   0  0  0  0  0  0  0  0  0  0  0  0
   15.3759   36.1865   37.9790 H   0  0  0  0  0  0  0  0  0  0  0  0
   16.7636   35.0598   37.7895 H   0  0  0  0  0  0  0  0  0  0  0  0
  1  2  2  0
  1  3  1  0
  3  4  1  0
  4  5  1  0
  6  1  1  0
  7  6  1  0
  6  8  1  0
  8  9  1  0
  9 10  1  0
 10 11  1  0
 11 12  1  0
 12 13  1  0
 13 14  1  0
 13 15  2  0
 14 16  1  0
 16 17  1  0
 17 18  2  0
 19 17  1  0
 18 20  1  0
 21 19  2  0
 19 22  1  0
 20 23  2  0
 23 21  1  0
 22 24  1  0
 22 25  2  0
  4 26  2  0
  4 27  1  0
 28 27  1  0
 28 29  1  0
 29 30  1  0
 29 31  1  0
 30 32  1  0
 31 33  1  0
 31 34  1  0
 34 32  1  0
 32 35  1  0
 34 36  1  0
 37 35  1  0
 38 35  1  0
 39 37  2  0
 37 40  1  0
 41 38  2  0
 42 39  1  0
 40 43  2  0
 40 41  1  0
 44 42  2  0
 44 43  1  0
 43 45  1  0
  6 46  1  6
  7 47  1  0
  7 48  1  0
  8 49  1  0
  8 50  1  0
  9 51  1  0
  9 52  1  0
 10 53  1  0
 10 54  1  0
 11 55  1  0
 11 56  1  0
 12 57  1  0
 16 58  1  0
 16 59  1  0
 18 60  1  0
 20 61  1  0
 21 62  1  0
 23 63  1  0
 28 64  1  0
 28 65  1  0
 29 66  1  0
 31 67  1  0
 32 68  1  0
 33 69  1  0
 34 70  1  0
 36 71  1  0
 38 72  1  0
 42 73  1  0
 45 74  1  0
 45 75  1  0
M  CHG  3   5  -1  22   1  24  -1
M  END
>  <EmbedRMS>  (65) 
0.0739652795026

$$$$

     RDKit          3D

 75 78  0  0  0  0  0  0  0  0999 V2000
    9.4333   42.9364   34.3461 C   0  0  0  0  0  0  0  0  0  0  0  0
   10.4907   43.0329   35.0319 O   0  0  0  0  0  0  0  0  0  0  0  0
    8.8563   41.7103   34.0295 O   0  0  0  0  0  0  0  0  0  0  0  0
    9.4943   40.2139   34.4679 P   0  0  0  0  0  0  0  0  0  0  0  0
    9.7310   40.1724   36.1290 O   0  0  0  0  0  0  0  0  0  0  0  0
    8.7506   44.1348   33.7741 C   0  0  1  0  0  0  0  0  0  0  0  0
    9.2963   45.3820   34.3133 N   0  0  0  0  0  0  0  0  0  0  0  0
    8.8893   44.0528   32.2358 C   0  0  0  0  0  0  0  0  0  0  0  0
    8.2028   45.1824   31.4615 C   0  0  0  0  0  0  0  0  0  0  0  0
    6.6653   45.1046   31.4855 C   0  0  0  0  0  0  0  0  0  0  0  0
    6.0270   46.3225   30.8105 C   0  0  0  0  0  0  0  0  0  0  0  0
    6.5062   47.5640   31.4180 N   0  0  0  0  0  0  0  0  0  0  0  0
    7.2436   48.5392   30.6836 C   0  0  0  0  0  0  0  0  0  0  0  0
    7.5939   49.7398   31.3066 O   0  0  0  0  0  0  0  0  0  0  0  0
    7.5934   48.3118   29.4937 O   0  0  0  0  0  0  0  0  0  0  0  0
    8.3441   50.7591   30.6497 C   0  0  0  0  0  0  0  0  0  0  0  0
    8.5800   51.9497   31.5539 C   0  0  0  0  0  0  0  0  0  0  0  0
    7.7863   52.1304   32.7060 C   0  0  0  0  0  0  0  0  0  0  0  0
    9.6018   52.8953   31.2677 C   0  0  0  0  0  0  0  0  0  0  0  0
    8.0216   53.1965   33.5749 C   0  0  0  0  0  0  0  0  0  0  0  0
    9.8316   53.9529   32.1671 C   0  0  0  0  0  0  0  0  0  0  0  0
   10.4132   52.7981   30.0824 N   0  0  0  0  0  0  0  0  0  0  0  0
    9.0468   54.1010   33.3105 C   0  0  0  0  0  0  0  0  0  0  0  0
    9.8563   52.4286   28.8800 O   0  0  0  0  0  0  0  0  0  0  0  0
   11.5922   53.2087   30.0955 O   0  0  0  0  0  0  0  0  0  0  0  0
    8.5372   39.1382   34.0121 O   0  0  0  0  0  0  0  0  0  0  0  0
   10.9798   40.0870   33.6829 O   0  0  0  0  0  0  0  0  0  0  0  0
   10.8002   40.0905   32.2832 C   0  0  0  0  0  0  0  0  0  0  0  0
   11.5958   38.9271   31.6963 C   0  0  0  0  0  0  0  0  0  0  0  0
   12.9239   38.9408   32.1766 O   0  0  0  0  0  0  0  0  0  0  0  0
   11.0062   37.5719   32.0793 C   0  0  0  0  0  0  0  0  0  0  0  0
   13.3507   37.5905   32.2614 C   0  0  0  0  0  0  0  0  0  0  0  0
    9.9064   37.1792   31.2946 O   0  0  0  0  0  0  0  0  0  0  0  0
   12.1920   36.6671   31.9003 C   0  0  0  0  0  0  0  0  0  0  0  0
   13.8017   37.2948   33.6193 N   0  0  0  0  0  0  0  0  0  0  0  0
   12.3134   36.2787   30.5560 O   0  0  0  0  0  0  0  0  0  0  0  0
   14.7927   36.4716   33.9862 C   0  0  0  0  0  0  0  0  0  0  0  0
   13.2746   37.7284   34.7941 C   0  0  0  0  0  0  0  0  0  0  0  0
   15.6240   35.7576   33.1859 N   0  0  0  0  0  0  0  0  0  0  0  0
   14.8728   36.4406   35.3330 C   0  0  0  0  0  0  0  0  0  0  0  0
   13.9209   37.2258   35.8808 N   0  0  0  0  0  0  0  0  0  0  0  0
   16.5874   34.9920   33.7802 C   0  0  0  0  0  0  0  0  0  0  0  0
   15.8579   35.6716   35.9443 C   0  0  0  0  0  0  0  0  0  0  0  0
   16.7028   34.9584   35.1439 N   0  0  0  0  0  0  0  0  0  0  0  0
   16.0103   35.6383   37.3563 N   0  0  0  0  0  0  0  0  0  0  0  0
    7.6771   44.0706   34.0504 H   0  0  0  0  0  0  0  0  0  0  0  0
    9.1827   45.3820   35.3535 H   0  0  0  0  0  0  0  0  0  0  0  0
   10.3192   45.4406   34.1000 H   0  0  0  0  0  0  0  0  0  0  0  0
    9.9711   44.0682   31.9739 H   0  0  0  0  0  0  0  0  0  0  0  0
    8.4817   43.0851   31.8668 H   0  0  0  0  0  0  0  0  0  0  0  0
    8.5552   46.1510   31.8743 H   0  0  0  0  0  0  0  0  0  0  0  0
    8.5385   45.1364   30.4023 H   0  0  0  0  0  0  0  0  0  0  0  0
    6.3020   45.0643   32.5334 H   0  0  0  0  0  0  0  0  0  0  0  0
    6.3297   44.1799   30.9678 H   0  0  0  0  0  0  0  0  0  0  0  0
    4.9235   46.2672   30.9265 H   0  0  0  0  0  0  0  0  0  0  0  0
    6.2465   46.2897   29.7217 H   0  0  0  0  0  0  0  0  0  0  0  0
    6.2821   47.7531   32.4209 H   0  0  0  0  0  0  0  0  0  0  0  0
    9.3234   50.3270   30.3492 H   0  0  0  0  0  0  0  0  0  0  0  0
    7.7955   51.0951   29.7437 H   0  0  0  0  0  0  0  0  0  0  0  0
    6.9814   51.4467   32.9427 H   0  0  0  0  0  0  0  0  0  0  0  0
    7.4081   53.3195   34.4582 H   0  0  0  0  0  0  0  0  0  0  0  0
   10.6103   54.6792   31.9708 H   0  0  0  0  0  0  0  0  0  0  0  0
    9.2286   54.9251   33.9883 H   0  0  0  0  0  0  0  0  0  0  0  0
    9.7455   40.0168   31.9263 H   0  0  0  0  0  0  0  0  0  0  0  0
   11.2116   41.0420   31.8834 H   0  0  0  0  0  0  0  0  0  0  0  0
   11.6245   39.0449   30.5888 H   0  0  0  0  0  0  0  0  0  0  0  0
   10.7051   37.5579   33.1500 H   0  0  0  0  0  0  0  0  0  0  0  0
   14.1985   37.4426   31.5553 H   0  0  0  0  0  0  0  0  0  0  0  0
   10.0893   37.4056   30.3459 H   0  0  0  0  0  0  0  0  0  0  0  0
   12.1337   35.7754   32.5703 H   0  0  0  0  0  0  0  0  0  0  0  0
   11.7934   35.4394   30.4513 H   0  0  0  0  0  0  0  0  0  0  0  0
   12.4314   38.3973   34.8700 H   0  0  0  0  0  0  0  0  0  0  0  0
   17.2669   34.4142   33.1691 H   0  0  0  0  0  0  0  0  0  0  0  0
   15.3759   36.1865   37.9790 H   0  0  0  0  0  0  0  0  0  0  0  0
   16.7638   35.0599   37.7896 H   0  0  0  0  0  0  0  0  0  0  0  0
  1  2  2  0
  1  3  1  0
  3  4  1  0
  4  5  1  0
  6  1  1  0
  7  6  1  0
  6  8  1  0
  8  9  1  0
  9 10  1  0
 10 11  1  0
 11 12  1  0
 12 13  1  0
 13 14  1  0
 13 15  2  0
 14 16  1  0
 16 17  1  0
 17 18  2  0
 19 17  1  0
 18 20  1  0
 21 19  2  0
 19 22  1  0
 20 23  2  0
 23 21  1  0
 22 24  1  0
 22 25  2  0
  4 26  2  0
  4 27  1  0
 28 27  1  0
 28 29  1  0
 29 30  1  0
 29 31  1  0
 30 32  1  0
 31 33  1  0
 31 34  1  0
 34 32  1  0
 32 35  1  0
 34 36  1  0
 37 35  1  0
 38 35  1  0
 39 37  2  0
 37 40  1  0
 41 38  2  0
 42 39  1  0
 40 43  2  0
 40 41  1  0
 44 42  2  0
 44 43  1  0
 43 45  1  0
  6 46  1  6
  7 47  1  0
  7 48  1  0
  8 49  1  0
  8 50  1  0
  9 51  1  0
  9 52  1  0
 10 53  1  0
 10 54  1  0
 11 55  1  0
 11 56  1  0
 12 57  1  0
 16 58  1  0
 16 59  1  0
 18 60  1  0
 20 61  1  0
 21 62  1  0
 23 63  1  0
 28 64  1  0
 28 65  1  0
 29 66  1  0
 31 67  1  0
 32 68  1  0
 33 69  1  0
 34 70  1  0
 36 71  1  0
 38 72  1  0
 42 73  1  0
 45 74  1  0
 45 75  1  0
M  CHG  3   5  -1  22   1  24  -1
M  END
>  <EmbedRMS>  (66) 
0.0747930777184

$$$$

     RDKit          3D

 75 78  0  0  0  0  0  0  0  0999 V2000
    9.4335   42.9375   34.3451 C   0  0  0  0  0  0  0  0  0  0  0  0
   10.4908   43.0336   35.0311 O   0  0  0  0  0  0  0  0  0  0  0  0
    8.8560   41.7113   34.0292 O   0  0  0  0  0  0  0  0  0  0  0  0
    9.4942   40.2148   34.4674 P   0  0  0  0  0  0  0  0  0  0  0  0
    9.7315   40.1729   36.1285 O   0  0  0  0  0  0  0  0  0  0  0  0
    8.7513   44.1366   33.7733 C   0  0  1  0  0  0  0  0  0  0  0  0
    9.2971   45.3835   34.3132 N   0  0  0  0  0  0  0  0  0  0  0  0
    8.8901   44.0569   32.2349 C   0  0  0  0  0  0  0  0  0  0  0  0
    8.2019   45.1876   31.4624 C   0  0  0  0  0  0  0  0  0  0  0  0
    6.6641   45.1069   31.4851 C   0  0  0  0  0  0  0  0  0  0  0  0
    6.0209   46.3211   30.8055 C   0  0  0  0  0  0  0  0  0  0  0  0
    6.4884   47.5666   31.4130 N   0  0  0  0  0  0  0  0  0  0  0  0
    7.2742   48.5175   30.6982 C   0  0  0  0  0  0  0  0  0  0  0  0
    7.7680   49.6364   31.3759 O   0  0  0  0  0  0  0  0  0  0  0  0
    7.5864   48.3123   29.4937 O   0  0  0  0  0  0  0  0  0  0  0  0
    8.8552   50.4190   30.8856 C   0  0  0  0  0  0  0  0  0  0  0  0
   10.1287   49.6003   30.8853 C   0  0  0  0  0  0  0  0  0  0  0  0
   10.4521   48.8703   32.0447 C   0  0  0  0  0  0  0  0  0  0  0  0
   10.9618   49.4861   29.7429 C   0  0  0  0  0  0  0  0  0  0  0  0
   11.5460   48.0042   32.0600 C   0  0  0  0  0  0  0  0  0  0  0  0
   12.0511   48.5972   29.7725 C   0  0  0  0  0  0  0  0  0  0  0  0
   10.7380   50.2773   28.5657 N   0  0  0  0  0  0  0  0  0  0  0  0
   12.3381   47.8601   30.9225 C   0  0  0  0  0  0  0  0  0  0  0  0
   10.5470   51.6353   28.6769 O   0  0  0  0  0  0  0  0  0  0  0  0
   10.9434   49.7878   27.4357 O   0  0  0  0  0  0  0  0  0  0  0  0
    8.5371   39.1388   34.0121 O   0  0  0  0  0  0  0  0  0  0  0  0
   10.9794   40.0890   33.6815 O   0  0  0  0  0  0  0  0  0  0  0  0
   10.7982   40.0849   32.2818 C   0  0  0  0  0  0  0  0  0  0  0  0
   11.5886   38.9142   31.7008 C   0  0  0  0  0  0  0  0  0  0  0  0
   12.9214   38.9368   32.1698 O   0  0  0  0  0  0  0  0  0  0  0  0
   11.0047   37.5661   32.0990 C   0  0  0  0  0  0  0  0  0  0  0  0
   13.3511   37.5885   32.2601 C   0  0  0  0  0  0  0  0  0  0  0  0
    9.9296   37.1961   31.2780 O   0  0  0  0  0  0  0  0  0  0  0  0
   12.1923   36.6659   31.9047 C   0  0  0  0  0  0  0  0  0  0  0  0
   13.8033   37.2966   33.6188 N   0  0  0  0  0  0  0  0  0  0  0  0
   12.3007   36.2865   30.5561 O   0  0  0  0  0  0  0  0  0  0  0  0
   14.7933   36.4724   33.9860 C   0  0  0  0  0  0  0  0  0  0  0  0
   13.2753   37.7296   34.7935 C   0  0  0  0  0  0  0  0  0  0  0  0
   15.6243   35.7579   33.1860 N   0  0  0  0  0  0  0  0  0  0  0  0
   14.8728   36.4410   35.3328 C   0  0  0  0  0  0  0  0  0  0  0  0
   13.9209   37.2263   35.8804 N   0  0  0  0  0  0  0  0  0  0  0  0
   16.5873   34.9919   33.7803 C   0  0  0  0  0  0  0  0  0  0  0  0
   15.8577   35.6716   35.9443 C   0  0  0  0  0  0  0  0  0  0  0  0
   16.7025   34.9583   35.1440 N   0  0  0  0  0  0  0  0  0  0  0  0
   16.0100   35.6384   37.3563 N   0  0  0  0  0  0  0  0  0  0  0  0
    7.6776   44.0727   34.0492 H   0  0  0  0  0  0  0  0  0  0  0  0
   10.3196   45.4431   34.0980 H   0  0  0  0  0  0  0  0  0  0  0  0
    9.1853   45.3825   35.3535 H   0  0  0  0  0  0  0  0  0  0  0  0
    9.9720   44.0751   31.9733 H   0  0  0  0  0  0  0  0  0  0  0  0
    8.4841   43.0892   31.8643 H   0  0  0  0  0  0  0  0  0  0  0  0
    8.5391   45.1455   30.4035 H   0  0  0  0  0  0  0  0  0  0  0  0
    8.5516   46.1565   31.8777 H   0  0  0  0  0  0  0  0  0  0  0  0
    6.3003   45.0682   32.5328 H   0  0  0  0  0  0  0  0  0  0  0  0
    6.3315   44.1798   30.9698 H   0  0  0  0  0  0  0  0  0  0  0  0
    6.2457   46.2883   29.7178 H   0  0  0  0  0  0  0  0  0  0  0  0
    4.9172   46.2590   30.9158 H   0  0  0  0  0  0  0  0  0  0  0  0
    6.2691   47.7497   32.4180 H   0  0  0  0  0  0  0  0  0  0  0  0
    8.5894   50.8028   29.8804 H   0  0  0  0  0  0  0  0  0  0  0  0
    8.9943   51.2909   31.5583 H   0  0  0  0  0  0  0  0  0  0  0  0
    9.8352   48.9494   32.9316 H   0  0  0  0  0  0  0  0  0  0  0  0
   11.7736   47.4361   32.9527 H   0  0  0  0  0  0  0  0  0  0  0  0
   12.6942   48.4924   28.9077 H   0  0  0  0  0  0  0  0  0  0  0  0
   13.1836   47.1844   30.9350 H   0  0  0  0  0  0  0  0  0  0  0  0
    9.7428   40.0142   31.9265 H   0  0  0  0  0  0  0  0  0  0  0  0
   11.2132   41.0321   31.8756 H   0  0  0  0  0  0  0  0  0  0  0  0
   11.5981   39.0108   30.5904 H   0  0  0  0  0  0  0  0  0  0  0  0
   10.7008   37.5602   33.1721 H   0  0  0  0  0  0  0  0  0  0  0  0
   14.1977   37.4380   31.5532 H   0  0  0  0  0  0  0  0  0  0  0  0
    9.5180   36.3961   31.6977 H   0  0  0  0  0  0  0  0  0  0  0  0
   12.1418   35.7698   32.5692 H   0  0  0  0  0  0  0  0  0  0  0  0
   11.7730   35.4524   30.4489 H   0  0  0  0  0  0  0  0  0  0  0  0
   12.4321   38.3985   34.8692 H   0  0  0  0  0  0  0  0  0  0  0  0
   17.2667   34.4138   33.1694 H   0  0  0  0  0  0  0  0  0  0  0  0
   15.3757   36.1867   37.9790 H   0  0  0  0  0  0  0  0  0  0  0  0
   16.7634   35.0598   37.7897 H   0  0  0  0  0  0  0  0  0  0  0  0
  1  2  2  0
  1  3  1  0
  3  4  1  0
  4  5  1  0
  6  1  1  0
  7  6  1  0
  6  8  1  0
  8  9  1  0
  9 10  1  0
 10 11  1  0
 11 12  1  0
 12 13  1  0
 13 14  1  0
 13 15  2  0
 14 16  1  0
 16 17  1  0
 17 18  2  0
 19 17  1  0
 18 20  1  0
 21 19  2  0
 19 22  1  0
 20 23  2  0
 23 21  1  0
 22 24  1  0
 22 25  2  0
  4 26  2  0
  4 27  1  0
 28 27  1  0
 28 29  1  0
 29 30  1  0
 29 31  1  0
 30 32  1  0
 31 33  1  0
 31 34  1  0
 34 32  1  0
 32 35  1  0
 34 36  1  0
 37 35  1  0
 38 35  1  0
 39 37  2  0
 37 40  1  0
 41 38  2  0
 42 39  1  0
 40 43  2  0
 40 41  1  0
 44 42  2  0
 44 43  1  0
 43 45  1  0
  6 46  1  6
  7 47  1  0
  7 48  1  0
  8 49  1  0
  8 50  1  0
  9 51  1  0
  9 52  1  0
 10 53  1  0
 10 54  1  0
 11 55  1  0
 11 56  1  0
 12 57  1  0
 16 58  1  0
 16 59  1  0
 18 60  1  0
 20 61  1  0
 21 62  1  0
 23 63  1  0
 28 64  1  0
 28 65  1  0
 29 66  1  0
 31 67  1  0
 32 68  1  0
 33 69  1  0
 34 70  1  0
 36 71  1  0
 38 72  1  0
 42 73  1  0
 45 74  1  0
 45 75  1  0
M  CHG  3   5  -1  22   1  24  -1
M  END
>  <EmbedRMS>  (67) 
0.0756473584839

$$$$

     RDKit          3D

 75 78  0  0  0  0  0  0  0  0999 V2000
    9.4332   42.9366   34.3464 C   0  0  0  0  0  0  0  0  0  0  0  0
   10.4908   43.0331   35.0319 O   0  0  0  0  0  0  0  0  0  0  0  0
    8.8559   41.7104   34.0306 O   0  0  0  0  0  0  0  0  0  0  0  0
    9.4931   40.2143   34.4709 P   0  0  0  0  0  0  0  0  0  0  0  0
    9.7288   40.1729   36.1318 O   0  0  0  0  0  0  0  0  0  0  0  0
    8.7506   44.1348   33.7741 C   0  0  1  0  0  0  0  0  0  0  0  0
    9.2963   45.3821   34.3132 N   0  0  0  0  0  0  0  0  0  0  0  0
    8.8893   44.0526   32.2358 C   0  0  0  0  0  0  0  0  0  0  0  0
    8.2029   45.1822   31.4614 C   0  0  0  0  0  0  0  0  0  0  0  0
    6.6654   45.1046   31.4855 C   0  0  0  0  0  0  0  0  0  0  0  0
    6.0272   46.3228   30.8108 C   0  0  0  0  0  0  0  0  0  0  0  0
    6.5071   47.5639   31.4183 N   0  0  0  0  0  0  0  0  0  0  0  0
    7.2416   48.5404   30.6827 C   0  0  0  0  0  0  0  0  0  0  0  0
    7.5832   49.7466   31.3035 O   0  0  0  0  0  0  0  0  0  0  0  0
    7.5944   48.3107   29.4942 O   0  0  0  0  0  0  0  0  0  0  0  0
    8.2912   50.7940   30.6424 C   0  0  0  0  0  0  0  0  0  0  0  0
    7.4277   51.4402   29.5828 C   0  0  0  0  0  0  0  0  0  0  0  0
    7.8940   51.4570   28.2551 C   0  0  0  0  0  0  0  0  0  0  0  0
    6.1467   51.9853   29.8750 C   0  0  0  0  0  0  0  0  0  0  0  0
    7.1100   51.9884   27.2307 C   0  0  0  0  0  0  0  0  0  0  0  0
    5.3678   52.5012   28.8237 C   0  0  0  0  0  0  0  0  0  0  0  0
    5.6088   52.0062   31.2104 N   0  0  0  0  0  0  0  0  0  0  0  0
    5.8480   52.5057   27.5137 C   0  0  0  0  0  0  0  0  0  0  0  0
    4.2473   51.9528   31.4029 O   0  0  0  0  0  0  0  0  0  0  0  0
    6.3433   52.2347   32.1929 O   0  0  0  0  0  0  0  0  0  0  0  0
    8.5366   39.1385   34.0140 O   0  0  0  0  0  0  0  0  0  0  0  0
   10.9795   40.0875   33.6890 O   0  0  0  0  0  0  0  0  0  0  0  0
   10.8017   40.0947   32.2902 C   0  0  0  0  0  0  0  0  0  0  0  0
   11.5885   38.9266   31.7041 C   0  0  0  0  0  0  0  0  0  0  0  0
   12.9237   38.9445   32.1721 O   0  0  0  0  0  0  0  0  0  0  0  0
   11.0029   37.5725   32.0908 C   0  0  0  0  0  0  0  0  0  0  0  0
   13.3555   37.5960   32.2594 C   0  0  0  0  0  0  0  0  0  0  0  0
    9.9380   37.1846   31.2656 O   0  0  0  0  0  0  0  0  0  0  0  0
   12.1932   36.6769   31.8952 C   0  0  0  0  0  0  0  0  0  0  0  0
   13.8028   37.2977   33.6186 N   0  0  0  0  0  0  0  0  0  0  0  0
   12.2918   36.2396   30.5587 O   0  0  0  0  0  0  0  0  0  0  0  0
   14.7926   36.4727   33.9858 C   0  0  0  0  0  0  0  0  0  0  0  0
   13.2750   37.7302   34.7935 C   0  0  0  0  0  0  0  0  0  0  0  0
   15.6241   35.7586   33.1857 N   0  0  0  0  0  0  0  0  0  0  0  0
   14.8721   36.4408   35.3326 C   0  0  0  0  0  0  0  0  0  0  0  0
   13.9204   37.2263   35.8802 N   0  0  0  0  0  0  0  0  0  0  0  0
   16.5870   34.9924   33.7800 C   0  0  0  0  0  0  0  0  0  0  0  0
   15.8572   35.6717   35.9441 C   0  0  0  0  0  0  0  0  0  0  0  0
   16.7022   34.9585   35.1437 N   0  0  0  0  0  0  0  0  0  0  0  0
   16.0097   35.6384   37.3561 N   0  0  0  0  0  0  0  0  0  0  0  0
    7.6770   44.0707   34.0504 H   0  0  0  0  0  0  0  0  0  0  0  0
    9.1827   45.3822   35.3534 H   0  0  0  0  0  0  0  0  0  0  0  0
   10.3192   45.4407   34.0999 H   0  0  0  0  0  0  0  0  0  0  0  0
    8.4816   43.0849   31.8670 H   0  0  0  0  0  0  0  0  0  0  0  0
    9.9711   44.0679   31.9740 H   0  0  0  0  0  0  0  0  0  0  0  0
    8.5554   46.1508   31.8740 H   0  0  0  0  0  0  0  0  0  0  0  0
    8.5384   45.1360   30.4021 H   0  0  0  0  0  0  0  0  0  0  0  0
    6.3020   45.0641   32.5333 H   0  0  0  0  0  0  0  0  0  0  0  0
    6.3295   44.1801   30.9676 H   0  0  0  0  0  0  0  0  0  0  0  0
    4.9238   46.2679   30.9271 H   0  0  0  0  0  0  0  0  0  0  0  0
    6.2463   46.2901   29.7219 H   0  0  0  0  0  0  0  0  0  0  0  0
    6.2817   47.7539   32.4207 H   0  0  0  0  0  0  0  0  0  0  0  0
    8.5943   51.5578   31.3872 H   0  0  0  0  0  0  0  0  0  0  0  0
    9.2325   50.3848   30.2138 H   0  0  0  0  0  0  0  0  0  0  0  0
    8.8651   51.0468   28.0068 H   0  0  0  0  0  0  0  0  0  0  0  0
    7.4797   51.9925   26.2134 H   0  0  0  0  0  0  0  0  0  0  0  0
    4.3880   52.9172   29.0212 H   0  0  0  0  0  0  0  0  0  0  0  0
    5.2401   52.9134   26.7163 H   0  0  0  0  0  0  0  0  0  0  0  0
   11.2242   41.0427   31.8934 H   0  0  0  0  0  0  0  0  0  0  0  0
    9.7472   40.0378   31.9304 H   0  0  0  0  0  0  0  0  0  0  0  0
   11.5927   39.0434   30.5965 H   0  0  0  0  0  0  0  0  0  0  0  0
   10.7003   37.5442   33.1640 H   0  0  0  0  0  0  0  0  0  0  0  0
   14.2052   37.4477   31.5560 H   0  0  0  0  0  0  0  0  0  0  0  0
    9.1374   37.6722   31.5905 H   0  0  0  0  0  0  0  0  0  0  0  0
   12.1305   35.7855   32.5585 H   0  0  0  0  0  0  0  0  0  0  0  0
   12.4606   37.0186   29.9674 H   0  0  0  0  0  0  0  0  0  0  0  0
   12.4327   38.4000   34.8694 H   0  0  0  0  0  0  0  0  0  0  0  0
   17.2666   34.4146   33.1690 H   0  0  0  0  0  0  0  0  0  0  0  0
   16.7634   35.0601   37.7894 H   0  0  0  0  0  0  0  0  0  0  0  0
   15.3754   36.1866   37.9788 H   0  0  0  0  0  0  0  0  0  0  0  0
  1  2  2  0
  1  3  1  0
  3  4  1  0
  4  5  1  0
  6  1  1  0
  7  6  1  0
  6  8  1  0
  8  9  1  0
  9 10  1  0
 10 11  1  0
 11 12  1  0
 12 13  1  0
 13 14  1  0
 13 15  2  0
 14 16  1  0
 16 17  1  0
 17 18  2  0
 19 17  1  0
 18 20  1  0
 21 19  2  0
 19 22  1  0
 20 23  2  0
 23 21  1  0
 22 24  1  0
 22 25  2  0
  4 26  2  0
  4 27  1  0
 28 27  1  0
 28 29  1  0
 29 30  1  0
 29 31  1  0
 30 32  1  0
 31 33  1  0
 31 34  1  0
 34 32  1  0
 32 35  1  0
 34 36  1  0
 37 35  1  0
 38 35  1  0
 39 37  2  0
 37 40  1  0
 41 38  2  0
 42 39  1  0
 40 43  2  0
 40 41  1  0
 44 42  2  0
 44 43  1  0
 43 45  1  0
  6 46  1  6
  7 47  1  0
  7 48  1  0
  8 49  1  0
  8 50  1  0
  9 51  1  0
  9 52  1  0
 10 53  1  0
 10 54  1  0
 11 55  1  0
 11 56  1  0
 12 57  1  0
 16 58  1  0
 16 59  1  0
 18 60  1  0
 20 61  1  0
 21 62  1  0
 23 63  1  0
 28 64  1  0
 28 65  1  0
 29 66  1  0
 31 67  1  0
 32 68  1  0
 33 69  1  0
 34 70  1  0
 36 71  1  0
 38 72  1  0
 42 73  1  0
 45 74  1  0
 45 75  1  0
M  CHG  3   5  -1  22   1  24  -1
M  END
>  <EmbedRMS>  (68) 
0.0756539805453

$$$$

     RDKit          3D

 75 78  0  0  0  0  0  0  0  0999 V2000
    9.4315   42.9421   34.3428 C   0  0  0  0  0  0  0  0  0  0  0  0
   10.4885   43.0415   35.0289 O   0  0  0  0  0  0  0  0  0  0  0  0
    8.8562   41.7138   34.0281 O   0  0  0  0  0  0  0  0  0  0  0  0
    9.4945   40.2170   34.4676 P   0  0  0  0  0  0  0  0  0  0  0  0
    9.7308   40.1747   36.1287 O   0  0  0  0  0  0  0  0  0  0  0  0
    8.7492   44.1379   33.7714 C   0  0  1  0  0  0  0  0  0  0  0  0
    9.3052   45.3680   34.3386 N   0  0  0  0  0  0  0  0  0  0  0  0
    8.8901   44.0559   32.2300 C   0  0  0  0  0  0  0  0  0  0  0  0
    8.2007   45.1770   31.4441 C   0  0  0  0  0  0  0  0  0  0  0  0
    6.6631   45.1088   31.4884 C   0  0  0  0  0  0  0  0  0  0  0  0
    6.0207   46.3219   30.8072 C   0  0  0  0  0  0  0  0  0  0  0  0
    6.4902   47.5670   31.4139 N   0  0  0  0  0  0  0  0  0  0  0  0
    7.2730   48.5188   30.6973 C   0  0  0  0  0  0  0  0  0  0  0  0
    7.7598   49.6427   31.3720 O   0  0  0  0  0  0  0  0  0  0  0  0
    7.5866   48.3119   29.4936 O   0  0  0  0  0  0  0  0  0  0  0  0
    8.8339   50.4383   30.8740 C   0  0  0  0  0  0  0  0  0  0  0  0
   10.1180   49.6367   30.8683 C   0  0  0  0  0  0  0  0  0  0  0  0
   10.4595   48.9166   32.0286 C   0  0  0  0  0  0  0  0  0  0  0  0
   10.9455   49.5300   29.7210 C   0  0  0  0  0  0  0  0  0  0  0  0
   11.5673   48.0682   32.0410 C   0  0  0  0  0  0  0  0  0  0  0  0
   12.0484   48.6580   29.7475 C   0  0  0  0  0  0  0  0  0  0  0  0
   10.7023   50.3123   28.5417 N   0  0  0  0  0  0  0  0  0  0  0  0
   12.3544   47.9312   30.8992 C   0  0  0  0  0  0  0  0  0  0  0  0
   10.4948   51.6683   28.6479 O   0  0  0  0  0  0  0  0  0  0  0  0
   10.9057   49.8200   27.4127 O   0  0  0  0  0  0  0  0  0  0  0  0
    8.5373   39.1409   34.0126 O   0  0  0  0  0  0  0  0  0  0  0  0
   10.9804   40.0890   33.6835 O   0  0  0  0  0  0  0  0  0  0  0  0
   10.8025   40.0903   32.2837 C   0  0  0  0  0  0  0  0  0  0  0  0
   11.5889   38.9175   31.7008 C   0  0  0  0  0  0  0  0  0  0  0  0
   12.9220   38.9374   32.1693 O   0  0  0  0  0  0  0  0  0  0  0  0
   11.0028   37.5683   32.0981 C   0  0  0  0  0  0  0  0  0  0  0  0
   13.3496   37.5886   32.2601 C   0  0  0  0  0  0  0  0  0  0  0  0
    9.9343   37.1824   31.2757 O   0  0  0  0  0  0  0  0  0  0  0  0
   12.1890   36.6678   31.9050 C   0  0  0  0  0  0  0  0  0  0  0  0
   13.8025   37.2965   33.6186 N   0  0  0  0  0  0  0  0  0  0  0  0
   12.2990   36.2868   30.5568 O   0  0  0  0  0  0  0  0  0  0  0  0
   14.7929   36.4725   33.9858 C   0  0  0  0  0  0  0  0  0  0  0  0
   13.2749   37.7295   34.7935 C   0  0  0  0  0  0  0  0  0  0  0  0
   15.6240   35.7580   33.1858 N   0  0  0  0  0  0  0  0  0  0  0  0
   14.8727   36.4411   35.3327 C   0  0  0  0  0  0  0  0  0  0  0  0
   13.9208   37.2263   35.8803 N   0  0  0  0  0  0  0  0  0  0  0  0
   16.5871   34.9921   33.7801 C   0  0  0  0  0  0  0  0  0  0  0  0
   15.8576   35.6718   35.9441 C   0  0  0  0  0  0  0  0  0  0  0  0
   16.7024   34.9584   35.1438 N   0  0  0  0  0  0  0  0  0  0  0  0
   16.0099   35.6384   37.3562 N   0  0  0  0  0  0  0  0  0  0  0  0
    7.6771   44.0660   34.0537 H   0  0  0  0  0  0  0  0  0  0  0  0
   10.2186   45.5867   33.8773 H   0  0  0  0  0  0  0  0  0  0  0  0
    8.6513   46.1591   34.1395 H   0  0  0  0  0  0  0  0  0  0  0  0
    8.4855   43.0857   31.8644 H   0  0  0  0  0  0  0  0  0  0  0  0
    9.9717   44.0709   31.9673 H   0  0  0  0  0  0  0  0  0  0  0  0
    8.5685   46.1541   31.8192 H   0  0  0  0  0  0  0  0  0  0  0  0
    8.5201   45.1035   30.3814 H   0  0  0  0  0  0  0  0  0  0  0  0
    6.3163   44.1797   30.9863 H   0  0  0  0  0  0  0  0  0  0  0  0
    6.3129   45.0828   32.5411 H   0  0  0  0  0  0  0  0  0  0  0  0
    6.2445   46.2878   29.7193 H   0  0  0  0  0  0  0  0  0  0  0  0
    4.9171   46.2611   30.9189 H   0  0  0  0  0  0  0  0  0  0  0  0
    6.2722   47.7504   32.4191 H   0  0  0  0  0  0  0  0  0  0  0  0
    8.5573   50.8168   29.8697 H   0  0  0  0  0  0  0  0  0  0  0  0
    8.9652   51.3134   31.5441 H   0  0  0  0  0  0  0  0  0  0  0  0
    9.8471   48.9902   32.9191 H   0  0  0  0  0  0  0  0  0  0  0  0
   11.8101   47.5088   32.9351 H   0  0  0  0  0  0  0  0  0  0  0  0
   12.6875   48.5591   28.8790 H   0  0  0  0  0  0  0  0  0  0  0  0
   13.2105   47.2691   30.9095 H   0  0  0  0  0  0  0  0  0  0  0  0
    9.7477   40.0333   31.9254 H   0  0  0  0  0  0  0  0  0  0  0  0
   11.2258   41.0359   31.8824 H   0  0  0  0  0  0  0  0  0  0  0  0
   11.5975   39.0148   30.5905 H   0  0  0  0  0  0  0  0  0  0  0  0
   10.7023   37.5458   33.1720 H   0  0  0  0  0  0  0  0  0  0  0  0
   14.1957   37.4366   31.5528 H   0  0  0  0  0  0  0  0  0  0  0  0
    9.1339   37.6660   31.6069 H   0  0  0  0  0  0  0  0  0  0  0  0
   12.1380   35.7718   32.5698 H   0  0  0  0  0  0  0  0  0  0  0  0
   11.7706   35.4531   30.4497 H   0  0  0  0  0  0  0  0  0  0  0  0
   12.4314   38.3981   34.8694 H   0  0  0  0  0  0  0  0  0  0  0  0
   17.2664   34.4140   33.1691 H   0  0  0  0  0  0  0  0  0  0  0  0
   16.7633   35.0598   37.7895 H   0  0  0  0  0  0  0  0  0  0  0  0
   15.3757   36.1868   37.9789 H   0  0  0  0  0  0  0  0  0  0  0  0
  1  2  2  0
  1  3  1  0
  3  4  1  0
  4  5  1  0
  6  1  1  0
  7  6  1  0
  6  8  1  0
  8  9  1  0
  9 10  1  0
 10 11  1  0
 11 12  1  0
 12 13  1  0
 13 14  1  0
 13 15  2  0
 14 16  1  0
 16 17  1  0
 17 18  2  0
 19 17  1  0
 18 20  1  0
 21 19  2  0
 19 22  1  0
 20 23  2  0
 23 21  1  0
 22 24  1  0
 22 25  2  0
  4 26  2  0
  4 27  1  0
 28 27  1  0
 28 29  1  0
 29 30  1  0
 29 31  1  0
 30 32  1  0
 31 33  1  0
 31 34  1  0
 34 32  1  0
 32 35  1  0
 34 36  1  0
 37 35  1  0
 38 35  1  0
 39 37  2  0
 37 40  1  0
 41 38  2  0
 42 39  1  0
 40 43  2  0
 40 41  1  0
 44 42  2  0
 44 43  1  0
 43 45  1  0
  6 46  1  6
  7 47  1  0
  7 48  1  0
  8 49  1  0
  8 50  1  0
  9 51  1  0
  9 52  1  0
 10 53  1  0
 10 54  1  0
 11 55  1  0
 11 56  1  0
 12 57  1  0
 16 58  1  0
 16 59  1  0
 18 60  1  0
 20 61  1  0
 21 62  1  0
 23 63  1  0
 28 64  1  0
 28 65  1  0
 29 66  1  0
 31 67  1  0
 32 68  1  0
 33 69  1  0
 34 70  1  0
 36 71  1  0
 38 72  1  0
 42 73  1  0
 45 74  1  0
 45 75  1  0
M  CHG  3   5  -1  22   1  24  -1
M  END
>  <EmbedRMS>  (69) 
0.0745713198267

$$$$

     RDKit          3D

 75 78  0  0  0  0  0  0  0  0999 V2000
    9.4332   42.9366   34.3464 C   0  0  0  0  0  0  0  0  0  0  0  0
   10.4908   43.0331   35.0319 O   0  0  0  0  0  0  0  0  0  0  0  0
    8.8559   41.7104   34.0306 O   0  0  0  0  0  0  0  0  0  0  0  0
    9.4931   40.2143   34.4708 P   0  0  0  0  0  0  0  0  0  0  0  0
    9.7288   40.1729   36.1318 O   0  0  0  0  0  0  0  0  0  0  0  0
    8.7506   44.1348   33.7741 C   0  0  1  0  0  0  0  0  0  0  0  0
    9.2963   45.3821   34.3133 N   0  0  0  0  0  0  0  0  0  0  0  0
    8.8893   44.0526   32.2359 C   0  0  0  0  0  0  0  0  0  0  0  0
    8.2029   45.1821   31.4614 C   0  0  0  0  0  0  0  0  0  0  0  0
    6.6654   45.1046   31.4854 C   0  0  0  0  0  0  0  0  0  0  0  0
    6.0272   46.3228   30.8107 C   0  0  0  0  0  0  0  0  0  0  0  0
    6.5071   47.5639   31.4183 N   0  0  0  0  0  0  0  0  0  0  0  0
    7.2415   48.5404   30.6828 C   0  0  0  0  0  0  0  0  0  0  0  0
    7.5831   49.7466   31.3035 O   0  0  0  0  0  0  0  0  0  0  0  0
    7.5944   48.3108   29.4942 O   0  0  0  0  0  0  0  0  0  0  0  0
    8.2906   50.7942   30.6423 C   0  0  0  0  0  0  0  0  0  0  0  0
    7.4263   51.4406   29.5834 C   0  0  0  0  0  0  0  0  0  0  0  0
    7.8916   51.4578   28.2555 C   0  0  0  0  0  0  0  0  0  0  0  0
    6.1455   51.9855   29.8767 C   0  0  0  0  0  0  0  0  0  0  0  0
    7.1069   51.9894   27.2317 C   0  0  0  0  0  0  0  0  0  0  0  0
    5.3657   52.5016   28.8261 C   0  0  0  0  0  0  0  0  0  0  0  0
    5.6085   52.0061   31.2125 N   0  0  0  0  0  0  0  0  0  0  0  0
    5.8451   52.5065   27.5158 C   0  0  0  0  0  0  0  0  0  0  0  0
    4.2472   51.9522   31.4059 O   0  0  0  0  0  0  0  0  0  0  0  0
    6.3437   52.2347   32.1944 O   0  0  0  0  0  0  0  0  0  0  0  0
    8.5366   39.1385   34.0140 O   0  0  0  0  0  0  0  0  0  0  0  0
   10.9795   40.0875   33.6890 O   0  0  0  0  0  0  0  0  0  0  0  0
   10.8017   40.0947   32.2902 C   0  0  0  0  0  0  0  0  0  0  0  0
   11.5885   38.9266   31.7041 C   0  0  0  0  0  0  0  0  0  0  0  0
   12.9237   38.9445   32.1721 O   0  0  0  0  0  0  0  0  0  0  0  0
   11.0029   37.5725   32.0908 C   0  0  0  0  0  0  0  0  0  0  0  0
   13.3555   37.5960   32.2594 C   0  0  0  0  0  0  0  0  0  0  0  0
    9.9380   37.1846   31.2656 O   0  0  0  0  0  0  0  0  0  0  0  0
   12.1932   36.6769   31.8952 C   0  0  0  0  0  0  0  0  0  0  0  0
   13.8028   37.2977   33.6186 N   0  0  0  0  0  0  0  0  0  0  0  0
   12.2918   36.2396   30.5587 O   0  0  0  0  0  0  0  0  0  0  0  0
   14.7926   36.4727   33.9858 C   0  0  0  0  0  0  0  0  0  0  0  0
   13.2750   37.7302   34.7935 C   0  0  0  0  0  0  0  0  0  0  0  0
   15.6241   35.7586   33.1857 N   0  0  0  0  0  0  0  0  0  0  0  0
   14.8721   36.4408   35.3326 C   0  0  0  0  0  0  0  0  0  0  0  0
   13.9204   37.2263   35.8802 N   0  0  0  0  0  0  0  0  0  0  0  0
   16.5870   34.9925   33.7800 C   0  0  0  0  0  0  0  0  0  0  0  0
   15.8572   35.6717   35.9441 C   0  0  0  0  0  0  0  0  0  0  0  0
   16.7022   34.9586   35.1437 N   0  0  0  0  0  0  0  0  0  0  0  0
   16.0097   35.6384   37.3561 N   0  0  0  0  0  0  0  0  0  0  0  0
    7.6770   44.0707   34.0504 H   0  0  0  0  0  0  0  0  0  0  0  0
   10.3192   45.4407   34.0999 H   0  0  0  0  0  0  0  0  0  0  0  0
    9.1827   45.3821   35.3534 H   0  0  0  0  0  0  0  0  0  0  0  0
    9.9711   44.0679   31.9740 H   0  0  0  0  0  0  0  0  0  0  0  0
    8.4816   43.0849   31.8670 H   0  0  0  0  0  0  0  0  0  0  0  0
    8.5385   45.1359   30.4021 H   0  0  0  0  0  0  0  0  0  0  0  0
    8.5554   46.1508   31.8739 H   0  0  0  0  0  0  0  0  0  0  0  0
    6.3296   44.1801   30.9675 H   0  0  0  0  0  0  0  0  0  0  0  0
    6.3021   45.0641   32.5333 H   0  0  0  0  0  0  0  0  0  0  0  0
    6.2464   46.2901   29.7218 H   0  0  0  0  0  0  0  0  0  0  0  0
    4.9238   46.2679   30.9270 H   0  0  0  0  0  0  0  0  0  0  0  0
    6.2817   47.7539   32.4207 H   0  0  0  0  0  0  0  0  0  0  0  0
    8.5941   51.5579   31.3871 H   0  0  0  0  0  0  0  0  0  0  0  0
    9.2317   50.3853   30.2130 H   0  0  0  0  0  0  0  0  0  0  0  0
    8.8626   51.0477   28.0064 H   0  0  0  0  0  0  0  0  0  0  0  0
    7.4759   51.9937   26.2142 H   0  0  0  0  0  0  0  0  0  0  0  0
    4.3860   52.9174   29.0244 H   0  0  0  0  0  0  0  0  0  0  0  0
    5.2365   52.9143   26.7189 H   0  0  0  0  0  0  0  0  0  0  0  0
    9.7472   40.0378   31.9304 H   0  0  0  0  0  0  0  0  0  0  0  0
   11.2242   41.0427   31.8934 H   0  0  0  0  0  0  0  0  0  0  0  0
   11.5927   39.0434   30.5965 H   0  0  0  0  0  0  0  0  0  0  0  0
   10.7003   37.5442   33.1640 H   0  0  0  0  0  0  0  0  0  0  0  0
   14.2052   37.4477   31.5560 H   0  0  0  0  0  0  0  0  0  0  0  0
    9.1374   37.6722   31.5905 H   0  0  0  0  0  0  0  0  0  0  0  0
   12.1305   35.7855   32.5585 H   0  0  0  0  0  0  0  0  0  0  0  0
   12.4607   37.0186   29.9674 H   0  0  0  0  0  0  0  0  0  0  0  0
   12.4327   38.4001   34.8694 H   0  0  0  0  0  0  0  0  0  0  0  0
   17.2666   34.4146   33.1690 H   0  0  0  0  0  0  0  0  0  0  0  0
   15.3754   36.1866   37.9788 H   0  0  0  0  0  0  0  0  0  0  0  0
   16.7634   35.0601   37.7894 H   0  0  0  0  0  0  0  0  0  0  0  0
  1  2  2  0
  1  3  1  0
  3  4  1  0
  4  5  1  0
  6  1  1  0
  7  6  1  0
  6  8  1  0
  8  9  1  0
  9 10  1  0
 10 11  1  0
 11 12  1  0
 12 13  1  0
 13 14  1  0
 13 15  2  0
 14 16  1  0
 16 17  1  0
 17 18  2  0
 19 17  1  0
 18 20  1  0
 21 19  2  0
 19 22  1  0
 20 23  2  0
 23 21  1  0
 22 24  1  0
 22 25  2  0
  4 26  2  0
  4 27  1  0
 28 27  1  0
 28 29  1  0
 29 30  1  0
 29 31  1  0
 30 32  1  0
 31 33  1  0
 31 34  1  0
 34 32  1  0
 32 35  1  0
 34 36  1  0
 37 35  1  0
 38 35  1  0
 39 37  2  0
 37 40  1  0
 41 38  2  0
 42 39  1  0
 40 43  2  0
 40 41  1  0
 44 42  2  0
 44 43  1  0
 43 45  1  0
  6 46  1  6
  7 47  1  0
  7 48  1  0
  8 49  1  0
  8 50  1  0
  9 51  1  0
  9 52  1  0
 10 53  1  0
 10 54  1  0
 11 55  1  0
 11 56  1  0
 12 57  1  0
 16 58  1  0
 16 59  1  0
 18 60  1  0
 20 61  1  0
 21 62  1  0
 23 63  1  0
 28 64  1  0
 28 65  1  0
 29 66  1  0
 31 67  1  0
 32 68  1  0
 33 69  1  0
 34 70  1  0
 36 71  1  0
 38 72  1  0
 42 73  1  0
 45 74  1  0
 45 75  1  0
M  CHG  3   5  -1  22   1  24  -1
M  END
>  <EmbedRMS>  (70) 
0.0756534331822

$$$$

     RDKit          3D

 75 78  0  0  0  0  0  0  0  0999 V2000
    9.4312   42.9411   34.3439 C   0  0  0  0  0  0  0  0  0  0  0  0
   10.4886   43.0410   35.0294 O   0  0  0  0  0  0  0  0  0  0  0  0
    8.8558   41.7128   34.0296 O   0  0  0  0  0  0  0  0  0  0  0  0
    9.4933   40.2162   34.4702 P   0  0  0  0  0  0  0  0  0  0  0  0
    9.7295   40.1742   36.1312 O   0  0  0  0  0  0  0  0  0  0  0  0
    8.7484   44.1359   33.7721 C   0  0  1  0  0  0  0  0  0  0  0  0
    9.3039   45.3664   34.3388 N   0  0  0  0  0  0  0  0  0  0  0  0
    8.8892   44.0518   32.2309 C   0  0  0  0  0  0  0  0  0  0  0  0
    8.2015   45.1720   31.4435 C   0  0  0  0  0  0  0  0  0  0  0  0
    6.6643   45.1065   31.4886 C   0  0  0  0  0  0  0  0  0  0  0  0
    6.0268   46.3237   30.8122 C   0  0  0  0  0  0  0  0  0  0  0  0
    6.5084   47.5645   31.4189 N   0  0  0  0  0  0  0  0  0  0  0  0
    7.2421   48.5409   30.6824 C   0  0  0  0  0  0  0  0  0  0  0  0
    7.5884   49.7447   31.3052 O   0  0  0  0  0  0  0  0  0  0  0  0
    7.5939   48.3102   29.4941 O   0  0  0  0  0  0  0  0  0  0  0  0
    8.2816   50.8032   30.6460 C   0  0  0  0  0  0  0  0  0  0  0  0
    7.3776   51.5015   29.6566 C   0  0  0  0  0  0  0  0  0  0  0  0
    7.5762   51.2621   28.2840 C   0  0  0  0  0  0  0  0  0  0  0  0
    6.3676   52.4184   30.0621 C   0  0  0  0  0  0  0  0  0  0  0  0
    6.7951   51.9088   27.3263 C   0  0  0  0  0  0  0  0  0  0  0  0
    5.6021   53.0690   29.0770 C   0  0  0  0  0  0  0  0  0  0  0  0
    6.1222   52.7317   31.4467 N   0  0  0  0  0  0  0  0  0  0  0  0
    5.8112   52.8115   27.7219 C   0  0  0  0  0  0  0  0  0  0  0  0
    5.6120   53.9624   31.7914 O   0  0  0  0  0  0  0  0  0  0  0  0
    6.2182   51.8569   32.3309 O   0  0  0  0  0  0  0  0  0  0  0  0
    8.5368   39.1399   34.0139 O   0  0  0  0  0  0  0  0  0  0  0  0
   10.9789   40.0874   33.6872 O   0  0  0  0  0  0  0  0  0  0  0  0
   10.7993   40.0946   32.2885 C   0  0  0  0  0  0  0  0  0  0  0  0
   11.5957   38.9352   31.6994 C   0  0  0  0  0  0  0  0  0  0  0  0
   12.9257   38.9478   32.1799 O   0  0  0  0  0  0  0  0  0  0  0  0
   11.0070   37.5758   32.0732 C   0  0  0  0  0  0  0  0  0  0  0  0
   13.3571   37.5980   32.2612 C   0  0  0  0  0  0  0  0  0  0  0  0
    9.9093   37.1808   31.2875 O   0  0  0  0  0  0  0  0  0  0  0  0
   12.1967   36.6764   31.8894 C   0  0  0  0  0  0  0  0  0  0  0  0
   13.8018   37.2956   33.6197 N   0  0  0  0  0  0  0  0  0  0  0  0
   12.3048   36.2360   30.5555 O   0  0  0  0  0  0  0  0  0  0  0  0
   14.7922   36.4716   33.9864 C   0  0  0  0  0  0  0  0  0  0  0  0
   13.2747   37.7291   34.7944 C   0  0  0  0  0  0  0  0  0  0  0  0
   15.6240   35.7581   33.1861 N   0  0  0  0  0  0  0  0  0  0  0  0
   14.8721   36.4401   35.3331 C   0  0  0  0  0  0  0  0  0  0  0  0
   13.9206   37.2257   35.8810 N   0  0  0  0  0  0  0  0  0  0  0  0
   16.5873   34.9924   33.7802 C   0  0  0  0  0  0  0  0  0  0  0  0
   15.8576   35.6714   35.9444 C   0  0  0  0  0  0  0  0  0  0  0  0
   16.7026   34.9585   35.1439 N   0  0  0  0  0  0  0  0  0  0  0  0
   16.0102   35.6382   37.3564 N   0  0  0  0  0  0  0  0  0  0  0  0
    7.6764   44.0634   34.0548 H   0  0  0  0  0  0  0  0  0  0  0  0
    8.6468   46.1558   34.1430 H   0  0  0  0  0  0  0  0  0  0  0  0
   10.2152   45.5878   33.8747 H   0  0  0  0  0  0  0  0  0  0  0  0
    8.4830   43.0817   31.8667 H   0  0  0  0  0  0  0  0  0  0  0  0
    9.9708   44.0641   31.9680 H   0  0  0  0  0  0  0  0  0  0  0  0
    8.5199   45.0957   30.3807 H   0  0  0  0  0  0  0  0  0  0  0  0
    8.5715   46.1486   31.8173 H   0  0  0  0  0  0  0  0  0  0  0  0
    6.3142   45.0783   32.5413 H   0  0  0  0  0  0  0  0  0  0  0  0
    6.3148   44.1800   30.9835 H   0  0  0  0  0  0  0  0  0  0  0  0
    4.9234   46.2700   30.9301 H   0  0  0  0  0  0  0  0  0  0  0  0
    6.2448   46.2896   29.7231 H   0  0  0  0  0  0  0  0  0  0  0  0
    6.2859   47.7539   32.4220 H   0  0  0  0  0  0  0  0  0  0  0  0
    9.1900   50.3956   30.1499 H   0  0  0  0  0  0  0  0  0  0  0  0
    8.6413   51.5339   31.4003 H   0  0  0  0  0  0  0  0  0  0  0  0
    8.3425   50.5730   27.9507 H   0  0  0  0  0  0  0  0  0  0  0  0
    6.9574   51.7132   26.2741 H   0  0  0  0  0  0  0  0  0  0  0  0
    4.8290   53.7721   29.3598 H   0  0  0  0  0  0  0  0  0  0  0  0
    5.2089   53.3149   26.9765 H   0  0  0  0  0  0  0  0  0  0  0  0
   11.2092   41.0481   31.8917 H   0  0  0  0  0  0  0  0  0  0  0  0
    9.7448   40.0200   31.9305 H   0  0  0  0  0  0  0  0  0  0  0  0
   11.6207   39.0685   30.5942 H   0  0  0  0  0  0  0  0  0  0  0  0
   10.7059   37.5564   33.1439 H   0  0  0  0  0  0  0  0  0  0  0  0
   14.2095   37.4543   31.5601 H   0  0  0  0  0  0  0  0  0  0  0  0
   10.0864   37.4210   30.3413 H   0  0  0  0  0  0  0  0  0  0  0  0
   12.1275   35.7872   32.5550 H   0  0  0  0  0  0  0  0  0  0  0  0
   12.5031   37.0109   29.9673 H   0  0  0  0  0  0  0  0  0  0  0  0
   12.4328   38.3996   34.8703 H   0  0  0  0  0  0  0  0  0  0  0  0
   17.2670   34.4149   33.1691 H   0  0  0  0  0  0  0  0  0  0  0  0
   15.3758   36.1862   37.9791 H   0  0  0  0  0  0  0  0  0  0  0  0
   16.7640   35.0601   37.7896 H   0  0  0  0  0  0  0  0  0  0  0  0
  1  2  2  0
  1  3  1  0
  3  4  1  0
  4  5  1  0
  6  1  1  0
  7  6  1  0
  6  8  1  0
  8  9  1  0
  9 10  1  0
 10 11  1  0
 11 12  1  0
 12 13  1  0
 13 14  1  0
 13 15  2  0
 14 16  1  0
 16 17  1  0
 17 18  2  0
 19 17  1  0
 18 20  1  0
 21 19  2  0
 19 22  1  0
 20 23  2  0
 23 21  1  0
 22 24  1  0
 22 25  2  0
  4 26  2  0
  4 27  1  0
 28 27  1  0
 28 29  1  0
 29 30  1  0
 29 31  1  0
 30 32  1  0
 31 33  1  0
 31 34  1  0
 34 32  1  0
 32 35  1  0
 34 36  1  0
 37 35  1  0
 38 35  1  0
 39 37  2  0
 37 40  1  0
 41 38  2  0
 42 39  1  0
 40 43  2  0
 40 41  1  0
 44 42  2  0
 44 43  1  0
 43 45  1  0
  6 46  1  6
  7 47  1  0
  7 48  1  0
  8 49  1  0
  8 50  1  0
  9 51  1  0
  9 52  1  0
 10 53  1  0
 10 54  1  0
 11 55  1  0
 11 56  1  0
 12 57  1  0
 16 58  1  0
 16 59  1  0
 18 60  1  0
 20 61  1  0
 21 62  1  0
 23 63  1  0
 28 64  1  0
 28 65  1  0
 29 66  1  0
 31 67  1  0
 32 68  1  0
 33 69  1  0
 34 70  1  0
 36 71  1  0
 38 72  1  0
 42 73  1  0
 45 74  1  0
 45 75  1  0
M  CHG  3   5  -1  22   1  24  -1
M  END
>  <EmbedRMS>  (71) 
0.0753182449866

$$$$

     RDKit          3D

 75 78  0  0  0  0  0  0  0  0999 V2000
    9.4323   42.9432   34.3417 C   0  0  0  0  0  0  0  0  0  0  0  0
   10.4884   43.0423   35.0292 O   0  0  0  0  0  0  0  0  0  0  0  0
    8.8565   41.7148   34.0272 O   0  0  0  0  0  0  0  0  0  0  0  0
    9.4944   40.2175   34.4671 P   0  0  0  0  0  0  0  0  0  0  0  0
    9.7307   40.1740   36.1281 O   0  0  0  0  0  0  0  0  0  0  0  0
    8.7503   44.1397   33.7713 C   0  0  1  0  0  0  0  0  0  0  0  0
    9.3077   45.3695   34.3386 N   0  0  0  0  0  0  0  0  0  0  0  0
    8.8899   44.0581   32.2299 C   0  0  0  0  0  0  0  0  0  0  0  0
    8.2001   45.1800   31.4450 C   0  0  0  0  0  0  0  0  0  0  0  0
    6.6624   45.1096   31.4877 C   0  0  0  0  0  0  0  0  0  0  0  0
    6.0175   46.3205   30.8036 C   0  0  0  0  0  0  0  0  0  0  0  0
    6.4807   47.5670   31.4107 N   0  0  0  0  0  0  0  0  0  0  0  0
    7.2864   48.5072   30.7051 C   0  0  0  0  0  0  0  0  0  0  0  0
    7.8294   49.5877   31.4050 O   0  0  0  0  0  0  0  0  0  0  0  0
    7.5845   48.3147   29.4952 O   0  0  0  0  0  0  0  0  0  0  0  0
    9.0449   50.2271   31.0227 C   0  0  0  0  0  0  0  0  0  0  0  0
   10.2039   49.2608   31.1495 C   0  0  0  0  0  0  0  0  0  0  0  0
   10.7723   48.7408   29.9715 C   0  0  0  0  0  0  0  0  0  0  0  0
   10.7337   48.8603   32.4097 C   0  0  0  0  0  0  0  0  0  0  0  0
   11.8413   47.8445   30.0286 C   0  0  0  0  0  0  0  0  0  0  0  0
   11.8202   47.9650   32.4411 C   0  0  0  0  0  0  0  0  0  0  0  0
   10.2190   49.3638   33.6577 N   0  0  0  0  0  0  0  0  0  0  0  0
   12.3640   47.4574   31.2609 C   0  0  0  0  0  0  0  0  0  0  0  0
   11.0490   49.4580   34.7520 O   0  0  0  0  0  0  0  0  0  0  0  0
    8.9972   49.5598   33.8178 O   0  0  0  0  0  0  0  0  0  0  0  0
    8.5371   39.1413   34.0124 O   0  0  0  0  0  0  0  0  0  0  0  0
   10.9804   40.0884   33.6832 O   0  0  0  0  0  0  0  0  0  0  0  0
   10.8028   40.0899   32.2835 C   0  0  0  0  0  0  0  0  0  0  0  0
   11.5887   38.9170   31.7008 C   0  0  0  0  0  0  0  0  0  0  0  0
   12.9219   38.9372   32.1686 O   0  0  0  0  0  0  0  0  0  0  0  0
   11.0029   37.5678   32.0986 C   0  0  0  0  0  0  0  0  0  0  0  0
   13.3496   37.5885   32.2599 C   0  0  0  0  0  0  0  0  0  0  0  0
    9.9346   37.1810   31.2763 O   0  0  0  0  0  0  0  0  0  0  0  0
   12.1891   36.6676   31.9053 C   0  0  0  0  0  0  0  0  0  0  0  0
   13.8020   37.2963   33.6186 N   0  0  0  0  0  0  0  0  0  0  0  0
   12.2985   36.2868   30.5571 O   0  0  0  0  0  0  0  0  0  0  0  0
   14.7926   36.4724   33.9859 C   0  0  0  0  0  0  0  0  0  0  0  0
   13.2748   37.7303   34.7933 C   0  0  0  0  0  0  0  0  0  0  0  0
   15.6244   35.7586   33.1859 N   0  0  0  0  0  0  0  0  0  0  0  0
   14.8725   36.4413   35.3328 C   0  0  0  0  0  0  0  0  0  0  0  0
   13.9209   37.2273   35.8801 N   0  0  0  0  0  0  0  0  0  0  0  0
   16.5877   34.9927   33.7800 C   0  0  0  0  0  0  0  0  0  0  0  0
   15.8573   35.6716   35.9442 C   0  0  0  0  0  0  0  0  0  0  0  0
   16.7023   34.9582   35.1438 N   0  0  0  0  0  0  0  0  0  0  0  0
   16.0094   35.6382   37.3563 N   0  0  0  0  0  0  0  0  0  0  0  0
    7.6785   44.0684   34.0543 H   0  0  0  0  0  0  0  0  0  0  0  0
    8.6530   46.1608   34.1424 H   0  0  0  0  0  0  0  0  0  0  0  0
   10.2193   45.5906   33.8747 H   0  0  0  0  0  0  0  0  0  0  0  0
    9.9717   44.0722   31.9677 H   0  0  0  0  0  0  0  0  0  0  0  0
    8.4850   43.0882   31.8638 H   0  0  0  0  0  0  0  0  0  0  0  0
    8.5661   46.1569   31.8233 H   0  0  0  0  0  0  0  0  0  0  0  0
    8.5198   45.1090   30.3824 H   0  0  0  0  0  0  0  0  0  0  0  0
    6.3125   45.0855   32.5403 H   0  0  0  0  0  0  0  0  0  0  0  0
    6.3174   44.1784   30.9879 H   0  0  0  0  0  0  0  0  0  0  0  0
    4.9135   46.2564   30.9118 H   0  0  0  0  0  0  0  0  0  0  0  0
    6.2462   46.2874   29.7168 H   0  0  0  0  0  0  0  0  0  0  0  0
    6.2623   47.7477   32.4165 H   0  0  0  0  0  0  0  0  0  0  0  0
    9.2204   51.1110   31.6728 H   0  0  0  0  0  0  0  0  0  0  0  0
    8.9456   50.6116   29.9837 H   0  0  0  0  0  0  0  0  0  0  0  0
   10.3847   49.0271   29.0007 H   0  0  0  0  0  0  0  0  0  0  0  0
   12.2652   47.4498   29.1139 H   0  0  0  0  0  0  0  0  0  0  0  0
   12.2399   47.6440   33.3869 H   0  0  0  0  0  0  0  0  0  0  0  0
   13.1930   46.7605   31.3030 H   0  0  0  0  0  0  0  0  0  0  0  0
    9.7479   40.0328   31.9255 H   0  0  0  0  0  0  0  0  0  0  0  0
   11.2274   41.0351   31.8826 H   0  0  0  0  0  0  0  0  0  0  0  0
   11.5970   39.0139   30.5905 H   0  0  0  0  0  0  0  0  0  0  0  0
   10.7026   37.5450   33.1726 H   0  0  0  0  0  0  0  0  0  0  0  0
   14.1962   37.4378   31.5527 H   0  0  0  0  0  0  0  0  0  0  0  0
    9.1346   37.6656   31.6063 H   0  0  0  0  0  0  0  0  0  0  0  0
   12.1392   35.7718   32.5707 H   0  0  0  0  0  0  0  0  0  0  0  0
   11.7701   35.4532   30.4501 H   0  0  0  0  0  0  0  0  0  0  0  0
   12.4324   38.4007   34.8691 H   0  0  0  0  0  0  0  0  0  0  0  0
   17.2666   34.4140   33.1684 H   0  0  0  0  0  0  0  0  0  0  0  0
   16.7630   35.0594   37.7890 H   0  0  0  0  0  0  0  0  0  0  0  0
   15.3753   36.1866   37.9793 H   0  0  0  0  0  0  0  0  0  0  0  0
  1  2  2  0
  1  3  1  0
  3  4  1  0
  4  5  1  0
  6  1  1  0
  7  6  1  0
  6  8  1  0
  8  9  1  0
  9 10  1  0
 10 11  1  0
 11 12  1  0
 12 13  1  0
 13 14  1  0
 13 15  2  0
 14 16  1  0
 16 17  1  0
 17 18  2  0
 19 17  1  0
 18 20  1  0
 21 19  2  0
 19 22  1  0
 20 23  2  0
 23 21  1  0
 22 24  1  0
 22 25  2  0
  4 26  2  0
  4 27  1  0
 28 27  1  0
 28 29  1  0
 29 30  1  0
 29 31  1  0
 30 32  1  0
 31 33  1  0
 31 34  1  0
 34 32  1  0
 32 35  1  0
 34 36  1  0
 37 35  1  0
 38 35  1  0
 39 37  2  0
 37 40  1  0
 41 38  2  0
 42 39  1  0
 40 43  2  0
 40 41  1  0
 44 42  2  0
 44 43  1  0
 43 45  1  0
  6 46  1  6
  7 47  1  0
  7 48  1  0
  8 49  1  0
  8 50  1  0
  9 51  1  0
  9 52  1  0
 10 53  1  0
 10 54  1  0
 11 55  1  0
 11 56  1  0
 12 57  1  0
 16 58  1  0
 16 59  1  0
 18 60  1  0
 20 61  1  0
 21 62  1  0
 23 63  1  0
 28 64  1  0
 28 65  1  0
 29 66  1  0
 31 67  1  0
 32 68  1  0
 33 69  1  0
 34 70  1  0
 36 71  1  0
 38 72  1  0
 42 73  1  0
 45 74  1  0
 45 75  1  0
M  CHG  3   5  -1  22   1  24  -1
M  END
>  <EmbedRMS>  (72) 
0.0754720233003

$$$$

     RDKit          3D

 75 78  0  0  0  0  0  0  0  0999 V2000
    9.4313   42.9411   34.3437 C   0  0  0  0  0  0  0  0  0  0  0  0
   10.4885   43.0410   35.0294 O   0  0  0  0  0  0  0  0  0  0  0  0
    8.8562   41.7128   34.0288 O   0  0  0  0  0  0  0  0  0  0  0  0
    9.4947   40.2163   34.4679 P   0  0  0  0  0  0  0  0  0  0  0  0
    9.7310   40.1742   36.1290 O   0  0  0  0  0  0  0  0  0  0  0  0
    8.7484   44.1360   33.7721 C   0  0  1  0  0  0  0  0  0  0  0  0
    9.3039   45.3665   34.3388 N   0  0  0  0  0  0  0  0  0  0  0  0
    8.8892   44.0519   32.2308 C   0  0  0  0  0  0  0  0  0  0  0  0
    8.2015   45.1721   31.4435 C   0  0  0  0  0  0  0  0  0  0  0  0
    6.6643   45.1066   31.4887 C   0  0  0  0  0  0  0  0  0  0  0  0
    6.0267   46.3237   30.8124 C   0  0  0  0  0  0  0  0  0  0  0  0
    6.5082   47.5646   31.4190 N   0  0  0  0  0  0  0  0  0  0  0  0
    7.2421   48.5406   30.6824 C   0  0  0  0  0  0  0  0  0  0  0  0
    7.5845   49.7475   31.3019 O   0  0  0  0  0  0  0  0  0  0  0  0
    7.5942   48.3102   29.4938 O   0  0  0  0  0  0  0  0  0  0  0  0
    8.3045   50.7871   30.6410 C   0  0  0  0  0  0  0  0  0  0  0  0
    7.4398   51.4444   29.5883 C   0  0  0  0  0  0  0  0  0  0  0  0
    6.1712   51.9153   29.9724 C   0  0  0  0  0  0  0  0  0  0  0  0
    7.8374   51.5596   28.2302 C   0  0  0  0  0  0  0  0  0  0  0  0
    5.2941   52.4516   29.0285 C   0  0  0  0  0  0  0  0  0  0  0  0
    6.9327   52.0830   27.2911 C   0  0  0  0  0  0  0  0  0  0  0  0
    9.1477   51.1757   27.7879 N   0  0  0  0  0  0  0  0  0  0  0  0
    5.6704   52.5262   27.6886 C   0  0  0  0  0  0  0  0  0  0  0  0
    9.3031   50.5678   26.5635 O   0  0  0  0  0  0  0  0  0  0  0  0
   10.1581   51.6144   28.3750 O   0  0  0  0  0  0  0  0  0  0  0  0
    8.5375   39.1404   34.0127 O   0  0  0  0  0  0  0  0  0  0  0  0
   10.9805   40.0889   33.6836 O   0  0  0  0  0  0  0  0  0  0  0  0
   10.8025   40.0902   32.2837 C   0  0  0  0  0  0  0  0  0  0  0  0
   11.5888   38.9175   31.7008 C   0  0  0  0  0  0  0  0  0  0  0  0
   12.9219   38.9373   32.1692 O   0  0  0  0  0  0  0  0  0  0  0  0
   11.0028   37.5683   32.0981 C   0  0  0  0  0  0  0  0  0  0  0  0
   13.3496   37.5886   32.2601 C   0  0  0  0  0  0  0  0  0  0  0  0
    9.9343   37.1823   31.2757 O   0  0  0  0  0  0  0  0  0  0  0  0
   12.1891   36.6677   31.9050 C   0  0  0  0  0  0  0  0  0  0  0  0
   13.8025   37.2965   33.6186 N   0  0  0  0  0  0  0  0  0  0  0  0
   12.2990   36.2868   30.5568 O   0  0  0  0  0  0  0  0  0  0  0  0
   14.7929   36.4725   33.9858 C   0  0  0  0  0  0  0  0  0  0  0  0
   13.2749   37.7294   34.7935 C   0  0  0  0  0  0  0  0  0  0  0  0
   15.6240   35.7580   33.1858 N   0  0  0  0  0  0  0  0  0  0  0  0
   14.8727   36.4411   35.3327 C   0  0  0  0  0  0  0  0  0  0  0  0
   13.9208   37.2263   35.8803 N   0  0  0  0  0  0  0  0  0  0  0  0
   16.5871   34.9921   33.7801 C   0  0  0  0  0  0  0  0  0  0  0  0
   15.8576   35.6718   35.9441 C   0  0  0  0  0  0  0  0  0  0  0  0
   16.7024   34.9584   35.1438 N   0  0  0  0  0  0  0  0  0  0  0  0
   16.0099   35.6384   37.3562 N   0  0  0  0  0  0  0  0  0  0  0  0
    7.6764   44.0634   34.0547 H   0  0  0  0  0  0  0  0  0  0  0  0
    8.6468   46.1558   34.1431 H   0  0  0  0  0  0  0  0  0  0  0  0
   10.2152   45.5879   33.8748 H   0  0  0  0  0  0  0  0  0  0  0  0
    8.4831   43.0818   31.8666 H   0  0  0  0  0  0  0  0  0  0  0  0
    9.9708   44.0643   31.9679 H   0  0  0  0  0  0  0  0  0  0  0  0
    8.5714   46.1487   31.8173 H   0  0  0  0  0  0  0  0  0  0  0  0
    8.5198   45.0959   30.3807 H   0  0  0  0  0  0  0  0  0  0  0  0
    6.3147   44.1801   30.9836 H   0  0  0  0  0  0  0  0  0  0  0  0
    6.3142   45.0783   32.5414 H   0  0  0  0  0  0  0  0  0  0  0  0
    6.2447   46.2897   29.7233 H   0  0  0  0  0  0  0  0  0  0  0  0
    4.9234   46.2699   30.9302 H   0  0  0  0  0  0  0  0  0  0  0  0
    6.2851   47.7544   32.4220 H   0  0  0  0  0  0  0  0  0  0  0  0
    8.5871   51.5531   31.3932 H   0  0  0  0  0  0  0  0  0  0  0  0
    9.2417   50.3613   30.2316 H   0  0  0  0  0  0  0  0  0  0  0  0
    5.8527   51.8477   31.0056 H   0  0  0  0  0  0  0  0  0  0  0  0
    4.3170   52.8016   29.3357 H   0  0  0  0  0  0  0  0  0  0  0  0
    7.2170   52.1714   26.2500 H   0  0  0  0  0  0  0  0  0  0  0  0
    4.9866   52.9377   26.9574 H   0  0  0  0  0  0  0  0  0  0  0  0
    9.7476   40.0332   31.9256 H   0  0  0  0  0  0  0  0  0  0  0  0
   11.2257   41.0358   31.8825 H   0  0  0  0  0  0  0  0  0  0  0  0
   11.5975   39.0148   30.5905 H   0  0  0  0  0  0  0  0  0  0  0  0
   10.7023   37.5457   33.1720 H   0  0  0  0  0  0  0  0  0  0  0  0
   14.1957   37.4366   31.5528 H   0  0  0  0  0  0  0  0  0  0  0  0
    9.1339   37.6659   31.6070 H   0  0  0  0  0  0  0  0  0  0  0  0
   12.1380   35.7717   32.5698 H   0  0  0  0  0  0  0  0  0  0  0  0
   11.7707   35.4530   30.4496 H   0  0  0  0  0  0  0  0  0  0  0  0
   12.4314   38.3980   34.8694 H   0  0  0  0  0  0  0  0  0  0  0  0
   17.2665   34.4140   33.1691 H   0  0  0  0  0  0  0  0  0  0  0  0
   16.7633   35.0598   37.7895 H   0  0  0  0  0  0  0  0  0  0  0  0
   15.3757   36.1867   37.9789 H   0  0  0  0  0  0  0  0  0  0  0  0
  1  2  2  0
  1  3  1  0
  3  4  1  0
  4  5  1  0
  6  1  1  0
  7  6  1  0
  6  8  1  0
  8  9  1  0
  9 10  1  0
 10 11  1  0
 11 12  1  0
 12 13  1  0
 13 14  1  0
 13 15  2  0
 14 16  1  0
 16 17  1  0
 17 18  2  0
 19 17  1  0
 18 20  1  0
 21 19  2  0
 19 22  1  0
 20 23  2  0
 23 21  1  0
 22 24  1  0
 22 25  2  0
  4 26  2  0
  4 27  1  0
 28 27  1  0
 28 29  1  0
 29 30  1  0
 29 31  1  0
 30 32  1  0
 31 33  1  0
 31 34  1  0
 34 32  1  0
 32 35  1  0
 34 36  1  0
 37 35  1  0
 38 35  1  0
 39 37  2  0
 37 40  1  0
 41 38  2  0
 42 39  1  0
 40 43  2  0
 40 41  1  0
 44 42  2  0
 44 43  1  0
 43 45  1  0
  6 46  1  6
  7 47  1  0
  7 48  1  0
  8 49  1  0
  8 50  1  0
  9 51  1  0
  9 52  1  0
 10 53  1  0
 10 54  1  0
 11 55  1  0
 11 56  1  0
 12 57  1  0
 16 58  1  0
 16 59  1  0
 18 60  1  0
 20 61  1  0
 21 62  1  0
 23 63  1  0
 28 64  1  0
 28 65  1  0
 29 66  1  0
 31 67  1  0
 32 68  1  0
 33 69  1  0
 34 70  1  0
 36 71  1  0
 38 72  1  0
 42 73  1  0
 45 74  1  0
 45 75  1  0
M  CHG  3   5  -1  22   1  24  -1
M  END
>  <EmbedRMS>  (73) 
0.0733420680293

$$$$

     RDKit          3D

 75 78  0  0  0  0  0  0  0  0999 V2000
    9.4334   42.9370   34.3458 C   0  0  0  0  0  0  0  0  0  0  0  0
   10.4908   43.0333   35.0315 O   0  0  0  0  0  0  0  0  0  0  0  0
    8.8560   41.7108   34.0297 O   0  0  0  0  0  0  0  0  0  0  0  0
    9.4944   40.2144   34.4676 P   0  0  0  0  0  0  0  0  0  0  0  0
    9.7316   40.1725   36.1287 O   0  0  0  0  0  0  0  0  0  0  0  0
    8.7509   44.1355   33.7737 C   0  0  1  0  0  0  0  0  0  0  0  0
    9.2970   45.3828   34.3127 N   0  0  0  0  0  0  0  0  0  0  0  0
    8.8891   44.0537   32.2354 C   0  0  0  0  0  0  0  0  0  0  0  0
    8.2020   45.1836   31.4619 C   0  0  0  0  0  0  0  0  0  0  0  0
    6.6646   45.1050   31.4850 C   0  0  0  0  0  0  0  0  0  0  0  0
    6.0250   46.3221   30.8086 C   0  0  0  0  0  0  0  0  0  0  0  0
    6.5002   47.5649   31.4164 N   0  0  0  0  0  0  0  0  0  0  0  0
    7.2523   48.5335   30.6884 C   0  0  0  0  0  0  0  0  0  0  0  0
    7.6492   49.7119   31.3321 O   0  0  0  0  0  0  0  0  0  0  0  0
    7.5931   48.3106   29.4950 O   0  0  0  0  0  0  0  0  0  0  0  0
    8.5169   50.6776   30.7363 C   0  0  0  0  0  0  0  0  0  0  0  0
    9.9879   50.3247   30.8829 C   0  0  0  0  0  0  0  0  0  0  0  0
   10.3790   49.1255   31.5190 C   0  0  0  0  0  0  0  0  0  0  0  0
   10.9999   51.2241   30.4409 C   0  0  0  0  0  0  0  0  0  0  0  0
   11.7270   48.8144   31.6962 C   0  0  0  0  0  0  0  0  0  0  0  0
   12.3517   50.8943   30.6452 C   0  0  0  0  0  0  0  0  0  0  0  0
   10.6874   52.4862   29.8217 N   0  0  0  0  0  0  0  0  0  0  0  0
   12.7111   49.6961   31.2601 C   0  0  0  0  0  0  0  0  0  0  0  0
   11.5318   53.5594   29.9913 O   0  0  0  0  0  0  0  0  0  0  0  0
    9.7589   52.5818   28.9939 O   0  0  0  0  0  0  0  0  0  0  0  0
    8.5372   39.1385   34.0122 O   0  0  0  0  0  0  0  0  0  0  0  0
   10.9795   40.0890   33.6815 O   0  0  0  0  0  0  0  0  0  0  0  0
   10.7982   40.0849   32.2819 C   0  0  0  0  0  0  0  0  0  0  0  0
   11.5886   38.9142   31.7009 C   0  0  0  0  0  0  0  0  0  0  0  0
   12.9214   38.9367   32.1698 O   0  0  0  0  0  0  0  0  0  0  0  0
   11.0047   37.5660   32.0990 C   0  0  0  0  0  0  0  0  0  0  0  0
   13.3511   37.5885   32.2601 C   0  0  0  0  0  0  0  0  0  0  0  0
    9.9296   37.1961   31.2780 O   0  0  0  0  0  0  0  0  0  0  0  0
   12.1923   36.6659   31.9047 C   0  0  0  0  0  0  0  0  0  0  0  0
   13.8033   37.2966   33.6188 N   0  0  0  0  0  0  0  0  0  0  0  0
   12.3007   36.2864   30.5561 O   0  0  0  0  0  0  0  0  0  0  0  0
   14.7933   36.4724   33.9860 C   0  0  0  0  0  0  0  0  0  0  0  0
   13.2753   37.7296   34.7935 C   0  0  0  0  0  0  0  0  0  0  0  0
   15.6243   35.7579   33.1860 N   0  0  0  0  0  0  0  0  0  0  0  0
   14.8728   36.4410   35.3328 C   0  0  0  0  0  0  0  0  0  0  0  0
   13.9209   37.2263   35.8804 N   0  0  0  0  0  0  0  0  0  0  0  0
   16.5873   34.9919   33.7803 C   0  0  0  0  0  0  0  0  0  0  0  0
   15.8577   35.6717   35.9443 C   0  0  0  0  0  0  0  0  0  0  0  0
   16.7025   34.9583   35.1440 N   0  0  0  0  0  0  0  0  0  0  0  0
   16.0100   35.6384   37.3563 N   0  0  0  0  0  0  0  0  0  0  0  0
    7.6774   44.0717   34.0502 H   0  0  0  0  0  0  0  0  0  0  0  0
   10.3190   45.4432   34.0958 H   0  0  0  0  0  0  0  0  0  0  0  0
    9.1867   45.3819   35.3531 H   0  0  0  0  0  0  0  0  0  0  0  0
    8.4818   43.0860   31.8662 H   0  0  0  0  0  0  0  0  0  0  0  0
    9.9709   44.0699   31.9732 H   0  0  0  0  0  0  0  0  0  0  0  0
    8.5390   45.1404   30.4030 H   0  0  0  0  0  0  0  0  0  0  0  0
    8.5522   46.1512   31.8773 H   0  0  0  0  0  0  0  0  0  0  0  0
    6.3300   44.1798   30.9676 H   0  0  0  0  0  0  0  0  0  0  0  0
    6.3008   45.0649   32.5326 H   0  0  0  0  0  0  0  0  0  0  0  0
    4.9214   46.2646   30.9223 H   0  0  0  0  0  0  0  0  0  0  0  0
    6.2466   46.2895   29.7202 H   0  0  0  0  0  0  0  0  0  0  0  0
    6.2781   47.7514   32.4202 H   0  0  0  0  0  0  0  0  0  0  0  0
    8.2515   50.7924   29.6644 H   0  0  0  0  0  0  0  0  0  0  0  0
    8.3395   51.6506   31.2408 H   0  0  0  0  0  0  0  0  0  0  0  0
    9.6510   48.4245   31.8999 H   0  0  0  0  0  0  0  0  0  0  0  0
   12.0084   47.8894   32.1832 H   0  0  0  0  0  0  0  0  0  0  0  0
   13.1344   51.5658   30.3156 H   0  0  0  0  0  0  0  0  0  0  0  0
   13.7562   49.4537   31.4039 H   0  0  0  0  0  0  0  0  0  0  0  0
   11.2132   41.0320   31.8757 H   0  0  0  0  0  0  0  0  0  0  0  0
    9.7427   40.0141   31.9266 H   0  0  0  0  0  0  0  0  0  0  0  0
   11.5980   39.0108   30.5904 H   0  0  0  0  0  0  0  0  0  0  0  0
   10.7009   37.5602   33.1721 H   0  0  0  0  0  0  0  0  0  0  0  0
   14.1977   37.4380   31.5532 H   0  0  0  0  0  0  0  0  0  0  0  0
    9.5180   36.3961   31.6977 H   0  0  0  0  0  0  0  0  0  0  0  0
   12.1418   35.7697   32.5692 H   0  0  0  0  0  0  0  0  0  0  0  0
   11.7730   35.4523   30.4489 H   0  0  0  0  0  0  0  0  0  0  0  0
   12.4321   38.3984   34.8692 H   0  0  0  0  0  0  0  0  0  0  0  0
   17.2667   34.4138   33.1694 H   0  0  0  0  0  0  0  0  0  0  0  0
   15.3757   36.1867   37.9790 H   0  0  0  0  0  0  0  0  0  0  0  0
   16.7634   35.0598   37.7897 H   0  0  0  0  0  0  0  0  0  0  0  0
  1  2  2  0
  1  3  1  0
  3  4  1  0
  4  5  1  0
  6  1  1  0
  7  6  1  0
  6  8  1  0
  8  9  1  0
  9 10  1  0
 10 11  1  0
 11 12  1  0
 12 13  1  0
 13 14  1  0
 13 15  2  0
 14 16  1  0
 16 17  1  0
 17 18  2  0
 19 17  1  0
 18 20  1  0
 21 19  2  0
 19 22  1  0
 20 23  2  0
 23 21  1  0
 22 24  1  0
 22 25  2  0
  4 26  2  0
  4 27  1  0
 28 27  1  0
 28 29  1  0
 29 30  1  0
 29 31  1  0
 30 32  1  0
 31 33  1  0
 31 34  1  0
 34 32  1  0
 32 35  1  0
 34 36  1  0
 37 35  1  0
 38 35  1  0
 39 37  2  0
 37 40  1  0
 41 38  2  0
 42 39  1  0
 40 43  2  0
 40 41  1  0
 44 42  2  0
 44 43  1  0
 43 45  1  0
  6 46  1  6
  7 47  1  0
  7 48  1  0
  8 49  1  0
  8 50  1  0
  9 51  1  0
  9 52  1  0
 10 53  1  0
 10 54  1  0
 11 55  1  0
 11 56  1  0
 12 57  1  0
 16 58  1  0
 16 59  1  0
 18 60  1  0
 20 61  1  0
 21 62  1  0
 23 63  1  0
 28 64  1  0
 28 65  1  0
 29 66  1  0
 31 67  1  0
 32 68  1  0
 33 69  1  0
 34 70  1  0
 36 71  1  0
 38 72  1  0
 42 73  1  0
 45 74  1  0
 45 75  1  0
M  CHG  3   5  -1  22   1  24  -1
M  END
>  <EmbedRMS>  (74) 
0.0746948023797

$$$$

     RDKit          3D

 75 78  0  0  0  0  0  0  0  0999 V2000
    9.4333   42.9365   34.3461 C   0  0  0  0  0  0  0  0  0  0  0  0
   10.4907   43.0330   35.0319 O   0  0  0  0  0  0  0  0  0  0  0  0
    8.8563   41.7104   34.0296 O   0  0  0  0  0  0  0  0  0  0  0  0
    9.4945   40.2142   34.4680 P   0  0  0  0  0  0  0  0  0  0  0  0
    9.7309   40.1726   36.1291 O   0  0  0  0  0  0  0  0  0  0  0  0
    8.7506   44.1348   33.7741 C   0  0  1  0  0  0  0  0  0  0  0  0
    9.2963   45.3821   34.3133 N   0  0  0  0  0  0  0  0  0  0  0  0
    8.8893   44.0528   32.2358 C   0  0  0  0  0  0  0  0  0  0  0  0
    8.2028   45.1824   31.4615 C   0  0  0  0  0  0  0  0  0  0  0  0
    6.6653   45.1046   31.4855 C   0  0  0  0  0  0  0  0  0  0  0  0
    6.0269   46.3225   30.8104 C   0  0  0  0  0  0  0  0  0  0  0  0
    6.5060   47.5640   31.4179 N   0  0  0  0  0  0  0  0  0  0  0  0
    7.2439   48.5390   30.6837 C   0  0  0  0  0  0  0  0  0  0  0  0
    7.5955   49.7391   31.3072 O   0  0  0  0  0  0  0  0  0  0  0  0
    7.5934   48.3117   29.4937 O   0  0  0  0  0  0  0  0  0  0  0  0
    8.3491   50.7560   30.6525 C   0  0  0  0  0  0  0  0  0  0  0  0
    8.5231   51.9345   31.5798 C   0  0  0  0  0  0  0  0  0  0  0  0
    7.3756   52.4737   32.1901 C   0  0  0  0  0  0  0  0  0  0  0  0
    9.7931   52.4936   31.8828 C   0  0  0  0  0  0  0  0  0  0  0  0
    7.4818   53.5116   33.1172 C   0  0  0  0  0  0  0  0  0  0  0  0
    9.8815   53.5236   32.8346 C   0  0  0  0  0  0  0  0  0  0  0  0
   10.9917   52.0576   31.2237 N   0  0  0  0  0  0  0  0  0  0  0  0
    8.7334   54.0282   33.4469 C   0  0  0  0  0  0  0  0  0  0  0  0
   12.1701   51.9832   31.9299 O   0  0  0  0  0  0  0  0  0  0  0  0
   11.0317   51.9951   29.9776 O   0  0  0  0  0  0  0  0  0  0  0  0
    8.5372   39.1386   34.0125 O   0  0  0  0  0  0  0  0  0  0  0  0
   10.9804   40.0880   33.6837 O   0  0  0  0  0  0  0  0  0  0  0  0
   10.8025   40.0899   32.2839 C   0  0  0  0  0  0  0  0  0  0  0  0
   11.5888   38.9174   31.7007 C   0  0  0  0  0  0  0  0  0  0  0  0
   12.9219   38.9373   32.1692 O   0  0  0  0  0  0  0  0  0  0  0  0
   11.0028   37.5682   32.0980 C   0  0  0  0  0  0  0  0  0  0  0  0
   13.3496   37.5885   32.2601 C   0  0  0  0  0  0  0  0  0  0  0  0
    9.9343   37.1822   31.2756 O   0  0  0  0  0  0  0  0  0  0  0  0
   12.1891   36.6677   31.9049 C   0  0  0  0  0  0  0  0  0  0  0  0
   13.8025   37.2965   33.6186 N   0  0  0  0  0  0  0  0  0  0  0  0
   12.2991   36.2867   30.5567 O   0  0  0  0  0  0  0  0  0  0  0  0
   14.7929   36.4725   33.9858 C   0  0  0  0  0  0  0  0  0  0  0  0
   13.2749   37.7294   34.7935 C   0  0  0  0  0  0  0  0  0  0  0  0
   15.6240   35.7580   33.1858 N   0  0  0  0  0  0  0  0  0  0  0  0
   14.8727   36.4411   35.3327 C   0  0  0  0  0  0  0  0  0  0  0  0
   13.9208   37.2263   35.8803 N   0  0  0  0  0  0  0  0  0  0  0  0
   16.5871   34.9921   33.7801 C   0  0  0  0  0  0  0  0  0  0  0  0
   15.8576   35.6718   35.9441 C   0  0  0  0  0  0  0  0  0  0  0  0
   16.7024   34.9585   35.1438 N   0  0  0  0  0  0  0  0  0  0  0  0
   16.0099   35.6384   37.3562 N   0  0  0  0  0  0  0  0  0  0  0  0
    7.6770   44.0707   34.0504 H   0  0  0  0  0  0  0  0  0  0  0  0
    9.1828   45.3820   35.3535 H   0  0  0  0  0  0  0  0  0  0  0  0
   10.3192   45.4407   34.0999 H   0  0  0  0  0  0  0  0  0  0  0  0
    8.4817   43.0851   31.8668 H   0  0  0  0  0  0  0  0  0  0  0  0
    9.9711   44.0682   31.9739 H   0  0  0  0  0  0  0  0  0  0  0  0
    8.5551   46.1511   31.8743 H   0  0  0  0  0  0  0  0  0  0  0  0
    8.5384   45.1364   30.4023 H   0  0  0  0  0  0  0  0  0  0  0  0
    6.3020   45.0643   32.5334 H   0  0  0  0  0  0  0  0  0  0  0  0
    6.3297   44.1799   30.9678 H   0  0  0  0  0  0  0  0  0  0  0  0
    6.2465   46.2897   29.7216 H   0  0  0  0  0  0  0  0  0  0  0  0
    4.9235   46.2671   30.9263 H   0  0  0  0  0  0  0  0  0  0  0  0
    6.2818   47.7530   32.4208 H   0  0  0  0  0  0  0  0  0  0  0  0
    7.8047   51.0938   29.7442 H   0  0  0  0  0  0  0  0  0  0  0  0
    9.3192   50.3209   30.3411 H   0  0  0  0  0  0  0  0  0  0  0  0
    6.3949   52.0750   31.9601 H   0  0  0  0  0  0  0  0  0  0  0  0
    6.5918   53.9102   33.5870 H   0  0  0  0  0  0  0  0  0  0  0  0
   10.8425   53.9566   33.0827 H   0  0  0  0  0  0  0  0  0  0  0  0
    8.8138   54.8299   34.1697 H   0  0  0  0  0  0  0  0  0  0  0  0
   11.2258   41.0357   31.8830 H   0  0  0  0  0  0  0  0  0  0  0  0
    9.7476   40.0331   31.9256 H   0  0  0  0  0  0  0  0  0  0  0  0
   11.5974   39.0148   30.5904 H   0  0  0  0  0  0  0  0  0  0  0  0
   10.7023   37.5455   33.1719 H   0  0  0  0  0  0  0  0  0  0  0  0
   14.1957   37.4366   31.5528 H   0  0  0  0  0  0  0  0  0  0  0  0
    9.1340   37.6658   31.6069 H   0  0  0  0  0  0  0  0  0  0  0  0
   12.1381   35.7717   32.5697 H   0  0  0  0  0  0  0  0  0  0  0  0
   11.7707   35.4530   30.4496 H   0  0  0  0  0  0  0  0  0  0  0  0
   12.4314   38.3980   34.8694 H   0  0  0  0  0  0  0  0  0  0  0  0
   17.2665   34.4140   33.1691 H   0  0  0  0  0  0  0  0  0  0  0  0
   15.3757   36.1868   37.9789 H   0  0  0  0  0  0  0  0  0  0  0  0
   16.7633   35.0599   37.7895 H   0  0  0  0  0  0  0  0  0  0  0  0
  1  2  2  0
  1  3  1  0
  3  4  1  0
  4  5  1  0
  6  1  1  0
  7  6  1  0
  6  8  1  0
  8  9  1  0
  9 10  1  0
 10 11  1  0
 11 12  1  0
 12 13  1  0
 13 14  1  0
 13 15  2  0
 14 16  1  0
 16 17  1  0
 17 18  2  0
 19 17  1  0
 18 20  1  0
 21 19  2  0
 19 22  1  0
 20 23  2  0
 23 21  1  0
 22 24  1  0
 22 25  2  0
  4 26  2  0
  4 27  1  0
 28 27  1  0
 28 29  1  0
 29 30  1  0
 29 31  1  0
 30 32  1  0
 31 33  1  0
 31 34  1  0
 34 32  1  0
 32 35  1  0
 34 36  1  0
 37 35  1  0
 38 35  1  0
 39 37  2  0
 37 40  1  0
 41 38  2  0
 42 39  1  0
 40 43  2  0
 40 41  1  0
 44 42  2  0
 44 43  1  0
 43 45  1  0
  6 46  1  6
  7 47  1  0
  7 48  1  0
  8 49  1  0
  8 50  1  0
  9 51  1  0
  9 52  1  0
 10 53  1  0
 10 54  1  0
 11 55  1  0
 11 56  1  0
 12 57  1  0
 16 58  1  0
 16 59  1  0
 18 60  1  0
 20 61  1  0
 21 62  1  0
 23 63  1  0
 28 64  1  0
 28 65  1  0
 29 66  1  0
 31 67  1  0
 32 68  1  0
 33 69  1  0
 34 70  1  0
 36 71  1  0
 38 72  1  0
 42 73  1  0
 45 74  1  0
 45 75  1  0
M  CHG  3   5  -1  22   1  24  -1
M  END
>  <EmbedRMS>  (75) 
0.0742238803029

$$$$

     RDKit          3D

 75 78  0  0  0  0  0  0  0  0999 V2000
    9.4335   42.9375   34.3451 C   0  0  0  0  0  0  0  0  0  0  0  0
   10.4908   43.0336   35.0311 O   0  0  0  0  0  0  0  0  0  0  0  0
    8.8559   41.7113   34.0291 O   0  0  0  0  0  0  0  0  0  0  0  0
    9.4941   40.2147   34.4674 P   0  0  0  0  0  0  0  0  0  0  0  0
    9.7315   40.1729   36.1285 O   0  0  0  0  0  0  0  0  0  0  0  0
    8.7513   44.1366   33.7733 C   0  0  1  0  0  0  0  0  0  0  0  0
    9.2971   45.3835   34.3132 N   0  0  0  0  0  0  0  0  0  0  0  0
    8.8901   44.0569   32.2349 C   0  0  0  0  0  0  0  0  0  0  0  0
    8.2020   45.1876   31.4625 C   0  0  0  0  0  0  0  0  0  0  0  0
    6.6642   45.1069   31.4850 C   0  0  0  0  0  0  0  0  0  0  0  0
    6.0209   46.3211   30.8055 C   0  0  0  0  0  0  0  0  0  0  0  0
    6.4884   47.5667   31.4130 N   0  0  0  0  0  0  0  0  0  0  0  0
    7.2742   48.5175   30.6982 C   0  0  0  0  0  0  0  0  0  0  0  0
    7.7681   49.6363   31.3760 O   0  0  0  0  0  0  0  0  0  0  0  0
    7.5864   48.3123   29.4937 O   0  0  0  0  0  0  0  0  0  0  0  0
    8.8555   50.4186   30.8858 C   0  0  0  0  0  0  0  0  0  0  0  0
   10.1291   49.5993   30.8863 C   0  0  0  0  0  0  0  0  0  0  0  0
   10.4518   48.8724   32.0478 C   0  0  0  0  0  0  0  0  0  0  0  0
   10.9639   49.4814   29.7442 C   0  0  0  0  0  0  0  0  0  0  0  0
   11.5446   48.0051   32.0658 C   0  0  0  0  0  0  0  0  0  0  0  0
   12.0504   48.5904   29.7764 C   0  0  0  0  0  0  0  0  0  0  0  0
   10.7441   50.2631   28.5601 N   0  0  0  0  0  0  0  0  0  0  0  0
   12.3364   47.8565   30.9287 C   0  0  0  0  0  0  0  0  0  0  0  0
   10.9961   49.7158   27.3232 O   0  0  0  0  0  0  0  0  0  0  0  0
   10.5648   51.4953   28.6481 O   0  0  0  0  0  0  0  0  0  0  0  0
    8.5369   39.1388   34.0122 O   0  0  0  0  0  0  0  0  0  0  0  0
   10.9792   40.0888   33.6813 O   0  0  0  0  0  0  0  0  0  0  0  0
   10.7977   40.0843   32.2817 C   0  0  0  0  0  0  0  0  0  0  0  0
   11.5897   38.9147   31.7008 C   0  0  0  0  0  0  0  0  0  0  0  0
   12.9218   38.9385   32.1717 O   0  0  0  0  0  0  0  0  0  0  0  0
   11.0070   37.5655   32.0975 C   0  0  0  0  0  0  0  0  0  0  0  0
   13.3533   37.5909   32.2610 C   0  0  0  0  0  0  0  0  0  0  0  0
    9.9333   37.1935   31.2754 O   0  0  0  0  0  0  0  0  0  0  0  0
   12.1945   36.6672   31.9040 C   0  0  0  0  0  0  0  0  0  0  0  0
   13.8036   37.2970   33.6193 N   0  0  0  0  0  0  0  0  0  0  0  0
   12.2893   36.2849   30.5562 O   0  0  0  0  0  0  0  0  0  0  0  0
   14.7931   36.4723   33.9863 C   0  0  0  0  0  0  0  0  0  0  0  0
   13.2756   37.7298   34.7940 C   0  0  0  0  0  0  0  0  0  0  0  0
   15.6242   35.7580   33.1861 N   0  0  0  0  0  0  0  0  0  0  0  0
   14.8727   36.4407   35.3331 C   0  0  0  0  0  0  0  0  0  0  0  0
   13.9210   37.2262   35.8807 N   0  0  0  0  0  0  0  0  0  0  0  0
   16.5872   34.9920   33.7803 C   0  0  0  0  0  0  0  0  0  0  0  0
   15.8577   35.6715   35.9444 C   0  0  0  0  0  0  0  0  0  0  0  0
   16.7025   34.9582   35.1440 N   0  0  0  0  0  0  0  0  0  0  0  0
   16.0101   35.6382   37.3564 N   0  0  0  0  0  0  0  0  0  0  0  0
    7.6776   44.0727   34.0492 H   0  0  0  0  0  0  0  0  0  0  0  0
   10.3196   45.4431   34.0981 H   0  0  0  0  0  0  0  0  0  0  0  0
    9.1853   45.3825   35.3535 H   0  0  0  0  0  0  0  0  0  0  0  0
    8.4841   43.0892   31.8643 H   0  0  0  0  0  0  0  0  0  0  0  0
    9.9720   44.0751   31.9733 H   0  0  0  0  0  0  0  0  0  0  0  0
    8.5516   46.1565   31.8777 H   0  0  0  0  0  0  0  0  0  0  0  0
    8.5391   45.1455   30.4036 H   0  0  0  0  0  0  0  0  0  0  0  0
    6.3315   44.1798   30.9698 H   0  0  0  0  0  0  0  0  0  0  0  0
    6.3003   45.0682   32.5328 H   0  0  0  0  0  0  0  0  0  0  0  0
    6.2457   46.2883   29.7178 H   0  0  0  0  0  0  0  0  0  0  0  0
    4.9172   46.2590   30.9158 H   0  0  0  0  0  0  0  0  0  0  0  0
    6.2691   47.7497   32.4180 H   0  0  0  0  0  0  0  0  0  0  0  0
    8.5890   50.8035   29.8813 H   0  0  0  0  0  0  0  0  0  0  0  0
    8.9947   51.2904   31.5587 H   0  0  0  0  0  0  0  0  0  0  0  0
    9.8348   48.9546   32.9344 H   0  0  0  0  0  0  0  0  0  0  0  0
   11.7715   47.4394   32.9602 H   0  0  0  0  0  0  0  0  0  0  0  0
   12.6931   48.4815   28.9120 H   0  0  0  0  0  0  0  0  0  0  0  0
   13.1806   47.1793   30.9431 H   0  0  0  0  0  0  0  0  0  0  0  0
   11.2113   41.0320   31.8753 H   0  0  0  0  0  0  0  0  0  0  0  0
    9.7423   40.0119   31.9265 H   0  0  0  0  0  0  0  0  0  0  0  0
   11.6005   39.0120   30.5904 H   0  0  0  0  0  0  0  0  0  0  0  0
   10.7015   37.5593   33.1701 H   0  0  0  0  0  0  0  0  0  0  0  0
   14.2012   37.4438   31.5552 H   0  0  0  0  0  0  0  0  0  0  0  0
    9.5289   36.3869   31.6895 H   0  0  0  0  0  0  0  0  0  0  0  0
   12.1243   35.7694   32.5633 H   0  0  0  0  0  0  0  0  0  0  0  0
   12.9478   35.5427   30.5202 H   0  0  0  0  0  0  0  0  0  0  0  0
   12.4328   38.3993   34.8697 H   0  0  0  0  0  0  0  0  0  0  0  0
   17.2667   34.4140   33.1692 H   0  0  0  0  0  0  0  0  0  0  0  0
   16.7636   35.0598   37.7897 H   0  0  0  0  0  0  0  0  0  0  0  0
   15.3759   36.1865   37.9791 H   0  0  0  0  0  0  0  0  0  0  0  0
  1  2  2  0
  1  3  1  0
  3  4  1  0
  4  5  1  0
  6  1  1  0
  7  6  1  0
  6  8  1  0
  8  9  1  0
  9 10  1  0
 10 11  1  0
 11 12  1  0
 12 13  1  0
 13 14  1  0
 13 15  2  0
 14 16  1  0
 16 17  1  0
 17 18  2  0
 19 17  1  0
 18 20  1  0
 21 19  2  0
 19 22  1  0
 20 23  2  0
 23 21  1  0
 22 24  1  0
 22 25  2  0
  4 26  2  0
  4 27  1  0
 28 27  1  0
 28 29  1  0
 29 30  1  0
 29 31  1  0
 30 32  1  0
 31 33  1  0
 31 34  1  0
 34 32  1  0
 32 35  1  0
 34 36  1  0
 37 35  1  0
 38 35  1  0
 39 37  2  0
 37 40  1  0
 41 38  2  0
 42 39  1  0
 40 43  2  0
 40 41  1  0
 44 42  2  0
 44 43  1  0
 43 45  1  0
  6 46  1  6
  7 47  1  0
  7 48  1  0
  8 49  1  0
  8 50  1  0
  9 51  1  0
  9 52  1  0
 10 53  1  0
 10 54  1  0
 11 55  1  0
 11 56  1  0
 12 57  1  0
 16 58  1  0
 16 59  1  0
 18 60  1  0
 20 61  1  0
 21 62  1  0
 23 63  1  0
 28 64  1  0
 28 65  1  0
 29 66  1  0
 31 67  1  0
 32 68  1  0
 33 69  1  0
 34 70  1  0
 36 71  1  0
 38 72  1  0
 42 73  1  0
 45 74  1  0
 45 75  1  0
M  CHG  3   5  -1  22   1  24  -1
M  END
>  <EmbedRMS>  (76) 
0.0755086012963

$$$$

     RDKit          3D

 75 78  0  0  0  0  0  0  0  0999 V2000
    9.4333   42.9364   34.3461 C   0  0  0  0  0  0  0  0  0  0  0  0
   10.4907   43.0329   35.0319 O   0  0  0  0  0  0  0  0  0  0  0  0
    8.8563   41.7103   34.0295 O   0  0  0  0  0  0  0  0  0  0  0  0
    9.4943   40.2139   34.4679 P   0  0  0  0  0  0  0  0  0  0  0  0
    9.7310   40.1724   36.1290 O   0  0  0  0  0  0  0  0  0  0  0  0
    8.7506   44.1348   33.7741 C   0  0  1  0  0  0  0  0  0  0  0  0
    9.2963   45.3820   34.3134 N   0  0  0  0  0  0  0  0  0  0  0  0
    8.8893   44.0527   32.2358 C   0  0  0  0  0  0  0  0  0  0  0  0
    8.2028   45.1823   31.4615 C   0  0  0  0  0  0  0  0  0  0  0  0
    6.6654   45.1046   31.4856 C   0  0  0  0  0  0  0  0  0  0  0  0
    6.0270   46.3226   30.8105 C   0  0  0  0  0  0  0  0  0  0  0  0
    6.5064   47.5639   31.4180 N   0  0  0  0  0  0  0  0  0  0  0  0
    7.2431   48.5394   30.6833 C   0  0  0  0  0  0  0  0  0  0  0  0
    7.5902   49.7414   31.3052 O   0  0  0  0  0  0  0  0  0  0  0  0
    7.5936   48.3117   29.4937 O   0  0  0  0  0  0  0  0  0  0  0  0
    8.3311   50.7639   30.6460 C   0  0  0  0  0  0  0  0  0  0  0  0
    8.5052   51.9427   31.5715 C   0  0  0  0  0  0  0  0  0  0  0  0
    9.8107   52.3558   31.8977 C   0  0  0  0  0  0  0  0  0  0  0  0
    7.3977   52.6194   32.1550 C   0  0  0  0  0  0  0  0  0  0  0  0
   10.0243   53.4075   32.7891 C   0  0  0  0  0  0  0  0  0  0  0  0
    7.6382   53.6665   33.0629 C   0  0  0  0  0  0  0  0  0  0  0  0
    6.0352   52.2536   31.8657 N   0  0  0  0  0  0  0  0  0  0  0  0
    8.9406   54.0590   33.3733 C   0  0  0  0  0  0  0  0  0  0  0  0
    5.0548   52.4573   32.8097 O   0  0  0  0  0  0  0  0  0  0  0  0
    5.6956   51.9036   30.7172 O   0  0  0  0  0  0  0  0  0  0  0  0
    8.5372   39.1382   34.0121 O   0  0  0  0  0  0  0  0  0  0  0  0
   10.9798   40.0870   33.6829 O   0  0  0  0  0  0  0  0  0  0  0  0
   10.8002   40.0905   32.2833 C   0  0  0  0  0  0  0  0  0  0  0  0
   11.5958   38.9271   31.6963 C   0  0  0  0  0  0  0  0  0  0  0  0
   12.9239   38.9409   32.1766 O   0  0  0  0  0  0  0  0  0  0  0  0
   11.0062   37.5719   32.0793 C   0  0  0  0  0  0  0  0  0  0  0  0
   13.3507   37.5905   32.2614 C   0  0  0  0  0  0  0  0  0  0  0  0
    9.9064   37.1792   31.2946 O   0  0  0  0  0  0  0  0  0  0  0  0
   12.1920   36.6671   31.9003 C   0  0  0  0  0  0  0  0  0  0  0  0
   13.8017   37.2948   33.6193 N   0  0  0  0  0  0  0  0  0  0  0  0
   12.3134   36.2788   30.5560 O   0  0  0  0  0  0  0  0  0  0  0  0
   14.7927   36.4716   33.9861 C   0  0  0  0  0  0  0  0  0  0  0  0
   13.2746   37.7284   34.7941 C   0  0  0  0  0  0  0  0  0  0  0  0
   15.6240   35.7576   33.1859 N   0  0  0  0  0  0  0  0  0  0  0  0
   14.8728   36.4406   35.3329 C   0  0  0  0  0  0  0  0  0  0  0  0
   13.9209   37.2258   35.8807 N   0  0  0  0  0  0  0  0  0  0  0  0
   16.5874   34.9920   33.7802 C   0  0  0  0  0  0  0  0  0  0  0  0
   15.8579   35.6716   35.9443 C   0  0  0  0  0  0  0  0  0  0  0  0
   16.7028   34.9584   35.1439 N   0  0  0  0  0  0  0  0  0  0  0  0
   16.0103   35.6383   37.3563 N   0  0  0  0  0  0  0  0  0  0  0  0
    7.6771   44.0706   34.0504 H   0  0  0  0  0  0  0  0  0  0  0  0
    9.1827   45.3819   35.3535 H   0  0  0  0  0  0  0  0  0  0  0  0
   10.3192   45.4406   34.1000 H   0  0  0  0  0  0  0  0  0  0  0  0
    9.9711   44.0681   31.9739 H   0  0  0  0  0  0  0  0  0  0  0  0
    8.4817   43.0851   31.8668 H   0  0  0  0  0  0  0  0  0  0  0  0
    8.5552   46.1510   31.8743 H   0  0  0  0  0  0  0  0  0  0  0  0
    8.5385   45.1363   30.4023 H   0  0  0  0  0  0  0  0  0  0  0  0
    6.3296   44.1799   30.9678 H   0  0  0  0  0  0  0  0  0  0  0  0
    6.3020   45.0643   32.5334 H   0  0  0  0  0  0  0  0  0  0  0  0
    4.9236   46.2674   30.9266 H   0  0  0  0  0  0  0  0  0  0  0  0
    6.2465   46.2897   29.7217 H   0  0  0  0  0  0  0  0  0  0  0  0
    6.2816   47.7534   32.4207 H   0  0  0  0  0  0  0  0  0  0  0  0
    7.8068   51.0866   29.7220 H   0  0  0  0  0  0  0  0  0  0  0  0
    9.3160   50.3502   30.3361 H   0  0  0  0  0  0  0  0  0  0  0  0
   10.6708   51.8574   31.4677 H   0  0  0  0  0  0  0  0  0  0  0  0
   11.0336   53.7138   33.0322 H   0  0  0  0  0  0  0  0  0  0  0  0
    6.8117   54.1936   33.5224 H   0  0  0  0  0  0  0  0  0  0  0  0
    9.1094   54.8720   34.0677 H   0  0  0  0  0  0  0  0  0  0  0  0
   11.2116   41.0420   31.8834 H   0  0  0  0  0  0  0  0  0  0  0  0
    9.7455   40.0168   31.9263 H   0  0  0  0  0  0  0  0  0  0  0  0
   11.6245   39.0449   30.5888 H   0  0  0  0  0  0  0  0  0  0  0  0
   10.7051   37.5579   33.1500 H   0  0  0  0  0  0  0  0  0  0  0  0
   14.1985   37.4426   31.5553 H   0  0  0  0  0  0  0  0  0  0  0  0
   10.0893   37.4056   30.3459 H   0  0  0  0  0  0  0  0  0  0  0  0
   12.1337   35.7754   32.5703 H   0  0  0  0  0  0  0  0  0  0  0  0
   11.7934   35.4394   30.4513 H   0  0  0  0  0  0  0  0  0  0  0  0
   12.4314   38.3972   34.8700 H   0  0  0  0  0  0  0  0  0  0  0  0
   17.2669   34.4142   33.1692 H   0  0  0  0  0  0  0  0  0  0  0  0
   16.7638   35.0599   37.7897 H   0  0  0  0  0  0  0  0  0  0  0  0
   15.3759   36.1865   37.9790 H   0  0  0  0  0  0  0  0  0  0  0  0
  1  2  2  0
  1  3  1  0
  3  4  1  0
  4  5  1  0
  6  1  1  0
  7  6  1  0
  6  8  1  0
  8  9  1  0
  9 10  1  0
 10 11  1  0
 11 12  1  0
 12 13  1  0
 13 14  1  0
 13 15  2  0
 14 16  1  0
 16 17  1  0
 17 18  2  0
 19 17  1  0
 18 20  1  0
 21 19  2  0
 19 22  1  0
 20 23  2  0
 23 21  1  0
 22 24  1  0
 22 25  2  0
  4 26  2  0
  4 27  1  0
 28 27  1  0
 28 29  1  0
 29 30  1  0
 29 31  1  0
 30 32  1  0
 31 33  1  0
 31 34  1  0
 34 32  1  0
 32 35  1  0
 34 36  1  0
 37 35  1  0
 38 35  1  0
 39 37  2  0
 37 40  1  0
 41 38  2  0
 42 39  1  0
 40 43  2  0
 40 41  1  0
 44 42  2  0
 44 43  1  0
 43 45  1  0
  6 46  1  6
  7 47  1  0
  7 48  1  0
  8 49  1  0
  8 50  1  0
  9 51  1  0
  9 52  1  0
 10 53  1  0
 10 54  1  0
 11 55  1  0
 11 56  1  0
 12 57  1  0
 16 58  1  0
 16 59  1  0
 18 60  1  0
 20 61  1  0
 21 62  1  0
 23 63  1  0
 28 64  1  0
 28 65  1  0
 29 66  1  0
 31 67  1  0
 32 68  1  0
 33 69  1  0
 34 70  1  0
 36 71  1  0
 38 72  1  0
 42 73  1  0
 45 74  1  0
 45 75  1  0
M  CHG  3   5  -1  22   1  24  -1
M  END
>  <EmbedRMS>  (77) 
0.0747814317043

$$$$

     RDKit          3D

 75 78  0  0  0  0  0  0  0  0999 V2000
    9.4312   42.9410   34.3437 C   0  0  0  0  0  0  0  0  0  0  0  0
   10.4885   43.0409   35.0294 O   0  0  0  0  0  0  0  0  0  0  0  0
    8.8562   41.7127   34.0287 O   0  0  0  0  0  0  0  0  0  0  0  0
    9.4944   40.2160   34.4677 P   0  0  0  0  0  0  0  0  0  0  0  0
    9.7313   40.1739   36.1288 O   0  0  0  0  0  0  0  0  0  0  0  0
    8.7484   44.1359   33.7721 C   0  0  1  0  0  0  0  0  0  0  0  0
    9.3039   45.3664   34.3388 N   0  0  0  0  0  0  0  0  0  0  0  0
    8.8893   44.0519   32.2308 C   0  0  0  0  0  0  0  0  0  0  0  0
    8.2014   45.1722   31.4436 C   0  0  0  0  0  0  0  0  0  0  0  0
    6.6642   45.1065   31.4888 C   0  0  0  0  0  0  0  0  0  0  0  0
    6.0265   46.3234   30.8121 C   0  0  0  0  0  0  0  0  0  0  0  0
    6.5076   47.5645   31.4187 N   0  0  0  0  0  0  0  0  0  0  0  0
    7.2437   48.5396   30.6831 C   0  0  0  0  0  0  0  0  0  0  0  0
    7.5915   49.7417   31.3044 O   0  0  0  0  0  0  0  0  0  0  0  0
    7.5933   48.3114   29.4933 O   0  0  0  0  0  0  0  0  0  0  0  0
    8.3315   50.7641   30.6441 C   0  0  0  0  0  0  0  0  0  0  0  0
    8.5060   51.9439   31.5677 C   0  0  0  0  0  0  0  0  0  0  0  0
    9.8109   52.3736   31.8740 C   0  0  0  0  0  0  0  0  0  0  0  0
    7.3998   52.6047   32.1685 C   0  0  0  0  0  0  0  0  0  0  0  0
   10.0246   53.4276   32.7630 C   0  0  0  0  0  0  0  0  0  0  0  0
    7.6399   53.6554   33.0735 C   0  0  0  0  0  0  0  0  0  0  0  0
    6.0404   52.2171   31.8944 N   0  0  0  0  0  0  0  0  0  0  0  0
    8.9416   54.0647   33.3643 C   0  0  0  0  0  0  0  0  0  0  0  0
    5.6486   51.8750   30.6213 O   0  0  0  0  0  0  0  0  0  0  0  0
    5.1654   52.3411   32.7763 O   0  0  0  0  0  0  0  0  0  0  0  0
    8.5373   39.1400   34.0125 O   0  0  0  0  0  0  0  0  0  0  0  0
   10.9796   40.0877   33.6826 O   0  0  0  0  0  0  0  0  0  0  0  0
   10.7997   40.0900   32.2829 C   0  0  0  0  0  0  0  0  0  0  0  0
   11.5968   38.9274   31.6963 C   0  0  0  0  0  0  0  0  0  0  0  0
   12.9242   38.9426   32.1785 O   0  0  0  0  0  0  0  0  0  0  0  0
   11.0086   37.5714   32.0780 C   0  0  0  0  0  0  0  0  0  0  0  0
   13.3528   37.5929   32.2623 C   0  0  0  0  0  0  0  0  0  0  0  0
    9.9098   37.1771   31.2926 O   0  0  0  0  0  0  0  0  0  0  0  0
   12.1943   36.6683   31.8995 C   0  0  0  0  0  0  0  0  0  0  0  0
   13.8019   37.2950   33.6199 N   0  0  0  0  0  0  0  0  0  0  0  0
   12.3027   36.2773   30.5559 O   0  0  0  0  0  0  0  0  0  0  0  0
   14.7926   36.4715   33.9865 C   0  0  0  0  0  0  0  0  0  0  0  0
   13.2749   37.7286   34.7946 C   0  0  0  0  0  0  0  0  0  0  0  0
   15.6239   35.7577   33.1860 N   0  0  0  0  0  0  0  0  0  0  0  0
   14.8727   36.4403   35.3332 C   0  0  0  0  0  0  0  0  0  0  0  0
   13.9210   37.2257   35.8812 N   0  0  0  0  0  0  0  0  0  0  0  0
   16.5873   34.9921   33.7802 C   0  0  0  0  0  0  0  0  0  0  0  0
   15.8579   35.6714   35.9444 C   0  0  0  0  0  0  0  0  0  0  0  0
   16.7028   34.9583   35.1439 N   0  0  0  0  0  0  0  0  0  0  0  0
   16.0104   35.6381   37.3564 N   0  0  0  0  0  0  0  0  0  0  0  0
    7.6764   44.0634   34.0548 H   0  0  0  0  0  0  0  0  0  0  0  0
   10.2152   45.5879   33.8748 H   0  0  0  0  0  0  0  0  0  0  0  0
    8.6468   46.1558   34.1432 H   0  0  0  0  0  0  0  0  0  0  0  0
    9.9708   44.0644   31.9679 H   0  0  0  0  0  0  0  0  0  0  0  0
    8.4831   43.0818   31.8666 H   0  0  0  0  0  0  0  0  0  0  0  0
    8.5713   46.1488   31.8175 H   0  0  0  0  0  0  0  0  0  0  0  0
    8.5198   45.0960   30.3808 H   0  0  0  0  0  0  0  0  0  0  0  0
    6.3148   44.1799   30.9839 H   0  0  0  0  0  0  0  0  0  0  0  0
    6.3141   45.0785   32.5415 H   0  0  0  0  0  0  0  0  0  0  0  0
    4.9232   46.2694   30.9296 H   0  0  0  0  0  0  0  0  0  0  0  0
    6.2450   46.2894   29.7231 H   0  0  0  0  0  0  0  0  0  0  0  0
    6.2847   47.7541   32.4217 H   0  0  0  0  0  0  0  0  0  0  0  0
    9.3164   50.3508   30.3337 H   0  0  0  0  0  0  0  0  0  0  0  0
    7.8065   51.0860   29.7205 H   0  0  0  0  0  0  0  0  0  0  0  0
   10.6706   51.8868   31.4300 H   0  0  0  0  0  0  0  0  0  0  0  0
   11.0335   53.7469   32.9907 H   0  0  0  0  0  0  0  0  0  0  0  0
    6.8130   54.1706   33.5458 H   0  0  0  0  0  0  0  0  0  0  0  0
    9.1105   54.8795   34.0566 H   0  0  0  0  0  0  0  0  0  0  0  0
   11.2095   41.0419   31.8825 H   0  0  0  0  0  0  0  0  0  0  0  0
    9.7449   40.0145   31.9264 H   0  0  0  0  0  0  0  0  0  0  0  0
   11.6265   39.0456   30.5888 H   0  0  0  0  0  0  0  0  0  0  0  0
   10.7064   37.5575   33.1485 H   0  0  0  0  0  0  0  0  0  0  0  0
   14.2021   37.4484   31.5574 H   0  0  0  0  0  0  0  0  0  0  0  0
   10.0952   37.3991   30.3433 H   0  0  0  0  0  0  0  0  0  0  0  0
   12.1163   35.7745   32.5634 H   0  0  0  0  0  0  0  0  0  0  0  0
   12.9614   35.5349   30.5312 H   0  0  0  0  0  0  0  0  0  0  0  0
   12.4321   38.3982   34.8705 H   0  0  0  0  0  0  0  0  0  0  0  0
   17.2669   34.4144   33.1690 H   0  0  0  0  0  0  0  0  0  0  0  0
   15.3761   36.1862   37.9792 H   0  0  0  0  0  0  0  0  0  0  0  0
   16.7641   35.0598   37.7896 H   0  0  0  0  0  0  0  0  0  0  0  0
  1  2  2  0
  1  3  1  0
  3  4  1  0
  4  5  1  0
  6  1  1  0
  7  6  1  0
  6  8  1  0
  8  9  1  0
  9 10  1  0
 10 11  1  0
 11 12  1  0
 12 13  1  0
 13 14  1  0
 13 15  2  0
 14 16  1  0
 16 17  1  0
 17 18  2  0
 19 17  1  0
 18 20  1  0
 21 19  2  0
 19 22  1  0
 20 23  2  0
 23 21  1  0
 22 24  1  0
 22 25  2  0
  4 26  2  0
  4 27  1  0
 28 27  1  0
 28 29  1  0
 29 30  1  0
 29 31  1  0
 30 32  1  0
 31 33  1  0
 31 34  1  0
 34 32  1  0
 32 35  1  0
 34 36  1  0
 37 35  1  0
 38 35  1  0
 39 37  2  0
 37 40  1  0
 41 38  2  0
 42 39  1  0
 40 43  2  0
 40 41  1  0
 44 42  2  0
 44 43  1  0
 43 45  1  0
  6 46  1  6
  7 47  1  0
  7 48  1  0
  8 49  1  0
  8 50  1  0
  9 51  1  0
  9 52  1  0
 10 53  1  0
 10 54  1  0
 11 55  1  0
 11 56  1  0
 12 57  1  0
 16 58  1  0
 16 59  1  0
 18 60  1  0
 20 61  1  0
 21 62  1  0
 23 63  1  0
 28 64  1  0
 28 65  1  0
 29 66  1  0
 31 67  1  0
 32 68  1  0
 33 69  1  0
 34 70  1  0
 36 71  1  0
 38 72  1  0
 42 73  1  0
 45 74  1  0
 45 75  1  0
M  CHG  3   5  -1  22   1  24  -1
M  END
>  <EmbedRMS>  (78) 
0.0737779666797

$$$$

     RDKit          3D

 75 78  0  0  0  0  0  0  0  0999 V2000
    9.4312   42.9412   34.3440 C   0  0  0  0  0  0  0  0  0  0  0  0
   10.4886   43.0411   35.0294 O   0  0  0  0  0  0  0  0  0  0  0  0
    8.8558   41.7129   34.0298 O   0  0  0  0  0  0  0  0  0  0  0  0
    9.4933   40.2164   34.4707 P   0  0  0  0  0  0  0  0  0  0  0  0
    9.7290   40.1745   36.1317 O   0  0  0  0  0  0  0  0  0  0  0  0
    8.7484   44.1360   33.7722 C   0  0  1  0  0  0  0  0  0  0  0  0
    9.3039   45.3666   34.3388 N   0  0  0  0  0  0  0  0  0  0  0  0
    8.8892   44.0519   32.2309 C   0  0  0  0  0  0  0  0  0  0  0  0
    8.2014   45.1721   31.4436 C   0  0  0  0  0  0  0  0  0  0  0  0
    6.6642   45.1065   31.4888 C   0  0  0  0  0  0  0  0  0  0  0  0
    6.0265   46.3234   30.8121 C   0  0  0  0  0  0  0  0  0  0  0  0
    6.5074   47.5645   31.4187 N   0  0  0  0  0  0  0  0  0  0  0  0
    7.2443   48.5393   30.6833 C   0  0  0  0  0  0  0  0  0  0  0  0
    7.5960   49.7398   31.3059 O   0  0  0  0  0  0  0  0  0  0  0  0
    7.5931   48.3115   29.4932 O   0  0  0  0  0  0  0  0  0  0  0  0
    8.3464   50.7583   30.6482 C   0  0  0  0  0  0  0  0  0  0  0  0
    8.5845   51.9487   31.5522 C   0  0  0  0  0  0  0  0  0  0  0  0
    7.7929   52.1297   32.7056 C   0  0  0  0  0  0  0  0  0  0  0  0
    9.6063   52.8938   31.2644 C   0  0  0  0  0  0  0  0  0  0  0  0
    8.0302   53.1957   33.5742 C   0  0  0  0  0  0  0  0  0  0  0  0
    9.8382   53.9512   32.1635 C   0  0  0  0  0  0  0  0  0  0  0  0
   10.4158   52.7962   30.0778 N   0  0  0  0  0  0  0  0  0  0  0  0
    9.0554   54.0997   33.3081 C   0  0  0  0  0  0  0  0  0  0  0  0
    9.8569   52.4269   28.8763 O   0  0  0  0  0  0  0  0  0  0  0  0
   11.5951   53.2061   30.0891 O   0  0  0  0  0  0  0  0  0  0  0  0
    8.5369   39.1403   34.0143 O   0  0  0  0  0  0  0  0  0  0  0  0
   10.9796   40.0883   33.6889 O   0  0  0  0  0  0  0  0  0  0  0  0
   10.8017   40.0949   32.2901 C   0  0  0  0  0  0  0  0  0  0  0  0
   11.5885   38.9267   31.7042 C   0  0  0  0  0  0  0  0  0  0  0  0
   12.9237   38.9445   32.1722 O   0  0  0  0  0  0  0  0  0  0  0  0
   11.0029   37.5726   32.0908 C   0  0  0  0  0  0  0  0  0  0  0  0
   13.3555   37.5960   32.2595 C   0  0  0  0  0  0  0  0  0  0  0  0
    9.9379   37.1847   31.2657 O   0  0  0  0  0  0  0  0  0  0  0  0
   12.1931   36.6769   31.8952 C   0  0  0  0  0  0  0  0  0  0  0  0
   13.8028   37.2977   33.6186 N   0  0  0  0  0  0  0  0  0  0  0  0
   12.2918   36.2396   30.5587 O   0  0  0  0  0  0  0  0  0  0  0  0
   14.7926   36.4727   33.9858 C   0  0  0  0  0  0  0  0  0  0  0  0
   13.2750   37.7302   34.7935 C   0  0  0  0  0  0  0  0  0  0  0  0
   15.6241   35.7586   33.1857 N   0  0  0  0  0  0  0  0  0  0  0  0
   14.8721   36.4408   35.3326 C   0  0  0  0  0  0  0  0  0  0  0  0
   13.9204   37.2263   35.8802 N   0  0  0  0  0  0  0  0  0  0  0  0
   16.5870   34.9925   33.7800 C   0  0  0  0  0  0  0  0  0  0  0  0
   15.8572   35.6717   35.9441 C   0  0  0  0  0  0  0  0  0  0  0  0
   16.7022   34.9585   35.1437 N   0  0  0  0  0  0  0  0  0  0  0  0
   16.0097   35.6384   37.3561 N   0  0  0  0  0  0  0  0  0  0  0  0
    7.6764   44.0635   34.0548 H   0  0  0  0  0  0  0  0  0  0  0  0
    8.6468   46.1559   34.1431 H   0  0  0  0  0  0  0  0  0  0  0  0
   10.2152   45.5880   33.8747 H   0  0  0  0  0  0  0  0  0  0  0  0
    8.4830   43.0817   31.8668 H   0  0  0  0  0  0  0  0  0  0  0  0
    9.9708   44.0643   31.9680 H   0  0  0  0  0  0  0  0  0  0  0  0
    8.5713   46.1487   31.8175 H   0  0  0  0  0  0  0  0  0  0  0  0
    8.5198   45.0959   30.3808 H   0  0  0  0  0  0  0  0  0  0  0  0
    6.3141   45.0785   32.5415 H   0  0  0  0  0  0  0  0  0  0  0  0
    6.3148   44.1799   30.9839 H   0  0  0  0  0  0  0  0  0  0  0  0
    6.2450   46.2893   29.7231 H   0  0  0  0  0  0  0  0  0  0  0  0
    4.9231   46.2693   30.9295 H   0  0  0  0  0  0  0  0  0  0  0  0
    6.2853   47.7536   32.4220 H   0  0  0  0  0  0  0  0  0  0  0  0
    7.7971   51.0949   29.7429 H   0  0  0  0  0  0  0  0  0  0  0  0
    9.3250   50.3254   30.3466 H   0  0  0  0  0  0  0  0  0  0  0  0
    6.9880   51.4464   32.9437 H   0  0  0  0  0  0  0  0  0  0  0  0
    7.4183   53.3189   34.4586 H   0  0  0  0  0  0  0  0  0  0  0  0
   10.6169   54.6770   31.9659 H   0  0  0  0  0  0  0  0  0  0  0  0
    9.2388   54.9236   33.9858 H   0  0  0  0  0  0  0  0  0  0  0  0
   11.2240   41.0428   31.8929 H   0  0  0  0  0  0  0  0  0  0  0  0
    9.7472   40.0378   31.9304 H   0  0  0  0  0  0  0  0  0  0  0  0
   11.5927   39.0434   30.5966 H   0  0  0  0  0  0  0  0  0  0  0  0
   10.7003   37.5444   33.1641 H   0  0  0  0  0  0  0  0  0  0  0  0
   14.2051   37.4477   31.5560 H   0  0  0  0  0  0  0  0  0  0  0  0
    9.1373   37.6722   31.5906 H   0  0  0  0  0  0  0  0  0  0  0  0
   12.1305   35.7856   32.5586 H   0  0  0  0  0  0  0  0  0  0  0  0
   12.4606   37.0186   29.9674 H   0  0  0  0  0  0  0  0  0  0  0  0
   12.4327   38.4001   34.8694 H   0  0  0  0  0  0  0  0  0  0  0  0
   17.2666   34.4146   33.1690 H   0  0  0  0  0  0  0  0  0  0  0  0
   16.7634   35.0601   37.7894 H   0  0  0  0  0  0  0  0  0  0  0  0
   15.3754   36.1866   37.9788 H   0  0  0  0  0  0  0  0  0  0  0  0
  1  2  2  0
  1  3  1  0
  3  4  1  0
  4  5  1  0
  6  1  1  0
  7  6  1  0
  6  8  1  0
  8  9  1  0
  9 10  1  0
 10 11  1  0
 11 12  1  0
 12 13  1  0
 13 14  1  0
 13 15  2  0
 14 16  1  0
 16 17  1  0
 17 18  2  0
 19 17  1  0
 18 20  1  0
 21 19  2  0
 19 22  1  0
 20 23  2  0
 23 21  1  0
 22 24  1  0
 22 25  2  0
  4 26  2  0
  4 27  1  0
 28 27  1  0
 28 29  1  0
 29 30  1  0
 29 31  1  0
 30 32  1  0
 31 33  1  0
 31 34  1  0
 34 32  1  0
 32 35  1  0
 34 36  1  0
 37 35  1  0
 38 35  1  0
 39 37  2  0
 37 40  1  0
 41 38  2  0
 42 39  1  0
 40 43  2  0
 40 41  1  0
 44 42  2  0
 44 43  1  0
 43 45  1  0
  6 46  1  6
  7 47  1  0
  7 48  1  0
  8 49  1  0
  8 50  1  0
  9 51  1  0
  9 52  1  0
 10 53  1  0
 10 54  1  0
 11 55  1  0
 11 56  1  0
 12 57  1  0
 16 58  1  0
 16 59  1  0
 18 60  1  0
 20 61  1  0
 21 62  1  0
 23 63  1  0
 28 64  1  0
 28 65  1  0
 29 66  1  0
 31 67  1  0
 32 68  1  0
 33 69  1  0
 34 70  1  0
 36 71  1  0
 38 72  1  0
 42 73  1  0
 45 74  1  0
 45 75  1  0
M  CHG  3   5  -1  22   1  24  -1
M  END
>  <EmbedRMS>  (79) 
0.0749047141206

$$$$

     RDKit          3D

 75 78  0  0  0  0  0  0  0  0999 V2000
    9.4309   42.9414   34.3441 C   0  0  0  0  0  0  0  0  0  0  0  0
   10.4884   43.0414   35.0294 O   0  0  0  0  0  0  0  0  0  0  0  0
    8.8557   41.7130   34.0297 O   0  0  0  0  0  0  0  0  0  0  0  0
    9.4933   40.2163   34.4702 P   0  0  0  0  0  0  0  0  0  0  0  0
    9.7295   40.1743   36.1311 O   0  0  0  0  0  0  0  0  0  0  0  0
    8.7478   44.1362   33.7722 C   0  0  1  0  0  0  0  0  0  0  0  0
    9.3028   45.3670   34.3388 N   0  0  0  0  0  0  0  0  0  0  0  0
    8.8890   44.0517   32.2310 C   0  0  0  0  0  0  0  0  0  0  0  0
    8.2017   45.1720   31.4435 C   0  0  0  0  0  0  0  0  0  0  0  0
    6.6644   45.1050   31.4849 C   0  0  0  0  0  0  0  0  0  0  0  0
    6.0277   46.3247   30.8116 C   0  0  0  0  0  0  0  0  0  0  0  0
    6.5115   47.5620   31.4232 N   0  0  0  0  0  0  0  0  0  0  0  0
    7.2460   48.5438   30.6821 C   0  0  0  0  0  0  0  0  0  0  0  0
    7.6221   49.7676   31.2534 O   0  0  0  0  0  0  0  0  0  0  0  0
    7.5882   48.3080   29.4941 O   0  0  0  0  0  0  0  0  0  0  0  0
    7.3115   50.1720   32.5867 C   0  0  0  0  0  0  0  0  0  0  0  0
    5.8322   50.4545   32.7354 C   0  0  0  0  0  0  0  0  0  0  0  0
    5.2063   51.2612   31.7677 C   0  0  0  0  0  0  0  0  0  0  0  0
    5.0523   49.9111   33.7904 C   0  0  0  0  0  0  0  0  0  0  0  0
    3.8294   51.4853   31.8089 C   0  0  0  0  0  0  0  0  0  0  0  0
    3.6645   50.1299   33.8026 C   0  0  0  0  0  0  0  0  0  0  0  0
    5.6432   49.1570   34.8598 N   0  0  0  0  0  0  0  0  0  0  0  0
    3.0583   50.9116   32.8182 C   0  0  0  0  0  0  0  0  0  0  0  0
    4.9715   48.0788   35.3879 O   0  0  0  0  0  0  0  0  0  0  0  0
    6.6348   49.6072   35.4699 O   0  0  0  0  0  0  0  0  0  0  0  0
    8.5368   39.1400   34.0139 O   0  0  0  0  0  0  0  0  0  0  0  0
   10.9789   40.0875   33.6872 O   0  0  0  0  0  0  0  0  0  0  0  0
   10.7992   40.0946   32.2884 C   0  0  0  0  0  0  0  0  0  0  0  0
   11.5957   38.9352   31.6994 C   0  0  0  0  0  0  0  0  0  0  0  0
   12.9257   38.9478   32.1799 O   0  0  0  0  0  0  0  0  0  0  0  0
   11.0070   37.5758   32.0732 C   0  0  0  0  0  0  0  0  0  0  0  0
   13.3571   37.5980   32.2612 C   0  0  0  0  0  0  0  0  0  0  0  0
    9.9093   37.1808   31.2875 O   0  0  0  0  0  0  0  0  0  0  0  0
   12.1967   36.6764   31.8894 C   0  0  0  0  0  0  0  0  0  0  0  0
   13.8018   37.2956   33.6197 N   0  0  0  0  0  0  0  0  0  0  0  0
   12.3048   36.2360   30.5555 O   0  0  0  0  0  0  0  0  0  0  0  0
   14.7922   36.4716   33.9864 C   0  0  0  0  0  0  0  0  0  0  0  0
   13.2747   37.7291   34.7944 C   0  0  0  0  0  0  0  0  0  0  0  0
   15.6239   35.7581   33.1861 N   0  0  0  0  0  0  0  0  0  0  0  0
   14.8721   36.4402   35.3331 C   0  0  0  0  0  0  0  0  0  0  0  0
   13.9206   37.2257   35.8810 N   0  0  0  0  0  0  0  0  0  0  0  0
   16.5873   34.9924   33.7802 C   0  0  0  0  0  0  0  0  0  0  0  0
   15.8576   35.6714   35.9444 C   0  0  0  0  0  0  0  0  0  0  0  0
   16.7026   34.9585   35.1439 N   0  0  0  0  0  0  0  0  0  0  0  0
   16.0102   35.6382   37.3564 N   0  0  0  0  0  0  0  0  0  0  0  0
    7.6757   44.0635   34.0544 H   0  0  0  0  0  0  0  0  0  0  0  0
    8.6444   46.1559   34.1450 H   0  0  0  0  0  0  0  0  0  0  0  0
   10.2131   45.5900   33.8736 H   0  0  0  0  0  0  0  0  0  0  0  0
    9.9707   44.0640   31.9684 H   0  0  0  0  0  0  0  0  0  0  0  0
    8.4828   43.0817   31.8668 H   0  0  0  0  0  0  0  0  0  0  0  0
    8.5224   45.0974   30.3812 H   0  0  0  0  0  0  0  0  0  0  0  0
    8.5703   46.1484   31.8193 H   0  0  0  0  0  0  0  0  0  0  0  0
    6.3166   44.1803   30.9754 H   0  0  0  0  0  0  0  0  0  0  0  0
    6.3120   45.0723   32.5367 H   0  0  0  0  0  0  0  0  0  0  0  0
    6.2435   46.2936   29.7222 H   0  0  0  0  0  0  0  0  0  0  0  0
    4.9245   46.2720   30.9317 H   0  0  0  0  0  0  0  0  0  0  0  0
    6.3069   47.7079   32.4351 H   0  0  0  0  0  0  0  0  0  0  0  0
    7.8654   51.1094   32.8025 H   0  0  0  0  0  0  0  0  0  0  0  0
    7.6848   49.4008   33.2892 H   0  0  0  0  0  0  0  0  0  0  0  0
    5.7849   51.7020   30.9650 H   0  0  0  0  0  0  0  0  0  0  0  0
    3.3584   52.0984   31.0514 H   0  0  0  0  0  0  0  0  0  0  0  0
    3.0534   49.7147   34.5941 H   0  0  0  0  0  0  0  0  0  0  0  0
    1.9898   51.0823   32.8451 H   0  0  0  0  0  0  0  0  0  0  0  0
    9.7448   40.0200   31.9304 H   0  0  0  0  0  0  0  0  0  0  0  0
   11.2092   41.0481   31.8916 H   0  0  0  0  0  0  0  0  0  0  0  0
   11.6207   39.0685   30.5943 H   0  0  0  0  0  0  0  0  0  0  0  0
   10.7059   37.5565   33.1439 H   0  0  0  0  0  0  0  0  0  0  0  0
   14.2095   37.4544   31.5601 H   0  0  0  0  0  0  0  0  0  0  0  0
   10.0864   37.4210   30.3414 H   0  0  0  0  0  0  0  0  0  0  0  0
   12.1275   35.7872   32.5550 H   0  0  0  0  0  0  0  0  0  0  0  0
   12.5031   37.0109   29.9673 H   0  0  0  0  0  0  0  0  0  0  0  0
   12.4328   38.3996   34.8703 H   0  0  0  0  0  0  0  0  0  0  0  0
   17.2670   34.4149   33.1691 H   0  0  0  0  0  0  0  0  0  0  0  0
   15.3758   36.1862   37.9792 H   0  0  0  0  0  0  0  0  0  0  0  0
   16.7640   35.0601   37.7896 H   0  0  0  0  0  0  0  0  0  0  0  0
  1  2  2  0
  1  3  1  0
  3  4  1  0
  4  5  1  0
  6  1  1  0
  7  6  1  0
  6  8  1  0
  8  9  1  0
  9 10  1  0
 10 11  1  0
 11 12  1  0
 12 13  1  0
 13 14  1  0
 13 15  2  0
 14 16  1  0
 16 17  1  0
 17 18  2  0
 19 17  1  0
 18 20  1  0
 21 19  2  0
 19 22  1  0
 20 23  2  0
 23 21  1  0
 22 24  1  0
 22 25  2  0
  4 26  2  0
  4 27  1  0
 28 27  1  0
 28 29  1  0
 29 30  1  0
 29 31  1  0
 30 32  1  0
 31 33  1  0
 31 34  1  0
 34 32  1  0
 32 35  1  0
 34 36  1  0
 37 35  1  0
 38 35  1  0
 39 37  2  0
 37 40  1  0
 41 38  2  0
 42 39  1  0
 40 43  2  0
 40 41  1  0
 44 42  2  0
 44 43  1  0
 43 45  1  0
  6 46  1  6
  7 47  1  0
  7 48  1  0
  8 49  1  0
  8 50  1  0
  9 51  1  0
  9 52  1  0
 10 53  1  0
 10 54  1  0
 11 55  1  0
 11 56  1  0
 12 57  1  0
 16 58  1  0
 16 59  1  0
 18 60  1  0
 20 61  1  0
 21 62  1  0
 23 63  1  0
 28 64  1  0
 28 65  1  0
 29 66  1  0
 31 67  1  0
 32 68  1  0
 33 69  1  0
 34 70  1  0
 36 71  1  0
 38 72  1  0
 42 73  1  0
 45 74  1  0
 45 75  1  0
M  CHG  3   5  -1  22   1  24  -1
M  END
>  <EmbedRMS>  (80) 
0.0752093540137

$$$$

     RDKit          3D

 75 78  0  0  0  0  0  0  0  0999 V2000
    9.4331   42.9367   34.3465 C   0  0  0  0  0  0  0  0  0  0  0  0
   10.4907   43.0333   35.0319 O   0  0  0  0  0  0  0  0  0  0  0  0
    8.8558   41.7105   34.0306 O   0  0  0  0  0  0  0  0  0  0  0  0
    9.4931   40.2144   34.4708 P   0  0  0  0  0  0  0  0  0  0  0  0
    9.7288   40.1730   36.1318 O   0  0  0  0  0  0  0  0  0  0  0  0
    8.7505   44.1350   33.7742 C   0  0  1  0  0  0  0  0  0  0  0  0
    9.2960   45.3823   34.3133 N   0  0  0  0  0  0  0  0  0  0  0  0
    8.8892   44.0529   32.2359 C   0  0  0  0  0  0  0  0  0  0  0  0
    8.2030   45.1827   31.4617 C   0  0  0  0  0  0  0  0  0  0  0  0
    6.6656   45.1041   31.4832 C   0  0  0  0  0  0  0  0  0  0  0  0
    6.0282   46.3232   30.8087 C   0  0  0  0  0  0  0  0  0  0  0  0
    6.5051   47.5634   31.4212 N   0  0  0  0  0  0  0  0  0  0  0  0
    7.2485   48.5413   30.6835 C   0  0  0  0  0  0  0  0  0  0  0  0
    7.6339   49.7566   31.2612 O   0  0  0  0  0  0  0  0  0  0  0  0
    7.5889   48.3083   29.4944 O   0  0  0  0  0  0  0  0  0  0  0  0
    7.3358   50.1303   32.6031 C   0  0  0  0  0  0  0  0  0  0  0  0
    7.8691   51.5149   32.8754 C   0  0  0  0  0  0  0  0  0  0  0  0
    8.7908   51.6885   33.9252 C   0  0  0  0  0  0  0  0  0  0  0  0
    7.5032   52.6365   32.0820 C   0  0  0  0  0  0  0  0  0  0  0  0
    9.3503   52.9402   34.1836 C   0  0  0  0  0  0  0  0  0  0  0  0
    8.0918   53.8862   32.3516 C   0  0  0  0  0  0  0  0  0  0  0  0
    6.5633   52.5279   30.9966 N   0  0  0  0  0  0  0  0  0  0  0  0
    9.0045   54.0359   33.3962 C   0  0  0  0  0  0  0  0  0  0  0  0
    5.4367   51.7483   31.1158 O   0  0  0  0  0  0  0  0  0  0  0  0
    6.6768   53.2656   29.9957 O   0  0  0  0  0  0  0  0  0  0  0  0
    8.5366   39.1386   34.0140 O   0  0  0  0  0  0  0  0  0  0  0  0
   10.9794   40.0875   33.6890 O   0  0  0  0  0  0  0  0  0  0  0  0
   10.8017   40.0947   32.2902 C   0  0  0  0  0  0  0  0  0  0  0  0
   11.5885   38.9266   31.7041 C   0  0  0  0  0  0  0  0  0  0  0  0
   12.9237   38.9445   32.1721 O   0  0  0  0  0  0  0  0  0  0  0  0
   11.0029   37.5726   32.0908 C   0  0  0  0  0  0  0  0  0  0  0  0
   13.3555   37.5960   32.2594 C   0  0  0  0  0  0  0  0  0  0  0  0
    9.9380   37.1846   31.2656 O   0  0  0  0  0  0  0  0  0  0  0  0
   12.1932   36.6769   31.8952 C   0  0  0  0  0  0  0  0  0  0  0  0
   13.8028   37.2977   33.6186 N   0  0  0  0  0  0  0  0  0  0  0  0
   12.2918   36.2396   30.5587 O   0  0  0  0  0  0  0  0  0  0  0  0
   14.7926   36.4727   33.9858 C   0  0  0  0  0  0  0  0  0  0  0  0
   13.2750   37.7302   34.7935 C   0  0  0  0  0  0  0  0  0  0  0  0
   15.6241   35.7586   33.1857 N   0  0  0  0  0  0  0  0  0  0  0  0
   14.8721   36.4408   35.3326 C   0  0  0  0  0  0  0  0  0  0  0  0
   13.9204   37.2263   35.8802 N   0  0  0  0  0  0  0  0  0  0  0  0
   16.5870   34.9924   33.7800 C   0  0  0  0  0  0  0  0  0  0  0  0
   15.8572   35.6717   35.9441 C   0  0  0  0  0  0  0  0  0  0  0  0
   16.7022   34.9585   35.1437 N   0  0  0  0  0  0  0  0  0  0  0  0
   16.0097   35.6384   37.3561 N   0  0  0  0  0  0  0  0  0  0  0  0
    7.6768   44.0710   34.0502 H   0  0  0  0  0  0  0  0  0  0  0  0
   10.3189   45.4410   34.1001 H   0  0  0  0  0  0  0  0  0  0  0  0
    9.1822   45.3826   35.3534 H   0  0  0  0  0  0  0  0  0  0  0  0
    9.9711   44.0681   31.9742 H   0  0  0  0  0  0  0  0  0  0  0  0
    8.4814   43.0853   31.8669 H   0  0  0  0  0  0  0  0  0  0  0  0
    8.5541   46.1513   31.8759 H   0  0  0  0  0  0  0  0  0  0  0  0
    8.5403   45.1380   30.4029 H   0  0  0  0  0  0  0  0  0  0  0  0
    6.3312   44.1802   30.9633 H   0  0  0  0  0  0  0  0  0  0  0  0
    6.3005   45.0617   32.5304 H   0  0  0  0  0  0  0  0  0  0  0  0
    4.9245   46.2668   30.9219 H   0  0  0  0  0  0  0  0  0  0  0  0
    6.2497   46.2922   29.7204 H   0  0  0  0  0  0  0  0  0  0  0  0
    6.2741   47.7248   32.4261 H   0  0  0  0  0  0  0  0  0  0  0  0
    6.2396   50.1149   32.7760 H   0  0  0  0  0  0  0  0  0  0  0  0
    7.7931   49.3875   33.2932 H   0  0  0  0  0  0  0  0  0  0  0  0
    9.0863   50.8504   34.5444 H   0  0  0  0  0  0  0  0  0  0  0  0
   10.0589   53.0591   34.9932 H   0  0  0  0  0  0  0  0  0  0  0  0
    7.8311   54.7534   31.7580 H   0  0  0  0  0  0  0  0  0  0  0  0
    9.4431   55.0050   33.5964 H   0  0  0  0  0  0  0  0  0  0  0  0
   11.2241   41.0427   31.8934 H   0  0  0  0  0  0  0  0  0  0  0  0
    9.7472   40.0378   31.9304 H   0  0  0  0  0  0  0  0  0  0  0  0
   11.5927   39.0434   30.5965 H   0  0  0  0  0  0  0  0  0  0  0  0
   10.7004   37.5442   33.1640 H   0  0  0  0  0  0  0  0  0  0  0  0
   14.2052   37.4477   31.5560 H   0  0  0  0  0  0  0  0  0  0  0  0
    9.1374   37.6722   31.5905 H   0  0  0  0  0  0  0  0  0  0  0  0
   12.1305   35.7855   32.5585 H   0  0  0  0  0  0  0  0  0  0  0  0
   12.4606   37.0186   29.9674 H   0  0  0  0  0  0  0  0  0  0  0  0
   12.4327   38.4001   34.8694 H   0  0  0  0  0  0  0  0  0  0  0  0
   17.2666   34.4146   33.1690 H   0  0  0  0  0  0  0  0  0  0  0  0
   16.7634   35.0601   37.7894 H   0  0  0  0  0  0  0  0  0  0  0  0
   15.3754   36.1866   37.9788 H   0  0  0  0  0  0  0  0  0  0  0  0
  1  2  2  0
  1  3  1  0
  3  4  1  0
  4  5  1  0
  6  1  1  0
  7  6  1  0
  6  8  1  0
  8  9  1  0
  9 10  1  0
 10 11  1  0
 11 12  1  0
 12 13  1  0
 13 14  1  0
 13 15  2  0
 14 16  1  0
 16 17  1  0
 17 18  2  0
 19 17  1  0
 18 20  1  0
 21 19  2  0
 19 22  1  0
 20 23  2  0
 23 21  1  0
 22 24  1  0
 22 25  2  0
  4 26  2  0
  4 27  1  0
 28 27  1  0
 28 29  1  0
 29 30  1  0
 29 31  1  0
 30 32  1  0
 31 33  1  0
 31 34  1  0
 34 32  1  0
 32 35  1  0
 34 36  1  0
 37 35  1  0
 38 35  1  0
 39 37  2  0
 37 40  1  0
 41 38  2  0
 42 39  1  0
 40 43  2  0
 40 41  1  0
 44 42  2  0
 44 43  1  0
 43 45  1  0
  6 46  1  6
  7 47  1  0
  7 48  1  0
  8 49  1  0
  8 50  1  0
  9 51  1  0
  9 52  1  0
 10 53  1  0
 10 54  1  0
 11 55  1  0
 11 56  1  0
 12 57  1  0
 16 58  1  0
 16 59  1  0
 18 60  1  0
 20 61  1  0
 21 62  1  0
 23 63  1  0
 28 64  1  0
 28 65  1  0
 29 66  1  0
 31 67  1  0
 32 68  1  0
 33 69  1  0
 34 70  1  0
 36 71  1  0
 38 72  1  0
 42 73  1  0
 45 74  1  0
 45 75  1  0
M  CHG  3   5  -1  22   1  24  -1
M  END
>  <EmbedRMS>  (81) 
0.0757681925706

$$$$

     RDKit          3D

 75 78  0  0  0  0  0  0  0  0999 V2000
    9.4333   42.9368   34.3460 C   0  0  0  0  0  0  0  0  0  0  0  0
   10.4907   43.0332   35.0318 O   0  0  0  0  0  0  0  0  0  0  0  0
    8.8563   41.7106   34.0294 O   0  0  0  0  0  0  0  0  0  0  0  0
    9.4943   40.2141   34.4678 P   0  0  0  0  0  0  0  0  0  0  0  0
    9.7310   40.1725   36.1289 O   0  0  0  0  0  0  0  0  0  0  0  0
    8.7507   44.1353   33.7741 C   0  0  1  0  0  0  0  0  0  0  0  0
    9.2963   45.3826   34.3133 N   0  0  0  0  0  0  0  0  0  0  0  0
    8.8892   44.0536   32.2357 C   0  0  0  0  0  0  0  0  0  0  0  0
    8.2024   45.1835   31.4619 C   0  0  0  0  0  0  0  0  0  0  0  0
    6.6649   45.1047   31.4849 C   0  0  0  0  0  0  0  0  0  0  0  0
    6.0255   46.3219   30.8087 C   0  0  0  0  0  0  0  0  0  0  0  0
    6.5023   47.5638   31.4166 N   0  0  0  0  0  0  0  0  0  0  0  0
    7.2546   48.5323   30.6887 C   0  0  0  0  0  0  0  0  0  0  0  0
    7.6558   49.7047   31.3332 O   0  0  0  0  0  0  0  0  0  0  0  0
    7.5887   48.3144   29.4925 O   0  0  0  0  0  0  0  0  0  0  0  0
    8.4723   50.6891   30.7068 C   0  0  0  0  0  0  0  0  0  0  0  0
    8.8496   51.7485   31.7115 C   0  0  0  0  0  0  0  0  0  0  0  0
    8.5155   53.0880   31.4380 C   0  0  0  0  0  0  0  0  0  0  0  0
    9.4930   51.4307   32.9391 C   0  0  0  0  0  0  0  0  0  0  0  0
    8.7997   54.0961   32.3598 C   0  0  0  0  0  0  0  0  0  0  0  0
    9.7560   52.4618   33.8600 C   0  0  0  0  0  0  0  0  0  0  0  0
    9.8636   50.0808   33.2782 N   0  0  0  0  0  0  0  0  0  0  0  0
    9.4153   53.7833   33.5697 C   0  0  0  0  0  0  0  0  0  0  0  0
   10.3898   49.2349   32.3300 O   0  0  0  0  0  0  0  0  0  0  0  0
    9.8573   49.7120   34.4710 O   0  0  0  0  0  0  0  0  0  0  0  0
    8.5371   39.1384   34.0121 O   0  0  0  0  0  0  0  0  0  0  0  0
   10.9798   40.0871   33.6829 O   0  0  0  0  0  0  0  0  0  0  0  0
   10.8002   40.0905   32.2832 C   0  0  0  0  0  0  0  0  0  0  0  0
   11.5958   38.9271   31.6963 C   0  0  0  0  0  0  0  0  0  0  0  0
   12.9239   38.9409   32.1766 O   0  0  0  0  0  0  0  0  0  0  0  0
   11.0062   37.5719   32.0793 C   0  0  0  0  0  0  0  0  0  0  0  0
   13.3507   37.5905   32.2614 C   0  0  0  0  0  0  0  0  0  0  0  0
    9.9064   37.1793   31.2946 O   0  0  0  0  0  0  0  0  0  0  0  0
   12.1920   36.6671   31.9003 C   0  0  0  0  0  0  0  0  0  0  0  0
   13.8017   37.2948   33.6193 N   0  0  0  0  0  0  0  0  0  0  0  0
   12.3134   36.2788   30.5560 O   0  0  0  0  0  0  0  0  0  0  0  0
   14.7927   36.4716   33.9861 C   0  0  0  0  0  0  0  0  0  0  0  0
   13.2746   37.7284   34.7941 C   0  0  0  0  0  0  0  0  0  0  0  0
   15.6240   35.7576   33.1859 N   0  0  0  0  0  0  0  0  0  0  0  0
   14.8728   36.4406   35.3330 C   0  0  0  0  0  0  0  0  0  0  0  0
   13.9209   37.2258   35.8808 N   0  0  0  0  0  0  0  0  0  0  0  0
   16.5874   34.9920   33.7802 C   0  0  0  0  0  0  0  0  0  0  0  0
   15.8579   35.6716   35.9443 C   0  0  0  0  0  0  0  0  0  0  0  0
   16.7028   34.9584   35.1439 N   0  0  0  0  0  0  0  0  0  0  0  0
   16.0103   35.6383   37.3563 N   0  0  0  0  0  0  0  0  0  0  0  0
    7.6771   44.0712   34.0503 H   0  0  0  0  0  0  0  0  0  0  0  0
    9.1835   45.3825   35.3535 H   0  0  0  0  0  0  0  0  0  0  0  0
   10.3190   45.4421   34.0990 H   0  0  0  0  0  0  0  0  0  0  0  0
    8.4817   43.0860   31.8665 H   0  0  0  0  0  0  0  0  0  0  0  0
    9.9710   44.0694   31.9738 H   0  0  0  0  0  0  0  0  0  0  0  0
    8.5387   45.1386   30.4028 H   0  0  0  0  0  0  0  0  0  0  0  0
    8.5539   46.1522   31.8756 H   0  0  0  0  0  0  0  0  0  0  0  0
    6.3302   44.1796   30.9675 H   0  0  0  0  0  0  0  0  0  0  0  0
    6.3010   45.0646   32.5326 H   0  0  0  0  0  0  0  0  0  0  0  0
    6.2466   46.2893   29.7202 H   0  0  0  0  0  0  0  0  0  0  0  0
    4.9220   46.2652   30.9232 H   0  0  0  0  0  0  0  0  0  0  0  0
    6.2820   47.7495   32.4209 H   0  0  0  0  0  0  0  0  0  0  0  0
    9.3931   50.2244   30.2958 H   0  0  0  0  0  0  0  0  0  0  0  0
    7.9141   51.1263   29.8501 H   0  0  0  0  0  0  0  0  0  0  0  0
    8.0252   53.3558   30.5101 H   0  0  0  0  0  0  0  0  0  0  0  0
    8.5361   55.1222   32.1375 H   0  0  0  0  0  0  0  0  0  0  0  0
   10.2413   52.2427   34.8028 H   0  0  0  0  0  0  0  0  0  0  0  0
    9.6309   54.5669   34.2846 H   0  0  0  0  0  0  0  0  0  0  0  0
   11.2116   41.0420   31.8834 H   0  0  0  0  0  0  0  0  0  0  0  0
    9.7455   40.0168   31.9263 H   0  0  0  0  0  0  0  0  0  0  0  0
   11.6245   39.0449   30.5888 H   0  0  0  0  0  0  0  0  0  0  0  0
   10.7050   37.5580   33.1500 H   0  0  0  0  0  0  0  0  0  0  0  0
   14.1985   37.4426   31.5553 H   0  0  0  0  0  0  0  0  0  0  0  0
   10.0893   37.4057   30.3459 H   0  0  0  0  0  0  0  0  0  0  0  0
   12.1337   35.7754   32.5703 H   0  0  0  0  0  0  0  0  0  0  0  0
   11.7934   35.4394   30.4513 H   0  0  0  0  0  0  0  0  0  0  0  0
   12.4314   38.3973   34.8700 H   0  0  0  0  0  0  0  0  0  0  0  0
   17.2669   34.4142   33.1691 H   0  0  0  0  0  0  0  0  0  0  0  0
   15.3759   36.1865   37.9790 H   0  0  0  0  0  0  0  0  0  0  0  0
   16.7638   35.0599   37.7896 H   0  0  0  0  0  0  0  0  0  0  0  0
  1  2  2  0
  1  3  1  0
  3  4  1  0
  4  5  1  0
  6  1  1  0
  7  6  1  0
  6  8  1  0
  8  9  1  0
  9 10  1  0
 10 11  1  0
 11 12  1  0
 12 13  1  0
 13 14  1  0
 13 15  2  0
 14 16  1  0
 16 17  1  0
 17 18  2  0
 19 17  1  0
 18 20  1  0
 21 19  2  0
 19 22  1  0
 20 23  2  0
 23 21  1  0
 22 24  1  0
 22 25  2  0
  4 26  2  0
  4 27  1  0
 28 27  1  0
 28 29  1  0
 29 30  1  0
 29 31  1  0
 30 32  1  0
 31 33  1  0
 31 34  1  0
 34 32  1  0
 32 35  1  0
 34 36  1  0
 37 35  1  0
 38 35  1  0
 39 37  2  0
 37 40  1  0
 41 38  2  0
 42 39  1  0
 40 43  2  0
 40 41  1  0
 44 42  2  0
 44 43  1  0
 43 45  1  0
  6 46  1  6
  7 47  1  0
  7 48  1  0
  8 49  1  0
  8 50  1  0
  9 51  1  0
  9 52  1  0
 10 53  1  0
 10 54  1  0
 11 55  1  0
 11 56  1  0
 12 57  1  0
 16 58  1  0
 16 59  1  0
 18 60  1  0
 20 61  1  0
 21 62  1  0
 23 63  1  0
 28 64  1  0
 28 65  1  0
 29 66  1  0
 31 67  1  0
 32 68  1  0
 33 69  1  0
 34 70  1  0
 36 71  1  0
 38 72  1  0
 42 73  1  0
 45 74  1  0
 45 75  1  0
M  CHG  3   5  -1  22   1  24  -1
M  END
>  <EmbedRMS>  (82) 
0.0750675221072

$$$$

     RDKit          3D

 75 78  0  0  0  0  0  0  0  0999 V2000
    9.4301   42.9400   34.3432 C   0  0  0  0  0  0  0  0  0  0  0  0
   10.4913   43.0384   35.0233 O   0  0  0  0  0  0  0  0  0  0  0  0
    8.8546   41.7121   34.0289 O   0  0  0  0  0  0  0  0  0  0  0  0
    9.4928   40.2161   34.4703 P   0  0  0  0  0  0  0  0  0  0  0  0
    9.7286   40.1746   36.1313 O   0  0  0  0  0  0  0  0  0  0  0  0
    8.7416   44.1387   33.7783 C   0  0  1  0  0  0  0  0  0  0  0  0
    9.3024   45.3725   34.3325 N   0  0  0  0  0  0  0  0  0  0  0  0
    8.8966   44.0611   32.2395 C   0  0  0  0  0  0  0  0  0  0  0  0
    8.2023   45.1710   31.4402 C   0  0  0  0  0  0  0  0  0  0  0  0
    6.6648   45.1073   31.4908 C   0  0  0  0  0  0  0  0  0  0  0  0
    6.0249   46.3213   30.8095 C   0  0  0  0  0  0  0  0  0  0  0  0
    6.4988   47.5651   31.4159 N   0  0  0  0  0  0  0  0  0  0  0  0
    7.2592   48.5289   30.6907 C   0  0  0  0  0  0  0  0  0  0  0  0
    7.6728   49.6961   31.3405 O   0  0  0  0  0  0  0  0  0  0  0  0
    7.5886   48.3116   29.4934 O   0  0  0  0  0  0  0  0  0  0  0  0
    8.6223   50.6081   30.7924 C   0  0  0  0  0  0  0  0  0  0  0  0
   10.0023   49.9925   30.7799 C   0  0  0  0  0  0  0  0  0  0  0  0
   10.5235   49.5388   29.5539 C   0  0  0  0  0  0  0  0  0  0  0  0
   10.7969   49.8845   31.9538 C   0  0  0  0  0  0  0  0  0  0  0  0
   11.8013   48.9837   29.4833 C   0  0  0  0  0  0  0  0  0  0  0  0
   12.0886   49.3336   31.8558 C   0  0  0  0  0  0  0  0  0  0  0  0
   10.3340   50.3500   33.2355 N   0  0  0  0  0  0  0  0  0  0  0  0
   12.5827   48.8821   30.6317 C   0  0  0  0  0  0  0  0  0  0  0  0
    9.0318   50.1533   33.6306 O   0  0  0  0  0  0  0  0  0  0  0  0
   11.1496   50.7956   34.0692 O   0  0  0  0  0  0  0  0  0  0  0  0
    8.5368   39.1395   34.0141 O   0  0  0  0  0  0  0  0  0  0  0  0
   10.9793   40.0883   33.6887 O   0  0  0  0  0  0  0  0  0  0  0  0
   10.8017   40.0949   32.2899 C   0  0  0  0  0  0  0  0  0  0  0  0
   11.5885   38.9266   31.7041 C   0  0  0  0  0  0  0  0  0  0  0  0
   12.9236   38.9445   32.1722 O   0  0  0  0  0  0  0  0  0  0  0  0
   11.0029   37.5726   32.0908 C   0  0  0  0  0  0  0  0  0  0  0  0
   13.3555   37.5960   32.2595 C   0  0  0  0  0  0  0  0  0  0  0  0
    9.9379   37.1847   31.2657 O   0  0  0  0  0  0  0  0  0  0  0  0
   12.1931   36.6769   31.8952 C   0  0  0  0  0  0  0  0  0  0  0  0
   13.8028   37.2977   33.6186 N   0  0  0  0  0  0  0  0  0  0  0  0
   12.2918   36.2396   30.5587 O   0  0  0  0  0  0  0  0  0  0  0  0
   14.7926   36.4727   33.9858 C   0  0  0  0  0  0  0  0  0  0  0  0
   13.2750   37.7302   34.7935 C   0  0  0  0  0  0  0  0  0  0  0  0
   15.6241   35.7586   33.1857 N   0  0  0  0  0  0  0  0  0  0  0  0
   14.8721   36.4408   35.3326 C   0  0  0  0  0  0  0  0  0  0  0  0
   13.9204   37.2263   35.8802 N   0  0  0  0  0  0  0  0  0  0  0  0
   16.5870   34.9925   33.7800 C   0  0  0  0  0  0  0  0  0  0  0  0
   15.8572   35.6717   35.9441 C   0  0  0  0  0  0  0  0  0  0  0  0
   16.7022   34.9586   35.1437 N   0  0  0  0  0  0  0  0  0  0  0  0
   16.0097   35.6384   37.3561 N   0  0  0  0  0  0  0  0  0  0  0  0
    7.6672   44.0667   34.0543 H   0  0  0  0  0  0  0  0  0  0  0  0
    9.2328   45.3286   35.3758 H   0  0  0  0  0  0  0  0  0  0  0  0
    8.6836   46.1685   34.0573 H   0  0  0  0  0  0  0  0  0  0  0  0
    9.9813   44.0934   31.9912 H   0  0  0  0  0  0  0  0  0  0  0  0
    8.5093   43.0857   31.8687 H   0  0  0  0  0  0  0  0  0  0  0  0
    8.5755   46.1540   31.7925 H   0  0  0  0  0  0  0  0  0  0  0  0
    8.5158   45.0789   30.3772 H   0  0  0  0  0  0  0  0  0  0  0  0
    6.3133   44.1778   30.9926 H   0  0  0  0  0  0  0  0  0  0  0  0
    6.3176   45.0859   32.5444 H   0  0  0  0  0  0  0  0  0  0  0  0
    6.2474   46.2863   29.7214 H   0  0  0  0  0  0  0  0  0  0  0  0
    4.9213   46.2635   30.9229 H   0  0  0  0  0  0  0  0  0  0  0  0
    6.2778   47.7516   32.4200 H   0  0  0  0  0  0  0  0  0  0  0  0
    8.6342   51.5371   31.4001 H   0  0  0  0  0  0  0  0  0  0  0  0
    8.3006   50.9055   29.7699 H   0  0  0  0  0  0  0  0  0  0  0  0
    9.9388   49.6153   28.6454 H   0  0  0  0  0  0  0  0  0  0  0  0
   12.1880   48.6356   28.5341 H   0  0  0  0  0  0  0  0  0  0  0  0
   12.7125   49.2419   32.7359 H   0  0  0  0  0  0  0  0  0  0  0  0
   13.5751   48.4538   30.5738 H   0  0  0  0  0  0  0  0  0  0  0  0
    9.7472   40.0379   31.9301 H   0  0  0  0  0  0  0  0  0  0  0  0
   11.2241   41.0428   31.8928 H   0  0  0  0  0  0  0  0  0  0  0  0
   11.5928   39.0433   30.5965 H   0  0  0  0  0  0  0  0  0  0  0  0
   10.7003   37.5444   33.1640 H   0  0  0  0  0  0  0  0  0  0  0  0
   14.2051   37.4477   31.5560 H   0  0  0  0  0  0  0  0  0  0  0  0
    9.1374   37.6722   31.5905 H   0  0  0  0  0  0  0  0  0  0  0  0
   12.1305   35.7856   32.5586 H   0  0  0  0  0  0  0  0  0  0  0  0
   12.4607   37.0186   29.9674 H   0  0  0  0  0  0  0  0  0  0  0  0
   12.4327   38.4001   34.8694 H   0  0  0  0  0  0  0  0  0  0  0  0
   17.2666   34.4146   33.1690 H   0  0  0  0  0  0  0  0  0  0  0  0
   16.7634   35.0601   37.7894 H   0  0  0  0  0  0  0  0  0  0  0  0
   15.3754   36.1866   37.9788 H   0  0  0  0  0  0  0  0  0  0  0  0
  1  2  2  0
  1  3  1  0
  3  4  1  0
  4  5  1  0
  6  1  1  0
  7  6  1  0
  6  8  1  0
  8  9  1  0
  9 10  1  0
 10 11  1  0
 11 12  1  0
 12 13  1  0
 13 14  1  0
 13 15  2  0
 14 16  1  0
 16 17  1  0
 17 18  2  0
 19 17  1  0
 18 20  1  0
 21 19  2  0
 19 22  1  0
 20 23  2  0
 23 21  1  0
 22 24  1  0
 22 25  2  0
  4 26  2  0
  4 27  1  0
 28 27  1  0
 28 29  1  0
 29 30  1  0
 29 31  1  0
 30 32  1  0
 31 33  1  0
 31 34  1  0
 34 32  1  0
 32 35  1  0
 34 36  1  0
 37 35  1  0
 38 35  1  0
 39 37  2  0
 37 40  1  0
 41 38  2  0
 42 39  1  0
 40 43  2  0
 40 41  1  0
 44 42  2  0
 44 43  1  0
 43 45  1  0
  6 46  1  6
  7 47  1  0
  7 48  1  0
  8 49  1  0
  8 50  1  0
  9 51  1  0
  9 52  1  0
 10 53  1  0
 10 54  1  0
 11 55  1  0
 11 56  1  0
 12 57  1  0
 16 58  1  0
 16 59  1  0
 18 60  1  0
 20 61  1  0
 21 62  1  0
 23 63  1  0
 28 64  1  0
 28 65  1  0
 29 66  1  0
 31 67  1  0
 32 68  1  0
 33 69  1  0
 34 70  1  0
 36 71  1  0
 38 72  1  0
 42 73  1  0
 45 74  1  0
 45 75  1  0
M  CHG  3   5  -1  22   1  24  -1
M  END
>  <EmbedRMS>  (83) 
0.0755519208946

$$$$

     RDKit          3D

 75 78  0  0  0  0  0  0  0  0999 V2000
    9.4332   42.9365   34.3464 C   0  0  0  0  0  0  0  0  0  0  0  0
   10.4907   43.0330   35.0319 O   0  0  0  0  0  0  0  0  0  0  0  0
    8.8559   41.7103   34.0304 O   0  0  0  0  0  0  0  0  0  0  0  0
    9.4931   40.2140   34.4703 P   0  0  0  0  0  0  0  0  0  0  0  0
    9.7293   40.1727   36.1313 O   0  0  0  0  0  0  0  0  0  0  0  0
    8.7506   44.1348   33.7741 C   0  0  1  0  0  0  0  0  0  0  0  0
    9.2963   45.3820   34.3133 N   0  0  0  0  0  0  0  0  0  0  0  0
    8.8893   44.0526   32.2358 C   0  0  0  0  0  0  0  0  0  0  0  0
    8.2029   45.1822   31.4614 C   0  0  0  0  0  0  0  0  0  0  0  0
    6.6654   45.1046   31.4855 C   0  0  0  0  0  0  0  0  0  0  0  0
    6.0272   46.3228   30.8108 C   0  0  0  0  0  0  0  0  0  0  0  0
    6.5071   47.5640   31.4183 N   0  0  0  0  0  0  0  0  0  0  0  0
    7.2415   48.5404   30.6827 C   0  0  0  0  0  0  0  0  0  0  0  0
    7.5830   49.7467   31.3034 O   0  0  0  0  0  0  0  0  0  0  0  0
    7.5944   48.3107   29.4942 O   0  0  0  0  0  0  0  0  0  0  0  0
    8.2909   50.7941   30.6422 C   0  0  0  0  0  0  0  0  0  0  0  0
    7.4272   51.4403   29.5827 C   0  0  0  0  0  0  0  0  0  0  0  0
    7.8931   51.4570   28.2550 C   0  0  0  0  0  0  0  0  0  0  0  0
    6.1463   51.9856   29.8753 C   0  0  0  0  0  0  0  0  0  0  0  0
    7.1089   51.9884   27.2307 C   0  0  0  0  0  0  0  0  0  0  0  0
    5.3672   52.5016   28.8242 C   0  0  0  0  0  0  0  0  0  0  0  0
    5.6088   52.0067   31.2108 N   0  0  0  0  0  0  0  0  0  0  0  0
    5.8471   52.5059   27.5140 C   0  0  0  0  0  0  0  0  0  0  0  0
    4.2473   51.9535   31.4036 O   0  0  0  0  0  0  0  0  0  0  0  0
    6.3435   52.2351   32.1931 O   0  0  0  0  0  0  0  0  0  0  0  0
    8.5366   39.1381   34.0136 O   0  0  0  0  0  0  0  0  0  0  0  0
   10.9788   40.0866   33.6874 O   0  0  0  0  0  0  0  0  0  0  0  0
   10.7993   40.0944   32.2886 C   0  0  0  0  0  0  0  0  0  0  0  0
   11.5957   38.9351   31.6994 C   0  0  0  0  0  0  0  0  0  0  0  0
   12.9257   38.9477   32.1798 O   0  0  0  0  0  0  0  0  0  0  0  0
   11.0070   37.5757   32.0732 C   0  0  0  0  0  0  0  0  0  0  0  0
   13.3571   37.5979   32.2612 C   0  0  0  0  0  0  0  0  0  0  0  0
    9.9093   37.1807   31.2875 O   0  0  0  0  0  0  0  0  0  0  0  0
   12.1968   36.6763   31.8893 C   0  0  0  0  0  0  0  0  0  0  0  0
   13.8018   37.2956   33.6197 N   0  0  0  0  0  0  0  0  0  0  0  0
   12.3049   36.2360   30.5554 O   0  0  0  0  0  0  0  0  0  0  0  0
   14.7922   36.4716   33.9864 C   0  0  0  0  0  0  0  0  0  0  0  0
   13.2747   37.7291   34.7944 C   0  0  0  0  0  0  0  0  0  0  0  0
   15.6240   35.7581   33.1861 N   0  0  0  0  0  0  0  0  0  0  0  0
   14.8721   36.4401   35.3331 C   0  0  0  0  0  0  0  0  0  0  0  0
   13.9206   37.2257   35.8810 N   0  0  0  0  0  0  0  0  0  0  0  0
   16.5873   34.9924   33.7802 C   0  0  0  0  0  0  0  0  0  0  0  0
   15.8576   35.6714   35.9444 C   0  0  0  0  0  0  0  0  0  0  0  0
   16.7026   34.9585   35.1439 N   0  0  0  0  0  0  0  0  0  0  0  0
   16.0102   35.6382   37.3564 N   0  0  0  0  0  0  0  0  0  0  0  0
    7.6770   44.0707   34.0504 H   0  0  0  0  0  0  0  0  0  0  0  0
   10.3192   45.4406   34.1000 H   0  0  0  0  0  0  0  0  0  0  0  0
    9.1827   45.3821   35.3534 H   0  0  0  0  0  0  0  0  0  0  0  0
    8.4816   43.0849   31.8669 H   0  0  0  0  0  0  0  0  0  0  0  0
    9.9711   44.0679   31.9740 H   0  0  0  0  0  0  0  0  0  0  0  0
    8.5385   45.1360   30.4021 H   0  0  0  0  0  0  0  0  0  0  0  0
    8.5554   46.1508   31.8740 H   0  0  0  0  0  0  0  0  0  0  0  0
    6.3295   44.1801   30.9676 H   0  0  0  0  0  0  0  0  0  0  0  0
    6.3020   45.0641   32.5333 H   0  0  0  0  0  0  0  0  0  0  0  0
    4.9238   46.2679   30.9271 H   0  0  0  0  0  0  0  0  0  0  0  0
    6.2463   46.2901   29.7219 H   0  0  0  0  0  0  0  0  0  0  0  0
    6.2817   47.7539   32.4207 H   0  0  0  0  0  0  0  0  0  0  0  0
    9.2322   50.3849   30.2134 H   0  0  0  0  0  0  0  0  0  0  0  0
    8.5942   51.5579   31.3869 H   0  0  0  0  0  0  0  0  0  0  0  0
    8.8641   51.0466   28.0064 H   0  0  0  0  0  0  0  0  0  0  0  0
    7.4784   51.9924   26.2133 H   0  0  0  0  0  0  0  0  0  0  0  0
    4.3875   52.9177   29.0219 H   0  0  0  0  0  0  0  0  0  0  0  0
    5.2391   52.9137   26.7167 H   0  0  0  0  0  0  0  0  0  0  0  0
    9.7449   40.0200   31.9304 H   0  0  0  0  0  0  0  0  0  0  0  0
   11.2094   41.0479   31.8922 H   0  0  0  0  0  0  0  0  0  0  0  0
   11.6207   39.0685   30.5942 H   0  0  0  0  0  0  0  0  0  0  0  0
   10.7059   37.5563   33.1438 H   0  0  0  0  0  0  0  0  0  0  0  0
   14.2095   37.4543   31.5601 H   0  0  0  0  0  0  0  0  0  0  0  0
   10.0865   37.4209   30.3413 H   0  0  0  0  0  0  0  0  0  0  0  0
   12.1276   35.7872   32.5549 H   0  0  0  0  0  0  0  0  0  0  0  0
   12.5031   37.0109   29.9672 H   0  0  0  0  0  0  0  0  0  0  0  0
   12.4328   38.3996   34.8703 H   0  0  0  0  0  0  0  0  0  0  0  0
   17.2670   34.4149   33.1690 H   0  0  0  0  0  0  0  0  0  0  0  0
   15.3758   36.1862   37.9792 H   0  0  0  0  0  0  0  0  0  0  0  0
   16.7640   35.0601   37.7896 H   0  0  0  0  0  0  0  0  0  0  0  0
  1  2  2  0
  1  3  1  0
  3  4  1  0
  4  5  1  0
  6  1  1  0
  7  6  1  0
  6  8  1  0
  8  9  1  0
  9 10  1  0
 10 11  1  0
 11 12  1  0
 12 13  1  0
 13 14  1  0
 13 15  2  0
 14 16  1  0
 16 17  1  0
 17 18  2  0
 19 17  1  0
 18 20  1  0
 21 19  2  0
 19 22  1  0
 20 23  2  0
 23 21  1  0
 22 24  1  0
 22 25  2  0
  4 26  2  0
  4 27  1  0
 28 27  1  0
 28 29  1  0
 29 30  1  0
 29 31  1  0
 30 32  1  0
 31 33  1  0
 31 34  1  0
 34 32  1  0
 32 35  1  0
 34 36  1  0
 37 35  1  0
 38 35  1  0
 39 37  2  0
 37 40  1  0
 41 38  2  0
 42 39  1  0
 40 43  2  0
 40 41  1  0
 44 42  2  0
 44 43  1  0
 43 45  1  0
  6 46  1  6
  7 47  1  0
  7 48  1  0
  8 49  1  0
  8 50  1  0
  9 51  1  0
  9 52  1  0
 10 53  1  0
 10 54  1  0
 11 55  1  0
 11 56  1  0
 12 57  1  0
 16 58  1  0
 16 59  1  0
 18 60  1  0
 20 61  1  0
 21 62  1  0
 23 63  1  0
 28 64  1  0
 28 65  1  0
 29 66  1  0
 31 67  1  0
 32 68  1  0
 33 69  1  0
 34 70  1  0
 36 71  1  0
 38 72  1  0
 42 73  1  0
 45 74  1  0
 45 75  1  0
M  CHG  3   5  -1  22   1  24  -1
M  END
>  <EmbedRMS>  (84) 
0.0761238369581

$$$$

     RDKit          3D

 75 78  0  0  0  0  0  0  0  0999 V2000
    9.4330   42.9366   34.3462 C   0  0  0  0  0  0  0  0  0  0  0  0
   10.4905   43.0332   35.0319 O   0  0  0  0  0  0  0  0  0  0  0  0
    8.8562   41.7104   34.0295 O   0  0  0  0  0  0  0  0  0  0  0  0
    9.4943   40.2140   34.4679 P   0  0  0  0  0  0  0  0  0  0  0  0
    9.7310   40.1724   36.1290 O   0  0  0  0  0  0  0  0  0  0  0  0
    8.7502   44.1349   33.7741 C   0  0  1  0  0  0  0  0  0  0  0  0
    9.2956   45.3823   34.3133 N   0  0  0  0  0  0  0  0  0  0  0  0
    8.8891   44.0526   32.2358 C   0  0  0  0  0  0  0  0  0  0  0  0
    8.2031   45.1823   31.4613 C   0  0  0  0  0  0  0  0  0  0  0  0
    6.6656   45.1032   31.4819 C   0  0  0  0  0  0  0  0  0  0  0  0
    6.0281   46.3239   30.8103 C   0  0  0  0  0  0  0  0  0  0  0  0
    6.5101   47.5618   31.4225 N   0  0  0  0  0  0  0  0  0  0  0  0
    7.2429   48.5448   30.6813 C   0  0  0  0  0  0  0  0  0  0  0  0
    7.6085   49.7733   31.2493 O   0  0  0  0  0  0  0  0  0  0  0  0
    7.5905   48.3072   29.4952 O   0  0  0  0  0  0  0  0  0  0  0  0
    7.2761   50.1873   32.5744 C   0  0  0  0  0  0  0  0  0  0  0  0
    5.7929   50.4610   32.6990 C   0  0  0  0  0  0  0  0  0  0  0  0
    5.1758   51.2548   31.7150 C   0  0  0  0  0  0  0  0  0  0  0  0
    5.0011   49.9215   33.7471 C   0  0  0  0  0  0  0  0  0  0  0  0
    3.7970   51.4695   31.7338 C   0  0  0  0  0  0  0  0  0  0  0  0
    3.6117   50.1306   33.7367 C   0  0  0  0  0  0  0  0  0  0  0  0
    5.5811   49.1817   34.8322 N   0  0  0  0  0  0  0  0  0  0  0  0
    3.0148   50.8992   32.7365 C   0  0  0  0  0  0  0  0  0  0  0  0
    4.9086   48.1044   35.3613 O   0  0  0  0  0  0  0  0  0  0  0  0
    6.5606   49.6444   35.4524 O   0  0  0  0  0  0  0  0  0  0  0  0
    8.5372   39.1383   34.0121 O   0  0  0  0  0  0  0  0  0  0  0  0
   10.9798   40.0871   33.6829 O   0  0  0  0  0  0  0  0  0  0  0  0
   10.8002   40.0905   32.2832 C   0  0  0  0  0  0  0  0  0  0  0  0
   11.5958   38.9271   31.6963 C   0  0  0  0  0  0  0  0  0  0  0  0
   12.9239   38.9409   32.1766 O   0  0  0  0  0  0  0  0  0  0  0  0
   11.0062   37.5719   32.0793 C   0  0  0  0  0  0  0  0  0  0  0  0
   13.3507   37.5905   32.2614 C   0  0  0  0  0  0  0  0  0  0  0  0
    9.9064   37.1792   31.2946 O   0  0  0  0  0  0  0  0  0  0  0  0
   12.1920   36.6671   31.9003 C   0  0  0  0  0  0  0  0  0  0  0  0
   13.8017   37.2948   33.6193 N   0  0  0  0  0  0  0  0  0  0  0  0
   12.3133   36.2788   30.5560 O   0  0  0  0  0  0  0  0  0  0  0  0
   14.7927   36.4717   33.9861 C   0  0  0  0  0  0  0  0  0  0  0  0
   13.2746   37.7284   34.7941 C   0  0  0  0  0  0  0  0  0  0  0  0
   15.6240   35.7576   33.1859 N   0  0  0  0  0  0  0  0  0  0  0  0
   14.8728   36.4406   35.3330 C   0  0  0  0  0  0  0  0  0  0  0  0
   13.9209   37.2258   35.8807 N   0  0  0  0  0  0  0  0  0  0  0  0
   16.5874   34.9920   33.7802 C   0  0  0  0  0  0  0  0  0  0  0  0
   15.8579   35.6716   35.9443 C   0  0  0  0  0  0  0  0  0  0  0  0
   16.7028   34.9584   35.1439 N   0  0  0  0  0  0  0  0  0  0  0  0
   16.0103   35.6383   37.3563 N   0  0  0  0  0  0  0  0  0  0  0  0
    7.6765   44.0708   34.0501 H   0  0  0  0  0  0  0  0  0  0  0  0
    9.1809   45.3829   35.3533 H   0  0  0  0  0  0  0  0  0  0  0  0
   10.3187   45.4408   34.1008 H   0  0  0  0  0  0  0  0  0  0  0  0
    8.4814   43.0850   31.8668 H   0  0  0  0  0  0  0  0  0  0  0  0
    9.9710   44.0678   31.9742 H   0  0  0  0  0  0  0  0  0  0  0  0
    8.5409   45.1377   30.4027 H   0  0  0  0  0  0  0  0  0  0  0  0
    8.5543   46.1506   31.8759 H   0  0  0  0  0  0  0  0  0  0  0  0
    6.3002   45.0586   32.5290 H   0  0  0  0  0  0  0  0  0  0  0  0
    6.3314   44.1805   30.9600 H   0  0  0  0  0  0  0  0  0  0  0  0
    6.2447   46.2939   29.7210 H   0  0  0  0  0  0  0  0  0  0  0  0
    4.9248   46.2699   30.9290 H   0  0  0  0  0  0  0  0  0  0  0  0
    6.3031   47.7085   32.4338 H   0  0  0  0  0  0  0  0  0  0  0  0
    7.6442   49.4251   33.2892 H   0  0  0  0  0  0  0  0  0  0  0  0
    7.8206   51.1303   32.7898 H   0  0  0  0  0  0  0  0  0  0  0  0
    5.7633   51.6926   30.9170 H   0  0  0  0  0  0  0  0  0  0  0  0
    3.3331   52.0726   30.9639 H   0  0  0  0  0  0  0  0  0  0  0  0
    2.9917   49.7181   34.5227 H   0  0  0  0  0  0  0  0  0  0  0  0
    1.9449   51.0627   32.7460 H   0  0  0  0  0  0  0  0  0  0  0  0
    9.7454   40.0168   31.9263 H   0  0  0  0  0  0  0  0  0  0  0  0
   11.2116   41.0420   31.8834 H   0  0  0  0  0  0  0  0  0  0  0  0
   11.6245   39.0449   30.5888 H   0  0  0  0  0  0  0  0  0  0  0  0
   10.7051   37.5580   33.1500 H   0  0  0  0  0  0  0  0  0  0  0  0
   14.1985   37.4426   31.5553 H   0  0  0  0  0  0  0  0  0  0  0  0
   10.0893   37.4057   30.3459 H   0  0  0  0  0  0  0  0  0  0  0  0
   12.1337   35.7754   32.5703 H   0  0  0  0  0  0  0  0  0  0  0  0
   11.7934   35.4394   30.4514 H   0  0  0  0  0  0  0  0  0  0  0  0
   12.4314   38.3973   34.8700 H   0  0  0  0  0  0  0  0  0  0  0  0
   17.2669   34.4142   33.1691 H   0  0  0  0  0  0  0  0  0  0  0  0
   16.7638   35.0599   37.7896 H   0  0  0  0  0  0  0  0  0  0  0  0
   15.3759   36.1865   37.9790 H   0  0  0  0  0  0  0  0  0  0  0  0
  1  2  2  0
  1  3  1  0
  3  4  1  0
  4  5  1  0
  6  1  1  0
  7  6  1  0
  6  8  1  0
  8  9  1  0
  9 10  1  0
 10 11  1  0
 11 12  1  0
 12 13  1  0
 13 14  1  0
 13 15  2  0
 14 16  1  0
 16 17  1  0
 17 18  2  0
 19 17  1  0
 18 20  1  0
 21 19  2  0
 19 22  1  0
 20 23  2  0
 23 21  1  0
 22 24  1  0
 22 25  2  0
  4 26  2  0
  4 27  1  0
 28 27  1  0
 28 29  1  0
 29 30  1  0
 29 31  1  0
 30 32  1  0
 31 33  1  0
 31 34  1  0
 34 32  1  0
 32 35  1  0
 34 36  1  0
 37 35  1  0
 38 35  1  0
 39 37  2  0
 37 40  1  0
 41 38  2  0
 42 39  1  0
 40 43  2  0
 40 41  1  0
 44 42  2  0
 44 43  1  0
 43 45  1  0
  6 46  1  6
  7 47  1  0
  7 48  1  0
  8 49  1  0
  8 50  1  0
  9 51  1  0
  9 52  1  0
 10 53  1  0
 10 54  1  0
 11 55  1  0
 11 56  1  0
 12 57  1  0
 16 58  1  0
 16 59  1  0
 18 60  1  0
 20 61  1  0
 21 62  1  0
 23 63  1  0
 28 64  1  0
 28 65  1  0
 29 66  1  0
 31 67  1  0
 32 68  1  0
 33 69  1  0
 34 70  1  0
 36 71  1  0
 38 72  1  0
 42 73  1  0
 45 74  1  0
 45 75  1  0
M  CHG  3   5  -1  22   1  24  -1
M  END
>  <EmbedRMS>  (85) 
0.0746204278357

$$$$

     RDKit          3D

 75 78  0  0  0  0  0  0  0  0999 V2000
    9.4337   42.9374   34.3450 C   0  0  0  0  0  0  0  0  0  0  0  0
   10.4908   43.0336   35.0312 O   0  0  0  0  0  0  0  0  0  0  0  0
    8.8564   41.7112   34.0287 O   0  0  0  0  0  0  0  0  0  0  0  0
    9.4941   40.2146   34.4676 P   0  0  0  0  0  0  0  0  0  0  0  0
    9.7309   40.1730   36.1287 O   0  0  0  0  0  0  0  0  0  0  0  0
    8.7514   44.1366   33.7733 C   0  0  1  0  0  0  0  0  0  0  0  0
    9.2971   45.3834   34.3132 N   0  0  0  0  0  0  0  0  0  0  0  0
    8.8901   44.0569   32.2349 C   0  0  0  0  0  0  0  0  0  0  0  0
    8.2020   45.1877   31.4625 C   0  0  0  0  0  0  0  0  0  0  0  0
    6.6642   45.1069   31.4851 C   0  0  0  0  0  0  0  0  0  0  0  0
    6.0209   46.3211   30.8055 C   0  0  0  0  0  0  0  0  0  0  0  0
    6.4884   47.5666   31.4130 N   0  0  0  0  0  0  0  0  0  0  0  0
    7.2742   48.5175   30.6982 C   0  0  0  0  0  0  0  0  0  0  0  0
    7.7680   49.6364   31.3760 O   0  0  0  0  0  0  0  0  0  0  0  0
    7.5864   48.3123   29.4937 O   0  0  0  0  0  0  0  0  0  0  0  0
    8.8552   50.4189   30.8858 C   0  0  0  0  0  0  0  0  0  0  0  0
   10.1288   49.6003   30.8859 C   0  0  0  0  0  0  0  0  0  0  0  0
   10.4515   48.8694   32.0448 C   0  0  0  0  0  0  0  0  0  0  0  0
   10.9628   49.4872   29.7439 C   0  0  0  0  0  0  0  0  0  0  0  0
   11.5455   48.0035   32.0603 C   0  0  0  0  0  0  0  0  0  0  0  0
   12.0522   48.5984   29.7737 C   0  0  0  0  0  0  0  0  0  0  0  0
   10.7399   50.2794   28.5673 N   0  0  0  0  0  0  0  0  0  0  0  0
   12.3385   47.8605   30.9233 C   0  0  0  0  0  0  0  0  0  0  0  0
   10.5482   51.6373   28.6796 O   0  0  0  0  0  0  0  0  0  0  0  0
   10.9466   49.7912   27.4371 O   0  0  0  0  0  0  0  0  0  0  0  0
    8.5369   39.1388   34.0121 O   0  0  0  0  0  0  0  0  0  0  0  0
   10.9794   40.0870   33.6826 O   0  0  0  0  0  0  0  0  0  0  0  0
   10.7997   40.0899   32.2829 C   0  0  0  0  0  0  0  0  0  0  0  0
   11.5968   38.9274   31.6962 C   0  0  0  0  0  0  0  0  0  0  0  0
   12.9242   38.9425   32.1784 O   0  0  0  0  0  0  0  0  0  0  0  0
   11.0086   37.5713   32.0780 C   0  0  0  0  0  0  0  0  0  0  0  0
   13.3528   37.5929   32.2623 C   0  0  0  0  0  0  0  0  0  0  0  0
    9.9098   37.1771   31.2925 O   0  0  0  0  0  0  0  0  0  0  0  0
   12.1943   36.6683   31.8995 C   0  0  0  0  0  0  0  0  0  0  0  0
   13.8019   37.2950   33.6199 N   0  0  0  0  0  0  0  0  0  0  0  0
   12.3027   36.2773   30.5558 O   0  0  0  0  0  0  0  0  0  0  0  0
   14.7926   36.4715   33.9864 C   0  0  0  0  0  0  0  0  0  0  0  0
   13.2749   37.7286   34.7946 C   0  0  0  0  0  0  0  0  0  0  0  0
   15.6239   35.7577   33.1860 N   0  0  0  0  0  0  0  0  0  0  0  0
   14.8727   36.4403   35.3332 C   0  0  0  0  0  0  0  0  0  0  0  0
   13.9210   37.2257   35.8811 N   0  0  0  0  0  0  0  0  0  0  0  0
   16.5873   34.9921   33.7802 C   0  0  0  0  0  0  0  0  0  0  0  0
   15.8579   35.6714   35.9444 C   0  0  0  0  0  0  0  0  0  0  0  0
   16.7028   34.9583   35.1439 N   0  0  0  0  0  0  0  0  0  0  0  0
   16.0104   35.6382   37.3564 N   0  0  0  0  0  0  0  0  0  0  0  0
    7.6777   44.0726   34.0491 H   0  0  0  0  0  0  0  0  0  0  0  0
   10.3195   45.4431   34.0981 H   0  0  0  0  0  0  0  0  0  0  0  0
    9.1853   45.3824   35.3535 H   0  0  0  0  0  0  0  0  0  0  0  0
    8.4841   43.0893   31.8642 H   0  0  0  0  0  0  0  0  0  0  0  0
    9.9720   44.0751   31.9733 H   0  0  0  0  0  0  0  0  0  0  0  0
    8.5516   46.1565   31.8778 H   0  0  0  0  0  0  0  0  0  0  0  0
    8.5391   45.1456   30.4036 H   0  0  0  0  0  0  0  0  0  0  0  0
    6.3316   44.1798   30.9698 H   0  0  0  0  0  0  0  0  0  0  0  0
    6.3003   45.0682   32.5328 H   0  0  0  0  0  0  0  0  0  0  0  0
    4.9172   46.2589   30.9157 H   0  0  0  0  0  0  0  0  0  0  0  0
    6.2457   46.2883   29.7178 H   0  0  0  0  0  0  0  0  0  0  0  0
    6.2691   47.7497   32.4180 H   0  0  0  0  0  0  0  0  0  0  0  0
    8.9942   51.2909   31.5585 H   0  0  0  0  0  0  0  0  0  0  0  0
    8.5896   50.8027   29.8805 H   0  0  0  0  0  0  0  0  0  0  0  0
    9.8339   48.9478   32.9314 H   0  0  0  0  0  0  0  0  0  0  0  0
   11.7725   47.4347   32.9527 H   0  0  0  0  0  0  0  0  0  0  0  0
   12.6960   48.4945   28.9093 H   0  0  0  0  0  0  0  0  0  0  0  0
   13.1840   47.1849   30.9359 H   0  0  0  0  0  0  0  0  0  0  0  0
   11.2097   41.0419   31.8829 H   0  0  0  0  0  0  0  0  0  0  0  0
    9.7450   40.0146   31.9261 H   0  0  0  0  0  0  0  0  0  0  0  0
   11.6265   39.0456   30.5888 H   0  0  0  0  0  0  0  0  0  0  0  0
   10.7064   37.5574   33.1484 H   0  0  0  0  0  0  0  0  0  0  0  0
   14.2021   37.4484   31.5574 H   0  0  0  0  0  0  0  0  0  0  0  0
   10.0952   37.3991   30.3433 H   0  0  0  0  0  0  0  0  0  0  0  0
   12.1163   35.7745   32.5633 H   0  0  0  0  0  0  0  0  0  0  0  0
   12.9614   35.5349   30.5312 H   0  0  0  0  0  0  0  0  0  0  0  0
   12.4321   38.3982   34.8705 H   0  0  0  0  0  0  0  0  0  0  0  0
   17.2669   34.4143   33.1690 H   0  0  0  0  0  0  0  0  0  0  0  0
   15.3761   36.1862   37.9792 H   0  0  0  0  0  0  0  0  0  0  0  0
   16.7641   35.0599   37.7896 H   0  0  0  0  0  0  0  0  0  0  0  0
  1  2  2  0
  1  3  1  0
  3  4  1  0
  4  5  1  0
  6  1  1  0
  7  6  1  0
  6  8  1  0
  8  9  1  0
  9 10  1  0
 10 11  1  0
 11 12  1  0
 12 13  1  0
 13 14  1  0
 13 15  2  0
 14 16  1  0
 16 17  1  0
 17 18  2  0
 19 17  1  0
 18 20  1  0
 21 19  2  0
 19 22  1  0
 20 23  2  0
 23 21  1  0
 22 24  1  0
 22 25  2  0
  4 26  2  0
  4 27  1  0
 28 27  1  0
 28 29  1  0
 29 30  1  0
 29 31  1  0
 30 32  1  0
 31 33  1  0
 31 34  1  0
 34 32  1  0
 32 35  1  0
 34 36  1  0
 37 35  1  0
 38 35  1  0
 39 37  2  0
 37 40  1  0
 41 38  2  0
 42 39  1  0
 40 43  2  0
 40 41  1  0
 44 42  2  0
 44 43  1  0
 43 45  1  0
  6 46  1  6
  7 47  1  0
  7 48  1  0
  8 49  1  0
  8 50  1  0
  9 51  1  0
  9 52  1  0
 10 53  1  0
 10 54  1  0
 11 55  1  0
 11 56  1  0
 12 57  1  0
 16 58  1  0
 16 59  1  0
 18 60  1  0
 20 61  1  0
 21 62  1  0
 23 63  1  0
 28 64  1  0
 28 65  1  0
 29 66  1  0
 31 67  1  0
 32 68  1  0
 33 69  1  0
 34 70  1  0
 36 71  1  0
 38 72  1  0
 42 73  1  0
 45 74  1  0
 45 75  1  0
M  CHG  3   5  -1  22   1  24  -1
M  END
>  <EmbedRMS>  (86) 
0.0758429141538

$$$$

     RDKit          3D

 75 78  0  0  0  0  0  0  0  0999 V2000
    9.4313   42.9411   34.3437 C   0  0  0  0  0  0  0  0  0  0  0  0
   10.4885   43.0410   35.0294 O   0  0  0  0  0  0  0  0  0  0  0  0
    8.8562   41.7128   34.0288 O   0  0  0  0  0  0  0  0  0  0  0  0
    9.4947   40.2163   34.4679 P   0  0  0  0  0  0  0  0  0  0  0  0
    9.7310   40.1742   36.1290 O   0  0  0  0  0  0  0  0  0  0  0  0
    8.7484   44.1360   33.7721 C   0  0  1  0  0  0  0  0  0  0  0  0
    9.3039   45.3665   34.3388 N   0  0  0  0  0  0  0  0  0  0  0  0
    8.8892   44.0519   32.2308 C   0  0  0  0  0  0  0  0  0  0  0  0
    8.2015   45.1721   31.4435 C   0  0  0  0  0  0  0  0  0  0  0  0
    6.6643   45.1066   31.4887 C   0  0  0  0  0  0  0  0  0  0  0  0
    6.0267   46.3237   30.8123 C   0  0  0  0  0  0  0  0  0  0  0  0
    6.5081   47.5646   31.4190 N   0  0  0  0  0  0  0  0  0  0  0  0
    7.2423   48.5405   30.6826 C   0  0  0  0  0  0  0  0  0  0  0  0
    7.5855   49.7470   31.3025 O   0  0  0  0  0  0  0  0  0  0  0  0
    7.5941   48.3103   29.4938 O   0  0  0  0  0  0  0  0  0  0  0  0
    8.3063   50.7863   30.6421 C   0  0  0  0  0  0  0  0  0  0  0  0
    7.4427   51.4449   29.5900 C   0  0  0  0  0  0  0  0  0  0  0  0
    6.1725   51.9137   29.9714 C   0  0  0  0  0  0  0  0  0  0  0  0
    7.8443   51.5626   28.2344 C   0  0  0  0  0  0  0  0  0  0  0  0
    5.2980   52.4519   29.0261 C   0  0  0  0  0  0  0  0  0  0  0  0
    6.9428   52.0897   27.2931 C   0  0  0  0  0  0  0  0  0  0  0  0
    9.1597   51.1839   27.8026 N   0  0  0  0  0  0  0  0  0  0  0  0
    5.6788   52.5309   27.6876 C   0  0  0  0  0  0  0  0  0  0  0  0
   10.2645   51.6783   28.4567 O   0  0  0  0  0  0  0  0  0  0  0  0
    9.3148   50.6147   26.7024 O   0  0  0  0  0  0  0  0  0  0  0  0
    8.5375   39.1404   34.0127 O   0  0  0  0  0  0  0  0  0  0  0  0
   10.9805   40.0889   33.6836 O   0  0  0  0  0  0  0  0  0  0  0  0
   10.8025   40.0902   32.2837 C   0  0  0  0  0  0  0  0  0  0  0  0
   11.5888   38.9175   31.7008 C   0  0  0  0  0  0  0  0  0  0  0  0
   12.9219   38.9373   32.1692 O   0  0  0  0  0  0  0  0  0  0  0  0
   11.0028   37.5683   32.0981 C   0  0  0  0  0  0  0  0  0  0  0  0
   13.3496   37.5886   32.2601 C   0  0  0  0  0  0  0  0  0  0  0  0
    9.9343   37.1823   31.2757 O   0  0  0  0  0  0  0  0  0  0  0  0
   12.1891   36.6677   31.9050 C   0  0  0  0  0  0  0  0  0  0  0  0
   13.8025   37.2965   33.6187 N   0  0  0  0  0  0  0  0  0  0  0  0
   12.2990   36.2868   30.5568 O   0  0  0  0  0  0  0  0  0  0  0  0
   14.7929   36.4725   33.9858 C   0  0  0  0  0  0  0  0  0  0  0  0
   13.2749   37.7294   34.7936 C   0  0  0  0  0  0  0  0  0  0  0  0
   15.6240   35.7580   33.1858 N   0  0  0  0  0  0  0  0  0  0  0  0
   14.8727   36.4411   35.3327 C   0  0  0  0  0  0  0  0  0  0  0  0
   13.9208   37.2263   35.8803 N   0  0  0  0  0  0  0  0  0  0  0  0
   16.5871   34.9921   33.7801 C   0  0  0  0  0  0  0  0  0  0  0  0
   15.8576   35.6718   35.9441 C   0  0  0  0  0  0  0  0  0  0  0  0
   16.7024   34.9584   35.1438 N   0  0  0  0  0  0  0  0  0  0  0  0
   16.0099   35.6384   37.3562 N   0  0  0  0  0  0  0  0  0  0  0  0
    7.6764   44.0634   34.0547 H   0  0  0  0  0  0  0  0  0  0  0  0
   10.2152   45.5879   33.8747 H   0  0  0  0  0  0  0  0  0  0  0  0
    8.6468   46.1558   34.1431 H   0  0  0  0  0  0  0  0  0  0  0  0
    9.9708   44.0643   31.9679 H   0  0  0  0  0  0  0  0  0  0  0  0
    8.4830   43.0818   31.8666 H   0  0  0  0  0  0  0  0  0  0  0  0
    8.5714   46.1487   31.8173 H   0  0  0  0  0  0  0  0  0  0  0  0
    8.5198   45.0959   30.3807 H   0  0  0  0  0  0  0  0  0  0  0  0
    6.3148   44.1801   30.9835 H   0  0  0  0  0  0  0  0  0  0  0  0
    6.3142   45.0783   32.5413 H   0  0  0  0  0  0  0  0  0  0  0  0
    4.9233   46.2699   30.9300 H   0  0  0  0  0  0  0  0  0  0  0  0
    6.2448   46.2897   29.7232 H   0  0  0  0  0  0  0  0  0  0  0  0
    6.2851   47.7542   32.4220 H   0  0  0  0  0  0  0  0  0  0  0  0
    9.2424   50.3598   30.2305 H   0  0  0  0  0  0  0  0  0  0  0  0
    8.5901   51.5515   31.3947 H   0  0  0  0  0  0  0  0  0  0  0  0
    5.8510   51.8434   31.0035 H   0  0  0  0  0  0  0  0  0  0  0  0
    4.3197   52.8003   29.3311 H   0  0  0  0  0  0  0  0  0  0  0  0
    7.2310   52.1820   26.2534 H   0  0  0  0  0  0  0  0  0  0  0  0
    4.9973   52.9444   26.9554 H   0  0  0  0  0  0  0  0  0  0  0  0
   11.2257   41.0358   31.8825 H   0  0  0  0  0  0  0  0  0  0  0  0
    9.7476   40.0332   31.9256 H   0  0  0  0  0  0  0  0  0  0  0  0
   11.5975   39.0148   30.5905 H   0  0  0  0  0  0  0  0  0  0  0  0
   10.7023   37.5457   33.1720 H   0  0  0  0  0  0  0  0  0  0  0  0
   14.1957   37.4366   31.5528 H   0  0  0  0  0  0  0  0  0  0  0  0
    9.1339   37.6658   31.6070 H   0  0  0  0  0  0  0  0  0  0  0  0
   12.1380   35.7718   32.5698 H   0  0  0  0  0  0  0  0  0  0  0  0
   11.7706   35.4530   30.4496 H   0  0  0  0  0  0  0  0  0  0  0  0
   12.4314   38.3980   34.8694 H   0  0  0  0  0  0  0  0  0  0  0  0
   17.2665   34.4140   33.1691 H   0  0  0  0  0  0  0  0  0  0  0  0
   15.3757   36.1867   37.9789 H   0  0  0  0  0  0  0  0  0  0  0  0
   16.7633   35.0598   37.7895 H   0  0  0  0  0  0  0  0  0  0  0  0
  1  2  2  0
  1  3  1  0
  3  4  1  0
  4  5  1  0
  6  1  1  0
  7  6  1  0
  6  8  1  0
  8  9  1  0
  9 10  1  0
 10 11  1  0
 11 12  1  0
 12 13  1  0
 13 14  1  0
 13 15  2  0
 14 16  1  0
 16 17  1  0
 17 18  2  0
 19 17  1  0
 18 20  1  0
 21 19  2  0
 19 22  1  0
 20 23  2  0
 23 21  1  0
 22 24  1  0
 22 25  2  0
  4 26  2  0
  4 27  1  0
 28 27  1  0
 28 29  1  0
 29 30  1  0
 29 31  1  0
 30 32  1  0
 31 33  1  0
 31 34  1  0
 34 32  1  0
 32 35  1  0
 34 36  1  0
 37 35  1  0
 38 35  1  0
 39 37  2  0
 37 40  1  0
 41 38  2  0
 42 39  1  0
 40 43  2  0
 40 41  1  0
 44 42  2  0
 44 43  1  0
 43 45  1  0
  6 46  1  6
  7 47  1  0
  7 48  1  0
  8 49  1  0
  8 50  1  0
  9 51  1  0
  9 52  1  0
 10 53  1  0
 10 54  1  0
 11 55  1  0
 11 56  1  0
 12 57  1  0
 16 58  1  0
 16 59  1  0
 18 60  1  0
 20 61  1  0
 21 62  1  0
 23 63  1  0
 28 64  1  0
 28 65  1  0
 29 66  1  0
 31 67  1  0
 32 68  1  0
 33 69  1  0
 34 70  1  0
 36 71  1  0
 38 72  1  0
 42 73  1  0
 45 74  1  0
 45 75  1  0
M  CHG  3   5  -1  22   1  24  -1
M  END
>  <EmbedRMS>  (87) 
0.0733461199282

$$$$

     RDKit          3D

 75 78  0  0  0  0  0  0  0  0999 V2000
    9.4333   42.9364   34.3461 C   0  0  0  0  0  0  0  0  0  0  0  0
   10.4907   43.0329   35.0318 O   0  0  0  0  0  0  0  0  0  0  0  0
    8.8563   41.7102   34.0295 O   0  0  0  0  0  0  0  0  0  0  0  0
    9.4943   40.2139   34.4679 P   0  0  0  0  0  0  0  0  0  0  0  0
    9.7310   40.1724   36.1290 O   0  0  0  0  0  0  0  0  0  0  0  0
    8.7506   44.1347   33.7740 C   0  0  1  0  0  0  0  0  0  0  0  0
    9.2963   45.3819   34.3133 N   0  0  0  0  0  0  0  0  0  0  0  0
    8.8893   44.0527   32.2358 C   0  0  0  0  0  0  0  0  0  0  0  0
    8.2029   45.1823   31.4614 C   0  0  0  0  0  0  0  0  0  0  0  0
    6.6654   45.1046   31.4854 C   0  0  0  0  0  0  0  0  0  0  0  0
    6.0272   46.3228   30.8107 C   0  0  0  0  0  0  0  0  0  0  0  0
    6.5069   47.5640   31.4183 N   0  0  0  0  0  0  0  0  0  0  0  0
    7.2417   48.5403   30.6829 C   0  0  0  0  0  0  0  0  0  0  0  0
    7.5840   49.7467   31.3034 O   0  0  0  0  0  0  0  0  0  0  0  0
    7.5944   48.3106   29.4942 O   0  0  0  0  0  0  0  0  0  0  0  0
    8.3053   50.7864   30.6440 C   0  0  0  0  0  0  0  0  0  0  0  0
    7.4429   51.4449   29.5908 C   0  0  0  0  0  0  0  0  0  0  0  0
    6.1715   51.9121   29.9702 C   0  0  0  0  0  0  0  0  0  0  0  0
    7.8470   51.5643   28.2361 C   0  0  0  0  0  0  0  0  0  0  0  0
    5.2982   52.4501   29.0237 C   0  0  0  0  0  0  0  0  0  0  0  0
    6.9467   52.0913   27.2936 C   0  0  0  0  0  0  0  0  0  0  0  0
    9.1638   51.1876   27.8065 N   0  0  0  0  0  0  0  0  0  0  0  0
    5.6814   52.5307   27.6861 C   0  0  0  0  0  0  0  0  0  0  0  0
   10.2666   51.6824   28.4637 O   0  0  0  0  0  0  0  0  0  0  0  0
    9.3218   50.6201   26.7059 O   0  0  0  0  0  0  0  0  0  0  0  0
    8.5372   39.1382   34.0121 O   0  0  0  0  0  0  0  0  0  0  0  0
   10.9798   40.0870   33.6829 O   0  0  0  0  0  0  0  0  0  0  0  0
   10.8002   40.0905   32.2832 C   0  0  0  0  0  0  0  0  0  0  0  0
   11.5958   38.9271   31.6963 C   0  0  0  0  0  0  0  0  0  0  0  0
   12.9239   38.9408   32.1766 O   0  0  0  0  0  0  0  0  0  0  0  0
   11.0062   37.5719   32.0793 C   0  0  0  0  0  0  0  0  0  0  0  0
   13.3507   37.5905   32.2614 C   0  0  0  0  0  0  0  0  0  0  0  0
    9.9064   37.1792   31.2946 O   0  0  0  0  0  0  0  0  0  0  0  0
   12.1920   36.6671   31.9003 C   0  0  0  0  0  0  0  0  0  0  0  0
   13.8017   37.2948   33.6193 N   0  0  0  0  0  0  0  0  0  0  0  0
   12.3134   36.2787   30.5560 O   0  0  0  0  0  0  0  0  0  0  0  0
   14.7927   36.4716   33.9862 C   0  0  0  0  0  0  0  0  0  0  0  0
   13.2746   37.7284   34.7941 C   0  0  0  0  0  0  0  0  0  0  0  0
   15.6240   35.7576   33.1859 N   0  0  0  0  0  0  0  0  0  0  0  0
   14.8728   36.4406   35.3330 C   0  0  0  0  0  0  0  0  0  0  0  0
   13.9209   37.2258   35.8808 N   0  0  0  0  0  0  0  0  0  0  0  0
   16.5874   34.9920   33.7802 C   0  0  0  0  0  0  0  0  0  0  0  0
   15.8579   35.6716   35.9443 C   0  0  0  0  0  0  0  0  0  0  0  0
   16.7028   34.9584   35.1439 N   0  0  0  0  0  0  0  0  0  0  0  0
   16.0103   35.6383   37.3563 N   0  0  0  0  0  0  0  0  0  0  0  0
    7.6771   44.0706   34.0503 H   0  0  0  0  0  0  0  0  0  0  0  0
    9.1827   45.3819   35.3535 H   0  0  0  0  0  0  0  0  0  0  0  0
   10.3192   45.4405   34.1000 H   0  0  0  0  0  0  0  0  0  0  0  0
    8.4817   43.0851   31.8667 H   0  0  0  0  0  0  0  0  0  0  0  0
    9.9711   44.0681   31.9739 H   0  0  0  0  0  0  0  0  0  0  0  0
    8.5554   46.1510   31.8740 H   0  0  0  0  0  0  0  0  0  0  0  0
    8.5385   45.1362   30.4021 H   0  0  0  0  0  0  0  0  0  0  0  0
    6.3020   45.0641   32.5332 H   0  0  0  0  0  0  0  0  0  0  0  0
    6.3296   44.1801   30.9675 H   0  0  0  0  0  0  0  0  0  0  0  0
    4.9237   46.2678   30.9270 H   0  0  0  0  0  0  0  0  0  0  0  0
    6.2463   46.2901   29.7218 H   0  0  0  0  0  0  0  0  0  0  0  0
    6.2818   47.7537   32.4209 H   0  0  0  0  0  0  0  0  0  0  0  0
    9.2420   50.3602   30.2335 H   0  0  0  0  0  0  0  0  0  0  0  0
    8.5879   51.5515   31.3970 H   0  0  0  0  0  0  0  0  0  0  0  0
    5.8481   51.8405   31.0017 H   0  0  0  0  0  0  0  0  0  0  0  0
    4.3189   52.7972   29.3272 H   0  0  0  0  0  0  0  0  0  0  0  0
    7.2369   52.1849   26.2546 H   0  0  0  0  0  0  0  0  0  0  0  0
    5.0009   52.9441   26.9529 H   0  0  0  0  0  0  0  0  0  0  0  0
    9.7455   40.0168   31.9263 H   0  0  0  0  0  0  0  0  0  0  0  0
   11.2116   41.0420   31.8834 H   0  0  0  0  0  0  0  0  0  0  0  0
   11.6245   39.0449   30.5888 H   0  0  0  0  0  0  0  0  0  0  0  0
   10.7051   37.5579   33.1500 H   0  0  0  0  0  0  0  0  0  0  0  0
   14.1985   37.4426   31.5553 H   0  0  0  0  0  0  0  0  0  0  0  0
   10.0893   37.4056   30.3459 H   0  0  0  0  0  0  0  0  0  0  0  0
   12.1337   35.7754   32.5703 H   0  0  0  0  0  0  0  0  0  0  0  0
   11.7934   35.4394   30.4513 H   0  0  0  0  0  0  0  0  0  0  0  0
   12.4314   38.3972   34.8700 H   0  0  0  0  0  0  0  0  0  0  0  0
   17.2669   34.4142   33.1692 H   0  0  0  0  0  0  0  0  0  0  0  0
   16.7638   35.0599   37.7896 H   0  0  0  0  0  0  0  0  0  0  0  0
   15.3759   36.1865   37.9790 H   0  0  0  0  0  0  0  0  0  0  0  0
  1  2  2  0
  1  3  1  0
  3  4  1  0
  4  5  1  0
  6  1  1  0
  7  6  1  0
  6  8  1  0
  8  9  1  0
  9 10  1  0
 10 11  1  0
 11 12  1  0
 12 13  1  0
 13 14  1  0
 13 15  2  0
 14 16  1  0
 16 17  1  0
 17 18  2  0
 19 17  1  0
 18 20  1  0
 21 19  2  0
 19 22  1  0
 20 23  2  0
 23 21  1  0
 22 24  1  0
 22 25  2  0
  4 26  2  0
  4 27  1  0
 28 27  1  0
 28 29  1  0
 29 30  1  0
 29 31  1  0
 30 32  1  0
 31 33  1  0
 31 34  1  0
 34 32  1  0
 32 35  1  0
 34 36  1  0
 37 35  1  0
 38 35  1  0
 39 37  2  0
 37 40  1  0
 41 38  2  0
 42 39  1  0
 40 43  2  0
 40 41  1  0
 44 42  2  0
 44 43  1  0
 43 45  1  0
  6 46  1  6
  7 47  1  0
  7 48  1  0
  8 49  1  0
  8 50  1  0
  9 51  1  0
  9 52  1  0
 10 53  1  0
 10 54  1  0
 11 55  1  0
 11 56  1  0
 12 57  1  0
 16 58  1  0
 16 59  1  0
 18 60  1  0
 20 61  1  0
 21 62  1  0
 23 63  1  0
 28 64  1  0
 28 65  1  0
 29 66  1  0
 31 67  1  0
 32 68  1  0
 33 69  1  0
 34 70  1  0
 36 71  1  0
 38 72  1  0
 42 73  1  0
 45 74  1  0
 45 75  1  0
M  CHG  3   5  -1  22   1  24  -1
M  END
>  <EmbedRMS>  (88) 
0.0747448530374

$$$$

     RDKit          3D

 75 78  0  0  0  0  0  0  0  0999 V2000
    9.4298   42.9396   34.3435 C   0  0  0  0  0  0  0  0  0  0  0  0
   10.4911   43.0383   35.0235 O   0  0  0  0  0  0  0  0  0  0  0  0
    8.8549   41.7116   34.0283 O   0  0  0  0  0  0  0  0  0  0  0  0
    9.4942   40.2155   34.4674 P   0  0  0  0  0  0  0  0  0  0  0  0
    9.7309   40.1738   36.1286 O   0  0  0  0  0  0  0  0  0  0  0  0
    8.7407   44.1378   33.7786 C   0  0  1  0  0  0  0  0  0  0  0  0
    9.3005   45.3723   34.3325 N   0  0  0  0  0  0  0  0  0  0  0  0
    8.8961   44.0591   32.2400 C   0  0  0  0  0  0  0  0  0  0  0  0
    8.2030   45.1685   31.4399 C   0  0  0  0  0  0  0  0  0  0  0  0
    6.6654   45.1047   31.4871 C   0  0  0  0  0  0  0  0  0  0  0  0
    6.0287   46.3235   30.8118 C   0  0  0  0  0  0  0  0  0  0  0  0
    6.5115   47.5615   31.4230 N   0  0  0  0  0  0  0  0  0  0  0  0
    7.2457   48.5436   30.6820 C   0  0  0  0  0  0  0  0  0  0  0  0
    7.6218   49.7673   31.2535 O   0  0  0  0  0  0  0  0  0  0  0  0
    7.5879   48.3080   29.4940 O   0  0  0  0  0  0  0  0  0  0  0  0
    7.3134   50.1704   32.5877 C   0  0  0  0  0  0  0  0  0  0  0  0
    5.8344   50.4524   32.7395 C   0  0  0  0  0  0  0  0  0  0  0  0
    5.2065   51.2599   31.7737 C   0  0  0  0  0  0  0  0  0  0  0  0
    5.0567   49.9081   33.7956 C   0  0  0  0  0  0  0  0  0  0  0  0
    3.8296   51.4837   31.8178 C   0  0  0  0  0  0  0  0  0  0  0  0
    3.6688   50.1266   33.8107 C   0  0  0  0  0  0  0  0  0  0  0  0
    5.6497   49.1530   34.8631 N   0  0  0  0  0  0  0  0  0  0  0  0
    3.0605   50.9090   32.8281 C   0  0  0  0  0  0  0  0  0  0  0  0
    4.9793   48.0740   35.3913 O   0  0  0  0  0  0  0  0  0  0  0  0
    6.6424   49.6027   35.4717 O   0  0  0  0  0  0  0  0  0  0  0  0
    8.5375   39.1390   34.0123 O   0  0  0  0  0  0  0  0  0  0  0  0
   10.9797   40.0879   33.6827 O   0  0  0  0  0  0  0  0  0  0  0  0
   10.8002   40.0907   32.2830 C   0  0  0  0  0  0  0  0  0  0  0  0
   11.5958   38.9271   31.6963 C   0  0  0  0  0  0  0  0  0  0  0  0
   12.9239   38.9409   32.1767 O   0  0  0  0  0  0  0  0  0  0  0  0
   11.0062   37.5719   32.0794 C   0  0  0  0  0  0  0  0  0  0  0  0
   13.3506   37.5906   32.2614 C   0  0  0  0  0  0  0  0  0  0  0  0
    9.9064   37.1793   31.2946 O   0  0  0  0  0  0  0  0  0  0  0  0
   12.1920   36.6672   31.9003 C   0  0  0  0  0  0  0  0  0  0  0  0
   13.8017   37.2948   33.6193 N   0  0  0  0  0  0  0  0  0  0  0  0
   12.3133   36.2788   30.5561 O   0  0  0  0  0  0  0  0  0  0  0  0
   14.7927   36.4717   33.9862 C   0  0  0  0  0  0  0  0  0  0  0  0
   13.2746   37.7284   34.7941 C   0  0  0  0  0  0  0  0  0  0  0  0
   15.6240   35.7576   33.1859 N   0  0  0  0  0  0  0  0  0  0  0  0
   14.8728   36.4406   35.3330 C   0  0  0  0  0  0  0  0  0  0  0  0
   13.9209   37.2258   35.8808 N   0  0  0  0  0  0  0  0  0  0  0  0
   16.5874   34.9920   33.7802 C   0  0  0  0  0  0  0  0  0  0  0  0
   15.8579   35.6716   35.9443 C   0  0  0  0  0  0  0  0  0  0  0  0
   16.7028   34.9584   35.1439 N   0  0  0  0  0  0  0  0  0  0  0  0
   16.0103   35.6383   37.3563 N   0  0  0  0  0  0  0  0  0  0  0  0
    7.6662   44.0652   34.0545 H   0  0  0  0  0  0  0  0  0  0  0  0
    9.2332   45.3274   35.3759 H   0  0  0  0  0  0  0  0  0  0  0  0
    8.6786   46.1669   34.0598 H   0  0  0  0  0  0  0  0  0  0  0  0
    8.5082   43.0838   31.8696 H   0  0  0  0  0  0  0  0  0  0  0  0
    9.9808   44.0904   31.9919 H   0  0  0  0  0  0  0  0  0  0  0  0
    8.5183   45.0768   30.3774 H   0  0  0  0  0  0  0  0  0  0  0  0
    8.5759   46.1509   31.7937 H   0  0  0  0  0  0  0  0  0  0  0  0
    6.3143   44.1784   30.9829 H   0  0  0  0  0  0  0  0  0  0  0  0
    6.3161   45.0773   32.5400 H   0  0  0  0  0  0  0  0  0  0  0  0
    6.2456   46.2915   29.7226 H   0  0  0  0  0  0  0  0  0  0  0  0
    4.9254   46.2704   30.9311 H   0  0  0  0  0  0  0  0  0  0  0  0
    6.3064   47.7076   32.4348 H   0  0  0  0  0  0  0  0  0  0  0  0
    7.8676   51.1076   32.8035 H   0  0  0  0  0  0  0  0  0  0  0  0
    7.6881   49.3986   33.2888 H   0  0  0  0  0  0  0  0  0  0  0  0
    5.7834   51.7014   30.9702 H   0  0  0  0  0  0  0  0  0  0  0  0
    3.3570   52.0974   31.0617 H   0  0  0  0  0  0  0  0  0  0  0  0
    3.0593   49.7106   34.6030 H   0  0  0  0  0  0  0  0  0  0  0  0
    1.9921   51.0796   32.8573 H   0  0  0  0  0  0  0  0  0  0  0  0
   11.2114   41.0420   31.8828 H   0  0  0  0  0  0  0  0  0  0  0  0
    9.7454   40.0168   31.9261 H   0  0  0  0  0  0  0  0  0  0  0  0
   11.6246   39.0448   30.5888 H   0  0  0  0  0  0  0  0  0  0  0  0
   10.7050   37.5581   33.1500 H   0  0  0  0  0  0  0  0  0  0  0  0
   14.1985   37.4426   31.5553 H   0  0  0  0  0  0  0  0  0  0  0  0
   10.0893   37.4057   30.3459 H   0  0  0  0  0  0  0  0  0  0  0  0
   12.1337   35.7754   32.5703 H   0  0  0  0  0  0  0  0  0  0  0  0
   11.7934   35.4394   30.4514 H   0  0  0  0  0  0  0  0  0  0  0  0
   12.4314   38.3973   34.8699 H   0  0  0  0  0  0  0  0  0  0  0  0
   17.2669   34.4142   33.1691 H   0  0  0  0  0  0  0  0  0  0  0  0
   16.7638   35.0599   37.7896 H   0  0  0  0  0  0  0  0  0  0  0  0
   15.3759   36.1865   37.9790 H   0  0  0  0  0  0  0  0  0  0  0  0
  1  2  2  0
  1  3  1  0
  3  4  1  0
  4  5  1  0
  6  1  1  0
  7  6  1  0
  6  8  1  0
  8  9  1  0
  9 10  1  0
 10 11  1  0
 11 12  1  0
 12 13  1  0
 13 14  1  0
 13 15  2  0
 14 16  1  0
 16 17  1  0
 17 18  2  0
 19 17  1  0
 18 20  1  0
 21 19  2  0
 19 22  1  0
 20 23  2  0
 23 21  1  0
 22 24  1  0
 22 25  2  0
  4 26  2  0
  4 27  1  0
 28 27  1  0
 28 29  1  0
 29 30  1  0
 29 31  1  0
 30 32  1  0
 31 33  1  0
 31 34  1  0
 34 32  1  0
 32 35  1  0
 34 36  1  0
 37 35  1  0
 38 35  1  0
 39 37  2  0
 37 40  1  0
 41 38  2  0
 42 39  1  0
 40 43  2  0
 40 41  1  0
 44 42  2  0
 44 43  1  0
 43 45  1  0
  6 46  1  6
  7 47  1  0
  7 48  1  0
  8 49  1  0
  8 50  1  0
  9 51  1  0
  9 52  1  0
 10 53  1  0
 10 54  1  0
 11 55  1  0
 11 56  1  0
 12 57  1  0
 16 58  1  0
 16 59  1  0
 18 60  1  0
 20 61  1  0
 21 62  1  0
 23 63  1  0
 28 64  1  0
 28 65  1  0
 29 66  1  0
 31 67  1  0
 32 68  1  0
 33 69  1  0
 34 70  1  0
 36 71  1  0
 38 72  1  0
 42 73  1  0
 45 74  1  0
 45 75  1  0
M  CHG  3   5  -1  22   1  24  -1
M  END
>  <EmbedRMS>  (89) 
0.0739545031247

$$$$

     RDKit          3D

 75 78  0  0  0  0  0  0  0  0999 V2000
    9.4333   42.9365   34.3461 C   0  0  0  0  0  0  0  0  0  0  0  0
   10.4907   43.0329   35.0318 O   0  0  0  0  0  0  0  0  0  0  0  0
    8.8563   41.7103   34.0295 O   0  0  0  0  0  0  0  0  0  0  0  0
    9.4942   40.2139   34.4678 P   0  0  0  0  0  0  0  0  0  0  0  0
    9.7311   40.1724   36.1289 O   0  0  0  0  0  0  0  0  0  0  0  0
    8.7506   44.1348   33.7741 C   0  0  1  0  0  0  0  0  0  0  0  0
    9.2963   45.3820   34.3134 N   0  0  0  0  0  0  0  0  0  0  0  0
    8.8893   44.0528   32.2358 C   0  0  0  0  0  0  0  0  0  0  0  0
    8.2028   45.1825   31.4615 C   0  0  0  0  0  0  0  0  0  0  0  0
    6.6653   45.1046   31.4854 C   0  0  0  0  0  0  0  0  0  0  0  0
    6.0268   46.3225   30.8103 C   0  0  0  0  0  0  0  0  0  0  0  0
    6.5059   47.5640   31.4179 N   0  0  0  0  0  0  0  0  0  0  0  0
    7.2446   48.5387   30.6840 C   0  0  0  0  0  0  0  0  0  0  0  0
    7.5998   49.7368   31.3091 O   0  0  0  0  0  0  0  0  0  0  0  0
    7.5929   48.3120   29.4935 O   0  0  0  0  0  0  0  0  0  0  0  0
    8.3563   50.7525   30.6558 C   0  0  0  0  0  0  0  0  0  0  0  0
    8.6298   51.8808   31.6209 C   0  0  0  0  0  0  0  0  0  0  0  0
    9.1812   51.5621   32.8756 C   0  0  0  0  0  0  0  0  0  0  0  0
    8.3255   53.2362   31.3249 C   0  0  0  0  0  0  0  0  0  0  0  0
    9.3832   52.5522   33.8381 C   0  0  0  0  0  0  0  0  0  0  0  0
    8.5161   54.2154   32.3147 C   0  0  0  0  0  0  0  0  0  0  0  0
    7.8550   53.6440   30.0313 N   0  0  0  0  0  0  0  0  0  0  0  0
    9.0411   53.8748   33.5621 C   0  0  0  0  0  0  0  0  0  0  0  0
    6.9168   54.6454   29.9310 O   0  0  0  0  0  0  0  0  0  0  0  0
    8.4660   53.2866   29.0032 O   0  0  0  0  0  0  0  0  0  0  0  0
    8.5370   39.1382   34.0122 O   0  0  0  0  0  0  0  0  0  0  0  0
   10.9795   40.0869   33.6827 O   0  0  0  0  0  0  0  0  0  0  0  0
   10.7997   40.0898   32.2830 C   0  0  0  0  0  0  0  0  0  0  0  0
   11.5968   38.9273   31.6962 C   0  0  0  0  0  0  0  0  0  0  0  0
   12.9242   38.9425   32.1784 O   0  0  0  0  0  0  0  0  0  0  0  0
   11.0086   37.5713   32.0780 C   0  0  0  0  0  0  0  0  0  0  0  0
   13.3528   37.5929   32.2623 C   0  0  0  0  0  0  0  0  0  0  0  0
    9.9098   37.1770   31.2925 O   0  0  0  0  0  0  0  0  0  0  0  0
   12.1943   36.6683   31.8994 C   0  0  0  0  0  0  0  0  0  0  0  0
   13.8019   37.2950   33.6199 N   0  0  0  0  0  0  0  0  0  0  0  0
   12.3027   36.2773   30.5558 O   0  0  0  0  0  0  0  0  0  0  0  0
   14.7926   36.4715   33.9865 C   0  0  0  0  0  0  0  0  0  0  0  0
   13.2749   37.7286   34.7946 C   0  0  0  0  0  0  0  0  0  0  0  0
   15.6239   35.7577   33.1860 N   0  0  0  0  0  0  0  0  0  0  0  0
   14.8727   36.4403   35.3332 C   0  0  0  0  0  0  0  0  0  0  0  0
   13.9210   37.2257   35.8811 N   0  0  0  0  0  0  0  0  0  0  0  0
   16.5873   34.9921   33.7802 C   0  0  0  0  0  0  0  0  0  0  0  0
   15.8579   35.6714   35.9444 C   0  0  0  0  0  0  0  0  0  0  0  0
   16.7028   34.9583   35.1439 N   0  0  0  0  0  0  0  0  0  0  0  0
   16.0104   35.6381   37.3564 N   0  0  0  0  0  0  0  0  0  0  0  0
    7.6770   44.0707   34.0504 H   0  0  0  0  0  0  0  0  0  0  0  0
   10.3192   45.4407   34.1000 H   0  0  0  0  0  0  0  0  0  0  0  0
    9.1827   45.3820   35.3535 H   0  0  0  0  0  0  0  0  0  0  0  0
    8.4817   43.0852   31.8667 H   0  0  0  0  0  0  0  0  0  0  0  0
    9.9711   44.0683   31.9739 H   0  0  0  0  0  0  0  0  0  0  0  0
    8.5550   46.1511   31.8744 H   0  0  0  0  0  0  0  0  0  0  0  0
    8.5385   45.1366   30.4023 H   0  0  0  0  0  0  0  0  0  0  0  0
    6.3297   44.1799   30.9677 H   0  0  0  0  0  0  0  0  0  0  0  0
    6.3019   45.0642   32.5332 H   0  0  0  0  0  0  0  0  0  0  0  0
    6.2465   46.2897   29.7216 H   0  0  0  0  0  0  0  0  0  0  0  0
    4.9234   46.2671   30.9263 H   0  0  0  0  0  0  0  0  0  0  0  0
    6.2825   47.7525   32.4210 H   0  0  0  0  0  0  0  0  0  0  0  0
    9.3274   50.3310   30.3169 H   0  0  0  0  0  0  0  0  0  0  0  0
    7.7874   51.0890   29.7667 H   0  0  0  0  0  0  0  0  0  0  0  0
    9.4387   50.5375   33.1159 H   0  0  0  0  0  0  0  0  0  0  0  0
    9.7986   52.2916   34.8031 H   0  0  0  0  0  0  0  0  0  0  0  0
    8.2829   55.2525   32.1087 H   0  0  0  0  0  0  0  0  0  0  0  0
    9.1944   54.6403   34.3118 H   0  0  0  0  0  0  0  0  0  0  0  0
    9.7449   40.0145   31.9263 H   0  0  0  0  0  0  0  0  0  0  0  0
   11.2096   41.0418   31.8830 H   0  0  0  0  0  0  0  0  0  0  0  0
   11.6265   39.0456   30.5888 H   0  0  0  0  0  0  0  0  0  0  0  0
   10.7064   37.5573   33.1484 H   0  0  0  0  0  0  0  0  0  0  0  0
   14.2021   37.4484   31.5574 H   0  0  0  0  0  0  0  0  0  0  0  0
   10.0952   37.3990   30.3433 H   0  0  0  0  0  0  0  0  0  0  0  0
   12.1163   35.7744   32.5633 H   0  0  0  0  0  0  0  0  0  0  0  0
   12.9615   35.5349   30.5311 H   0  0  0  0  0  0  0  0  0  0  0  0
   12.4321   38.3982   34.8705 H   0  0  0  0  0  0  0  0  0  0  0  0
   17.2669   34.4143   33.1690 H   0  0  0  0  0  0  0  0  0  0  0  0
   15.3761   36.1862   37.9792 H   0  0  0  0  0  0  0  0  0  0  0  0
   16.7641   35.0598   37.7896 H   0  0  0  0  0  0  0  0  0  0  0  0
  1  2  2  0
  1  3  1  0
  3  4  1  0
  4  5  1  0
  6  1  1  0
  7  6  1  0
  6  8  1  0
  8  9  1  0
  9 10  1  0
 10 11  1  0
 11 12  1  0
 12 13  1  0
 13 14  1  0
 13 15  2  0
 14 16  1  0
 16 17  1  0
 17 18  2  0
 19 17  1  0
 18 20  1  0
 21 19  2  0
 19 22  1  0
 20 23  2  0
 23 21  1  0
 22 24  1  0
 22 25  2  0
  4 26  2  0
  4 27  1  0
 28 27  1  0
 28 29  1  0
 29 30  1  0
 29 31  1  0
 30 32  1  0
 31 33  1  0
 31 34  1  0
 34 32  1  0
 32 35  1  0
 34 36  1  0
 37 35  1  0
 38 35  1  0
 39 37  2  0
 37 40  1  0
 41 38  2  0
 42 39  1  0
 40 43  2  0
 40 41  1  0
 44 42  2  0
 44 43  1  0
 43 45  1  0
  6 46  1  6
  7 47  1  0
  7 48  1  0
  8 49  1  0
  8 50  1  0
  9 51  1  0
  9 52  1  0
 10 53  1  0
 10 54  1  0
 11 55  1  0
 11 56  1  0
 12 57  1  0
 16 58  1  0
 16 59  1  0
 18 60  1  0
 20 61  1  0
 21 62  1  0
 23 63  1  0
 28 64  1  0
 28 65  1  0
 29 66  1  0
 31 67  1  0
 32 68  1  0
 33 69  1  0
 34 70  1  0
 36 71  1  0
 38 72  1  0
 42 73  1  0
 45 74  1  0
 45 75  1  0
M  CHG  3   5  -1  22   1  24  -1
M  END
>  <EmbedRMS>  (90) 
0.0746217530915

$$$$

     RDKit          3D

 75 78  0  0  0  0  0  0  0  0999 V2000
    9.4330   42.9367   34.3463 C   0  0  0  0  0  0  0  0  0  0  0  0
   10.4905   43.0333   35.0319 O   0  0  0  0  0  0  0  0  0  0  0  0
    8.8562   41.7105   34.0297 O   0  0  0  0  0  0  0  0  0  0  0  0
    9.4945   40.2143   34.4680 P   0  0  0  0  0  0  0  0  0  0  0  0
    9.7309   40.1727   36.1291 O   0  0  0  0  0  0  0  0  0  0  0  0
    8.7502   44.1350   33.7741 C   0  0  1  0  0  0  0  0  0  0  0  0
    9.2956   45.3824   34.3132 N   0  0  0  0  0  0  0  0  0  0  0  0
    8.8891   44.0526   32.2359 C   0  0  0  0  0  0  0  0  0  0  0  0
    8.2031   45.1822   31.4613 C   0  0  0  0  0  0  0  0  0  0  0  0
    6.6656   45.1033   31.4819 C   0  0  0  0  0  0  0  0  0  0  0  0
    6.0281   46.3239   30.8103 C   0  0  0  0  0  0  0  0  0  0  0  0
    6.5101   47.5618   31.4225 N   0  0  0  0  0  0  0  0  0  0  0  0
    7.2429   48.5448   30.6813 C   0  0  0  0  0  0  0  0  0  0  0  0
    7.6086   49.7732   31.2494 O   0  0  0  0  0  0  0  0  0  0  0  0
    7.5905   48.3072   29.4952 O   0  0  0  0  0  0  0  0  0  0  0  0
    7.2763   50.1872   32.5745 C   0  0  0  0  0  0  0  0  0  0  0  0
    5.7931   50.4609   32.6992 C   0  0  0  0  0  0  0  0  0  0  0  0
    5.1761   51.2550   31.7154 C   0  0  0  0  0  0  0  0  0  0  0  0
    5.0014   49.9214   33.7474 C   0  0  0  0  0  0  0  0  0  0  0  0
    3.7972   51.4698   31.7343 C   0  0  0  0  0  0  0  0  0  0  0  0
    3.6121   50.1306   33.7372 C   0  0  0  0  0  0  0  0  0  0  0  0
    5.5815   49.1814   34.8324 N   0  0  0  0  0  0  0  0  0  0  0  0
    3.0152   50.8994   32.7371 C   0  0  0  0  0  0  0  0  0  0  0  0
    4.9089   48.1041   35.3614 O   0  0  0  0  0  0  0  0  0  0  0  0
    6.5611   49.6440   35.4525 O   0  0  0  0  0  0  0  0  0  0  0  0
    8.5372   39.1387   34.0125 O   0  0  0  0  0  0  0  0  0  0  0  0
   10.9804   40.0881   33.6837 O   0  0  0  0  0  0  0  0  0  0  0  0
   10.8025   40.0900   32.2839 C   0  0  0  0  0  0  0  0  0  0  0  0
   11.5888   38.9174   31.7007 C   0  0  0  0  0  0  0  0  0  0  0  0
   12.9219   38.9373   32.1692 O   0  0  0  0  0  0  0  0  0  0  0  0
   11.0028   37.5682   32.0980 C   0  0  0  0  0  0  0  0  0  0  0  0
   13.3496   37.5885   32.2601 C   0  0  0  0  0  0  0  0  0  0  0  0
    9.9343   37.1822   31.2756 O   0  0  0  0  0  0  0  0  0  0  0  0
   12.1891   36.6677   31.9049 C   0  0  0  0  0  0  0  0  0  0  0  0
   13.8025   37.2965   33.6186 N   0  0  0  0  0  0  0  0  0  0  0  0
   12.2991   36.2867   30.5567 O   0  0  0  0  0  0  0  0  0  0  0  0
   14.7929   36.4725   33.9858 C   0  0  0  0  0  0  0  0  0  0  0  0
   13.2749   37.7294   34.7935 C   0  0  0  0  0  0  0  0  0  0  0  0
   15.6240   35.7580   33.1858 N   0  0  0  0  0  0  0  0  0  0  0  0
   14.8727   36.4411   35.3327 C   0  0  0  0  0  0  0  0  0  0  0  0
   13.9208   37.2263   35.8803 N   0  0  0  0  0  0  0  0  0  0  0  0
   16.5871   34.9921   33.7801 C   0  0  0  0  0  0  0  0  0  0  0  0
   15.8576   35.6718   35.9441 C   0  0  0  0  0  0  0  0  0  0  0  0
   16.7024   34.9584   35.1438 N   0  0  0  0  0  0  0  0  0  0  0  0
   16.0099   35.6384   37.3562 N   0  0  0  0  0  0  0  0  0  0  0  0
    7.6765   44.0709   34.0501 H   0  0  0  0  0  0  0  0  0  0  0  0
   10.3187   45.4409   34.1008 H   0  0  0  0  0  0  0  0  0  0  0  0
    9.1809   45.3831   35.3533 H   0  0  0  0  0  0  0  0  0  0  0  0
    9.9710   44.0678   31.9742 H   0  0  0  0  0  0  0  0  0  0  0  0
    8.4814   43.0850   31.8669 H   0  0  0  0  0  0  0  0  0  0  0  0
    8.5409   45.1377   30.4027 H   0  0  0  0  0  0  0  0  0  0  0  0
    8.5543   46.1506   31.8758 H   0  0  0  0  0  0  0  0  0  0  0  0
    6.3314   44.1805   30.9600 H   0  0  0  0  0  0  0  0  0  0  0  0
    6.3002   45.0586   32.5289 H   0  0  0  0  0  0  0  0  0  0  0  0
    6.2448   46.2940   29.7210 H   0  0  0  0  0  0  0  0  0  0  0  0
    4.9248   46.2699   30.9290 H   0  0  0  0  0  0  0  0  0  0  0  0
    6.3030   47.7085   32.4338 H   0  0  0  0  0  0  0  0  0  0  0  0
    7.6445   49.4249   33.2892 H   0  0  0  0  0  0  0  0  0  0  0  0
    7.8209   51.1301   32.7899 H   0  0  0  0  0  0  0  0  0  0  0  0
    5.7635   51.6927   30.9175 H   0  0  0  0  0  0  0  0  0  0  0  0
    3.3333   52.0730   30.9646 H   0  0  0  0  0  0  0  0  0  0  0  0
    2.9921   49.7181   34.5232 H   0  0  0  0  0  0  0  0  0  0  0  0
    1.9452   51.0630   32.7467 H   0  0  0  0  0  0  0  0  0  0  0  0
    9.7476   40.0331   31.9256 H   0  0  0  0  0  0  0  0  0  0  0  0
   11.2258   41.0357   31.8829 H   0  0  0  0  0  0  0  0  0  0  0  0
   11.5974   39.0148   30.5904 H   0  0  0  0  0  0  0  0  0  0  0  0
   10.7023   37.5455   33.1719 H   0  0  0  0  0  0  0  0  0  0  0  0
   14.1957   37.4366   31.5528 H   0  0  0  0  0  0  0  0  0  0  0  0
    9.1339   37.6658   31.6069 H   0  0  0  0  0  0  0  0  0  0  0  0
   12.1381   35.7717   32.5697 H   0  0  0  0  0  0  0  0  0  0  0  0
   11.7707   35.4530   30.4496 H   0  0  0  0  0  0  0  0  0  0  0  0
   12.4314   38.3980   34.8694 H   0  0  0  0  0  0  0  0  0  0  0  0
   17.2665   34.4140   33.1691 H   0  0  0  0  0  0  0  0  0  0  0  0
   15.3757   36.1867   37.9789 H   0  0  0  0  0  0  0  0  0  0  0  0
   16.7633   35.0598   37.7895 H   0  0  0  0  0  0  0  0  0  0  0  0
  1  2  2  0
  1  3  1  0
  3  4  1  0
  4  5  1  0
  6  1  1  0
  7  6  1  0
  6  8  1  0
  8  9  1  0
  9 10  1  0
 10 11  1  0
 11 12  1  0
 12 13  1  0
 13 14  1  0
 13 15  2  0
 14 16  1  0
 16 17  1  0
 17 18  2  0
 19 17  1  0
 18 20  1  0
 21 19  2  0
 19 22  1  0
 20 23  2  0
 23 21  1  0
 22 24  1  0
 22 25  2  0
  4 26  2  0
  4 27  1  0
 28 27  1  0
 28 29  1  0
 29 30  1  0
 29 31  1  0
 30 32  1  0
 31 33  1  0
 31 34  1  0
 34 32  1  0
 32 35  1  0
 34 36  1  0
 37 35  1  0
 38 35  1  0
 39 37  2  0
 37 40  1  0
 41 38  2  0
 42 39  1  0
 40 43  2  0
 40 41  1  0
 44 42  2  0
 44 43  1  0
 43 45  1  0
  6 46  1  6
  7 47  1  0
  7 48  1  0
  8 49  1  0
  8 50  1  0
  9 51  1  0
  9 52  1  0
 10 53  1  0
 10 54  1  0
 11 55  1  0
 11 56  1  0
 12 57  1  0
 16 58  1  0
 16 59  1  0
 18 60  1  0
 20 61  1  0
 21 62  1  0
 23 63  1  0
 28 64  1  0
 28 65  1  0
 29 66  1  0
 31 67  1  0
 32 68  1  0
 33 69  1  0
 34 70  1  0
 36 71  1  0
 38 72  1  0
 42 73  1  0
 45 74  1  0
 45 75  1  0
M  CHG  3   5  -1  22   1  24  -1
M  END
>  <EmbedRMS>  (91) 
0.0740408909936

$$$$

     RDKit          3D

 75 78  0  0  0  0  0  0  0  0999 V2000
    9.4333   42.9371   34.3456 C   0  0  0  0  0  0  0  0  0  0  0  0
   10.4907   43.0334   35.0314 O   0  0  0  0  0  0  0  0  0  0  0  0
    8.8559   41.7109   34.0295 O   0  0  0  0  0  0  0  0  0  0  0  0
    9.4942   40.2145   34.4676 P   0  0  0  0  0  0  0  0  0  0  0  0
    9.7316   40.1726   36.1286 O   0  0  0  0  0  0  0  0  0  0  0  0
    8.7509   44.1358   33.7737 C   0  0  1  0  0  0  0  0  0  0  0  0
    9.2966   45.3829   34.3132 N   0  0  0  0  0  0  0  0  0  0  0  0
    8.8895   44.0548   32.2353 C   0  0  0  0  0  0  0  0  0  0  0  0
    8.2023   45.1851   31.4619 C   0  0  0  0  0  0  0  0  0  0  0  0
    6.6647   45.1058   31.4851 C   0  0  0  0  0  0  0  0  0  0  0  0
    6.0240   46.3217   30.8075 C   0  0  0  0  0  0  0  0  0  0  0  0
    6.4970   47.5652   31.4153 N   0  0  0  0  0  0  0  0  0  0  0  0
    7.2609   48.5277   30.6919 C   0  0  0  0  0  0  0  0  0  0  0  0
    7.6832   49.6897   31.3453 O   0  0  0  0  0  0  0  0  0  0  0  0
    7.5886   48.3121   29.4937 O   0  0  0  0  0  0  0  0  0  0  0  0
    8.6454   50.5913   30.8021 C   0  0  0  0  0  0  0  0  0  0  0  0
   10.0155   49.9527   30.7783 C   0  0  0  0  0  0  0  0  0  0  0  0
   10.5373   49.5353   29.5397 C   0  0  0  0  0  0  0  0  0  0  0  0
   10.7990   49.7819   31.9543 C   0  0  0  0  0  0  0  0  0  0  0  0
   11.8039   48.9570   29.4569 C   0  0  0  0  0  0  0  0  0  0  0  0
   12.0790   49.2085   31.8433 C   0  0  0  0  0  0  0  0  0  0  0  0
   10.3432   50.2062   33.2535 N   0  0  0  0  0  0  0  0  0  0  0  0
   12.5735   48.7948   30.6061 C   0  0  0  0  0  0  0  0  0  0  0  0
   11.2573   50.5751   34.2138 O   0  0  0  0  0  0  0  0  0  0  0  0
    9.1442   50.1009   33.5811 O   0  0  0  0  0  0  0  0  0  0  0  0
    8.5370   39.1385   34.0123 O   0  0  0  0  0  0  0  0  0  0  0  0
   10.9792   40.0888   33.6813 O   0  0  0  0  0  0  0  0  0  0  0  0
   10.7977   40.0843   32.2817 C   0  0  0  0  0  0  0  0  0  0  0  0
   11.5897   38.9147   31.7008 C   0  0  0  0  0  0  0  0  0  0  0  0
   12.9218   38.9385   32.1717 O   0  0  0  0  0  0  0  0  0  0  0  0
   11.0070   37.5654   32.0975 C   0  0  0  0  0  0  0  0  0  0  0  0
   13.3533   37.5909   32.2610 C   0  0  0  0  0  0  0  0  0  0  0  0
    9.9333   37.1935   31.2754 O   0  0  0  0  0  0  0  0  0  0  0  0
   12.1945   36.6671   31.9040 C   0  0  0  0  0  0  0  0  0  0  0  0
   13.8036   37.2970   33.6193 N   0  0  0  0  0  0  0  0  0  0  0  0
   12.2893   36.2849   30.5562 O   0  0  0  0  0  0  0  0  0  0  0  0
   14.7931   36.4723   33.9863 C   0  0  0  0  0  0  0  0  0  0  0  0
   13.2756   37.7298   34.7940 C   0  0  0  0  0  0  0  0  0  0  0  0
   15.6242   35.7580   33.1861 N   0  0  0  0  0  0  0  0  0  0  0  0
   14.8727   36.4407   35.3331 C   0  0  0  0  0  0  0  0  0  0  0  0
   13.9210   37.2262   35.8808 N   0  0  0  0  0  0  0  0  0  0  0  0
   16.5872   34.9920   33.7803 C   0  0  0  0  0  0  0  0  0  0  0  0
   15.8577   35.6715   35.9444 C   0  0  0  0  0  0  0  0  0  0  0  0
   16.7025   34.9582   35.1440 N   0  0  0  0  0  0  0  0  0  0  0  0
   16.0101   35.6382   37.3564 N   0  0  0  0  0  0  0  0  0  0  0  0
    7.6773   44.0718   34.0498 H   0  0  0  0  0  0  0  0  0  0  0  0
    9.1848   45.3822   35.3535 H   0  0  0  0  0  0  0  0  0  0  0  0
   10.3191   45.4429   34.0980 H   0  0  0  0  0  0  0  0  0  0  0  0
    9.9713   44.0712   31.9734 H   0  0  0  0  0  0  0  0  0  0  0  0
    8.4824   43.0872   31.8657 H   0  0  0  0  0  0  0  0  0  0  0  0
    8.5534   46.1540   31.8757 H   0  0  0  0  0  0  0  0  0  0  0  0
    8.5387   45.1409   30.4028 H   0  0  0  0  0  0  0  0  0  0  0  0
    6.3011   45.0665   32.5329 H   0  0  0  0  0  0  0  0  0  0  0  0
    6.3306   44.1798   30.9688 H   0  0  0  0  0  0  0  0  0  0  0  0
    6.2466   46.2889   29.7194 H   0  0  0  0  0  0  0  0  0  0  0  0
    4.9204   46.2629   30.9201 H   0  0  0  0  0  0  0  0  0  0  0  0
    6.2752   47.7510   32.4193 H   0  0  0  0  0  0  0  0  0  0  0  0
    8.3233   50.9031   29.7841 H   0  0  0  0  0  0  0  0  0  0  0  0
    8.6757   51.5144   31.4181 H   0  0  0  0  0  0  0  0  0  0  0  0
    9.9612   49.6569   28.6306 H   0  0  0  0  0  0  0  0  0  0  0  0
   12.1909   48.6374   28.4979 H   0  0  0  0  0  0  0  0  0  0  0  0
   12.6946   49.0683   32.7227 H   0  0  0  0  0  0  0  0  0  0  0  0
   13.5571   48.3481   30.5388 H   0  0  0  0  0  0  0  0  0  0  0  0
    9.7422   40.0118   31.9266 H   0  0  0  0  0  0  0  0  0  0  0  0
   11.2112   41.0320   31.8753 H   0  0  0  0  0  0  0  0  0  0  0  0
   11.6005   39.0119   30.5904 H   0  0  0  0  0  0  0  0  0  0  0  0
   10.7015   37.5593   33.1701 H   0  0  0  0  0  0  0  0  0  0  0  0
   14.2012   37.4438   31.5552 H   0  0  0  0  0  0  0  0  0  0  0  0
    9.5289   36.3869   31.6895 H   0  0  0  0  0  0  0  0  0  0  0  0
   12.1243   35.7694   32.5633 H   0  0  0  0  0  0  0  0  0  0  0  0
   12.9478   35.5427   30.5201 H   0  0  0  0  0  0  0  0  0  0  0  0
   12.4328   38.3993   34.8697 H   0  0  0  0  0  0  0  0  0  0  0  0
   17.2667   34.4140   33.1692 H   0  0  0  0  0  0  0  0  0  0  0  0
   15.3759   36.1865   37.9791 H   0  0  0  0  0  0  0  0  0  0  0  0
   16.7636   35.0598   37.7897 H   0  0  0  0  0  0  0  0  0  0  0  0
  1  2  2  0
  1  3  1  0
  3  4  1  0
  4  5  1  0
  6  1  1  0
  7  6  1  0
  6  8  1  0
  8  9  1  0
  9 10  1  0
 10 11  1  0
 11 12  1  0
 12 13  1  0
 13 14  1  0
 13 15  2  0
 14 16  1  0
 16 17  1  0
 17 18  2  0
 19 17  1  0
 18 20  1  0
 21 19  2  0
 19 22  1  0
 20 23  2  0
 23 21  1  0
 22 24  1  0
 22 25  2  0
  4 26  2  0
  4 27  1  0
 28 27  1  0
 28 29  1  0
 29 30  1  0
 29 31  1  0
 30 32  1  0
 31 33  1  0
 31 34  1  0
 34 32  1  0
 32 35  1  0
 34 36  1  0
 37 35  1  0
 38 35  1  0
 39 37  2  0
 37 40  1  0
 41 38  2  0
 42 39  1  0
 40 43  2  0
 40 41  1  0
 44 42  2  0
 44 43  1  0
 43 45  1  0
  6 46  1  6
  7 47  1  0
  7 48  1  0
  8 49  1  0
  8 50  1  0
  9 51  1  0
  9 52  1  0
 10 53  1  0
 10 54  1  0
 11 55  1  0
 11 56  1  0
 12 57  1  0
 16 58  1  0
 16 59  1  0
 18 60  1  0
 20 61  1  0
 21 62  1  0
 23 63  1  0
 28 64  1  0
 28 65  1  0
 29 66  1  0
 31 67  1  0
 32 68  1  0
 33 69  1  0
 34 70  1  0
 36 71  1  0
 38 72  1  0
 42 73  1  0
 45 74  1  0
 45 75  1  0
M  CHG  3   5  -1  22   1  24  -1
M  END
>  <EmbedRMS>  (92) 
0.0748398044409

$$$$

     RDKit          3D

 75 78  0  0  0  0  0  0  0  0999 V2000
    9.4310   42.9414   34.3440 C   0  0  0  0  0  0  0  0  0  0  0  0
   10.4884   43.0414   35.0294 O   0  0  0  0  0  0  0  0  0  0  0  0
    8.8557   41.7130   34.0298 O   0  0  0  0  0  0  0  0  0  0  0  0
    9.4933   40.2165   34.4707 P   0  0  0  0  0  0  0  0  0  0  0  0
    9.7290   40.1745   36.1317 O   0  0  0  0  0  0  0  0  0  0  0  0
    8.7481   44.1361   33.7720 C   0  0  1  0  0  0  0  0  0  0  0  0
    9.3033   45.3669   34.3386 N   0  0  0  0  0  0  0  0  0  0  0  0
    8.8891   44.0517   32.2307 C   0  0  0  0  0  0  0  0  0  0  0  0
    8.2018   45.1720   31.4431 C   0  0  0  0  0  0  0  0  0  0  0  0
    6.6645   45.1051   31.4848 C   0  0  0  0  0  0  0  0  0  0  0  0
    6.0271   46.3253   30.8128 C   0  0  0  0  0  0  0  0  0  0  0  0
    6.5118   47.5629   31.4237 N   0  0  0  0  0  0  0  0  0  0  0  0
    7.2396   48.5468   30.6795 C   0  0  0  0  0  0  0  0  0  0  0  0
    7.5928   49.7819   31.2399 O   0  0  0  0  0  0  0  0  0  0  0  0
    7.5937   48.3043   29.4963 O   0  0  0  0  0  0  0  0  0  0  0  0
    7.1998   50.2340   32.5355 C   0  0  0  0  0  0  0  0  0  0  0  0
    5.7127   50.5036   32.5913 C   0  0  0  0  0  0  0  0  0  0  0  0
    4.9544   49.8877   33.6042 C   0  0  0  0  0  0  0  0  0  0  0  0
    5.0556   51.3277   31.6381 C   0  0  0  0  0  0  0  0  0  0  0  0
    3.5706   50.0561   33.6615 C   0  0  0  0  0  0  0  0  0  0  0  0
    3.6574   51.4713   31.7057 C   0  0  0  0  0  0  0  0  0  0  0  0
    5.7781   52.0100   30.5970 N   0  0  0  0  0  0  0  0  0  0  0  0
    2.9226   50.8413   32.7108 C   0  0  0  0  0  0  0  0  0  0  0  0
    6.9910   52.6037   30.8577 O   0  0  0  0  0  0  0  0  0  0  0  0
    5.2374   52.2127   29.4900 O   0  0  0  0  0  0  0  0  0  0  0  0
    8.5369   39.1404   34.0143 O   0  0  0  0  0  0  0  0  0  0  0  0
   10.9795   40.0883   33.6889 O   0  0  0  0  0  0  0  0  0  0  0  0
   10.8017   40.0950   32.2901 C   0  0  0  0  0  0  0  0  0  0  0  0
   11.5885   38.9267   31.7042 C   0  0  0  0  0  0  0  0  0  0  0  0
   12.9237   38.9445   32.1722 O   0  0  0  0  0  0  0  0  0  0  0  0
   11.0029   37.5726   32.0908 C   0  0  0  0  0  0  0  0  0  0  0  0
   13.3555   37.5960   32.2595 C   0  0  0  0  0  0  0  0  0  0  0  0
    9.9379   37.1847   31.2657 O   0  0  0  0  0  0  0  0  0  0  0  0
   12.1931   36.6770   31.8952 C   0  0  0  0  0  0  0  0  0  0  0  0
   13.8028   37.2977   33.6186 N   0  0  0  0  0  0  0  0  0  0  0  0
   12.2918   36.2396   30.5587 O   0  0  0  0  0  0  0  0  0  0  0  0
   14.7926   36.4727   33.9858 C   0  0  0  0  0  0  0  0  0  0  0  0
   13.2750   37.7302   34.7935 C   0  0  0  0  0  0  0  0  0  0  0  0
   15.6241   35.7586   33.1857 N   0  0  0  0  0  0  0  0  0  0  0  0
   14.8721   36.4408   35.3326 C   0  0  0  0  0  0  0  0  0  0  0  0
   13.9204   37.2263   35.8802 N   0  0  0  0  0  0  0  0  0  0  0  0
   16.5870   34.9925   33.7800 C   0  0  0  0  0  0  0  0  0  0  0  0
   15.8572   35.6717   35.9441 C   0  0  0  0  0  0  0  0  0  0  0  0
   16.7022   34.9585   35.1437 N   0  0  0  0  0  0  0  0  0  0  0  0
   16.0097   35.6384   37.3561 N   0  0  0  0  0  0  0  0  0  0  0  0
    7.6760   44.0637   34.0544 H   0  0  0  0  0  0  0  0  0  0  0  0
   10.2143   45.5889   33.8741 H   0  0  0  0  0  0  0  0  0  0  0  0
    8.6458   46.1560   34.1435 H   0  0  0  0  0  0  0  0  0  0  0  0
    9.9707   44.0638   31.9681 H   0  0  0  0  0  0  0  0  0  0  0  0
    8.4828   43.0816   31.8667 H   0  0  0  0  0  0  0  0  0  0  0  0
    8.5222   45.0971   30.3808 H   0  0  0  0  0  0  0  0  0  0  0  0
    8.5706   46.1484   31.8185 H   0  0  0  0  0  0  0  0  0  0  0  0
    6.3124   45.0714   32.5367 H   0  0  0  0  0  0  0  0  0  0  0  0
    6.3166   44.1808   30.9747 H   0  0  0  0  0  0  0  0  0  0  0  0
    6.2408   46.2945   29.7229 H   0  0  0  0  0  0  0  0  0  0  0  0
    4.9241   46.2726   30.9348 H   0  0  0  0  0  0  0  0  0  0  0  0
    6.3151   47.7072   32.4374 H   0  0  0  0  0  0  0  0  0  0  0  0
    7.5215   49.4951   33.3013 H   0  0  0  0  0  0  0  0  0  0  0  0
    7.7435   51.1720   32.7684 H   0  0  0  0  0  0  0  0  0  0  0  0
    5.4333   49.2624   34.3477 H   0  0  0  0  0  0  0  0  0  0  0  0
    2.9988   49.5711   34.4422 H   0  0  0  0  0  0  0  0  0  0  0  0
    3.1352   52.0888   30.9859 H   0  0  0  0  0  0  0  0  0  0  0  0
    1.8485   50.9672   32.7552 H   0  0  0  0  0  0  0  0  0  0  0  0
    9.7472   40.0379   31.9304 H   0  0  0  0  0  0  0  0  0  0  0  0
   11.2240   41.0428   31.8929 H   0  0  0  0  0  0  0  0  0  0  0  0
   11.5927   39.0434   30.5966 H   0  0  0  0  0  0  0  0  0  0  0  0
   10.7003   37.5444   33.1641 H   0  0  0  0  0  0  0  0  0  0  0  0
   14.2051   37.4477   31.5560 H   0  0  0  0  0  0  0  0  0  0  0  0
    9.1373   37.6722   31.5906 H   0  0  0  0  0  0  0  0  0  0  0  0
   12.1305   35.7856   32.5586 H   0  0  0  0  0  0  0  0  0  0  0  0
   12.4606   37.0186   29.9674 H   0  0  0  0  0  0  0  0  0  0  0  0
   12.4327   38.4001   34.8694 H   0  0  0  0  0  0  0  0  0  0  0  0
   17.2666   34.4146   33.1690 H   0  0  0  0  0  0  0  0  0  0  0  0
   15.3754   36.1866   37.9788 H   0  0  0  0  0  0  0  0  0  0  0  0
   16.7634   35.0601   37.7894 H   0  0  0  0  0  0  0  0  0  0  0  0
  1  2  2  0
  1  3  1  0
  3  4  1  0
  4  5  1  0
  6  1  1  0
  7  6  1  0
  6  8  1  0
  8  9  1  0
  9 10  1  0
 10 11  1  0
 11 12  1  0
 12 13  1  0
 13 14  1  0
 13 15  2  0
 14 16  1  0
 16 17  1  0
 17 18  2  0
 19 17  1  0
 18 20  1  0
 21 19  2  0
 19 22  1  0
 20 23  2  0
 23 21  1  0
 22 24  1  0
 22 25  2  0
  4 26  2  0
  4 27  1  0
 28 27  1  0
 28 29  1  0
 29 30  1  0
 29 31  1  0
 30 32  1  0
 31 33  1  0
 31 34  1  0
 34 32  1  0
 32 35  1  0
 34 36  1  0
 37 35  1  0
 38 35  1  0
 39 37  2  0
 37 40  1  0
 41 38  2  0
 42 39  1  0
 40 43  2  0
 40 41  1  0
 44 42  2  0
 44 43  1  0
 43 45  1  0
  6 46  1  6
  7 47  1  0
  7 48  1  0
  8 49  1  0
  8 50  1  0
  9 51  1  0
  9 52  1  0
 10 53  1  0
 10 54  1  0
 11 55  1  0
 11 56  1  0
 12 57  1  0
 16 58  1  0
 16 59  1  0
 18 60  1  0
 20 61  1  0
 21 62  1  0
 23 63  1  0
 28 64  1  0
 28 65  1  0
 29 66  1  0
 31 67  1  0
 32 68  1  0
 33 69  1  0
 34 70  1  0
 36 71  1  0
 38 72  1  0
 42 73  1  0
 45 74  1  0
 45 75  1  0
M  CHG  3   5  -1  22   1  24  -1
M  END
>  <EmbedRMS>  (93) 
0.0746529217771

$$$$

     RDKit          3D

 75 78  0  0  0  0  0  0  0  0999 V2000
    9.4314   42.9407   34.3435 C   0  0  0  0  0  0  0  0  0  0  0  0
   10.4885   43.0405   35.0295 O   0  0  0  0  0  0  0  0  0  0  0  0
    8.8558   41.7126   34.0291 O   0  0  0  0  0  0  0  0  0  0  0  0
    9.4946   40.2161   34.4676 P   0  0  0  0  0  0  0  0  0  0  0  0
    9.7319   40.1738   36.1286 O   0  0  0  0  0  0  0  0  0  0  0  0
    8.7492   44.1354   33.7712 C   0  0  1  0  0  0  0  0  0  0  0  0
    9.3046   45.3656   34.3365 N   0  0  0  0  0  0  0  0  0  0  0  0
    8.8899   44.0522   32.2301 C   0  0  0  0  0  0  0  0  0  0  0  0
    8.2019   45.1726   31.4424 C   0  0  0  0  0  0  0  0  0  0  0  0
    6.6650   45.1094   31.4909 C   0  0  0  0  0  0  0  0  0  0  0  0
    6.0286   46.3248   30.8105 C   0  0  0  0  0  0  0  0  0  0  0  0
    6.5015   47.5682   31.4205 N   0  0  0  0  0  0  0  0  0  0  0  0
    7.2349   48.5484   30.6784 C   0  0  0  0  0  0  0  0  0  0  0  0
    7.5605   49.7997   31.2187 O   0  0  0  0  0  0  0  0  0  0  0  0
    7.6024   48.2968   29.5011 O   0  0  0  0  0  0  0  0  0  0  0  0
    7.1863   50.2817   32.5093 C   0  0  0  0  0  0  0  0  0  0  0  0
    8.0495   49.6933   33.6051 C   0  0  0  0  0  0  0  0  0  0  0  0
    7.4261   48.9091   34.5957 C   0  0  0  0  0  0  0  0  0  0  0  0
    9.4353   49.9982   33.7393 C   0  0  0  0  0  0  0  0  0  0  0  0
    8.1541   48.3997   35.6705 C   0  0  0  0  0  0  0  0  0  0  0  0
   10.1485   49.4670   34.8299 C   0  0  0  0  0  0  0  0  0  0  0  0
   10.1237   50.8921   32.8431 N   0  0  0  0  0  0  0  0  0  0  0  0
    9.5150   48.6680   35.7809 C   0  0  0  0  0  0  0  0  0  0  0  0
   11.1741   51.6503   33.3075 O   0  0  0  0  0  0  0  0  0  0  0  0
    9.8906   50.8863   31.6184 O   0  0  0  0  0  0  0  0  0  0  0  0
    8.5375   39.1399   34.0125 O   0  0  0  0  0  0  0  0  0  0  0  0
   10.9796   40.0897   33.6815 O   0  0  0  0  0  0  0  0  0  0  0  0
   10.7982   40.0850   32.2818 C   0  0  0  0  0  0  0  0  0  0  0  0
   11.5886   38.9143   31.7009 C   0  0  0  0  0  0  0  0  0  0  0  0
   12.9214   38.9368   32.1699 O   0  0  0  0  0  0  0  0  0  0  0  0
   11.0047   37.5661   32.0991 C   0  0  0  0  0  0  0  0  0  0  0  0
   13.3510   37.5885   32.2601 C   0  0  0  0  0  0  0  0  0  0  0  0
    9.9296   37.1962   31.2780 O   0  0  0  0  0  0  0  0  0  0  0  0
   12.1923   36.6659   31.9047 C   0  0  0  0  0  0  0  0  0  0  0  0
   13.8033   37.2967   33.6188 N   0  0  0  0  0  0  0  0  0  0  0  0
   12.3006   36.2865   30.5562 O   0  0  0  0  0  0  0  0  0  0  0  0
   14.7933   36.4724   33.9860 C   0  0  0  0  0  0  0  0  0  0  0  0
   13.2753   37.7296   34.7935 C   0  0  0  0  0  0  0  0  0  0  0  0
   15.6243   35.7579   33.1860 N   0  0  0  0  0  0  0  0  0  0  0  0
   14.8728   36.4410   35.3328 C   0  0  0  0  0  0  0  0  0  0  0  0
   13.9209   37.2263   35.8804 N   0  0  0  0  0  0  0  0  0  0  0  0
   16.5873   34.9919   33.7803 C   0  0  0  0  0  0  0  0  0  0  0  0
   15.8577   35.6717   35.9443 C   0  0  0  0  0  0  0  0  0  0  0  0
   16.7025   34.9583   35.1440 N   0  0  0  0  0  0  0  0  0  0  0  0
   16.0100   35.6384   37.3563 N   0  0  0  0  0  0  0  0  0  0  0  0
    7.6772   44.0639   34.0539 H   0  0  0  0  0  0  0  0  0  0  0  0
   10.2272   45.5735   33.8889 H   0  0  0  0  0  0  0  0  0  0  0  0
    8.6597   46.1547   34.1089 H   0  0  0  0  0  0  0  0  0  0  0  0
    8.4840   43.0821   31.8657 H   0  0  0  0  0  0  0  0  0  0  0  0
    9.9715   44.0651   31.9673 H   0  0  0  0  0  0  0  0  0  0  0  0
    8.5736   46.1507   31.8109 H   0  0  0  0  0  0  0  0  0  0  0  0
    8.5175   45.0929   30.3790 H   0  0  0  0  0  0  0  0  0  0  0  0
    6.3132   44.1814   30.9902 H   0  0  0  0  0  0  0  0  0  0  0  0
    6.3169   45.0864   32.5444 H   0  0  0  0  0  0  0  0  0  0  0  0
    6.2522   46.2900   29.7227 H   0  0  0  0  0  0  0  0  0  0  0  0
    4.9246   46.2672   30.9211 H   0  0  0  0  0  0  0  0  0  0  0  0
    6.2436   47.7428   32.4135 H   0  0  0  0  0  0  0  0  0  0  0  0
    6.1043   50.0897   32.6785 H   0  0  0  0  0  0  0  0  0  0  0  0
    7.3096   51.3849   32.5228 H   0  0  0  0  0  0  0  0  0  0  0  0
    6.3642   48.7031   34.5511 H   0  0  0  0  0  0  0  0  0  0  0  0
    7.6605   47.7937   36.4194 H   0  0  0  0  0  0  0  0  0  0  0  0
   11.2039   49.6771   34.9478 H   0  0  0  0  0  0  0  0  0  0  0  0
   10.0788   48.2676   36.6135 H   0  0  0  0  0  0  0  0  0  0  0  0
    9.7426   40.0141   31.9267 H   0  0  0  0  0  0  0  0  0  0  0  0
   11.2130   41.0321   31.8752 H   0  0  0  0  0  0  0  0  0  0  0  0
   11.5980   39.0108   30.5905 H   0  0  0  0  0  0  0  0  0  0  0  0
   10.7008   37.5603   33.1721 H   0  0  0  0  0  0  0  0  0  0  0  0
   14.1976   37.4380   31.5532 H   0  0  0  0  0  0  0  0  0  0  0  0
    9.5180   36.3962   31.6978 H   0  0  0  0  0  0  0  0  0  0  0  0
   12.1418   35.7698   32.5692 H   0  0  0  0  0  0  0  0  0  0  0  0
   11.7729   35.4524   30.4489 H   0  0  0  0  0  0  0  0  0  0  0  0
   12.4321   38.3985   34.8692 H   0  0  0  0  0  0  0  0  0  0  0  0
   17.2667   34.4138   33.1694 H   0  0  0  0  0  0  0  0  0  0  0  0
   16.7634   35.0598   37.7897 H   0  0  0  0  0  0  0  0  0  0  0  0
   15.3757   36.1867   37.9790 H   0  0  0  0  0  0  0  0  0  0  0  0
  1  2  2  0
  1  3  1  0
  3  4  1  0
  4  5  1  0
  6  1  1  0
  7  6  1  0
  6  8  1  0
  8  9  1  0
  9 10  1  0
 10 11  1  0
 11 12  1  0
 12 13  1  0
 13 14  1  0
 13 15  2  0
 14 16  1  0
 16 17  1  0
 17 18  2  0
 19 17  1  0
 18 20  1  0
 21 19  2  0
 19 22  1  0
 20 23  2  0
 23 21  1  0
 22 24  1  0
 22 25  2  0
  4 26  2  0
  4 27  1  0
 28 27  1  0
 28 29  1  0
 29 30  1  0
 29 31  1  0
 30 32  1  0
 31 33  1  0
 31 34  1  0
 34 32  1  0
 32 35  1  0
 34 36  1  0
 37 35  1  0
 38 35  1  0
 39 37  2  0
 37 40  1  0
 41 38  2  0
 42 39  1  0
 40 43  2  0
 40 41  1  0
 44 42  2  0
 44 43  1  0
 43 45  1  0
  6 46  1  6
  7 47  1  0
  7 48  1  0
  8 49  1  0
  8 50  1  0
  9 51  1  0
  9 52  1  0
 10 53  1  0
 10 54  1  0
 11 55  1  0
 11 56  1  0
 12 57  1  0
 16 58  1  0
 16 59  1  0
 18 60  1  0
 20 61  1  0
 21 62  1  0
 23 63  1  0
 28 64  1  0
 28 65  1  0
 29 66  1  0
 31 67  1  0
 32 68  1  0
 33 69  1  0
 34 70  1  0
 36 71  1  0
 38 72  1  0
 42 73  1  0
 45 74  1  0
 45 75  1  0
M  CHG  3   5  -1  22   1  24  -1
M  END
>  <EmbedRMS>  (94) 
0.0738541994374

$$$$

     RDKit          3D

 75 78  0  0  0  0  0  0  0  0999 V2000
    9.4332   42.9368   34.3461 C   0  0  0  0  0  0  0  0  0  0  0  0
   10.4907   43.0332   35.0317 O   0  0  0  0  0  0  0  0  0  0  0  0
    8.8559   41.7106   34.0298 O   0  0  0  0  0  0  0  0  0  0  0  0
    9.4943   40.2143   34.4677 P   0  0  0  0  0  0  0  0  0  0  0  0
    9.7317   40.1725   36.1287 O   0  0  0  0  0  0  0  0  0  0  0  0
    8.7506   44.1353   33.7741 C   0  0  1  0  0  0  0  0  0  0  0  0
    9.2963   45.3826   34.3133 N   0  0  0  0  0  0  0  0  0  0  0  0
    8.8892   44.0536   32.2358 C   0  0  0  0  0  0  0  0  0  0  0  0
    8.2024   45.1834   31.4618 C   0  0  0  0  0  0  0  0  0  0  0  0
    6.6649   45.1047   31.4850 C   0  0  0  0  0  0  0  0  0  0  0  0
    6.0256   46.3219   30.8088 C   0  0  0  0  0  0  0  0  0  0  0  0
    6.5026   47.5638   31.4167 N   0  0  0  0  0  0  0  0  0  0  0  0
    7.2539   48.5327   30.6884 C   0  0  0  0  0  0  0  0  0  0  0  0
    7.6519   49.7070   31.3315 O   0  0  0  0  0  0  0  0  0  0  0  0
    7.5889   48.3143   29.4926 O   0  0  0  0  0  0  0  0  0  0  0  0
    8.4640   50.6938   30.7032 C   0  0  0  0  0  0  0  0  0  0  0  0
    8.8333   51.7584   31.7058 C   0  0  0  0  0  0  0  0  0  0  0  0
    8.4703   53.0916   31.4382 C   0  0  0  0  0  0  0  0  0  0  0  0
    9.4974   51.4516   32.9265 C   0  0  0  0  0  0  0  0  0  0  0  0
    8.7451   54.1037   32.3583 C   0  0  0  0  0  0  0  0  0  0  0  0
    9.7495   52.4862   33.8454 C   0  0  0  0  0  0  0  0  0  0  0  0
    9.8996   50.1108   33.2660 N   0  0  0  0  0  0  0  0  0  0  0  0
    9.3799   53.8012   33.5608 C   0  0  0  0  0  0  0  0  0  0  0  0
    9.9622   49.7265   34.5859 O   0  0  0  0  0  0  0  0  0  0  0  0
   10.3454   49.3354   32.3960 O   0  0  0  0  0  0  0  0  0  0  0  0
    8.5370   39.1384   34.0123 O   0  0  0  0  0  0  0  0  0  0  0  0
   10.9792   40.0888   33.6814 O   0  0  0  0  0  0  0  0  0  0  0  0
   10.7977   40.0842   32.2817 C   0  0  0  0  0  0  0  0  0  0  0  0
   11.5897   38.9147   31.7008 C   0  0  0  0  0  0  0  0  0  0  0  0
   12.9218   38.9385   32.1717 O   0  0  0  0  0  0  0  0  0  0  0  0
   11.0070   37.5654   32.0975 C   0  0  0  0  0  0  0  0  0  0  0  0
   13.3533   37.5909   32.2610 C   0  0  0  0  0  0  0  0  0  0  0  0
    9.9333   37.1935   31.2754 O   0  0  0  0  0  0  0  0  0  0  0  0
   12.1945   36.6671   31.9040 C   0  0  0  0  0  0  0  0  0  0  0  0
   13.8036   37.2970   33.6193 N   0  0  0  0  0  0  0  0  0  0  0  0
   12.2893   36.2849   30.5562 O   0  0  0  0  0  0  0  0  0  0  0  0
   14.7931   36.4723   33.9863 C   0  0  0  0  0  0  0  0  0  0  0  0
   13.2756   37.7298   34.7940 C   0  0  0  0  0  0  0  0  0  0  0  0
   15.6242   35.7580   33.1861 N   0  0  0  0  0  0  0  0  0  0  0  0
   14.8727   36.4407   35.3331 C   0  0  0  0  0  0  0  0  0  0  0  0
   13.9210   37.2262   35.8807 N   0  0  0  0  0  0  0  0  0  0  0  0
   16.5872   34.9920   33.7803 C   0  0  0  0  0  0  0  0  0  0  0  0
   15.8577   35.6715   35.9444 C   0  0  0  0  0  0  0  0  0  0  0  0
   16.7025   34.9582   35.1440 N   0  0  0  0  0  0  0  0  0  0  0  0
   16.0101   35.6382   37.3564 N   0  0  0  0  0  0  0  0  0  0  0  0
    7.6770   44.0713   34.0503 H   0  0  0  0  0  0  0  0  0  0  0  0
    9.1835   45.3826   35.3535 H   0  0  0  0  0  0  0  0  0  0  0  0
   10.3190   45.4420   34.0991 H   0  0  0  0  0  0  0  0  0  0  0  0
    8.4817   43.0859   31.8666 H   0  0  0  0  0  0  0  0  0  0  0  0
    9.9710   44.0693   31.9738 H   0  0  0  0  0  0  0  0  0  0  0  0
    8.5540   46.1521   31.8755 H   0  0  0  0  0  0  0  0  0  0  0  0
    8.5387   45.1384   30.4028 H   0  0  0  0  0  0  0  0  0  0  0  0
    6.3010   45.0646   32.5326 H   0  0  0  0  0  0  0  0  0  0  0  0
    6.3302   44.1796   30.9675 H   0  0  0  0  0  0  0  0  0  0  0  0
    6.2466   46.2893   29.7203 H   0  0  0  0  0  0  0  0  0  0  0  0
    4.9221   46.2654   30.9234 H   0  0  0  0  0  0  0  0  0  0  0  0
    6.2821   47.7498   32.4209 H   0  0  0  0  0  0  0  0  0  0  0  0
    9.3881   50.2325   30.2948 H   0  0  0  0  0  0  0  0  0  0  0  0
    7.9046   51.1252   29.8443 H   0  0  0  0  0  0  0  0  0  0  0  0
    7.9643   53.3512   30.5165 H   0  0  0  0  0  0  0  0  0  0  0  0
    8.4592   55.1247   32.1406 H   0  0  0  0  0  0  0  0  0  0  0  0
   10.2495   52.2764   34.7824 H   0  0  0  0  0  0  0  0  0  0  0  0
    9.5880   54.5879   34.2746 H   0  0  0  0  0  0  0  0  0  0  0  0
   11.2111   41.0320   31.8753 H   0  0  0  0  0  0  0  0  0  0  0  0
    9.7422   40.0118   31.9266 H   0  0  0  0  0  0  0  0  0  0  0  0
   11.6005   39.0119   30.5904 H   0  0  0  0  0  0  0  0  0  0  0  0
   10.7015   37.5593   33.1701 H   0  0  0  0  0  0  0  0  0  0  0  0
   14.2012   37.4438   31.5552 H   0  0  0  0  0  0  0  0  0  0  0  0
    9.5289   36.3869   31.6895 H   0  0  0  0  0  0  0  0  0  0  0  0
   12.1244   35.7693   32.5633 H   0  0  0  0  0  0  0  0  0  0  0  0
   12.9478   35.5427   30.5201 H   0  0  0  0  0  0  0  0  0  0  0  0
   12.4328   38.3993   34.8697 H   0  0  0  0  0  0  0  0  0  0  0  0
   17.2667   34.4140   33.1692 H   0  0  0  0  0  0  0  0  0  0  0  0
   15.3759   36.1865   37.9791 H   0  0  0  0  0  0  0  0  0  0  0  0
   16.7636   35.0598   37.7897 H   0  0  0  0  0  0  0  0  0  0  0  0
  1  2  2  0
  1  3  1  0
  3  4  1  0
  4  5  1  0
  6  1  1  0
  7  6  1  0
  6  8  1  0
  8  9  1  0
  9 10  1  0
 10 11  1  0
 11 12  1  0
 12 13  1  0
 13 14  1  0
 13 15  2  0
 14 16  1  0
 16 17  1  0
 17 18  2  0
 19 17  1  0
 18 20  1  0
 21 19  2  0
 19 22  1  0
 20 23  2  0
 23 21  1  0
 22 24  1  0
 22 25  2  0
  4 26  2  0
  4 27  1  0
 28 27  1  0
 28 29  1  0
 29 30  1  0
 29 31  1  0
 30 32  1  0
 31 33  1  0
 31 34  1  0
 34 32  1  0
 32 35  1  0
 34 36  1  0
 37 35  1  0
 38 35  1  0
 39 37  2  0
 37 40  1  0
 41 38  2  0
 42 39  1  0
 40 43  2  0
 40 41  1  0
 44 42  2  0
 44 43  1  0
 43 45  1  0
  6 46  1  6
  7 47  1  0
  7 48  1  0
  8 49  1  0
  8 50  1  0
  9 51  1  0
  9 52  1  0
 10 53  1  0
 10 54  1  0
 11 55  1  0
 11 56  1  0
 12 57  1  0
 16 58  1  0
 16 59  1  0
 18 60  1  0
 20 61  1  0
 21 62  1  0
 23 63  1  0
 28 64  1  0
 28 65  1  0
 29 66  1  0
 31 67  1  0
 32 68  1  0
 33 69  1  0
 34 70  1  0
 36 71  1  0
 38 72  1  0
 42 73  1  0
 45 74  1  0
 45 75  1  0
M  CHG  3   5  -1  22   1  24  -1
M  END
>  <EmbedRMS>  (95) 
0.0745187993872

$$$$

     RDKit          3D

 75 78  0  0  0  0  0  0  0  0999 V2000
    9.4312   42.9411   34.3439 C   0  0  0  0  0  0  0  0  0  0  0  0
   10.4886   43.0410   35.0294 O   0  0  0  0  0  0  0  0  0  0  0  0
    8.8558   41.7128   34.0296 O   0  0  0  0  0  0  0  0  0  0  0  0
    9.4933   40.2162   34.4702 P   0  0  0  0  0  0  0  0  0  0  0  0
    9.7295   40.1742   36.1311 O   0  0  0  0  0  0  0  0  0  0  0  0
    8.7484   44.1359   33.7721 C   0  0  1  0  0  0  0  0  0  0  0  0
    9.3039   45.3665   34.3388 N   0  0  0  0  0  0  0  0  0  0  0  0
    8.8893   44.0518   32.2309 C   0  0  0  0  0  0  0  0  0  0  0  0
    8.2015   45.1721   31.4435 C   0  0  0  0  0  0  0  0  0  0  0  0
    6.6643   45.1066   31.4887 C   0  0  0  0  0  0  0  0  0  0  0  0
    6.0267   46.3237   30.8122 C   0  0  0  0  0  0  0  0  0  0  0  0
    6.5081   47.5646   31.4190 N   0  0  0  0  0  0  0  0  0  0  0  0
    7.2423   48.5405   30.6826 C   0  0  0  0  0  0  0  0  0  0  0  0
    7.5856   49.7469   31.3026 O   0  0  0  0  0  0  0  0  0  0  0  0
    7.5941   48.3103   29.4938 O   0  0  0  0  0  0  0  0  0  0  0  0
    8.3075   50.7858   30.6426 C   0  0  0  0  0  0  0  0  0  0  0  0
    7.4453   51.4444   29.5893 C   0  0  0  0  0  0  0  0  0  0  0  0
    6.1743   51.9126   29.9686 C   0  0  0  0  0  0  0  0  0  0  0  0
    7.8494   51.5629   28.2344 C   0  0  0  0  0  0  0  0  0  0  0  0
    5.3013   52.4508   29.0219 C   0  0  0  0  0  0  0  0  0  0  0  0
    6.9493   52.0901   27.2917 C   0  0  0  0  0  0  0  0  0  0  0  0
    9.1658   51.1851   27.8049 N   0  0  0  0  0  0  0  0  0  0  0  0
    5.6844   52.5305   27.6841 C   0  0  0  0  0  0  0  0  0  0  0  0
   10.2691   51.6794   28.4617 O   0  0  0  0  0  0  0  0  0  0  0  0
    9.3234   50.6169   26.7046 O   0  0  0  0  0  0  0  0  0  0  0  0
    8.5368   39.1399   34.0139 O   0  0  0  0  0  0  0  0  0  0  0  0
   10.9789   40.0874   33.6872 O   0  0  0  0  0  0  0  0  0  0  0  0
   10.7993   40.0946   32.2884 C   0  0  0  0  0  0  0  0  0  0  0  0
   11.5957   38.9352   31.6994 C   0  0  0  0  0  0  0  0  0  0  0  0
   12.9257   38.9478   32.1799 O   0  0  0  0  0  0  0  0  0  0  0  0
   11.0070   37.5758   32.0732 C   0  0  0  0  0  0  0  0  0  0  0  0
   13.3571   37.5980   32.2612 C   0  0  0  0  0  0  0  0  0  0  0  0
    9.9093   37.1808   31.2875 O   0  0  0  0  0  0  0  0  0  0  0  0
   12.1967   36.6764   31.8894 C   0  0  0  0  0  0  0  0  0  0  0  0
   13.8018   37.2956   33.6197 N   0  0  0  0  0  0  0  0  0  0  0  0
   12.3048   36.2360   30.5555 O   0  0  0  0  0  0  0  0  0  0  0  0
   14.7922   36.4716   33.9864 C   0  0  0  0  0  0  0  0  0  0  0  0
   13.2747   37.7291   34.7944 C   0  0  0  0  0  0  0  0  0  0  0  0
   15.6239   35.7581   33.1861 N   0  0  0  0  0  0  0  0  0  0  0  0
   14.8721   36.4402   35.3331 C   0  0  0  0  0  0  0  0  0  0  0  0
   13.9206   37.2257   35.8810 N   0  0  0  0  0  0  0  0  0  0  0  0
   16.5873   34.9924   33.7802 C   0  0  0  0  0  0  0  0  0  0  0  0
   15.8576   35.6714   35.9444 C   0  0  0  0  0  0  0  0  0  0  0  0
   16.7026   34.9585   35.1439 N   0  0  0  0  0  0  0  0  0  0  0  0
   16.0102   35.6382   37.3564 N   0  0  0  0  0  0  0  0  0  0  0  0
    7.6764   44.0634   34.0547 H   0  0  0  0  0  0  0  0  0  0  0  0
    8.6469   46.1558   34.1430 H   0  0  0  0  0  0  0  0  0  0  0  0
   10.2152   45.5879   33.8748 H   0  0  0  0  0  0  0  0  0  0  0  0
    9.9708   44.0642   31.9680 H   0  0  0  0  0  0  0  0  0  0  0  0
    8.4831   43.0817   31.8667 H   0  0  0  0  0  0  0  0  0  0  0  0
    8.5198   45.0958   30.3807 H   0  0  0  0  0  0  0  0  0  0  0  0
    8.5714   46.1487   31.8173 H   0  0  0  0  0  0  0  0  0  0  0  0
    6.3147   44.1801   30.9836 H   0  0  0  0  0  0  0  0  0  0  0  0
    6.3142   45.0783   32.5413 H   0  0  0  0  0  0  0  0  0  0  0  0
    6.2449   46.2897   29.7232 H   0  0  0  0  0  0  0  0  0  0  0  0
    4.9234   46.2698   30.9299 H   0  0  0  0  0  0  0  0  0  0  0  0
    6.2850   47.7542   32.4219 H   0  0  0  0  0  0  0  0  0  0  0  0
    9.2438   50.3589   30.2322 H   0  0  0  0  0  0  0  0  0  0  0  0
    8.5906   51.5511   31.3953 H   0  0  0  0  0  0  0  0  0  0  0  0
    5.8510   51.8417   31.0001 H   0  0  0  0  0  0  0  0  0  0  0  0
    4.3223   52.7987   29.3253 H   0  0  0  0  0  0  0  0  0  0  0  0
    7.2395   52.1830   26.2527 H   0  0  0  0  0  0  0  0  0  0  0  0
    5.0041   52.9440   26.9508 H   0  0  0  0  0  0  0  0  0  0  0  0
    9.7448   40.0200   31.9305 H   0  0  0  0  0  0  0  0  0  0  0  0
   11.2092   41.0481   31.8916 H   0  0  0  0  0  0  0  0  0  0  0  0
   11.6207   39.0685   30.5942 H   0  0  0  0  0  0  0  0  0  0  0  0
   10.7059   37.5564   33.1439 H   0  0  0  0  0  0  0  0  0  0  0  0
   14.2095   37.4543   31.5601 H   0  0  0  0  0  0  0  0  0  0  0  0
   10.0864   37.4210   30.3413 H   0  0  0  0  0  0  0  0  0  0  0  0
   12.1275   35.7872   32.5550 H   0  0  0  0  0  0  0  0  0  0  0  0
   12.5031   37.0109   29.9673 H   0  0  0  0  0  0  0  0  0  0  0  0
   12.4328   38.3996   34.8703 H   0  0  0  0  0  0  0  0  0  0  0  0
   17.2670   34.4148   33.1690 H   0  0  0  0  0  0  0  0  0  0  0  0
   15.3758   36.1862   37.9792 H   0  0  0  0  0  0  0  0  0  0  0  0
   16.7640   35.0601   37.7896 H   0  0  0  0  0  0  0  0  0  0  0  0
  1  2  2  0
  1  3  1  0
  3  4  1  0
  4  5  1  0
  6  1  1  0
  7  6  1  0
  6  8  1  0
  8  9  1  0
  9 10  1  0
 10 11  1  0
 11 12  1  0
 12 13  1  0
 13 14  1  0
 13 15  2  0
 14 16  1  0
 16 17  1  0
 17 18  2  0
 19 17  1  0
 18 20  1  0
 21 19  2  0
 19 22  1  0
 20 23  2  0
 23 21  1  0
 22 24  1  0
 22 25  2  0
  4 26  2  0
  4 27  1  0
 28 27  1  0
 28 29  1  0
 29 30  1  0
 29 31  1  0
 30 32  1  0
 31 33  1  0
 31 34  1  0
 34 32  1  0
 32 35  1  0
 34 36  1  0
 37 35  1  0
 38 35  1  0
 39 37  2  0
 37 40  1  0
 41 38  2  0
 42 39  1  0
 40 43  2  0
 40 41  1  0
 44 42  2  0
 44 43  1  0
 43 45  1  0
  6 46  1  6
  7 47  1  0
  7 48  1  0
  8 49  1  0
  8 50  1  0
  9 51  1  0
  9 52  1  0
 10 53  1  0
 10 54  1  0
 11 55  1  0
 11 56  1  0
 12 57  1  0
 16 58  1  0
 16 59  1  0
 18 60  1  0
 20 61  1  0
 21 62  1  0
 23 63  1  0
 28 64  1  0
 28 65  1  0
 29 66  1  0
 31 67  1  0
 32 68  1  0
 33 69  1  0
 34 70  1  0
 36 71  1  0
 38 72  1  0
 42 73  1  0
 45 74  1  0
 45 75  1  0
M  CHG  3   5  -1  22   1  24  -1
M  END
>  <EmbedRMS>  (96) 
0.0753311924354

$$$$

     RDKit          3D

 75 78  0  0  0  0  0  0  0  0999 V2000
    9.4311   42.9411   34.3438 C   0  0  0  0  0  0  0  0  0  0  0  0
   10.4885   43.0409   35.0293 O   0  0  0  0  0  0  0  0  0  0  0  0
    8.8558   41.7128   34.0292 O   0  0  0  0  0  0  0  0  0  0  0  0
    9.4946   40.2162   34.4676 P   0  0  0  0  0  0  0  0  0  0  0  0
    9.7319   40.1739   36.1286 O   0  0  0  0  0  0  0  0  0  0  0  0
    8.7483   44.1359   33.7721 C   0  0  1  0  0  0  0  0  0  0  0  0
    9.3039   45.3664   34.3388 N   0  0  0  0  0  0  0  0  0  0  0  0
    8.8892   44.0518   32.2308 C   0  0  0  0  0  0  0  0  0  0  0  0
    8.2015   45.1721   31.4435 C   0  0  0  0  0  0  0  0  0  0  0  0
    6.6642   45.1066   31.4887 C   0  0  0  0  0  0  0  0  0  0  0  0
    6.0267   46.3237   30.8123 C   0  0  0  0  0  0  0  0  0  0  0  0
    6.5083   47.5645   31.4190 N   0  0  0  0  0  0  0  0  0  0  0  0
    7.2422   48.5406   30.6825 C   0  0  0  0  0  0  0  0  0  0  0  0
    7.5847   49.7468   31.3028 O   0  0  0  0  0  0  0  0  0  0  0  0
    7.5940   48.3105   29.4938 O   0  0  0  0  0  0  0  0  0  0  0  0
    8.2922   50.7938   30.6406 C   0  0  0  0  0  0  0  0  0  0  0  0
    7.4289   51.4393   29.5808 C   0  0  0  0  0  0  0  0  0  0  0  0
    7.9040   51.4752   28.2567 C   0  0  0  0  0  0  0  0  0  0  0  0
    6.1399   51.9640   29.8695 C   0  0  0  0  0  0  0  0  0  0  0  0
    7.1204   52.0071   27.2321 C   0  0  0  0  0  0  0  0  0  0  0  0
    5.3610   52.4818   28.8180 C   0  0  0  0  0  0  0  0  0  0  0  0
    5.5991   51.9622   31.2036 N   0  0  0  0  0  0  0  0  0  0  0  0
    5.8500   52.5058   27.5115 C   0  0  0  0  0  0  0  0  0  0  0  0
    6.3946   52.2588   32.2855 O   0  0  0  0  0  0  0  0  0  0  0  0
    4.3682   51.8486   31.3790 O   0  0  0  0  0  0  0  0  0  0  0  0
    8.5375   39.1400   34.0125 O   0  0  0  0  0  0  0  0  0  0  0  0
   10.9796   40.0897   33.6814 O   0  0  0  0  0  0  0  0  0  0  0  0
   10.7982   40.0850   32.2818 C   0  0  0  0  0  0  0  0  0  0  0  0
   11.5886   38.9143   31.7009 C   0  0  0  0  0  0  0  0  0  0  0  0
   12.9213   38.9368   32.1699 O   0  0  0  0  0  0  0  0  0  0  0  0
   11.0047   37.5661   32.0991 C   0  0  0  0  0  0  0  0  0  0  0  0
   13.3510   37.5885   32.2602 C   0  0  0  0  0  0  0  0  0  0  0  0
    9.9296   37.1962   31.2780 O   0  0  0  0  0  0  0  0  0  0  0  0
   12.1923   36.6659   31.9047 C   0  0  0  0  0  0  0  0  0  0  0  0
   13.8033   37.2967   33.6188 N   0  0  0  0  0  0  0  0  0  0  0  0
   12.3006   36.2865   30.5562 O   0  0  0  0  0  0  0  0  0  0  0  0
   14.7933   36.4724   33.9860 C   0  0  0  0  0  0  0  0  0  0  0  0
   13.2753   37.7296   34.7935 C   0  0  0  0  0  0  0  0  0  0  0  0
   15.6243   35.7579   33.1860 N   0  0  0  0  0  0  0  0  0  0  0  0
   14.8728   36.4410   35.3328 C   0  0  0  0  0  0  0  0  0  0  0  0
   13.9209   37.2263   35.8804 N   0  0  0  0  0  0  0  0  0  0  0  0
   16.5873   34.9919   33.7803 C   0  0  0  0  0  0  0  0  0  0  0  0
   15.8577   35.6717   35.9443 C   0  0  0  0  0  0  0  0  0  0  0  0
   16.7025   34.9583   35.1440 N   0  0  0  0  0  0  0  0  0  0  0  0
   16.0100   35.6384   37.3563 N   0  0  0  0  0  0  0  0  0  0  0  0
    7.6763   44.0635   34.0547 H   0  0  0  0  0  0  0  0  0  0  0  0
    8.6469   46.1558   34.1431 H   0  0  0  0  0  0  0  0  0  0  0  0
   10.2152   45.5878   33.8748 H   0  0  0  0  0  0  0  0  0  0  0  0
    9.9708   44.0642   31.9679 H   0  0  0  0  0  0  0  0  0  0  0  0
    8.4830   43.0818   31.8666 H   0  0  0  0  0  0  0  0  0  0  0  0
    8.5714   46.1487   31.8173 H   0  0  0  0  0  0  0  0  0  0  0  0
    8.5198   45.0958   30.3807 H   0  0  0  0  0  0  0  0  0  0  0  0
    6.3141   45.0783   32.5413 H   0  0  0  0  0  0  0  0  0  0  0  0
    6.3147   44.1801   30.9835 H   0  0  0  0  0  0  0  0  0  0  0  0
    6.2448   46.2897   29.7232 H   0  0  0  0  0  0  0  0  0  0  0  0
    4.9234   46.2700   30.9300 H   0  0  0  0  0  0  0  0  0  0  0  0
    6.2848   47.7545   32.4218 H   0  0  0  0  0  0  0  0  0  0  0  0
    9.2335   50.3848   30.2121 H   0  0  0  0  0  0  0  0  0  0  0  0
    8.5952   51.5582   31.3844 H   0  0  0  0  0  0  0  0  0  0  0  0
    8.8821   51.0800   28.0113 H   0  0  0  0  0  0  0  0  0  0  0  0
    7.4971   52.0262   26.2176 H   0  0  0  0  0  0  0  0  0  0  0  0
    4.3745   52.8828   29.0139 H   0  0  0  0  0  0  0  0  0  0  0  0
    5.2425   52.9140   26.7141 H   0  0  0  0  0  0  0  0  0  0  0  0
    9.7426   40.0141   31.9266 H   0  0  0  0  0  0  0  0  0  0  0  0
   11.2130   41.0321   31.8752 H   0  0  0  0  0  0  0  0  0  0  0  0
   11.5980   39.0108   30.5905 H   0  0  0  0  0  0  0  0  0  0  0  0
   10.7008   37.5603   33.1721 H   0  0  0  0  0  0  0  0  0  0  0  0
   14.1976   37.4380   31.5532 H   0  0  0  0  0  0  0  0  0  0  0  0
    9.5180   36.3962   31.6978 H   0  0  0  0  0  0  0  0  0  0  0  0
   12.1418   35.7698   32.5692 H   0  0  0  0  0  0  0  0  0  0  0  0
   11.7729   35.4524   30.4489 H   0  0  0  0  0  0  0  0  0  0  0  0
   12.4321   38.3985   34.8692 H   0  0  0  0  0  0  0  0  0  0  0  0
   17.2667   34.4138   33.1694 H   0  0  0  0  0  0  0  0  0  0  0  0
   15.3757   36.1867   37.9790 H   0  0  0  0  0  0  0  0  0  0  0  0
   16.7634   35.0598   37.7897 H   0  0  0  0  0  0  0  0  0  0  0  0
  1  2  2  0
  1  3  1  0
  3  4  1  0
  4  5  1  0
  6  1  1  0
  7  6  1  0
  6  8  1  0
  8  9  1  0
  9 10  1  0
 10 11  1  0
 11 12  1  0
 12 13  1  0
 13 14  1  0
 13 15  2  0
 14 16  1  0
 16 17  1  0
 17 18  2  0
 19 17  1  0
 18 20  1  0
 21 19  2  0
 19 22  1  0
 20 23  2  0
 23 21  1  0
 22 24  1  0
 22 25  2  0
  4 26  2  0
  4 27  1  0
 28 27  1  0
 28 29  1  0
 29 30  1  0
 29 31  1  0
 30 32  1  0
 31 33  1  0
 31 34  1  0
 34 32  1  0
 32 35  1  0
 34 36  1  0
 37 35  1  0
 38 35  1  0
 39 37  2  0
 37 40  1  0
 41 38  2  0
 42 39  1  0
 40 43  2  0
 40 41  1  0
 44 42  2  0
 44 43  1  0
 43 45  1  0
  6 46  1  6
  7 47  1  0
  7 48  1  0
  8 49  1  0
  8 50  1  0
  9 51  1  0
  9 52  1  0
 10 53  1  0
 10 54  1  0
 11 55  1  0
 11 56  1  0
 12 57  1  0
 16 58  1  0
 16 59  1  0
 18 60  1  0
 20 61  1  0
 21 62  1  0
 23 63  1  0
 28 64  1  0
 28 65  1  0
 29 66  1  0
 31 67  1  0
 32 68  1  0
 33 69  1  0
 34 70  1  0
 36 71  1  0
 38 72  1  0
 42 73  1  0
 45 74  1  0
 45 75  1  0
M  CHG  3   5  -1  22   1  24  -1
M  END
>  <EmbedRMS>  (97) 
0.0735327957436

$$$$

     RDKit          3D

 75 78  0  0  0  0  0  0  0  0999 V2000
    9.4337   42.9374   34.3450 C   0  0  0  0  0  0  0  0  0  0  0  0
   10.4908   43.0336   35.0312 O   0  0  0  0  0  0  0  0  0  0  0  0
    8.8564   41.7112   34.0287 O   0  0  0  0  0  0  0  0  0  0  0  0
    9.4941   40.2146   34.4676 P   0  0  0  0  0  0  0  0  0  0  0  0
    9.7309   40.1730   36.1287 O   0  0  0  0  0  0  0  0  0  0  0  0
    8.7514   44.1366   33.7733 C   0  0  1  0  0  0  0  0  0  0  0  0
    9.2971   45.3834   34.3132 N   0  0  0  0  0  0  0  0  0  0  0  0
    8.8901   44.0569   32.2349 C   0  0  0  0  0  0  0  0  0  0  0  0
    8.2020   45.1877   31.4625 C   0  0  0  0  0  0  0  0  0  0  0  0
    6.6642   45.1069   31.4851 C   0  0  0  0  0  0  0  0  0  0  0  0
    6.0208   46.3211   30.8055 C   0  0  0  0  0  0  0  0  0  0  0  0
    6.4884   47.5667   31.4130 N   0  0  0  0  0  0  0  0  0  0  0  0
    7.2742   48.5174   30.6982 C   0  0  0  0  0  0  0  0  0  0  0  0
    7.7684   49.6362   31.3759 O   0  0  0  0  0  0  0  0  0  0  0  0
    7.5863   48.3122   29.4937 O   0  0  0  0  0  0  0  0  0  0  0  0
    8.8564   50.4178   30.8860 C   0  0  0  0  0  0  0  0  0  0  0  0
   10.1295   49.5977   30.8875 C   0  0  0  0  0  0  0  0  0  0  0  0
   10.4520   48.8726   32.0502 C   0  0  0  0  0  0  0  0  0  0  0  0
   10.9638   49.4771   29.7454 C   0  0  0  0  0  0  0  0  0  0  0  0
   11.5442   48.0045   32.0693 C   0  0  0  0  0  0  0  0  0  0  0  0
   12.0496   48.5853   29.7788 C   0  0  0  0  0  0  0  0  0  0  0  0
   10.7440   50.2566   28.5598 N   0  0  0  0  0  0  0  0  0  0  0  0
   12.3354   47.8532   30.9323 C   0  0  0  0  0  0  0  0  0  0  0  0
   10.9946   49.7066   27.3239 O   0  0  0  0  0  0  0  0  0  0  0  0
   10.5663   51.4892   28.6456 O   0  0  0  0  0  0  0  0  0  0  0  0
    8.5369   39.1388   34.0121 O   0  0  0  0  0  0  0  0  0  0  0  0
   10.9794   40.0870   33.6826 O   0  0  0  0  0  0  0  0  0  0  0  0
   10.7997   40.0899   32.2829 C   0  0  0  0  0  0  0  0  0  0  0  0
   11.5968   38.9274   31.6962 C   0  0  0  0  0  0  0  0  0  0  0  0
   12.9242   38.9425   32.1784 O   0  0  0  0  0  0  0  0  0  0  0  0
   11.0086   37.5713   32.0780 C   0  0  0  0  0  0  0  0  0  0  0  0
   13.3528   37.5929   32.2623 C   0  0  0  0  0  0  0  0  0  0  0  0
    9.9098   37.1771   31.2925 O   0  0  0  0  0  0  0  0  0  0  0  0
   12.1943   36.6683   31.8995 C   0  0  0  0  0  0  0  0  0  0  0  0
   13.8019   37.2950   33.6199 N   0  0  0  0  0  0  0  0  0  0  0  0
   12.3027   36.2773   30.5558 O   0  0  0  0  0  0  0  0  0  0  0  0
   14.7926   36.4715   33.9864 C   0  0  0  0  0  0  0  0  0  0  0  0
   13.2749   37.7286   34.7946 C   0  0  0  0  0  0  0  0  0  0  0  0
   15.6239   35.7577   33.1860 N   0  0  0  0  0  0  0  0  0  0  0  0
   14.8727   36.4403   35.3332 C   0  0  0  0  0  0  0  0  0  0  0  0
   13.9210   37.2257   35.8811 N   0  0  0  0  0  0  0  0  0  0  0  0
   16.5873   34.9921   33.7802 C   0  0  0  0  0  0  0  0  0  0  0  0
   15.8579   35.6714   35.9444 C   0  0  0  0  0  0  0  0  0  0  0  0
   16.7028   34.9583   35.1439 N   0  0  0  0  0  0  0  0  0  0  0  0
   16.0104   35.6382   37.3564 N   0  0  0  0  0  0  0  0  0  0  0  0
    7.6777   44.0726   34.0492 H   0  0  0  0  0  0  0  0  0  0  0  0
    9.1852   45.3825   35.3535 H   0  0  0  0  0  0  0  0  0  0  0  0
   10.3196   45.4431   34.0981 H   0  0  0  0  0  0  0  0  0  0  0  0
    8.4841   43.0893   31.8642 H   0  0  0  0  0  0  0  0  0  0  0  0
    9.9720   44.0751   31.9733 H   0  0  0  0  0  0  0  0  0  0  0  0
    8.5516   46.1565   31.8777 H   0  0  0  0  0  0  0  0  0  0  0  0
    8.5391   45.1455   30.4036 H   0  0  0  0  0  0  0  0  0  0  0  0
    6.3315   44.1798   30.9698 H   0  0  0  0  0  0  0  0  0  0  0  0
    6.3003   45.0682   32.5328 H   0  0  0  0  0  0  0  0  0  0  0  0
    4.9172   46.2590   30.9158 H   0  0  0  0  0  0  0  0  0  0  0  0
    6.2456   46.2883   29.7179 H   0  0  0  0  0  0  0  0  0  0  0  0
    6.2691   47.7498   32.4181 H   0  0  0  0  0  0  0  0  0  0  0  0
    8.9957   51.2897   31.5587 H   0  0  0  0  0  0  0  0  0  0  0  0
    8.5906   50.8025   29.8814 H   0  0  0  0  0  0  0  0  0  0  0  0
    9.8354   48.9567   32.9369 H   0  0  0  0  0  0  0  0  0  0  0  0
   11.7709   47.4402   32.9647 H   0  0  0  0  0  0  0  0  0  0  0  0
   12.6919   48.4744   28.9143 H   0  0  0  0  0  0  0  0  0  0  0  0
   13.1792   47.1754   30.9476 H   0  0  0  0  0  0  0  0  0  0  0  0
   11.2097   41.0419   31.8829 H   0  0  0  0  0  0  0  0  0  0  0  0
    9.7450   40.0146   31.9261 H   0  0  0  0  0  0  0  0  0  0  0  0
   11.6265   39.0456   30.5888 H   0  0  0  0  0  0  0  0  0  0  0  0
   10.7064   37.5574   33.1484 H   0  0  0  0  0  0  0  0  0  0  0  0
   14.2021   37.4484   31.5574 H   0  0  0  0  0  0  0  0  0  0  0  0
   10.0952   37.3991   30.3433 H   0  0  0  0  0  0  0  0  0  0  0  0
   12.1163   35.7745   32.5633 H   0  0  0  0  0  0  0  0  0  0  0  0
   12.9615   35.5349   30.5312 H   0  0  0  0  0  0  0  0  0  0  0  0
   12.4321   38.3982   34.8705 H   0  0  0  0  0  0  0  0  0  0  0  0
   17.2669   34.4143   33.1690 H   0  0  0  0  0  0  0  0  0  0  0  0
   16.7641   35.0599   37.7897 H   0  0  0  0  0  0  0  0  0  0  0  0
   15.3761   36.1862   37.9792 H   0  0  0  0  0  0  0  0  0  0  0  0
  1  2  2  0
  1  3  1  0
  3  4  1  0
  4  5  1  0
  6  1  1  0
  7  6  1  0
  6  8  1  0
  8  9  1  0
  9 10  1  0
 10 11  1  0
 11 12  1  0
 12 13  1  0
 13 14  1  0
 13 15  2  0
 14 16  1  0
 16 17  1  0
 17 18  2  0
 19 17  1  0
 18 20  1  0
 21 19  2  0
 19 22  1  0
 20 23  2  0
 23 21  1  0
 22 24  1  0
 22 25  2  0
  4 26  2  0
  4 27  1  0
 28 27  1  0
 28 29  1  0
 29 30  1  0
 29 31  1  0
 30 32  1  0
 31 33  1  0
 31 34  1  0
 34 32  1  0
 32 35  1  0
 34 36  1  0
 37 35  1  0
 38 35  1  0
 39 37  2  0
 37 40  1  0
 41 38  2  0
 42 39  1  0
 40 43  2  0
 40 41  1  0
 44 42  2  0
 44 43  1  0
 43 45  1  0
  6 46  1  6
  7 47  1  0
  7 48  1  0
  8 49  1  0
  8 50  1  0
  9 51  1  0
  9 52  1  0
 10 53  1  0
 10 54  1  0
 11 55  1  0
 11 56  1  0
 12 57  1  0
 16 58  1  0
 16 59  1  0
 18 60  1  0
 20 61  1  0
 21 62  1  0
 23 63  1  0
 28 64  1  0
 28 65  1  0
 29 66  1  0
 31 67  1  0
 32 68  1  0
 33 69  1  0
 34 70  1  0
 36 71  1  0
 38 72  1  0
 42 73  1  0
 45 74  1  0
 45 75  1  0
M  CHG  3   5  -1  22   1  24  -1
M  END
>  <EmbedRMS>  (98) 
0.0758445721672

$$$$

     RDKit          3D

 75 78  0  0  0  0  0  0  0  0999 V2000
    9.4333   42.9366   34.3460 C   0  0  0  0  0  0  0  0  0  0  0  0
   10.4907   43.0331   35.0318 O   0  0  0  0  0  0  0  0  0  0  0  0
    8.8563   41.7104   34.0294 O   0  0  0  0  0  0  0  0  0  0  0  0
    9.4942   40.2140   34.4678 P   0  0  0  0  0  0  0  0  0  0  0  0
    9.7310   40.1725   36.1289 O   0  0  0  0  0  0  0  0  0  0  0  0
    8.7507   44.1351   33.7740 C   0  0  1  0  0  0  0  0  0  0  0  0
    9.2964   45.3823   34.3133 N   0  0  0  0  0  0  0  0  0  0  0  0
    8.8893   44.0533   32.2357 C   0  0  0  0  0  0  0  0  0  0  0  0
    8.2026   45.1831   31.4617 C   0  0  0  0  0  0  0  0  0  0  0  0
    6.6651   45.1047   31.4852 C   0  0  0  0  0  0  0  0  0  0  0  0
    6.0260   46.3222   30.8094 C   0  0  0  0  0  0  0  0  0  0  0  0
    6.5037   47.5640   31.4171 N   0  0  0  0  0  0  0  0  0  0  0  0
    7.2499   48.5353   30.6865 C   0  0  0  0  0  0  0  0  0  0  0  0
    7.6297   49.7200   31.3219 O   0  0  0  0  0  0  0  0  0  0  0  0
    7.5910   48.3129   29.4932 O   0  0  0  0  0  0  0  0  0  0  0  0
    8.4254   50.7140   30.6852 C   0  0  0  0  0  0  0  0  0  0  0  0
    8.7233   51.8208   31.6632 C   0  0  0  0  0  0  0  0  0  0  0  0
    7.9718   53.0075   31.5828 C   0  0  0  0  0  0  0  0  0  0  0  0
    9.7504   51.7133   32.6412 C   0  0  0  0  0  0  0  0  0  0  0  0
    8.2369   54.0780   32.4374 C   0  0  0  0  0  0  0  0  0  0  0  0
   10.0100   52.8114   33.4813 C   0  0  0  0  0  0  0  0  0  0  0  0
   10.5502   50.5243   32.7874 N   0  0  0  0  0  0  0  0  0  0  0  0
    9.2568   53.9818   33.3814 C   0  0  0  0  0  0  0  0  0  0  0  0
   11.8369   50.6176   33.2664 O   0  0  0  0  0  0  0  0  0  0  0  0
   10.0470   49.3916   32.6435 O   0  0  0  0  0  0  0  0  0  0  0  0
    8.5370   39.1383   34.0122 O   0  0  0  0  0  0  0  0  0  0  0  0
   10.9795   40.0869   33.6827 O   0  0  0  0  0  0  0  0  0  0  0  0
   10.7997   40.0898   32.2830 C   0  0  0  0  0  0  0  0  0  0  0  0
   11.5968   38.9273   31.6962 C   0  0  0  0  0  0  0  0  0  0  0  0
   12.9242   38.9425   32.1784 O   0  0  0  0  0  0  0  0  0  0  0  0
   11.0086   37.5713   32.0780 C   0  0  0  0  0  0  0  0  0  0  0  0
   13.3528   37.5929   32.2623 C   0  0  0  0  0  0  0  0  0  0  0  0
    9.9098   37.1770   31.2925 O   0  0  0  0  0  0  0  0  0  0  0  0
   12.1943   36.6683   31.8995 C   0  0  0  0  0  0  0  0  0  0  0  0
   13.8019   37.2950   33.6199 N   0  0  0  0  0  0  0  0  0  0  0  0
   12.3027   36.2773   30.5558 O   0  0  0  0  0  0  0  0  0  0  0  0
   14.7926   36.4715   33.9864 C   0  0  0  0  0  0  0  0  0  0  0  0
   13.2749   37.7286   34.7946 C   0  0  0  0  0  0  0  0  0  0  0  0
   15.6239   35.7577   33.1860 N   0  0  0  0  0  0  0  0  0  0  0  0
   14.8727   36.4403   35.3332 C   0  0  0  0  0  0  0  0  0  0  0  0
   13.9210   37.2257   35.8811 N   0  0  0  0  0  0  0  0  0  0  0  0
   16.5873   34.9921   33.7802 C   0  0  0  0  0  0  0  0  0  0  0  0
   15.8579   35.6714   35.9444 C   0  0  0  0  0  0  0  0  0  0  0  0
   16.7028   34.9583   35.1439 N   0  0  0  0  0  0  0  0  0  0  0  0
   16.0104   35.6381   37.3564 N   0  0  0  0  0  0  0  0  0  0  0  0
    7.6771   44.0710   34.0503 H   0  0  0  0  0  0  0  0  0  0  0  0
   10.3191   45.4415   34.0992 H   0  0  0  0  0  0  0  0  0  0  0  0
    9.1834   45.3821   35.3535 H   0  0  0  0  0  0  0  0  0  0  0  0
    9.9711   44.0690   31.9738 H   0  0  0  0  0  0  0  0  0  0  0  0
    8.4817   43.0857   31.8666 H   0  0  0  0  0  0  0  0  0  0  0  0
    8.5544   46.1519   31.8751 H   0  0  0  0  0  0  0  0  0  0  0  0
    8.5386   45.1379   30.4026 H   0  0  0  0  0  0  0  0  0  0  0  0
    6.3014   45.0646   32.5330 H   0  0  0  0  0  0  0  0  0  0  0  0
    6.3301   44.1798   30.9677 H   0  0  0  0  0  0  0  0  0  0  0  0
    6.2466   46.2895   29.7208 H   0  0  0  0  0  0  0  0  0  0  0  0
    4.9225   46.2659   30.9245 H   0  0  0  0  0  0  0  0  0  0  0  0
    6.2816   47.7511   32.4209 H   0  0  0  0  0  0  0  0  0  0  0  0
    9.3734   50.2729   30.3081 H   0  0  0  0  0  0  0  0  0  0  0  0
    7.8742   51.1073   29.8026 H   0  0  0  0  0  0  0  0  0  0  0  0
    7.1791   53.1082   30.8515 H   0  0  0  0  0  0  0  0  0  0  0  0
    7.6527   54.9863   32.3637 H   0  0  0  0  0  0  0  0  0  0  0  0
   10.7898   52.7558   34.2302 H   0  0  0  0  0  0  0  0  0  0  0  0
    9.4628   54.8152   34.0407 H   0  0  0  0  0  0  0  0  0  0  0  0
   11.2096   41.0418   31.8829 H   0  0  0  0  0  0  0  0  0  0  0  0
    9.7449   40.0145   31.9263 H   0  0  0  0  0  0  0  0  0  0  0  0
   11.6265   39.0456   30.5888 H   0  0  0  0  0  0  0  0  0  0  0  0
   10.7064   37.5574   33.1484 H   0  0  0  0  0  0  0  0  0  0  0  0
   14.2021   37.4484   31.5574 H   0  0  0  0  0  0  0  0  0  0  0  0
   10.0952   37.3990   30.3433 H   0  0  0  0  0  0  0  0  0  0  0  0
   12.1163   35.7745   32.5633 H   0  0  0  0  0  0  0  0  0  0  0  0
   12.9615   35.5349   30.5312 H   0  0  0  0  0  0  0  0  0  0  0  0
   12.4321   38.3982   34.8705 H   0  0  0  0  0  0  0  0  0  0  0  0
   17.2669   34.4143   33.1690 H   0  0  0  0  0  0  0  0  0  0  0  0
   15.3761   36.1862   37.9792 H   0  0  0  0  0  0  0  0  0  0  0  0
   16.7641   35.0598   37.7896 H   0  0  0  0  0  0  0  0  0  0  0  0
  1  2  2  0
  1  3  1  0
  3  4  1  0
  4  5  1  0
  6  1  1  0
  7  6  1  0
  6  8  1  0
  8  9  1  0
  9 10  1  0
 10 11  1  0
 11 12  1  0
 12 13  1  0
 13 14  1  0
 13 15  2  0
 14 16  1  0
 16 17  1  0
 17 18  2  0
 19 17  1  0
 18 20  1  0
 21 19  2  0
 19 22  1  0
 20 23  2  0
 23 21  1  0
 22 24  1  0
 22 25  2  0
  4 26  2  0
  4 27  1  0
 28 27  1  0
 28 29  1  0
 29 30  1  0
 29 31  1  0
 30 32  1  0
 31 33  1  0
 31 34  1  0
 34 32  1  0
 32 35  1  0
 34 36  1  0
 37 35  1  0
 38 35  1  0
 39 37  2  0
 37 40  1  0
 41 38  2  0
 42 39  1  0
 40 43  2  0
 40 41  1  0
 44 42  2  0
 44 43  1  0
 43 45  1  0
  6 46  1  6
  7 47  1  0
  7 48  1  0
  8 49  1  0
  8 50  1  0
  9 51  1  0
  9 52  1  0
 10 53  1  0
 10 54  1  0
 11 55  1  0
 11 56  1  0
 12 57  1  0
 16 58  1  0
 16 59  1  0
 18 60  1  0
 20 61  1  0
 21 62  1  0
 23 63  1  0
 28 64  1  0
 28 65  1  0
 29 66  1  0
 31 67  1  0
 32 68  1  0
 33 69  1  0
 34 70  1  0
 36 71  1  0
 38 72  1  0
 42 73  1  0
 45 74  1  0
 45 75  1  0
M  CHG  3   5  -1  22   1  24  -1
M  END
>  <EmbedRMS>  (99) 
0.0747608904354

$$$$

     RDKit          3D

 75 78  0  0  0  0  0  0  0  0999 V2000
    9.4333   42.9368   34.3455 C   0  0  0  0  0  0  0  0  0  0  0  0
   10.4907   43.0331   35.0314 O   0  0  0  0  0  0  0  0  0  0  0  0
    8.8559   41.7107   34.0294 O   0  0  0  0  0  0  0  0  0  0  0  0
    9.4943   40.2144   34.4675 P   0  0  0  0  0  0  0  0  0  0  0  0
    9.7315   40.1726   36.1286 O   0  0  0  0  0  0  0  0  0  0  0  0
    8.7509   44.1355   33.7737 C   0  0  1  0  0  0  0  0  0  0  0  0
    9.2967   45.3821   34.3137 N   0  0  0  0  0  0  0  0  0  0  0  0
    8.8899   44.0553   32.2354 C   0  0  0  0  0  0  0  0  0  0  0  0
    8.2028   45.1860   31.4625 C   0  0  0  0  0  0  0  0  0  0  0  0
    6.6652   45.1062   31.4856 C   0  0  0  0  0  0  0  0  0  0  0  0
    6.0239   46.3220   30.8083 C   0  0  0  0  0  0  0  0  0  0  0  0
    6.4971   47.5658   31.4155 N   0  0  0  0  0  0  0  0  0  0  0  0
    7.2578   48.5292   30.6899 C   0  0  0  0  0  0  0  0  0  0  0  0
    7.6755   49.6954   31.3389 O   0  0  0  0  0  0  0  0  0  0  0  0
    7.5903   48.3103   29.4935 O   0  0  0  0  0  0  0  0  0  0  0  0
    8.6301   50.5968   30.7817 C   0  0  0  0  0  0  0  0  0  0  0  0
    9.9920   49.9439   30.7035 C   0  0  0  0  0  0  0  0  0  0  0  0
   10.6351   49.8766   29.4538 C   0  0  0  0  0  0  0  0  0  0  0  0
   10.6074   49.3402   31.8338 C   0  0  0  0  0  0  0  0  0  0  0  0
   11.8556   49.2149   29.3150 C   0  0  0  0  0  0  0  0  0  0  0  0
   11.8298   48.6633   31.6668 C   0  0  0  0  0  0  0  0  0  0  0  0
   10.0056   49.3828   33.1409 N   0  0  0  0  0  0  0  0  0  0  0  0
   12.4491   48.6051   30.4179 C   0  0  0  0  0  0  0  0  0  0  0  0
    9.3775   50.5213   33.5889 O   0  0  0  0  0  0  0  0  0  0  0  0
   10.1878   48.4448   33.9442 O   0  0  0  0  0  0  0  0  0  0  0  0
    8.5372   39.1384   34.0122 O   0  0  0  0  0  0  0  0  0  0  0  0
   10.9795   40.0889   33.6815 O   0  0  0  0  0  0  0  0  0  0  0  0
   10.7982   40.0849   32.2819 C   0  0  0  0  0  0  0  0  0  0  0  0
   11.5886   38.9142   31.7009 C   0  0  0  0  0  0  0  0  0  0  0  0
   12.9214   38.9367   32.1698 O   0  0  0  0  0  0  0  0  0  0  0  0
   11.0047   37.5660   32.0990 C   0  0  0  0  0  0  0  0  0  0  0  0
   13.3511   37.5885   32.2601 C   0  0  0  0  0  0  0  0  0  0  0  0
    9.9296   37.1961   31.2780 O   0  0  0  0  0  0  0  0  0  0  0  0
   12.1923   36.6659   31.9047 C   0  0  0  0  0  0  0  0  0  0  0  0
   13.8033   37.2966   33.6188 N   0  0  0  0  0  0  0  0  0  0  0  0
   12.3007   36.2865   30.5561 O   0  0  0  0  0  0  0  0  0  0  0  0
   14.7933   36.4724   33.9860 C   0  0  0  0  0  0  0  0  0  0  0  0
   13.2753   37.7296   34.7935 C   0  0  0  0  0  0  0  0  0  0  0  0
   15.6243   35.7579   33.1860 N   0  0  0  0  0  0  0  0  0  0  0  0
   14.8728   36.4410   35.3328 C   0  0  0  0  0  0  0  0  0  0  0  0
   13.9209   37.2263   35.8804 N   0  0  0  0  0  0  0  0  0  0  0  0
   16.5873   34.9919   33.7803 C   0  0  0  0  0  0  0  0  0  0  0  0
   15.8577   35.6717   35.9443 C   0  0  0  0  0  0  0  0  0  0  0  0
   16.7025   34.9583   35.1440 N   0  0  0  0  0  0  0  0  0  0  0  0
   16.0100   35.6384   37.3563 N   0  0  0  0  0  0  0  0  0  0  0  0
    7.6772   44.0714   34.0496 H   0  0  0  0  0  0  0  0  0  0  0  0
   10.3193   45.4413   34.0993 H   0  0  0  0  0  0  0  0  0  0  0  0
    9.1839   45.3817   35.3539 H   0  0  0  0  0  0  0  0  0  0  0  0
    9.9718   44.0722   31.9738 H   0  0  0  0  0  0  0  0  0  0  0  0
    8.4832   43.0878   31.8651 H   0  0  0  0  0  0  0  0  0  0  0  0
    8.5537   46.1549   31.8770 H   0  0  0  0  0  0  0  0  0  0  0  0
    8.5394   45.1426   30.4035 H   0  0  0  0  0  0  0  0  0  0  0  0
    6.3314   44.1802   30.9691 H   0  0  0  0  0  0  0  0  0  0  0  0
    6.3015   45.0667   32.5333 H   0  0  0  0  0  0  0  0  0  0  0  0
    4.9204   46.2630   30.9217 H   0  0  0  0  0  0  0  0  0  0  0  0
    6.2458   46.2889   29.7200 H   0  0  0  0  0  0  0  0  0  0  0  0
    6.2761   47.7521   32.4195 H   0  0  0  0  0  0  0  0  0  0  0  0
    8.2765   50.9336   29.7824 H   0  0  0  0  0  0  0  0  0  0  0  0
    8.6913   51.5045   31.4155 H   0  0  0  0  0  0  0  0  0  0  0  0
   10.1844   50.3259   28.5774 H   0  0  0  0  0  0  0  0  0  0  0  0
   12.3378   49.1674   28.3471 H   0  0  0  0  0  0  0  0  0  0  0  0
   12.3134   48.1899   32.5120 H   0  0  0  0  0  0  0  0  0  0  0  0
   13.3930   48.0872   30.3060 H   0  0  0  0  0  0  0  0  0  0  0  0
    9.7427   40.0141   31.9265 H   0  0  0  0  0  0  0  0  0  0  0  0
   11.2132   41.0320   31.8757 H   0  0  0  0  0  0  0  0  0  0  0  0
   11.5980   39.0108   30.5904 H   0  0  0  0  0  0  0  0  0  0  0  0
   10.7009   37.5602   33.1721 H   0  0  0  0  0  0  0  0  0  0  0  0
   14.1977   37.4380   31.5532 H   0  0  0  0  0  0  0  0  0  0  0  0
    9.5180   36.3961   31.6977 H   0  0  0  0  0  0  0  0  0  0  0  0
   12.1418   35.7697   32.5692 H   0  0  0  0  0  0  0  0  0  0  0  0
   11.7730   35.4523   30.4489 H   0  0  0  0  0  0  0  0  0  0  0  0
   12.4321   38.3985   34.8692 H   0  0  0  0  0  0  0  0  0  0  0  0
   17.2667   34.4138   33.1694 H   0  0  0  0  0  0  0  0  0  0  0  0
   15.3757   36.1867   37.9790 H   0  0  0  0  0  0  0  0  0  0  0  0
   16.7634   35.0598   37.7897 H   0  0  0  0  0  0  0  0  0  0  0  0
  1  2  2  0
  1  3  1  0
  3  4  1  0
  4  5  1  0
  6  1  1  0
  7  6  1  0
  6  8  1  0
  8  9  1  0
  9 10  1  0
 10 11  1  0
 11 12  1  0
 12 13  1  0
 13 14  1  0
 13 15  2  0
 14 16  1  0
 16 17  1  0
 17 18  2  0
 19 17  1  0
 18 20  1  0
 21 19  2  0
 19 22  1  0
 20 23  2  0
 23 21  1  0
 22 24  1  0
 22 25  2  0
  4 26  2  0
  4 27  1  0
 28 27  1  0
 28 29  1  0
 29 30  1  0
 29 31  1  0
 30 32  1  0
 31 33  1  0
 31 34  1  0
 34 32  1  0
 32 35  1  0
 34 36  1  0
 37 35  1  0
 38 35  1  0
 39 37  2  0
 37 40  1  0
 41 38  2  0
 42 39  1  0
 40 43  2  0
 40 41  1  0
 44 42  2  0
 44 43  1  0
 43 45  1  0
  6 46  1  6
  7 47  1  0
  7 48  1  0
  8 49  1  0
  8 50  1  0
  9 51  1  0
  9 52  1  0
 10 53  1  0
 10 54  1  0
 11 55  1  0
 11 56  1  0
 12 57  1  0
 16 58  1  0
 16 59  1  0
 18 60  1  0
 20 61  1  0
 21 62  1  0
 23 63  1  0
 28 64  1  0
 28 65  1  0
 29 66  1  0
 31 67  1  0
 32 68  1  0
 33 69  1  0
 34 70  1  0
 36 71  1  0
 38 72  1  0
 42 73  1  0
 45 74  1  0
 45 75  1  0
M  CHG  3   5  -1  22   1  24  -1
M  END
>  <EmbedRMS>  (100) 
0.074929653031

$$$$

     RDKit          3D

 75 78  0  0  0  0  0  0  0  0999 V2000
    9.4301   42.9394   34.3434 C   0  0  0  0  0  0  0  0  0  0  0  0
   10.4913   43.0380   35.0235 O   0  0  0  0  0  0  0  0  0  0  0  0
    8.8550   41.7115   34.0283 O   0  0  0  0  0  0  0  0  0  0  0  0
    9.4944   40.2156   34.4676 P   0  0  0  0  0  0  0  0  0  0  0  0
    9.7308   40.1740   36.1287 O   0  0  0  0  0  0  0  0  0  0  0  0
    8.7413   44.1376   33.7786 C   0  0  1  0  0  0  0  0  0  0  0  0
    9.3015   45.3717   34.3325 N   0  0  0  0  0  0  0  0  0  0  0  0
    8.8963   44.0592   32.2398 C   0  0  0  0  0  0  0  0  0  0  0  0
    8.2027   45.1687   31.4400 C   0  0  0  0  0  0  0  0  0  0  0  0
    6.6653   45.1064   31.4910 C   0  0  0  0  0  0  0  0  0  0  0  0
    6.0277   46.3225   30.8123 C   0  0  0  0  0  0  0  0  0  0  0  0
    6.5078   47.5643   31.4184 N   0  0  0  0  0  0  0  0  0  0  0  0
    7.2423   48.5403   30.6823 C   0  0  0  0  0  0  0  0  0  0  0  0
    7.5826   49.7471   31.3026 O   0  0  0  0  0  0  0  0  0  0  0  0
    7.5937   48.3097   29.4944 O   0  0  0  0  0  0  0  0  0  0  0  0
    8.3244   50.7851   30.6625 C   0  0  0  0  0  0  0  0  0  0  0  0
    7.5141   51.4274   29.5593 C   0  0  0  0  0  0  0  0  0  0  0  0
    6.2484   51.9462   29.8874 C   0  0  0  0  0  0  0  0  0  0  0  0
    8.0103   51.5994   28.2403 C   0  0  0  0  0  0  0  0  0  0  0  0
    5.4817   52.6152   28.9322 C   0  0  0  0  0  0  0  0  0  0  0  0
    7.2305   52.2913   27.2970 C   0  0  0  0  0  0  0  0  0  0  0  0
    9.2949   51.0976   27.8423 N   0  0  0  0  0  0  0  0  0  0  0  0
    5.9731   52.7899   27.6399 C   0  0  0  0  0  0  0  0  0  0  0  0
    9.5892   49.7627   27.9923 O   0  0  0  0  0  0  0  0  0  0  0  0
   10.0443   51.8031   27.1359 O   0  0  0  0  0  0  0  0  0  0  0  0
    8.5375   39.1393   34.0126 O   0  0  0  0  0  0  0  0  0  0  0  0
   10.9804   40.0888   33.6834 O   0  0  0  0  0  0  0  0  0  0  0  0
   10.8025   40.0901   32.2836 C   0  0  0  0  0  0  0  0  0  0  0  0
   11.5888   38.9174   31.7007 C   0  0  0  0  0  0  0  0  0  0  0  0
   12.9219   38.9373   32.1692 O   0  0  0  0  0  0  0  0  0  0  0  0
   11.0028   37.5682   32.0981 C   0  0  0  0  0  0  0  0  0  0  0  0
   13.3496   37.5886   32.2601 C   0  0  0  0  0  0  0  0  0  0  0  0
    9.9343   37.1823   31.2757 O   0  0  0  0  0  0  0  0  0  0  0  0
   12.1891   36.6677   31.9050 C   0  0  0  0  0  0  0  0  0  0  0  0
   13.8025   37.2965   33.6186 N   0  0  0  0  0  0  0  0  0  0  0  0
   12.2990   36.2868   30.5568 O   0  0  0  0  0  0  0  0  0  0  0  0
   14.7929   36.4725   33.9858 C   0  0  0  0  0  0  0  0  0  0  0  0
   13.2749   37.7294   34.7935 C   0  0  0  0  0  0  0  0  0  0  0  0
   15.6240   35.7580   33.1858 N   0  0  0  0  0  0  0  0  0  0  0  0
   14.8727   36.4411   35.3327 C   0  0  0  0  0  0  0  0  0  0  0  0
   13.9208   37.2263   35.8803 N   0  0  0  0  0  0  0  0  0  0  0  0
   16.5871   34.9921   33.7801 C   0  0  0  0  0  0  0  0  0  0  0  0
   15.8576   35.6718   35.9441 C   0  0  0  0  0  0  0  0  0  0  0  0
   16.7024   34.9584   35.1438 N   0  0  0  0  0  0  0  0  0  0  0  0
   16.0099   35.6384   37.3562 N   0  0  0  0  0  0  0  0  0  0  0  0
    7.6669   44.0650   34.0547 H   0  0  0  0  0  0  0  0  0  0  0  0
    9.2334   45.3272   35.3759 H   0  0  0  0  0  0  0  0  0  0  0  0
    8.6808   46.1666   34.0588 H   0  0  0  0  0  0  0  0  0  0  0  0
    8.5084   43.0839   31.8694 H   0  0  0  0  0  0  0  0  0  0  0  0
    9.9810   44.0906   31.9914 H   0  0  0  0  0  0  0  0  0  0  0  0
    8.5156   45.0754   30.3769 H   0  0  0  0  0  0  0  0  0  0  0  0
    8.5770   46.1513   31.7918 H   0  0  0  0  0  0  0  0  0  0  0  0
    6.3183   45.0838   32.5447 H   0  0  0  0  0  0  0  0  0  0  0  0
    6.3124   44.1783   30.9913 H   0  0  0  0  0  0  0  0  0  0  0  0
    6.2470   46.2875   29.7235 H   0  0  0  0  0  0  0  0  0  0  0  0
    4.9243   46.2682   30.9290 H   0  0  0  0  0  0  0  0  0  0  0  0
    6.2837   47.7545   32.4211 H   0  0  0  0  0  0  0  0  0  0  0  0
    8.5502   51.5641   31.4207 H   0  0  0  0  0  0  0  0  0  0  0  0
    9.3006   50.3900   30.3214 H   0  0  0  0  0  0  0  0  0  0  0  0
    5.8576   51.8398   30.8922 H   0  0  0  0  0  0  0  0  0  0  0  0
    4.5084   53.0074   29.1978 H   0  0  0  0  0  0  0  0  0  0  0  0
    7.5950   52.4322   26.2871 H   0  0  0  0  0  0  0  0  0  0  0  0
    5.3794   53.3139   26.9021 H   0  0  0  0  0  0  0  0  0  0  0  0
   11.2257   41.0357   31.8824 H   0  0  0  0  0  0  0  0  0  0  0  0
    9.7476   40.0332   31.9253 H   0  0  0  0  0  0  0  0  0  0  0  0
   11.5975   39.0147   30.5904 H   0  0  0  0  0  0  0  0  0  0  0  0
   10.7023   37.5456   33.1720 H   0  0  0  0  0  0  0  0  0  0  0  0
   14.1957   37.4366   31.5528 H   0  0  0  0  0  0  0  0  0  0  0  0
    9.1339   37.6658   31.6070 H   0  0  0  0  0  0  0  0  0  0  0  0
   12.1380   35.7717   32.5698 H   0  0  0  0  0  0  0  0  0  0  0  0
   11.7707   35.4530   30.4496 H   0  0  0  0  0  0  0  0  0  0  0  0
   12.4314   38.3980   34.8694 H   0  0  0  0  0  0  0  0  0  0  0  0
   17.2664   34.4140   33.1691 H   0  0  0  0  0  0  0  0  0  0  0  0
   15.3757   36.1868   37.9789 H   0  0  0  0  0  0  0  0  0  0  0  0
   16.7633   35.0598   37.7895 H   0  0  0  0  0  0  0  0  0  0  0  0
  1  2  2  0
  1  3  1  0
  3  4  1  0
  4  5  1  0
  6  1  1  0
  7  6  1  0
  6  8  1  0
  8  9  1  0
  9 10  1  0
 10 11  1  0
 11 12  1  0
 12 13  1  0
 13 14  1  0
 13 15  2  0
 14 16  1  0
 16 17  1  0
 17 18  2  0
 19 17  1  0
 18 20  1  0
 21 19  2  0
 19 22  1  0
 20 23  2  0
 23 21  1  0
 22 24  1  0
 22 25  2  0
  4 26  2  0
  4 27  1  0
 28 27  1  0
 28 29  1  0
 29 30  1  0
 29 31  1  0
 30 32  1  0
 31 33  1  0
 31 34  1  0
 34 32  1  0
 32 35  1  0
 34 36  1  0
 37 35  1  0
 38 35  1  0
 39 37  2  0
 37 40  1  0
 41 38  2  0
 42 39  1  0
 40 43  2  0
 40 41  1  0
 44 42  2  0
 44 43  1  0
 43 45  1  0
  6 46  1  6
  7 47  1  0
  7 48  1  0
  8 49  1  0
  8 50  1  0
  9 51  1  0
  9 52  1  0
 10 53  1  0
 10 54  1  0
 11 55  1  0
 11 56  1  0
 12 57  1  0
 16 58  1  0
 16 59  1  0
 18 60  1  0
 20 61  1  0
 21 62  1  0
 23 63  1  0
 28 64  1  0
 28 65  1  0
 29 66  1  0
 31 67  1  0
 32 68  1  0
 33 69  1  0
 34 70  1  0
 36 71  1  0
 38 72  1  0
 42 73  1  0
 45 74  1  0
 45 75  1  0
M  CHG  3   5  -1  22   1  24  -1
M  END
>  <EmbedRMS>  (101) 
0.0735034053497

$$$$

     RDKit          3D

 75 78  0  0  0  0  0  0  0  0999 V2000
    9.4332   42.9367   34.3461 C   0  0  0  0  0  0  0  0  0  0  0  0
   10.4907   43.0331   35.0317 O   0  0  0  0  0  0  0  0  0  0  0  0
    8.8559   41.7105   34.0299 O   0  0  0  0  0  0  0  0  0  0  0  0
    9.4944   40.2142   34.4677 P   0  0  0  0  0  0  0  0  0  0  0  0
    9.7317   40.1724   36.1287 O   0  0  0  0  0  0  0  0  0  0  0  0
    8.7507   44.1352   33.7740 C   0  0  1  0  0  0  0  0  0  0  0  0
    9.2964   45.3824   34.3133 N   0  0  0  0  0  0  0  0  0  0  0  0
    8.8893   44.0533   32.2358 C   0  0  0  0  0  0  0  0  0  0  0  0
    8.2026   45.1831   31.4617 C   0  0  0  0  0  0  0  0  0  0  0  0
    6.6651   45.1047   31.4852 C   0  0  0  0  0  0  0  0  0  0  0  0
    6.0261   46.3221   30.8094 C   0  0  0  0  0  0  0  0  0  0  0  0
    6.5037   47.5639   31.4172 N   0  0  0  0  0  0  0  0  0  0  0  0
    7.2495   48.5355   30.6864 C   0  0  0  0  0  0  0  0  0  0  0  0
    7.6277   49.7210   31.3213 O   0  0  0  0  0  0  0  0  0  0  0  0
    7.5912   48.3129   29.4933 O   0  0  0  0  0  0  0  0  0  0  0  0
    8.4221   50.7158   30.6842 C   0  0  0  0  0  0  0  0  0  0  0  0
    8.7165   51.8244   31.6613 C   0  0  0  0  0  0  0  0  0  0  0  0
    7.9623   53.0093   31.5788 C   0  0  0  0  0  0  0  0  0  0  0  0
    9.7429   51.7204   32.6405 C   0  0  0  0  0  0  0  0  0  0  0  0
    8.2240   54.0813   32.4325 C   0  0  0  0  0  0  0  0  0  0  0  0
    9.9990   52.8200   33.4796 C   0  0  0  0  0  0  0  0  0  0  0  0
   10.5452   50.5334   32.7889 N   0  0  0  0  0  0  0  0  0  0  0  0
    9.2432   53.9886   33.3777 C   0  0  0  0  0  0  0  0  0  0  0  0
   11.8312   50.6302   33.2691 O   0  0  0  0  0  0  0  0  0  0  0  0
   10.0448   49.3994   32.6456 O   0  0  0  0  0  0  0  0  0  0  0  0
    8.5372   39.1384   34.0122 O   0  0  0  0  0  0  0  0  0  0  0  0
   10.9795   40.0889   33.6815 O   0  0  0  0  0  0  0  0  0  0  0  0
   10.7982   40.0848   32.2819 C   0  0  0  0  0  0  0  0  0  0  0  0
   11.5886   38.9142   31.7009 C   0  0  0  0  0  0  0  0  0  0  0  0
   12.9214   38.9367   32.1698 O   0  0  0  0  0  0  0  0  0  0  0  0
   11.0047   37.5660   32.0990 C   0  0  0  0  0  0  0  0  0  0  0  0
   13.3511   37.5885   32.2601 C   0  0  0  0  0  0  0  0  0  0  0  0
    9.9296   37.1961   31.2780 O   0  0  0  0  0  0  0  0  0  0  0  0
   12.1923   36.6658   31.9047 C   0  0  0  0  0  0  0  0  0  0  0  0
   13.8033   37.2966   33.6188 N   0  0  0  0  0  0  0  0  0  0  0  0
   12.3007   36.2864   30.5561 O   0  0  0  0  0  0  0  0  0  0  0  0
   14.7933   36.4724   33.9860 C   0  0  0  0  0  0  0  0  0  0  0  0
   13.2753   37.7296   34.7935 C   0  0  0  0  0  0  0  0  0  0  0  0
   15.6243   35.7579   33.1860 N   0  0  0  0  0  0  0  0  0  0  0  0
   14.8728   36.4410   35.3328 C   0  0  0  0  0  0  0  0  0  0  0  0
   13.9209   37.2263   35.8804 N   0  0  0  0  0  0  0  0  0  0  0  0
   16.5873   34.9919   33.7803 C   0  0  0  0  0  0  0  0  0  0  0  0
   15.8577   35.6717   35.9443 C   0  0  0  0  0  0  0  0  0  0  0  0
   16.7025   34.9583   35.1440 N   0  0  0  0  0  0  0  0  0  0  0  0
   16.0100   35.6384   37.3563 N   0  0  0  0  0  0  0  0  0  0  0  0
    7.6771   44.0711   34.0503 H   0  0  0  0  0  0  0  0  0  0  0  0
   10.3191   45.4415   34.0992 H   0  0  0  0  0  0  0  0  0  0  0  0
    9.1834   45.3822   35.3535 H   0  0  0  0  0  0  0  0  0  0  0  0
    8.4817   43.0857   31.8666 H   0  0  0  0  0  0  0  0  0  0  0  0
    9.9711   44.0689   31.9739 H   0  0  0  0  0  0  0  0  0  0  0  0
    8.5544   46.1518   31.8751 H   0  0  0  0  0  0  0  0  0  0  0  0
    8.5387   45.1378   30.4026 H   0  0  0  0  0  0  0  0  0  0  0  0
    6.3014   45.0646   32.5329 H   0  0  0  0  0  0  0  0  0  0  0  0
    6.3300   44.1797   30.9677 H   0  0  0  0  0  0  0  0  0  0  0  0
    4.9226   46.2659   30.9244 H   0  0  0  0  0  0  0  0  0  0  0  0
    6.2467   46.2894   29.7208 H   0  0  0  0  0  0  0  0  0  0  0  0
    6.2816   47.7511   32.4208 H   0  0  0  0  0  0  0  0  0  0  0  0
    9.3714   50.2762   30.3087 H   0  0  0  0  0  0  0  0  0  0  0  0
    7.8710   51.1069   29.8007 H   0  0  0  0  0  0  0  0  0  0  0  0
    7.1701   53.1073   30.8466 H   0  0  0  0  0  0  0  0  0  0  0  0
    7.6377   54.9881   32.3573 H   0  0  0  0  0  0  0  0  0  0  0  0
   10.7782   52.7672   34.2293 H   0  0  0  0  0  0  0  0  0  0  0  0
    9.4465   54.8232   34.0363 H   0  0  0  0  0  0  0  0  0  0  0  0
   11.2131   41.0320   31.8757 H   0  0  0  0  0  0  0  0  0  0  0  0
    9.7427   40.0140   31.9266 H   0  0  0  0  0  0  0  0  0  0  0  0
   11.5980   39.0108   30.5904 H   0  0  0  0  0  0  0  0  0  0  0  0
   10.7008   37.5601   33.1721 H   0  0  0  0  0  0  0  0  0  0  0  0
   14.1977   37.4379   31.5532 H   0  0  0  0  0  0  0  0  0  0  0  0
    9.5181   36.3961   31.6977 H   0  0  0  0  0  0  0  0  0  0  0  0
   12.1419   35.7697   32.5692 H   0  0  0  0  0  0  0  0  0  0  0  0
   11.7730   35.4523   30.4488 H   0  0  0  0  0  0  0  0  0  0  0  0
   12.4321   38.3984   34.8692 H   0  0  0  0  0  0  0  0  0  0  0  0
   17.2667   34.4138   33.1694 H   0  0  0  0  0  0  0  0  0  0  0  0
   16.7634   35.0598   37.7897 H   0  0  0  0  0  0  0  0  0  0  0  0
   15.3757   36.1867   37.9790 H   0  0  0  0  0  0  0  0  0  0  0  0
  1  2  2  0
  1  3  1  0
  3  4  1  0
  4  5  1  0
  6  1  1  0
  7  6  1  0
  6  8  1  0
  8  9  1  0
  9 10  1  0
 10 11  1  0
 11 12  1  0
 12 13  1  0
 13 14  1  0
 13 15  2  0
 14 16  1  0
 16 17  1  0
 17 18  2  0
 19 17  1  0
 18 20  1  0
 21 19  2  0
 19 22  1  0
 20 23  2  0
 23 21  1  0
 22 24  1  0
 22 25  2  0
  4 26  2  0
  4 27  1  0
 28 27  1  0
 28 29  1  0
 29 30  1  0
 29 31  1  0
 30 32  1  0
 31 33  1  0
 31 34  1  0
 34 32  1  0
 32 35  1  0
 34 36  1  0
 37 35  1  0
 38 35  1  0
 39 37  2  0
 37 40  1  0
 41 38  2  0
 42 39  1  0
 40 43  2  0
 40 41  1  0
 44 42  2  0
 44 43  1  0
 43 45  1  0
  6 46  1  6
  7 47  1  0
  7 48  1  0
  8 49  1  0
  8 50  1  0
  9 51  1  0
  9 52  1  0
 10 53  1  0
 10 54  1  0
 11 55  1  0
 11 56  1  0
 12 57  1  0
 16 58  1  0
 16 59  1  0
 18 60  1  0
 20 61  1  0
 21 62  1  0
 23 63  1  0
 28 64  1  0
 28 65  1  0
 29 66  1  0
 31 67  1  0
 32 68  1  0
 33 69  1  0
 34 70  1  0
 36 71  1  0
 38 72  1  0
 42 73  1  0
 45 74  1  0
 45 75  1  0
M  CHG  3   5  -1  22   1  24  -1
M  END
>  <EmbedRMS>  (102) 
0.0745579128341

$$$$

     RDKit          3D

 75 78  0  0  0  0  0  0  0  0999 V2000
    9.4330   42.9369   34.3464 C   0  0  0  0  0  0  0  0  0  0  0  0
   10.4907   43.0334   35.0318 O   0  0  0  0  0  0  0  0  0  0  0  0
    8.8554   41.7107   34.0309 O   0  0  0  0  0  0  0  0  0  0  0  0
    9.4930   40.2145   34.4706 P   0  0  0  0  0  0  0  0  0  0  0  0
    9.7296   40.1728   36.1314 O   0  0  0  0  0  0  0  0  0  0  0  0
    8.7505   44.1354   33.7742 C   0  0  1  0  0  0  0  0  0  0  0  0
    9.2962   45.3827   34.3133 N   0  0  0  0  0  0  0  0  0  0  0  0
    8.8891   44.0535   32.2360 C   0  0  0  0  0  0  0  0  0  0  0  0
    8.2028   45.1836   31.4622 C   0  0  0  0  0  0  0  0  0  0  0  0
    6.6653   45.1046   31.4833 C   0  0  0  0  0  0  0  0  0  0  0  0
    6.0278   46.3225   30.8066 C   0  0  0  0  0  0  0  0  0  0  0  0
    6.5013   47.5635   31.4197 N   0  0  0  0  0  0  0  0  0  0  0  0
    7.2578   48.5357   30.6878 C   0  0  0  0  0  0  0  0  0  0  0  0
    7.6842   49.7291   31.2820 O   0  0  0  0  0  0  0  0  0  0  0  0
    7.5843   48.3109   29.4932 O   0  0  0  0  0  0  0  0  0  0  0  0
    7.4281   50.0780   32.6386 C   0  0  0  0  0  0  0  0  0  0  0  0
    8.1006   51.3889   32.9534 C   0  0  0  0  0  0  0  0  0  0  0  0
    7.3233   52.5615   32.9429 C   0  0  0  0  0  0  0  0  0  0  0  0
    9.4814   51.4728   33.2840 C   0  0  0  0  0  0  0  0  0  0  0  0
    7.8890   53.7940   33.2706 C   0  0  0  0  0  0  0  0  0  0  0  0
   10.0259   52.7237   33.6264 C   0  0  0  0  0  0  0  0  0  0  0  0
   10.3384   50.3154   33.2997 N   0  0  0  0  0  0  0  0  0  0  0  0
    9.2362   53.8742   33.6163 C   0  0  0  0  0  0  0  0  0  0  0  0
   11.4281   50.2798   34.1392 O   0  0  0  0  0  0  0  0  0  0  0  0
   10.2079   49.4099   32.4510 O   0  0  0  0  0  0  0  0  0  0  0  0
    8.5366   39.1384   34.0139 O   0  0  0  0  0  0  0  0  0  0  0  0
   10.9785   40.0883   33.6869 O   0  0  0  0  0  0  0  0  0  0  0  0
   10.7973   40.0895   32.2882 C   0  0  0  0  0  0  0  0  0  0  0  0
   11.5882   38.9234   31.7043 C   0  0  0  0  0  0  0  0  0  0  0  0
   12.9230   38.9440   32.1728 O   0  0  0  0  0  0  0  0  0  0  0  0
   11.0048   37.5703   32.0916 C   0  0  0  0  0  0  0  0  0  0  0  0
   13.3570   37.5960   32.2595 C   0  0  0  0  0  0  0  0  0  0  0  0
    9.9332   37.1986   31.2676 O   0  0  0  0  0  0  0  0  0  0  0  0
   12.1965   36.6751   31.8949 C   0  0  0  0  0  0  0  0  0  0  0  0
   13.8037   37.2979   33.6187 N   0  0  0  0  0  0  0  0  0  0  0  0
   12.2934   36.2389   30.5581 O   0  0  0  0  0  0  0  0  0  0  0  0
   14.7929   36.4726   33.9860 C   0  0  0  0  0  0  0  0  0  0  0  0
   13.2755   37.7304   34.7934 C   0  0  0  0  0  0  0  0  0  0  0  0
   15.6244   35.7585   33.1859 N   0  0  0  0  0  0  0  0  0  0  0  0
   14.8722   36.4406   35.3328 C   0  0  0  0  0  0  0  0  0  0  0  0
   13.9205   37.2262   35.8803 N   0  0  0  0  0  0  0  0  0  0  0  0
   16.5872   34.9923   33.7802 C   0  0  0  0  0  0  0  0  0  0  0  0
   15.8573   35.6715   35.9442 C   0  0  0  0  0  0  0  0  0  0  0  0
   16.7023   34.9584   35.1439 N   0  0  0  0  0  0  0  0  0  0  0  0
   16.0098   35.6384   37.3563 N   0  0  0  0  0  0  0  0  0  0  0  0
    7.6768   44.0715   34.0502 H   0  0  0  0  0  0  0  0  0  0  0  0
    9.1830   45.3828   35.3535 H   0  0  0  0  0  0  0  0  0  0  0  0
   10.3189   45.4419   34.0994 H   0  0  0  0  0  0  0  0  0  0  0  0
    8.4814   43.0859   31.8668 H   0  0  0  0  0  0  0  0  0  0  0  0
    9.9710   44.0689   31.9742 H   0  0  0  0  0  0  0  0  0  0  0  0
    8.5533   46.1523   31.8770 H   0  0  0  0  0  0  0  0  0  0  0  0
    8.5404   45.1395   30.4035 H   0  0  0  0  0  0  0  0  0  0  0  0
    6.3314   44.1798   30.9646 H   0  0  0  0  0  0  0  0  0  0  0  0
    6.2999   45.0636   32.5305 H   0  0  0  0  0  0  0  0  0  0  0  0
    4.9238   46.2646   30.9164 H   0  0  0  0  0  0  0  0  0  0  0  0
    6.2526   46.2910   29.7190 H   0  0  0  0  0  0  0  0  0  0  0  0
    6.2587   47.7288   32.4212 H   0  0  0  0  0  0  0  0  0  0  0  0
    7.8024   49.2879   33.3247 H   0  0  0  0  0  0  0  0  0  0  0  0
    6.3293   50.1573   32.7916 H   0  0  0  0  0  0  0  0  0  0  0  0
    6.2719   52.5221   32.6853 H   0  0  0  0  0  0  0  0  0  0  0  0
    7.2795   54.6885   33.2612 H   0  0  0  0  0  0  0  0  0  0  0  0
   11.0730   52.8126   33.8868 H   0  0  0  0  0  0  0  0  0  0  0  0
    9.6716   54.8312   33.8738 H   0  0  0  0  0  0  0  0  0  0  0  0
   11.2113   41.0390   31.8862 H   0  0  0  0  0  0  0  0  0  0  0  0
    9.7422   40.0186   31.9315 H   0  0  0  0  0  0  0  0  0  0  0  0
   11.5931   39.0396   30.5966 H   0  0  0  0  0  0  0  0  0  0  0  0
   10.6986   37.5585   33.1640 H   0  0  0  0  0  0  0  0  0  0  0  0
   14.2072   37.4493   31.5564 H   0  0  0  0  0  0  0  0  0  0  0  0
    9.5321   36.3881   31.6771 H   0  0  0  0  0  0  0  0  0  0  0  0
   12.1344   35.7838   32.5583 H   0  0  0  0  0  0  0  0  0  0  0  0
   12.4641   37.0179   29.9674 H   0  0  0  0  0  0  0  0  0  0  0  0
   12.4333   38.4005   34.8692 H   0  0  0  0  0  0  0  0  0  0  0  0
   17.2668   34.4144   33.1692 H   0  0  0  0  0  0  0  0  0  0  0  0
   16.7634   35.0600   37.7896 H   0  0  0  0  0  0  0  0  0  0  0  0
   15.3755   36.1866   37.9789 H   0  0  0  0  0  0  0  0  0  0  0  0
  1  2  2  0
  1  3  1  0
  3  4  1  0
  4  5  1  0
  6  1  1  0
  7  6  1  0
  6  8  1  0
  8  9  1  0
  9 10  1  0
 10 11  1  0
 11 12  1  0
 12 13  1  0
 13 14  1  0
 13 15  2  0
 14 16  1  0
 16 17  1  0
 17 18  2  0
 19 17  1  0
 18 20  1  0
 21 19  2  0
 19 22  1  0
 20 23  2  0
 23 21  1  0
 22 24  1  0
 22 25  2  0
  4 26  2  0
  4 27  1  0
 28 27  1  0
 28 29  1  0
 29 30  1  0
 29 31  1  0
 30 32  1  0
 31 33  1  0
 31 34  1  0
 34 32  1  0
 32 35  1  0
 34 36  1  0
 37 35  1  0
 38 35  1  0
 39 37  2  0
 37 40  1  0
 41 38  2  0
 42 39  1  0
 40 43  2  0
 40 41  1  0
 44 42  2  0
 44 43  1  0
 43 45  1  0
  6 46  1  6
  7 47  1  0
  7 48  1  0
  8 49  1  0
  8 50  1  0
  9 51  1  0
  9 52  1  0
 10 53  1  0
 10 54  1  0
 11 55  1  0
 11 56  1  0
 12 57  1  0
 16 58  1  0
 16 59  1  0
 18 60  1  0
 20 61  1  0
 21 62  1  0
 23 63  1  0
 28 64  1  0
 28 65  1  0
 29 66  1  0
 31 67  1  0
 32 68  1  0
 33 69  1  0
 34 70  1  0
 36 71  1  0
 38 72  1  0
 42 73  1  0
 45 74  1  0
 45 75  1  0
M  CHG  3   5  -1  22   1  24  -1
M  END
>  <EmbedRMS>  (103) 
0.0762283800322

$$$$

     RDKit          3D

 75 78  0  0  0  0  0  0  0  0999 V2000
    9.4299   42.9397   34.3437 C   0  0  0  0  0  0  0  0  0  0  0  0
   10.4913   43.0383   35.0235 O   0  0  0  0  0  0  0  0  0  0  0  0
    8.8545   41.7118   34.0293 O   0  0  0  0  0  0  0  0  0  0  0  0
    9.4929   40.2158   34.4704 P   0  0  0  0  0  0  0  0  0  0  0  0
    9.7287   40.1744   36.1314 O   0  0  0  0  0  0  0  0  0  0  0  0
    8.7411   44.1380   33.7787 C   0  0  1  0  0  0  0  0  0  0  0  0
    9.3014   45.3721   34.3325 N   0  0  0  0  0  0  0  0  0  0  0  0
    8.8962   44.0593   32.2400 C   0  0  0  0  0  0  0  0  0  0  0  0
    8.2029   45.1690   31.4402 C   0  0  0  0  0  0  0  0  0  0  0  0
    6.6655   45.1057   31.4886 C   0  0  0  0  0  0  0  0  0  0  0  0
    6.0288   46.3227   30.8103 C   0  0  0  0  0  0  0  0  0  0  0  0
    6.5060   47.5633   31.4216 N   0  0  0  0  0  0  0  0  0  0  0  0
    7.2495   48.5408   30.6836 C   0  0  0  0  0  0  0  0  0  0  0  0
    7.6386   49.7544   31.2625 O   0  0  0  0  0  0  0  0  0  0  0  0
    7.5879   48.3083   29.4939 O   0  0  0  0  0  0  0  0  0  0  0  0
    7.3468   50.1250   32.6066 C   0  0  0  0  0  0  0  0  0  0  0  0
    7.8866   51.5071   32.8804 C   0  0  0  0  0  0  0  0  0  0  0  0
    8.8302   51.6693   33.9124 C   0  0  0  0  0  0  0  0  0  0  0  0
    7.5050   52.6383   32.1059 C   0  0  0  0  0  0  0  0  0  0  0  0
    9.3965   52.9178   34.1715 C   0  0  0  0  0  0  0  0  0  0  0  0
    8.1012   53.8835   32.3757 C   0  0  0  0  0  0  0  0  0  0  0  0
    6.5440   52.5485   31.0370 N   0  0  0  0  0  0  0  0  0  0  0  0
    9.0357   54.0216   33.4025 C   0  0  0  0  0  0  0  0  0  0  0  0
    6.6227   53.4129   29.9693 O   0  0  0  0  0  0  0  0  0  0  0  0
    5.5438   51.8090   31.1348 O   0  0  0  0  0  0  0  0  0  0  0  0
    8.5369   39.1393   34.0141 O   0  0  0  0  0  0  0  0  0  0  0  0
   10.9793   40.0883   33.6887 O   0  0  0  0  0  0  0  0  0  0  0  0
   10.8017   40.0949   32.2899 C   0  0  0  0  0  0  0  0  0  0  0  0
   11.5885   38.9266   31.7041 C   0  0  0  0  0  0  0  0  0  0  0  0
   12.9236   38.9445   32.1722 O   0  0  0  0  0  0  0  0  0  0  0  0
   11.0029   37.5726   32.0908 C   0  0  0  0  0  0  0  0  0  0  0  0
   13.3555   37.5960   32.2595 C   0  0  0  0  0  0  0  0  0  0  0  0
    9.9379   37.1846   31.2657 O   0  0  0  0  0  0  0  0  0  0  0  0
   12.1931   36.6769   31.8952 C   0  0  0  0  0  0  0  0  0  0  0  0
   13.8028   37.2977   33.6186 N   0  0  0  0  0  0  0  0  0  0  0  0
   12.2918   36.2396   30.5587 O   0  0  0  0  0  0  0  0  0  0  0  0
   14.7926   36.4727   33.9858 C   0  0  0  0  0  0  0  0  0  0  0  0
   13.2750   37.7302   34.7935 C   0  0  0  0  0  0  0  0  0  0  0  0
   15.6241   35.7586   33.1857 N   0  0  0  0  0  0  0  0  0  0  0  0
   14.8721   36.4408   35.3326 C   0  0  0  0  0  0  0  0  0  0  0  0
   13.9204   37.2263   35.8802 N   0  0  0  0  0  0  0  0  0  0  0  0
   16.5870   34.9924   33.7800 C   0  0  0  0  0  0  0  0  0  0  0  0
   15.8572   35.6717   35.9441 C   0  0  0  0  0  0  0  0  0  0  0  0
   16.7022   34.9585   35.1437 N   0  0  0  0  0  0  0  0  0  0  0  0
   16.0097   35.6384   37.3561 N   0  0  0  0  0  0  0  0  0  0  0  0
    7.6666   44.0656   34.0546 H   0  0  0  0  0  0  0  0  0  0  0  0
    9.2335   45.3277   35.3759 H   0  0  0  0  0  0  0  0  0  0  0  0
    8.6806   46.1672   34.0590 H   0  0  0  0  0  0  0  0  0  0  0  0
    9.9809   44.0906   31.9918 H   0  0  0  0  0  0  0  0  0  0  0  0
    8.5082   43.0840   31.8696 H   0  0  0  0  0  0  0  0  0  0  0  0
    8.5176   45.0768   30.3775 H   0  0  0  0  0  0  0  0  0  0  0  0
    8.5759   46.1516   31.7934 H   0  0  0  0  0  0  0  0  0  0  0  0
    6.3140   44.1782   30.9867 H   0  0  0  0  0  0  0  0  0  0  0  0
    6.3166   45.0809   32.5416 H   0  0  0  0  0  0  0  0  0  0  0  0
    6.2506   46.2897   29.7220 H   0  0  0  0  0  0  0  0  0  0  0  0
    4.9251   46.2670   30.9238 H   0  0  0  0  0  0  0  0  0  0  0  0
    6.2758   47.7250   32.4267 H   0  0  0  0  0  0  0  0  0  0  0  0
    7.8041   49.3784   33.2926 H   0  0  0  0  0  0  0  0  0  0  0  0
    6.2509   50.1128   32.7835 H   0  0  0  0  0  0  0  0  0  0  0  0
    9.1379   50.8248   34.5168 H   0  0  0  0  0  0  0  0  0  0  0  0
   10.1220   53.0279   34.9672 H   0  0  0  0  0  0  0  0  0  0  0  0
    7.8297   54.7574   31.7973 H   0  0  0  0  0  0  0  0  0  0  0  0
    9.4797   54.9881   33.6032 H   0  0  0  0  0  0  0  0  0  0  0  0
   11.2240   41.0428   31.8928 H   0  0  0  0  0  0  0  0  0  0  0  0
    9.7472   40.0378   31.9302 H   0  0  0  0  0  0  0  0  0  0  0  0
   11.5928   39.0433   30.5965 H   0  0  0  0  0  0  0  0  0  0  0  0
   10.7003   37.5443   33.1640 H   0  0  0  0  0  0  0  0  0  0  0  0
   14.2051   37.4477   31.5560 H   0  0  0  0  0  0  0  0  0  0  0  0
    9.1373   37.6722   31.5906 H   0  0  0  0  0  0  0  0  0  0  0  0
   12.1305   35.7856   32.5586 H   0  0  0  0  0  0  0  0  0  0  0  0
   12.4607   37.0186   29.9674 H   0  0  0  0  0  0  0  0  0  0  0  0
   12.4327   38.4001   34.8694 H   0  0  0  0  0  0  0  0  0  0  0  0
   17.2665   34.4146   33.1690 H   0  0  0  0  0  0  0  0  0  0  0  0
   15.3754   36.1866   37.9788 H   0  0  0  0  0  0  0  0  0  0  0  0
   16.7634   35.0601   37.7894 H   0  0  0  0  0  0  0  0  0  0  0  0
  1  2  2  0
  1  3  1  0
  3  4  1  0
  4  5  1  0
  6  1  1  0
  7  6  1  0
  6  8  1  0
  8  9  1  0
  9 10  1  0
 10 11  1  0
 11 12  1  0
 12 13  1  0
 13 14  1  0
 13 15  2  0
 14 16  1  0
 16 17  1  0
 17 18  2  0
 19 17  1  0
 18 20  1  0
 21 19  2  0
 19 22  1  0
 20 23  2  0
 23 21  1  0
 22 24  1  0
 22 25  2  0
  4 26  2  0
  4 27  1  0
 28 27  1  0
 28 29  1  0
 29 30  1  0
 29 31  1  0
 30 32  1  0
 31 33  1  0
 31 34  1  0
 34 32  1  0
 32 35  1  0
 34 36  1  0
 37 35  1  0
 38 35  1  0
 39 37  2  0
 37 40  1  0
 41 38  2  0
 42 39  1  0
 40 43  2  0
 40 41  1  0
 44 42  2  0
 44 43  1  0
 43 45  1  0
  6 46  1  6
  7 47  1  0
  7 48  1  0
  8 49  1  0
  8 50  1  0
  9 51  1  0
  9 52  1  0
 10 53  1  0
 10 54  1  0
 11 55  1  0
 11 56  1  0
 12 57  1  0
 16 58  1  0
 16 59  1  0
 18 60  1  0
 20 61  1  0
 21 62  1  0
 23 63  1  0
 28 64  1  0
 28 65  1  0
 29 66  1  0
 31 67  1  0
 32 68  1  0
 33 69  1  0
 34 70  1  0
 36 71  1  0
 38 72  1  0
 42 73  1  0
 45 74  1  0
 45 75  1  0
M  CHG  3   5  -1  22   1  24  -1
M  END
>  <EmbedRMS>  (104) 
0.0751196091049

$$$$

     RDKit          3D

 75 78  0  0  0  0  0  0  0  0999 V2000
    9.4313   42.9411   34.3437 C   0  0  0  0  0  0  0  0  0  0  0  0
   10.4886   43.0410   35.0294 O   0  0  0  0  0  0  0  0  0  0  0  0
    8.8562   41.7129   34.0288 O   0  0  0  0  0  0  0  0  0  0  0  0
    9.4947   40.2163   34.4679 P   0  0  0  0  0  0  0  0  0  0  0  0
    9.7311   40.1742   36.1290 O   0  0  0  0  0  0  0  0  0  0  0  0
    8.7484   44.1360   33.7721 C   0  0  1  0  0  0  0  0  0  0  0  0
    9.3039   45.3665   34.3388 N   0  0  0  0  0  0  0  0  0  0  0  0
    8.8892   44.0519   32.2309 C   0  0  0  0  0  0  0  0  0  0  0  0
    8.2014   45.1722   31.4436 C   0  0  0  0  0  0  0  0  0  0  0  0
    6.6642   45.1065   31.4887 C   0  0  0  0  0  0  0  0  0  0  0  0
    6.0265   46.3234   30.8120 C   0  0  0  0  0  0  0  0  0  0  0  0
    6.5074   47.5645   31.4186 N   0  0  0  0  0  0  0  0  0  0  0  0
    7.2443   48.5394   30.6834 C   0  0  0  0  0  0  0  0  0  0  0  0
    7.5948   49.7402   31.3056 O   0  0  0  0  0  0  0  0  0  0  0  0
    7.5931   48.3115   29.4933 O   0  0  0  0  0  0  0  0  0  0  0  0
    8.3412   50.7585   30.6476 C   0  0  0  0  0  0  0  0  0  0  0  0
    8.5383   51.9223   31.5843 C   0  0  0  0  0  0  0  0  0  0  0  0
    9.7701   52.0432   32.2534 C   0  0  0  0  0  0  0  0  0  0  0  0
    7.5347   52.9082   31.7924 C   0  0  0  0  0  0  0  0  0  0  0  0
   10.0191   53.1256   33.0978 C   0  0  0  0  0  0  0  0  0  0  0  0
    7.8142   53.9989   32.6356 C   0  0  0  0  0  0  0  0  0  0  0  0
    6.2462   52.8382   31.1531 N   0  0  0  0  0  0  0  0  0  0  0  0
    9.0451   54.1039   33.2846 C   0  0  0  0  0  0  0  0  0  0  0  0
    5.5516   53.9944   30.8805 O   0  0  0  0  0  0  0  0  0  0  0  0
    5.6715   51.7428   30.9893 O   0  0  0  0  0  0  0  0  0  0  0  0
    8.5375   39.1404   34.0127 O   0  0  0  0  0  0  0  0  0  0  0  0
   10.9805   40.0889   33.6836 O   0  0  0  0  0  0  0  0  0  0  0  0
   10.8025   40.0902   32.2838 C   0  0  0  0  0  0  0  0  0  0  0  0
   11.5888   38.9175   31.7008 C   0  0  0  0  0  0  0  0  0  0  0  0
   12.9219   38.9373   32.1692 O   0  0  0  0  0  0  0  0  0  0  0  0
   11.0028   37.5683   32.0981 C   0  0  0  0  0  0  0  0  0  0  0  0
   13.3496   37.5886   32.2601 C   0  0  0  0  0  0  0  0  0  0  0  0
    9.9343   37.1823   31.2757 O   0  0  0  0  0  0  0  0  0  0  0  0
   12.1891   36.6677   31.9050 C   0  0  0  0  0  0  0  0  0  0  0  0
   13.8025   37.2965   33.6186 N   0  0  0  0  0  0  0  0  0  0  0  0
   12.2990   36.2868   30.5568 O   0  0  0  0  0  0  0  0  0  0  0  0
   14.7929   36.4725   33.9858 C   0  0  0  0  0  0  0  0  0  0  0  0
   13.2749   37.7294   34.7936 C   0  0  0  0  0  0  0  0  0  0  0  0
   15.6240   35.7580   33.1858 N   0  0  0  0  0  0  0  0  0  0  0  0
   14.8727   36.4411   35.3327 C   0  0  0  0  0  0  0  0  0  0  0  0
   13.9208   37.2263   35.8803 N   0  0  0  0  0  0  0  0  0  0  0  0
   16.5871   34.9921   33.7801 C   0  0  0  0  0  0  0  0  0  0  0  0
   15.8576   35.6718   35.9441 C   0  0  0  0  0  0  0  0  0  0  0  0
   16.7024   34.9584   35.1438 N   0  0  0  0  0  0  0  0  0  0  0  0
   16.0099   35.6384   37.3562 N   0  0  0  0  0  0  0  0  0  0  0  0
    7.6764   44.0634   34.0548 H   0  0  0  0  0  0  0  0  0  0  0  0
    8.6468   46.1559   34.1432 H   0  0  0  0  0  0  0  0  0  0  0  0
   10.2152   45.5880   33.8747 H   0  0  0  0  0  0  0  0  0  0  0  0
    9.9708   44.0644   31.9679 H   0  0  0  0  0  0  0  0  0  0  0  0
    8.4831   43.0819   31.8666 H   0  0  0  0  0  0  0  0  0  0  0  0
    8.5712   46.1488   31.8175 H   0  0  0  0  0  0  0  0  0  0  0  0
    8.5198   45.0961   30.3808 H   0  0  0  0  0  0  0  0  0  0  0  0
    6.3141   45.0785   32.5414 H   0  0  0  0  0  0  0  0  0  0  0  0
    6.3148   44.1799   30.9839 H   0  0  0  0  0  0  0  0  0  0  0  0
    4.9231   46.2693   30.9294 H   0  0  0  0  0  0  0  0  0  0  0  0
    6.2450   46.2894   29.7230 H   0  0  0  0  0  0  0  0  0  0  0  0
    6.2849   47.7538   32.4218 H   0  0  0  0  0  0  0  0  0  0  0  0
    7.8182   51.0912   29.7251 H   0  0  0  0  0  0  0  0  0  0  0  0
    9.3231   50.3412   30.3324 H   0  0  0  0  0  0  0  0  0  0  0  0
   10.5453   51.2989   32.1173 H   0  0  0  0  0  0  0  0  0  0  0  0
   10.9719   53.2080   33.6047 H   0  0  0  0  0  0  0  0  0  0  0  0
    7.0684   54.7650   32.8057 H   0  0  0  0  0  0  0  0  0  0  0  0
    9.2422   54.9445   33.9374 H   0  0  0  0  0  0  0  0  0  0  0  0
    9.7476   40.0332   31.9256 H   0  0  0  0  0  0  0  0  0  0  0  0
   11.2257   41.0358   31.8825 H   0  0  0  0  0  0  0  0  0  0  0  0
   11.5975   39.0148   30.5905 H   0  0  0  0  0  0  0  0  0  0  0  0
   10.7023   37.5457   33.1720 H   0  0  0  0  0  0  0  0  0  0  0  0
   14.1957   37.4366   31.5528 H   0  0  0  0  0  0  0  0  0  0  0  0
    9.1339   37.6658   31.6070 H   0  0  0  0  0  0  0  0  0  0  0  0
   12.1380   35.7717   32.5698 H   0  0  0  0  0  0  0  0  0  0  0  0
   11.7706   35.4530   30.4496 H   0  0  0  0  0  0  0  0  0  0  0  0
   12.4314   38.3980   34.8694 H   0  0  0  0  0  0  0  0  0  0  0  0
   17.2665   34.4140   33.1691 H   0  0  0  0  0  0  0  0  0  0  0  0
   16.7633   35.0599   37.7895 H   0  0  0  0  0  0  0  0  0  0  0  0
   15.3757   36.1868   37.9789 H   0  0  0  0  0  0  0  0  0  0  0  0
  1  2  2  0
  1  3  1  0
  3  4  1  0
  4  5  1  0
  6  1  1  0
  7  6  1  0
  6  8  1  0
  8  9  1  0
  9 10  1  0
 10 11  1  0
 11 12  1  0
 12 13  1  0
 13 14  1  0
 13 15  2  0
 14 16  1  0
 16 17  1  0
 17 18  2  0
 19 17  1  0
 18 20  1  0
 21 19  2  0
 19 22  1  0
 20 23  2  0
 23 21  1  0
 22 24  1  0
 22 25  2  0
  4 26  2  0
  4 27  1  0
 28 27  1  0
 28 29  1  0
 29 30  1  0
 29 31  1  0
 30 32  1  0
 31 33  1  0
 31 34  1  0
 34 32  1  0
 32 35  1  0
 34 36  1  0
 37 35  1  0
 38 35  1  0
 39 37  2  0
 37 40  1  0
 41 38  2  0
 42 39  1  0
 40 43  2  0
 40 41  1  0
 44 42  2  0
 44 43  1  0
 43 45  1  0
  6 46  1  6
  7 47  1  0
  7 48  1  0
  8 49  1  0
  8 50  1  0
  9 51  1  0
  9 52  1  0
 10 53  1  0
 10 54  1  0
 11 55  1  0
 11 56  1  0
 12 57  1  0
 16 58  1  0
 16 59  1  0
 18 60  1  0
 20 61  1  0
 21 62  1  0
 23 63  1  0
 28 64  1  0
 28 65  1  0
 29 66  1  0
 31 67  1  0
 32 68  1  0
 33 69  1  0
 34 70  1  0
 36 71  1  0
 38 72  1  0
 42 73  1  0
 45 74  1  0
 45 75  1  0
M  CHG  3   5  -1  22   1  24  -1
M  END
>  <EmbedRMS>  (105) 
0.0733968573411

$$$$

     RDKit          3D

 75 78  0  0  0  0  0  0  0  0999 V2000
    9.4333   42.9365   34.3462 C   0  0  0  0  0  0  0  0  0  0  0  0
   10.4907   43.0330   35.0319 O   0  0  0  0  0  0  0  0  0  0  0  0
    8.8563   41.7104   34.0296 O   0  0  0  0  0  0  0  0  0  0  0  0
    9.4945   40.2142   34.4680 P   0  0  0  0  0  0  0  0  0  0  0  0
    9.7308   40.1726   36.1291 O   0  0  0  0  0  0  0  0  0  0  0  0
    8.7506   44.1348   33.7741 C   0  0  1  0  0  0  0  0  0  0  0  0
    9.2963   45.3821   34.3133 N   0  0  0  0  0  0  0  0  0  0  0  0
    8.8893   44.0528   32.2358 C   0  0  0  0  0  0  0  0  0  0  0  0
    8.2028   45.1824   31.4615 C   0  0  0  0  0  0  0  0  0  0  0  0
    6.6653   45.1046   31.4855 C   0  0  0  0  0  0  0  0  0  0  0  0
    6.0269   46.3225   30.8105 C   0  0  0  0  0  0  0  0  0  0  0  0
    6.5061   47.5640   31.4180 N   0  0  0  0  0  0  0  0  0  0  0  0
    7.2437   48.5392   30.6836 C   0  0  0  0  0  0  0  0  0  0  0  0
    7.5944   49.7397   31.3067 O   0  0  0  0  0  0  0  0  0  0  0  0
    7.5934   48.3117   29.4937 O   0  0  0  0  0  0  0  0  0  0  0  0
    8.3465   50.7573   30.6513 C   0  0  0  0  0  0  0  0  0  0  0  0
    8.5192   51.9365   31.5781 C   0  0  0  0  0  0  0  0  0  0  0  0
    7.3717   52.4732   32.1903 C   0  0  0  0  0  0  0  0  0  0  0  0
    9.7885   52.4987   31.8784 C   0  0  0  0  0  0  0  0  0  0  0  0
    7.4771   53.5116   33.1169 C   0  0  0  0  0  0  0  0  0  0  0  0
    9.8762   53.5293   32.8298 C   0  0  0  0  0  0  0  0  0  0  0  0
   10.9868   52.0657   31.2169 N   0  0  0  0  0  0  0  0  0  0  0  0
    8.7281   54.0314   33.4440 C   0  0  0  0  0  0  0  0  0  0  0  0
   12.1670   51.9952   31.9205 O   0  0  0  0  0  0  0  0  0  0  0  0
   11.0241   52.0021   29.9708 O   0  0  0  0  0  0  0  0  0  0  0  0
    8.5372   39.1386   34.0125 O   0  0  0  0  0  0  0  0  0  0  0  0
   10.9804   40.0880   33.6837 O   0  0  0  0  0  0  0  0  0  0  0  0
   10.8025   40.0899   32.2839 C   0  0  0  0  0  0  0  0  0  0  0  0
   11.5888   38.9174   31.7007 C   0  0  0  0  0  0  0  0  0  0  0  0
   12.9219   38.9373   32.1692 O   0  0  0  0  0  0  0  0  0  0  0  0
   11.0028   37.5682   32.0980 C   0  0  0  0  0  0  0  0  0  0  0  0
   13.3496   37.5885   32.2601 C   0  0  0  0  0  0  0  0  0  0  0  0
    9.9343   37.1822   31.2756 O   0  0  0  0  0  0  0  0  0  0  0  0
   12.1891   36.6677   31.9049 C   0  0  0  0  0  0  0  0  0  0  0  0
   13.8025   37.2965   33.6186 N   0  0  0  0  0  0  0  0  0  0  0  0
   12.2991   36.2867   30.5567 O   0  0  0  0  0  0  0  0  0  0  0  0
   14.7929   36.4725   33.9858 C   0  0  0  0  0  0  0  0  0  0  0  0
   13.2749   37.7294   34.7935 C   0  0  0  0  0  0  0  0  0  0  0  0
   15.6240   35.7580   33.1858 N   0  0  0  0  0  0  0  0  0  0  0  0
   14.8727   36.4411   35.3327 C   0  0  0  0  0  0  0  0  0  0  0  0
   13.9208   37.2263   35.8803 N   0  0  0  0  0  0  0  0  0  0  0  0
   16.5871   34.9921   33.7801 C   0  0  0  0  0  0  0  0  0  0  0  0
   15.8576   35.6718   35.9441 C   0  0  0  0  0  0  0  0  0  0  0  0
   16.7024   34.9584   35.1438 N   0  0  0  0  0  0  0  0  0  0  0  0
   16.0099   35.6384   37.3562 N   0  0  0  0  0  0  0  0  0  0  0  0
    7.6771   44.0707   34.0504 H   0  0  0  0  0  0  0  0  0  0  0  0
    9.1827   45.3821   35.3535 H   0  0  0  0  0  0  0  0  0  0  0  0
   10.3192   45.4407   34.0999 H   0  0  0  0  0  0  0  0  0  0  0  0
    9.9711   44.0682   31.9739 H   0  0  0  0  0  0  0  0  0  0  0  0
    8.4817   43.0851   31.8668 H   0  0  0  0  0  0  0  0  0  0  0  0
    8.5384   45.1364   30.4022 H   0  0  0  0  0  0  0  0  0  0  0  0
    8.5552   46.1511   31.8742 H   0  0  0  0  0  0  0  0  0  0  0  0
    6.3020   45.0643   32.5334 H   0  0  0  0  0  0  0  0  0  0  0  0
    6.3297   44.1799   30.9678 H   0  0  0  0  0  0  0  0  0  0  0  0
    6.2465   46.2897   29.7217 H   0  0  0  0  0  0  0  0  0  0  0  0
    4.9235   46.2672   30.9264 H   0  0  0  0  0  0  0  0  0  0  0  0
    6.2819   47.7531   32.4208 H   0  0  0  0  0  0  0  0  0  0  0  0
    7.8012   51.0940   29.7431 H   0  0  0  0  0  0  0  0  0  0  0  0
    9.3170   50.3233   30.3398 H   0  0  0  0  0  0  0  0  0  0  0  0
    6.3915   52.0721   31.9622 H   0  0  0  0  0  0  0  0  0  0  0  0
    6.5870   53.9083   33.5881 H   0  0  0  0  0  0  0  0  0  0  0  0
   10.8366   53.9648   33.0758 H   0  0  0  0  0  0  0  0  0  0  0  0
    8.8079   54.8335   34.1664 H   0  0  0  0  0  0  0  0  0  0  0  0
    9.7476   40.0331   31.9256 H   0  0  0  0  0  0  0  0  0  0  0  0
   11.2258   41.0357   31.8830 H   0  0  0  0  0  0  0  0  0  0  0  0
   11.5974   39.0148   30.5904 H   0  0  0  0  0  0  0  0  0  0  0  0
   10.7024   37.5455   33.1719 H   0  0  0  0  0  0  0  0  0  0  0  0
   14.1957   37.4366   31.5528 H   0  0  0  0  0  0  0  0  0  0  0  0
    9.1340   37.6658   31.6069 H   0  0  0  0  0  0  0  0  0  0  0  0
   12.1381   35.7717   32.5697 H   0  0  0  0  0  0  0  0  0  0  0  0
   11.7707   35.4530   30.4496 H   0  0  0  0  0  0  0  0  0  0  0  0
   12.4314   38.3980   34.8694 H   0  0  0  0  0  0  0  0  0  0  0  0
   17.2665   34.4140   33.1691 H   0  0  0  0  0  0  0  0  0  0  0  0
   15.3757   36.1868   37.9789 H   0  0  0  0  0  0  0  0  0  0  0  0
   16.7633   35.0598   37.7895 H   0  0  0  0  0  0  0  0  0  0  0  0
  1  2  2  0
  1  3  1  0
  3  4  1  0
  4  5  1  0
  6  1  1  0
  7  6  1  0
  6  8  1  0
  8  9  1  0
  9 10  1  0
 10 11  1  0
 11 12  1  0
 12 13  1  0
 13 14  1  0
 13 15  2  0
 14 16  1  0
 16 17  1  0
 17 18  2  0
 19 17  1  0
 18 20  1  0
 21 19  2  0
 19 22  1  0
 20 23  2  0
 23 21  1  0
 22 24  1  0
 22 25  2  0
  4 26  2  0
  4 27  1  0
 28 27  1  0
 28 29  1  0
 29 30  1  0
 29 31  1  0
 30 32  1  0
 31 33  1  0
 31 34  1  0
 34 32  1  0
 32 35  1  0
 34 36  1  0
 37 35  1  0
 38 35  1  0
 39 37  2  0
 37 40  1  0
 41 38  2  0
 42 39  1  0
 40 43  2  0
 40 41  1  0
 44 42  2  0
 44 43  1  0
 43 45  1  0
  6 46  1  6
  7 47  1  0
  7 48  1  0
  8 49  1  0
  8 50  1  0
  9 51  1  0
  9 52  1  0
 10 53  1  0
 10 54  1  0
 11 55  1  0
 11 56  1  0
 12 57  1  0
 16 58  1  0
 16 59  1  0
 18 60  1  0
 20 61  1  0
 21 62  1  0
 23 63  1  0
 28 64  1  0
 28 65  1  0
 29 66  1  0
 31 67  1  0
 32 68  1  0
 33 69  1  0
 34 70  1  0
 36 71  1  0
 38 72  1  0
 42 73  1  0
 45 74  1  0
 45 75  1  0
M  CHG  3   5  -1  22   1  24  -1
M  END
>  <EmbedRMS>  (106) 
0.0742193770687

$$$$

     RDKit          3D

 75 78  0  0  0  0  0  0  0  0999 V2000
    9.4331   42.9365   34.3461 C   0  0  0  0  0  0  0  0  0  0  0  0
   10.4905   43.0330   35.0318 O   0  0  0  0  0  0  0  0  0  0  0  0
    8.8562   41.7103   34.0295 O   0  0  0  0  0  0  0  0  0  0  0  0
    9.4942   40.2139   34.4678 P   0  0  0  0  0  0  0  0  0  0  0  0
    9.7311   40.1724   36.1289 O   0  0  0  0  0  0  0  0  0  0  0  0
    8.7504   44.1348   33.7739 C   0  0  1  0  0  0  0  0  0  0  0  0
    9.2960   45.3821   34.3131 N   0  0  0  0  0  0  0  0  0  0  0  0
    8.8892   44.0526   32.2356 C   0  0  0  0  0  0  0  0  0  0  0  0
    8.2032   45.1823   31.4611 C   0  0  0  0  0  0  0  0  0  0  0  0
    6.6657   45.1033   31.4817 C   0  0  0  0  0  0  0  0  0  0  0  0
    6.0276   46.3245   30.8114 C   0  0  0  0  0  0  0  0  0  0  0  0
    6.5104   47.5625   31.4230 N   0  0  0  0  0  0  0  0  0  0  0  0
    7.2375   48.5473   30.6790 C   0  0  0  0  0  0  0  0  0  0  0  0
    7.5840   49.7851   31.2377 O   0  0  0  0  0  0  0  0  0  0  0  0
    7.5951   48.3040   29.4970 O   0  0  0  0  0  0  0  0  0  0  0  0
    7.1789   50.2415   32.5280 C   0  0  0  0  0  0  0  0  0  0  0  0
    5.6902   50.5051   32.5706 C   0  0  0  0  0  0  0  0  0  0  0  0
    4.9261   49.8896   33.5794 C   0  0  0  0  0  0  0  0  0  0  0  0
    5.0376   51.3228   31.6088 C   0  0  0  0  0  0  0  0  0  0  0  0
    3.5413   50.0522   33.6246 C   0  0  0  0  0  0  0  0  0  0  0  0
    3.6382   51.4605   31.6643 C   0  0  0  0  0  0  0  0  0  0  0  0
    5.7658   52.0040   30.5710 N   0  0  0  0  0  0  0  0  0  0  0  0
    2.8979   50.8312   32.6656 C   0  0  0  0  0  0  0  0  0  0  0  0
    6.9740   52.6037   30.8392 O   0  0  0  0  0  0  0  0  0  0  0  0
    5.2333   52.2002   29.4589 O   0  0  0  0  0  0  0  0  0  0  0  0
    8.5370   39.1382   34.0123 O   0  0  0  0  0  0  0  0  0  0  0  0
   10.9795   40.0869   33.6827 O   0  0  0  0  0  0  0  0  0  0  0  0
   10.7996   40.0898   32.2830 C   0  0  0  0  0  0  0  0  0  0  0  0
   11.5968   38.9274   31.6962 C   0  0  0  0  0  0  0  0  0  0  0  0
   12.9242   38.9425   32.1784 O   0  0  0  0  0  0  0  0  0  0  0  0
   11.0086   37.5713   32.0780 C   0  0  0  0  0  0  0  0  0  0  0  0
   13.3528   37.5929   32.2623 C   0  0  0  0  0  0  0  0  0  0  0  0
    9.9098   37.1770   31.2925 O   0  0  0  0  0  0  0  0  0  0  0  0
   12.1943   36.6683   31.8995 C   0  0  0  0  0  0  0  0  0  0  0  0
   13.8019   37.2950   33.6199 N   0  0  0  0  0  0  0  0  0  0  0  0
   12.3027   36.2773   30.5558 O   0  0  0  0  0  0  0  0  0  0  0  0
   14.7926   36.4715   33.9864 C   0  0  0  0  0  0  0  0  0  0  0  0
   13.2749   37.7286   34.7946 C   0  0  0  0  0  0  0  0  0  0  0  0
   15.6239   35.7577   33.1860 N   0  0  0  0  0  0  0  0  0  0  0  0
   14.8727   36.4403   35.3332 C   0  0  0  0  0  0  0  0  0  0  0  0
   13.9210   37.2257   35.8811 N   0  0  0  0  0  0  0  0  0  0  0  0
   16.5873   34.9921   33.7802 C   0  0  0  0  0  0  0  0  0  0  0  0
   15.8579   35.6714   35.9444 C   0  0  0  0  0  0  0  0  0  0  0  0
   16.7028   34.9583   35.1439 N   0  0  0  0  0  0  0  0  0  0  0  0
   16.0104   35.6381   37.3564 N   0  0  0  0  0  0  0  0  0  0  0  0
    7.6767   44.0708   34.0500 H   0  0  0  0  0  0  0  0  0  0  0  0
    9.1820   45.3824   35.3532 H   0  0  0  0  0  0  0  0  0  0  0  0
   10.3189   45.4407   34.1001 H   0  0  0  0  0  0  0  0  0  0  0  0
    8.4814   43.0850   31.8667 H   0  0  0  0  0  0  0  0  0  0  0  0
    9.9711   44.0677   31.9740 H   0  0  0  0  0  0  0  0  0  0  0  0
    8.5545   46.1507   31.8754 H   0  0  0  0  0  0  0  0  0  0  0  0
    8.5408   45.1377   30.4024 H   0  0  0  0  0  0  0  0  0  0  0  0
    6.3005   45.0575   32.5287 H   0  0  0  0  0  0  0  0  0  0  0  0
    6.3316   44.1809   30.9590 H   0  0  0  0  0  0  0  0  0  0  0  0
    6.2423   46.2948   29.7217 H   0  0  0  0  0  0  0  0  0  0  0  0
    4.9245   46.2705   30.9320 H   0  0  0  0  0  0  0  0  0  0  0  0
    6.3115   47.7073   32.4362 H   0  0  0  0  0  0  0  0  0  0  0  0
    7.7169   51.1828   32.7609 H   0  0  0  0  0  0  0  0  0  0  0  0
    7.4975   49.5076   33.2998 H   0  0  0  0  0  0  0  0  0  0  0  0
    5.4015   49.2691   34.3291 H   0  0  0  0  0  0  0  0  0  0  0  0
    2.9650   49.5676   34.4023 H   0  0  0  0  0  0  0  0  0  0  0  0
    3.1194   52.0731   30.9378 H   0  0  0  0  0  0  0  0  0  0  0  0
    1.8229   50.9525   32.7006 H   0  0  0  0  0  0  0  0  0  0  0  0
   11.2096   41.0418   31.8829 H   0  0  0  0  0  0  0  0  0  0  0  0
    9.7449   40.0145   31.9263 H   0  0  0  0  0  0  0  0  0  0  0  0
   11.6265   39.0456   30.5888 H   0  0  0  0  0  0  0  0  0  0  0  0
   10.7064   37.5574   33.1484 H   0  0  0  0  0  0  0  0  0  0  0  0
   14.2021   37.4484   31.5574 H   0  0  0  0  0  0  0  0  0  0  0  0
   10.0952   37.3990   30.3433 H   0  0  0  0  0  0  0  0  0  0  0  0
   12.1163   35.7745   32.5633 H   0  0  0  0  0  0  0  0  0  0  0  0
   12.9615   35.5349   30.5312 H   0  0  0  0  0  0  0  0  0  0  0  0
   12.4321   38.3982   34.8705 H   0  0  0  0  0  0  0  0  0  0  0  0
   17.2669   34.4143   33.1690 H   0  0  0  0  0  0  0  0  0  0  0  0
   15.3761   36.1862   37.9792 H   0  0  0  0  0  0  0  0  0  0  0  0
   16.7641   35.0598   37.7896 H   0  0  0  0  0  0  0  0  0  0  0  0
  1  2  2  0
  1  3  1  0
  3  4  1  0
  4  5  1  0
  6  1  1  0
  7  6  1  0
  6  8  1  0
  8  9  1  0
  9 10  1  0
 10 11  1  0
 11 12  1  0
 12 13  1  0
 13 14  1  0
 13 15  2  0
 14 16  1  0
 16 17  1  0
 17 18  2  0
 19 17  1  0
 18 20  1  0
 21 19  2  0
 19 22  1  0
 20 23  2  0
 23 21  1  0
 22 24  1  0
 22 25  2  0
  4 26  2  0
  4 27  1  0
 28 27  1  0
 28 29  1  0
 29 30  1  0
 29 31  1  0
 30 32  1  0
 31 33  1  0
 31 34  1  0
 34 32  1  0
 32 35  1  0
 34 36  1  0
 37 35  1  0
 38 35  1  0
 39 37  2  0
 37 40  1  0
 41 38  2  0
 42 39  1  0
 40 43  2  0
 40 41  1  0
 44 42  2  0
 44 43  1  0
 43 45  1  0
  6 46  1  6
  7 47  1  0
  7 48  1  0
  8 49  1  0
  8 50  1  0
  9 51  1  0
  9 52  1  0
 10 53  1  0
 10 54  1  0
 11 55  1  0
 11 56  1  0
 12 57  1  0
 16 58  1  0
 16 59  1  0
 18 60  1  0
 20 61  1  0
 21 62  1  0
 23 63  1  0
 28 64  1  0
 28 65  1  0
 29 66  1  0
 31 67  1  0
 32 68  1  0
 33 69  1  0
 34 70  1  0
 36 71  1  0
 38 72  1  0
 42 73  1  0
 45 74  1  0
 45 75  1  0
M  CHG  3   5  -1  22   1  24  -1
M  END
>  <EmbedRMS>  (107) 
0.0743566415895

$$$$

     RDKit          3D

 75 78  0  0  0  0  0  0  0  0999 V2000
    9.4335   42.9375   34.3451 C   0  0  0  0  0  0  0  0  0  0  0  0
   10.4908   43.0336   35.0311 O   0  0  0  0  0  0  0  0  0  0  0  0
    8.8560   41.7113   34.0291 O   0  0  0  0  0  0  0  0  0  0  0  0
    9.4942   40.2148   34.4674 P   0  0  0  0  0  0  0  0  0  0  0  0
    9.7315   40.1729   36.1285 O   0  0  0  0  0  0  0  0  0  0  0  0
    8.7513   44.1366   33.7733 C   0  0  1  0  0  0  0  0  0  0  0  0
    9.2971   45.3835   34.3132 N   0  0  0  0  0  0  0  0  0  0  0  0
    8.8901   44.0569   32.2349 C   0  0  0  0  0  0  0  0  0  0  0  0
    8.2019   45.1876   31.4625 C   0  0  0  0  0  0  0  0  0  0  0  0
    6.6641   45.1069   31.4850 C   0  0  0  0  0  0  0  0  0  0  0  0
    6.0208   46.3211   30.8055 C   0  0  0  0  0  0  0  0  0  0  0  0
    6.4884   47.5667   31.4130 N   0  0  0  0  0  0  0  0  0  0  0  0
    7.2742   48.5174   30.6982 C   0  0  0  0  0  0  0  0  0  0  0  0
    7.7682   49.6363   31.3760 O   0  0  0  0  0  0  0  0  0  0  0  0
    7.5864   48.3123   29.4937 O   0  0  0  0  0  0  0  0  0  0  0  0
    8.8560   50.4182   30.8862 C   0  0  0  0  0  0  0  0  0  0  0  0
   10.1292   49.5990   30.8870 C   0  0  0  0  0  0  0  0  0  0  0  0
   10.4515   48.8693   32.0467 C   0  0  0  0  0  0  0  0  0  0  0  0
   10.9631   49.4843   29.7452 C   0  0  0  0  0  0  0  0  0  0  0  0
   11.5451   48.0028   32.0631 C   0  0  0  0  0  0  0  0  0  0  0  0
   12.0520   48.5950   29.7758 C   0  0  0  0  0  0  0  0  0  0  0  0
   10.7405   50.2753   28.5676 N   0  0  0  0  0  0  0  0  0  0  0  0
   12.3379   47.8581   30.9262 C   0  0  0  0  0  0  0  0  0  0  0  0
   10.5499   51.6334   28.6784 O   0  0  0  0  0  0  0  0  0  0  0  0
   10.9466   49.7856   27.4380 O   0  0  0  0  0  0  0  0  0  0  0  0
    8.5371   39.1388   34.0121 O   0  0  0  0  0  0  0  0  0  0  0  0
   10.9794   40.0890   33.6815 O   0  0  0  0  0  0  0  0  0  0  0  0
   10.7982   40.0849   32.2818 C   0  0  0  0  0  0  0  0  0  0  0  0
   11.5886   38.9142   31.7008 C   0  0  0  0  0  0  0  0  0  0  0  0
   12.9214   38.9368   32.1698 O   0  0  0  0  0  0  0  0  0  0  0  0
   11.0047   37.5661   32.0990 C   0  0  0  0  0  0  0  0  0  0  0  0
   13.3511   37.5885   32.2601 C   0  0  0  0  0  0  0  0  0  0  0  0
    9.9296   37.1961   31.2780 O   0  0  0  0  0  0  0  0  0  0  0  0
   12.1923   36.6659   31.9047 C   0  0  0  0  0  0  0  0  0  0  0  0
   13.8033   37.2967   33.6187 N   0  0  0  0  0  0  0  0  0  0  0  0
   12.3007   36.2865   30.5561 O   0  0  0  0  0  0  0  0  0  0  0  0
   14.7933   36.4724   33.9860 C   0  0  0  0  0  0  0  0  0  0  0  0
   13.2753   37.7296   34.7935 C   0  0  0  0  0  0  0  0  0  0  0  0
   15.6243   35.7579   33.1860 N   0  0  0  0  0  0  0  0  0  0  0  0
   14.8728   36.4410   35.3328 C   0  0  0  0  0  0  0  0  0  0  0  0
   13.9209   37.2263   35.8804 N   0  0  0  0  0  0  0  0  0  0  0  0
   16.5873   34.9919   33.7803 C   0  0  0  0  0  0  0  0  0  0  0  0
   15.8577   35.6717   35.9443 C   0  0  0  0  0  0  0  0  0  0  0  0
   16.7025   34.9583   35.1440 N   0  0  0  0  0  0  0  0  0  0  0  0
   16.0100   35.6384   37.3563 N   0  0  0  0  0  0  0  0  0  0  0  0
    7.6776   44.0727   34.0492 H   0  0  0  0  0  0  0  0  0  0  0  0
   10.3196   45.4431   34.0981 H   0  0  0  0  0  0  0  0  0  0  0  0
    9.1852   45.3825   35.3535 H   0  0  0  0  0  0  0  0  0  0  0  0
    8.4841   43.0892   31.8643 H   0  0  0  0  0  0  0  0  0  0  0  0
    9.9720   44.0751   31.9733 H   0  0  0  0  0  0  0  0  0  0  0  0
    8.5391   45.1455   30.4035 H   0  0  0  0  0  0  0  0  0  0  0  0
    8.5516   46.1565   31.8777 H   0  0  0  0  0  0  0  0  0  0  0  0
    6.3315   44.1798   30.9698 H   0  0  0  0  0  0  0  0  0  0  0  0
    6.3003   45.0682   32.5328 H   0  0  0  0  0  0  0  0  0  0  0  0
    4.9172   46.2590   30.9157 H   0  0  0  0  0  0  0  0  0  0  0  0
    6.2457   46.2883   29.7178 H   0  0  0  0  0  0  0  0  0  0  0  0
    6.2691   47.7498   32.4180 H   0  0  0  0  0  0  0  0  0  0  0  0
    8.9950   51.2903   31.5586 H   0  0  0  0  0  0  0  0  0  0  0  0
    8.5910   50.8019   29.8807 H   0  0  0  0  0  0  0  0  0  0  0  0
    9.8340   48.9488   32.9332 H   0  0  0  0  0  0  0  0  0  0  0  0
   11.7718   47.4349   32.9561 H   0  0  0  0  0  0  0  0  0  0  0  0
   12.6957   48.4898   28.9115 H   0  0  0  0  0  0  0  0  0  0  0  0
   13.1831   47.1821   30.9395 H   0  0  0  0  0  0  0  0  0  0  0  0
    9.7428   40.0142   31.9264 H   0  0  0  0  0  0  0  0  0  0  0  0
   11.2132   41.0321   31.8756 H   0  0  0  0  0  0  0  0  0  0  0  0
   11.5980   39.0108   30.5904 H   0  0  0  0  0  0  0  0  0  0  0  0
   10.7008   37.5602   33.1721 H   0  0  0  0  0  0  0  0  0  0  0  0
   14.1977   37.4380   31.5532 H   0  0  0  0  0  0  0  0  0  0  0  0
    9.5180   36.3961   31.6978 H   0  0  0  0  0  0  0  0  0  0  0  0
   12.1418   35.7698   32.5692 H   0  0  0  0  0  0  0  0  0  0  0  0
   11.7730   35.4524   30.4489 H   0  0  0  0  0  0  0  0  0  0  0  0
   12.4321   38.3985   34.8692 H   0  0  0  0  0  0  0  0  0  0  0  0
   17.2667   34.4138   33.1694 H   0  0  0  0  0  0  0  0  0  0  0  0
   16.7634   35.0598   37.7897 H   0  0  0  0  0  0  0  0  0  0  0  0
   15.3757   36.1867   37.9790 H   0  0  0  0  0  0  0  0  0  0  0  0
  1  2  2  0
  1  3  1  0
  3  4  1  0
  4  5  1  0
  6  1  1  0
  7  6  1  0
  6  8  1  0
  8  9  1  0
  9 10  1  0
 10 11  1  0
 11 12  1  0
 12 13  1  0
 13 14  1  0
 13 15  2  0
 14 16  1  0
 16 17  1  0
 17 18  2  0
 19 17  1  0
 18 20  1  0
 21 19  2  0
 19 22  1  0
 20 23  2  0
 23 21  1  0
 22 24  1  0
 22 25  2  0
  4 26  2  0
  4 27  1  0
 28 27  1  0
 28 29  1  0
 29 30  1  0
 29 31  1  0
 30 32  1  0
 31 33  1  0
 31 34  1  0
 34 32  1  0
 32 35  1  0
 34 36  1  0
 37 35  1  0
 38 35  1  0
 39 37  2  0
 37 40  1  0
 41 38  2  0
 42 39  1  0
 40 43  2  0
 40 41  1  0
 44 42  2  0
 44 43  1  0
 43 45  1  0
  6 46  1  6
  7 47  1  0
  7 48  1  0
  8 49  1  0
  8 50  1  0
  9 51  1  0
  9 52  1  0
 10 53  1  0
 10 54  1  0
 11 55  1  0
 11 56  1  0
 12 57  1  0
 16 58  1  0
 16 59  1  0
 18 60  1  0
 20 61  1  0
 21 62  1  0
 23 63  1  0
 28 64  1  0
 28 65  1  0
 29 66  1  0
 31 67  1  0
 32 68  1  0
 33 69  1  0
 34 70  1  0
 36 71  1  0
 38 72  1  0
 42 73  1  0
 45 74  1  0
 45 75  1  0
M  CHG  3   5  -1  22   1  24  -1
M  END
>  <EmbedRMS>  (108) 
0.0756488019499

$$$$

     RDKit          3D

 75 78  0  0  0  0  0  0  0  0999 V2000
    9.4333   42.9365   34.3461 C   0  0  0  0  0  0  0  0  0  0  0  0
   10.4907   43.0330   35.0318 O   0  0  0  0  0  0  0  0  0  0  0  0
    8.8562   41.7104   34.0296 O   0  0  0  0  0  0  0  0  0  0  0  0
    9.4944   40.2141   34.4680 P   0  0  0  0  0  0  0  0  0  0  0  0
    9.7309   40.1726   36.1291 O   0  0  0  0  0  0  0  0  0  0  0  0
    8.7506   44.1348   33.7741 C   0  0  1  0  0  0  0  0  0  0  0  0
    9.2963   45.3820   34.3133 N   0  0  0  0  0  0  0  0  0  0  0  0
    8.8893   44.0527   32.2358 C   0  0  0  0  0  0  0  0  0  0  0  0
    8.2028   45.1822   31.4614 C   0  0  0  0  0  0  0  0  0  0  0  0
    6.6654   45.1046   31.4854 C   0  0  0  0  0  0  0  0  0  0  0  0
    6.0272   46.3228   30.8107 C   0  0  0  0  0  0  0  0  0  0  0  0
    6.5071   47.5639   31.4183 N   0  0  0  0  0  0  0  0  0  0  0  0
    7.2415   48.5404   30.6828 C   0  0  0  0  0  0  0  0  0  0  0  0
    7.5830   49.7467   31.3034 O   0  0  0  0  0  0  0  0  0  0  0  0
    7.5944   48.3108   29.4942 O   0  0  0  0  0  0  0  0  0  0  0  0
    8.2903   50.7943   30.6420 C   0  0  0  0  0  0  0  0  0  0  0  0
    7.4275   51.4395   29.5816 C   0  0  0  0  0  0  0  0  0  0  0  0
    7.9037   51.4759   28.2579 C   0  0  0  0  0  0  0  0  0  0  0  0
    6.1380   51.9633   29.8694 C   0  0  0  0  0  0  0  0  0  0  0  0
    7.1206   52.0076   27.2329 C   0  0  0  0  0  0  0  0  0  0  0  0
    5.3596   52.4809   28.8174 C   0  0  0  0  0  0  0  0  0  0  0  0
    5.5961   51.9610   31.2031 N   0  0  0  0  0  0  0  0  0  0  0  0
    5.8497   52.5055   27.5113 C   0  0  0  0  0  0  0  0  0  0  0  0
    6.3906   52.2578   32.2857 O   0  0  0  0  0  0  0  0  0  0  0  0
    4.3651   51.8467   31.3774 O   0  0  0  0  0  0  0  0  0  0  0  0
    8.5371   39.1386   34.0125 O   0  0  0  0  0  0  0  0  0  0  0  0
   10.9802   40.0879   33.6835 O   0  0  0  0  0  0  0  0  0  0  0  0
   10.8020   40.0894   32.2837 C   0  0  0  0  0  0  0  0  0  0  0  0
   11.5900   38.9178   31.7006 C   0  0  0  0  0  0  0  0  0  0  0  0
   12.9224   38.9390   32.1711 O   0  0  0  0  0  0  0  0  0  0  0  0
   11.0052   37.5676   32.0966 C   0  0  0  0  0  0  0  0  0  0  0  0
   13.3518   37.5909   32.2610 C   0  0  0  0  0  0  0  0  0  0  0  0
    9.9381   37.1795   31.2732 O   0  0  0  0  0  0  0  0  0  0  0  0
   12.1912   36.6689   31.9042 C   0  0  0  0  0  0  0  0  0  0  0  0
   13.8027   37.2968   33.6192 N   0  0  0  0  0  0  0  0  0  0  0  0
   12.2877   36.2853   30.5567 O   0  0  0  0  0  0  0  0  0  0  0  0
   14.7928   36.4724   33.9861 C   0  0  0  0  0  0  0  0  0  0  0  0
   13.2751   37.7297   34.7941 C   0  0  0  0  0  0  0  0  0  0  0  0
   15.6239   35.7581   33.1859 N   0  0  0  0  0  0  0  0  0  0  0  0
   14.8726   36.4408   35.3329 C   0  0  0  0  0  0  0  0  0  0  0  0
   13.9209   37.2262   35.8807 N   0  0  0  0  0  0  0  0  0  0  0  0
   16.5871   34.9921   33.7801 C   0  0  0  0  0  0  0  0  0  0  0  0
   15.8576   35.6716   35.9442 C   0  0  0  0  0  0  0  0  0  0  0  0
   16.7024   34.9584   35.1438 N   0  0  0  0  0  0  0  0  0  0  0  0
   16.0101   35.6383   37.3563 N   0  0  0  0  0  0  0  0  0  0  0  0
    7.6770   44.0706   34.0504 H   0  0  0  0  0  0  0  0  0  0  0  0
   10.3192   45.4406   34.1000 H   0  0  0  0  0  0  0  0  0  0  0  0
    9.1827   45.3820   35.3534 H   0  0  0  0  0  0  0  0  0  0  0  0
    8.4816   43.0850   31.8668 H   0  0  0  0  0  0  0  0  0  0  0  0
    9.9711   44.0680   31.9739 H   0  0  0  0  0  0  0  0  0  0  0  0
    8.5554   46.1509   31.8740 H   0  0  0  0  0  0  0  0  0  0  0  0
    8.5384   45.1361   30.4021 H   0  0  0  0  0  0  0  0  0  0  0  0
    6.3020   45.0641   32.5332 H   0  0  0  0  0  0  0  0  0  0  0  0
    6.3296   44.1801   30.9675 H   0  0  0  0  0  0  0  0  0  0  0  0
    4.9238   46.2679   30.9271 H   0  0  0  0  0  0  0  0  0  0  0  0
    6.2463   46.2901   29.7219 H   0  0  0  0  0  0  0  0  0  0  0  0
    6.2816   47.7539   32.4207 H   0  0  0  0  0  0  0  0  0  0  0  0
    8.5923   51.5587   31.3862 H   0  0  0  0  0  0  0  0  0  0  0  0
    9.2322   50.3858   30.2141 H   0  0  0  0  0  0  0  0  0  0  0  0
    8.8822   51.0814   28.0132 H   0  0  0  0  0  0  0  0  0  0  0  0
    7.4981   52.0272   26.2186 H   0  0  0  0  0  0  0  0  0  0  0  0
    4.3727   52.8813   29.0125 H   0  0  0  0  0  0  0  0  0  0  0  0
    5.2426   52.9135   26.7134 H   0  0  0  0  0  0  0  0  0  0  0  0
    9.7472   40.0309   31.9256 H   0  0  0  0  0  0  0  0  0  0  0  0
   11.2239   41.0357   31.8826 H   0  0  0  0  0  0  0  0  0  0  0  0
   11.5999   39.0159   30.5904 H   0  0  0  0  0  0  0  0  0  0  0  0
   10.7034   37.5449   33.1702 H   0  0  0  0  0  0  0  0  0  0  0  0
   14.1993   37.4424   31.5548 H   0  0  0  0  0  0  0  0  0  0  0  0
    9.1370   37.6634   31.6024 H   0  0  0  0  0  0  0  0  0  0  0  0
   12.1204   35.7712   32.5636 H   0  0  0  0  0  0  0  0  0  0  0  0
   12.9457   35.5426   30.5221 H   0  0  0  0  0  0  0  0  0  0  0  0
   12.4322   38.3989   34.8700 H   0  0  0  0  0  0  0  0  0  0  0  0
   17.2664   34.4142   33.1690 H   0  0  0  0  0  0  0  0  0  0  0  0
   15.3759   36.1865   37.9790 H   0  0  0  0  0  0  0  0  0  0  0  0
   16.7636   35.0598   37.7895 H   0  0  0  0  0  0  0  0  0  0  0  0
  1  2  2  0
  1  3  1  0
  3  4  1  0
  4  5  1  0
  6  1  1  0
  7  6  1  0
  6  8  1  0
  8  9  1  0
  9 10  1  0
 10 11  1  0
 11 12  1  0
 12 13  1  0
 13 14  1  0
 13 15  2  0
 14 16  1  0
 16 17  1  0
 17 18  2  0
 19 17  1  0
 18 20  1  0
 21 19  2  0
 19 22  1  0
 20 23  2  0
 23 21  1  0
 22 24  1  0
 22 25  2  0
  4 26  2  0
  4 27  1  0
 28 27  1  0
 28 29  1  0
 29 30  1  0
 29 31  1  0
 30 32  1  0
 31 33  1  0
 31 34  1  0
 34 32  1  0
 32 35  1  0
 34 36  1  0
 37 35  1  0
 38 35  1  0
 39 37  2  0
 37 40  1  0
 41 38  2  0
 42 39  1  0
 40 43  2  0
 40 41  1  0
 44 42  2  0
 44 43  1  0
 43 45  1  0
  6 46  1  6
  7 47  1  0
  7 48  1  0
  8 49  1  0
  8 50  1  0
  9 51  1  0
  9 52  1  0
 10 53  1  0
 10 54  1  0
 11 55  1  0
 11 56  1  0
 12 57  1  0
 16 58  1  0
 16 59  1  0
 18 60  1  0
 20 61  1  0
 21 62  1  0
 23 63  1  0
 28 64  1  0
 28 65  1  0
 29 66  1  0
 31 67  1  0
 32 68  1  0
 33 69  1  0
 34 70  1  0
 36 71  1  0
 38 72  1  0
 42 73  1  0
 45 74  1  0
 45 75  1  0
M  CHG  3   5  -1  22   1  24  -1
M  END
>  <EmbedRMS>  (109) 
0.0740325865744

$$$$

     RDKit          3D

 75 78  0  0  0  0  0  0  0  0999 V2000
    9.4333   42.9365   34.3462 C   0  0  0  0  0  0  0  0  0  0  0  0
   10.4907   43.0330   35.0319 O   0  0  0  0  0  0  0  0  0  0  0  0
    8.8563   41.7104   34.0296 O   0  0  0  0  0  0  0  0  0  0  0  0
    9.4945   40.2142   34.4680 P   0  0  0  0  0  0  0  0  0  0  0  0
    9.7309   40.1726   36.1291 O   0  0  0  0  0  0  0  0  0  0  0  0
    8.7506   44.1348   33.7741 C   0  0  1  0  0  0  0  0  0  0  0  0
    9.2963   45.3821   34.3133 N   0  0  0  0  0  0  0  0  0  0  0  0
    8.8893   44.0527   32.2358 C   0  0  0  0  0  0  0  0  0  0  0  0
    8.2028   45.1823   31.4615 C   0  0  0  0  0  0  0  0  0  0  0  0
    6.6653   45.1046   31.4855 C   0  0  0  0  0  0  0  0  0  0  0  0
    6.0270   46.3226   30.8105 C   0  0  0  0  0  0  0  0  0  0  0  0
    6.5064   47.5640   31.4180 N   0  0  0  0  0  0  0  0  0  0  0  0
    7.2433   48.5393   30.6834 C   0  0  0  0  0  0  0  0  0  0  0  0
    7.5912   49.7409   31.3056 O   0  0  0  0  0  0  0  0  0  0  0  0
    7.5935   48.3117   29.4937 O   0  0  0  0  0  0  0  0  0  0  0  0
    8.3329   50.7630   30.6466 C   0  0  0  0  0  0  0  0  0  0  0  0
    8.5087   51.9411   31.5727 C   0  0  0  0  0  0  0  0  0  0  0  0
    9.8148   52.3525   31.8985 C   0  0  0  0  0  0  0  0  0  0  0  0
    7.4023   52.6187   32.1571 C   0  0  0  0  0  0  0  0  0  0  0  0
   10.0300   53.4034   32.7905 C   0  0  0  0  0  0  0  0  0  0  0  0
    7.6444   53.6650   33.0655 C   0  0  0  0  0  0  0  0  0  0  0  0
    6.0392   52.2546   31.8683 N   0  0  0  0  0  0  0  0  0  0  0  0
    8.9474   54.0558   33.3756 C   0  0  0  0  0  0  0  0  0  0  0  0
    5.0595   52.4589   32.8128 O   0  0  0  0  0  0  0  0  0  0  0  0
    5.6987   51.9056   30.7197 O   0  0  0  0  0  0  0  0  0  0  0  0
    8.5372   39.1386   34.0125 O   0  0  0  0  0  0  0  0  0  0  0  0
   10.9804   40.0880   33.6837 O   0  0  0  0  0  0  0  0  0  0  0  0
   10.8025   40.0899   32.2839 C   0  0  0  0  0  0  0  0  0  0  0  0
   11.5888   38.9174   31.7007 C   0  0  0  0  0  0  0  0  0  0  0  0
   12.9219   38.9373   32.1692 O   0  0  0  0  0  0  0  0  0  0  0  0
   11.0028   37.5682   32.0980 C   0  0  0  0  0  0  0  0  0  0  0  0
   13.3496   37.5885   32.2601 C   0  0  0  0  0  0  0  0  0  0  0  0
    9.9343   37.1822   31.2756 O   0  0  0  0  0  0  0  0  0  0  0  0
   12.1891   36.6677   31.9049 C   0  0  0  0  0  0  0  0  0  0  0  0
   13.8025   37.2965   33.6186 N   0  0  0  0  0  0  0  0  0  0  0  0
   12.2991   36.2867   30.5567 O   0  0  0  0  0  0  0  0  0  0  0  0
   14.7929   36.4725   33.9858 C   0  0  0  0  0  0  0  0  0  0  0  0
   13.2749   37.7294   34.7935 C   0  0  0  0  0  0  0  0  0  0  0  0
   15.6240   35.7580   33.1858 N   0  0  0  0  0  0  0  0  0  0  0  0
   14.8727   36.4411   35.3327 C   0  0  0  0  0  0  0  0  0  0  0  0
   13.9208   37.2263   35.8803 N   0  0  0  0  0  0  0  0  0  0  0  0
   16.5871   34.9921   33.7801 C   0  0  0  0  0  0  0  0  0  0  0  0
   15.8576   35.6718   35.9441 C   0  0  0  0  0  0  0  0  0  0  0  0
   16.7024   34.9584   35.1438 N   0  0  0  0  0  0  0  0  0  0  0  0
   16.0099   35.6384   37.3562 N   0  0  0  0  0  0  0  0  0  0  0  0
    7.6770   44.0707   34.0504 H   0  0  0  0  0  0  0  0  0  0  0  0
   10.3192   45.4407   34.1000 H   0  0  0  0  0  0  0  0  0  0  0  0
    9.1827   45.3821   35.3535 H   0  0  0  0  0  0  0  0  0  0  0  0
    8.4817   43.0851   31.8668 H   0  0  0  0  0  0  0  0  0  0  0  0
    9.9711   44.0682   31.9739 H   0  0  0  0  0  0  0  0  0  0  0  0
    8.5384   45.1363   30.4022 H   0  0  0  0  0  0  0  0  0  0  0  0
    8.5552   46.1510   31.8742 H   0  0  0  0  0  0  0  0  0  0  0  0
    6.3296   44.1800   30.9678 H   0  0  0  0  0  0  0  0  0  0  0  0
    6.3020   45.0643   32.5334 H   0  0  0  0  0  0  0  0  0  0  0  0
    4.9236   46.2674   30.9266 H   0  0  0  0  0  0  0  0  0  0  0  0
    6.2465   46.2898   29.7217 H   0  0  0  0  0  0  0  0  0  0  0  0
    6.2816   47.7534   32.4207 H   0  0  0  0  0  0  0  0  0  0  0  0
    9.3172   50.3485   30.3360 H   0  0  0  0  0  0  0  0  0  0  0  0
    7.8084   51.0868   29.7231 H   0  0  0  0  0  0  0  0  0  0  0  0
   10.6742   51.8534   31.4679 H   0  0  0  0  0  0  0  0  0  0  0  0
   11.0398   53.7084   33.0334 H   0  0  0  0  0  0  0  0  0  0  0  0
    6.8187   54.1927   33.5257 H   0  0  0  0  0  0  0  0  0  0  0  0
    9.1174   54.8681   34.0704 H   0  0  0  0  0  0  0  0  0  0  0  0
    9.7476   40.0331   31.9256 H   0  0  0  0  0  0  0  0  0  0  0  0
   11.2258   41.0357   31.8830 H   0  0  0  0  0  0  0  0  0  0  0  0
   11.5974   39.0148   30.5904 H   0  0  0  0  0  0  0  0  0  0  0  0
   10.7023   37.5455   33.1719 H   0  0  0  0  0  0  0  0  0  0  0  0
   14.1957   37.4366   31.5528 H   0  0  0  0  0  0  0  0  0  0  0  0
    9.1340   37.6658   31.6069 H   0  0  0  0  0  0  0  0  0  0  0  0
   12.1381   35.7717   32.5697 H   0  0  0  0  0  0  0  0  0  0  0  0
   11.7707   35.4530   30.4496 H   0  0  0  0  0  0  0  0  0  0  0  0
   12.4314   38.3980   34.8694 H   0  0  0  0  0  0  0  0  0  0  0  0
   17.2665   34.4140   33.1691 H   0  0  0  0  0  0  0  0  0  0  0  0
   15.3757   36.1867   37.9789 H   0  0  0  0  0  0  0  0  0  0  0  0
   16.7633   35.0598   37.7895 H   0  0  0  0  0  0  0  0  0  0  0  0
  1  2  2  0
  1  3  1  0
  3  4  1  0
  4  5  1  0
  6  1  1  0
  7  6  1  0
  6  8  1  0
  8  9  1  0
  9 10  1  0
 10 11  1  0
 11 12  1  0
 12 13  1  0
 13 14  1  0
 13 15  2  0
 14 16  1  0
 16 17  1  0
 17 18  2  0
 19 17  1  0
 18 20  1  0
 21 19  2  0
 19 22  1  0
 20 23  2  0
 23 21  1  0
 22 24  1  0
 22 25  2  0
  4 26  2  0
  4 27  1  0
 28 27  1  0
 28 29  1  0
 29 30  1  0
 29 31  1  0
 30 32  1  0
 31 33  1  0
 31 34  1  0
 34 32  1  0
 32 35  1  0
 34 36  1  0
 37 35  1  0
 38 35  1  0
 39 37  2  0
 37 40  1  0
 41 38  2  0
 42 39  1  0
 40 43  2  0
 40 41  1  0
 44 42  2  0
 44 43  1  0
 43 45  1  0
  6 46  1  6
  7 47  1  0
  7 48  1  0
  8 49  1  0
  8 50  1  0
  9 51  1  0
  9 52  1  0
 10 53  1  0
 10 54  1  0
 11 55  1  0
 11 56  1  0
 12 57  1  0
 16 58  1  0
 16 59  1  0
 18 60  1  0
 20 61  1  0
 21 62  1  0
 23 63  1  0
 28 64  1  0
 28 65  1  0
 29 66  1  0
 31 67  1  0
 32 68  1  0
 33 69  1  0
 34 70  1  0
 36 71  1  0
 38 72  1  0
 42 73  1  0
 45 74  1  0
 45 75  1  0
M  CHG  3   5  -1  22   1  24  -1
M  END
>  <EmbedRMS>  (110) 
0.0742072550063

$$$$

     RDKit          3D

 75 78  0  0  0  0  0  0  0  0999 V2000
    9.4310   42.9414   34.3440 C   0  0  0  0  0  0  0  0  0  0  0  0
   10.4885   43.0413   35.0294 O   0  0  0  0  0  0  0  0  0  0  0  0
    8.8557   41.7131   34.0298 O   0  0  0  0  0  0  0  0  0  0  0  0
    9.4933   40.2165   34.4707 P   0  0  0  0  0  0  0  0  0  0  0  0
    9.7290   40.1746   36.1317 O   0  0  0  0  0  0  0  0  0  0  0  0
    8.7482   44.1363   33.7722 C   0  0  1  0  0  0  0  0  0  0  0  0
    9.3036   45.3670   34.3388 N   0  0  0  0  0  0  0  0  0  0  0  0
    8.8891   44.0521   32.2310 C   0  0  0  0  0  0  0  0  0  0  0  0
    8.2017   45.1726   31.4438 C   0  0  0  0  0  0  0  0  0  0  0  0
    6.6644   45.1060   31.4863 C   0  0  0  0  0  0  0  0  0  0  0  0
    6.0277   46.3240   30.8100 C   0  0  0  0  0  0  0  0  0  0  0  0
    6.5061   47.5638   31.4218 N   0  0  0  0  0  0  0  0  0  0  0  0
    7.2504   48.5407   30.6840 C   0  0  0  0  0  0  0  0  0  0  0  0
    7.6421   49.7531   31.2636 O   0  0  0  0  0  0  0  0  0  0  0  0
    7.5877   48.3086   29.4938 O   0  0  0  0  0  0  0  0  0  0  0  0
    7.3540   50.1220   32.6090 C   0  0  0  0  0  0  0  0  0  0  0  0
    7.8970   51.5027   32.8839 C   0  0  0  0  0  0  0  0  0  0  0  0
    8.8439   51.6613   33.9134 C   0  0  0  0  0  0  0  0  0  0  0  0
    7.5153   52.6360   32.1125 C   0  0  0  0  0  0  0  0  0  0  0  0
    9.4131   52.9082   34.1732 C   0  0  0  0  0  0  0  0  0  0  0  0
    8.1145   53.8795   32.3829 C   0  0  0  0  0  0  0  0  0  0  0  0
    6.5511   52.5498   31.0462 N   0  0  0  0  0  0  0  0  0  0  0  0
    9.0521   54.0141   33.4073 C   0  0  0  0  0  0  0  0  0  0  0  0
    6.6282   53.4162   29.9798 O   0  0  0  0  0  0  0  0  0  0  0  0
    5.5500   51.8118   31.1453 O   0  0  0  0  0  0  0  0  0  0  0  0
    8.5369   39.1404   34.0143 O   0  0  0  0  0  0  0  0  0  0  0  0
   10.9795   40.0883   33.6889 O   0  0  0  0  0  0  0  0  0  0  0  0
   10.8017   40.0950   32.2900 C   0  0  0  0  0  0  0  0  0  0  0  0
   11.5885   38.9267   31.7042 C   0  0  0  0  0  0  0  0  0  0  0  0
   12.9237   38.9445   32.1722 O   0  0  0  0  0  0  0  0  0  0  0  0
   11.0029   37.5726   32.0908 C   0  0  0  0  0  0  0  0  0  0  0  0
   13.3555   37.5960   32.2595 C   0  0  0  0  0  0  0  0  0  0  0  0
    9.9379   37.1847   31.2657 O   0  0  0  0  0  0  0  0  0  0  0  0
   12.1931   36.6769   31.8952 C   0  0  0  0  0  0  0  0  0  0  0  0
   13.8028   37.2977   33.6186 N   0  0  0  0  0  0  0  0  0  0  0  0
   12.2918   36.2396   30.5587 O   0  0  0  0  0  0  0  0  0  0  0  0
   14.7926   36.4727   33.9858 C   0  0  0  0  0  0  0  0  0  0  0  0
   13.2750   37.7302   34.7935 C   0  0  0  0  0  0  0  0  0  0  0  0
   15.6240   35.7586   33.1857 N   0  0  0  0  0  0  0  0  0  0  0  0
   14.8721   36.4408   35.3326 C   0  0  0  0  0  0  0  0  0  0  0  0
   13.9204   37.2263   35.8802 N   0  0  0  0  0  0  0  0  0  0  0  0
   16.5870   34.9924   33.7800 C   0  0  0  0  0  0  0  0  0  0  0  0
   15.8572   35.6717   35.9441 C   0  0  0  0  0  0  0  0  0  0  0  0
   16.7022   34.9585   35.1437 N   0  0  0  0  0  0  0  0  0  0  0  0
   16.0097   35.6384   37.3561 N   0  0  0  0  0  0  0  0  0  0  0  0
    7.6761   44.0639   34.0546 H   0  0  0  0  0  0  0  0  0  0  0  0
    8.6463   46.1563   34.1436 H   0  0  0  0  0  0  0  0  0  0  0  0
   10.2147   45.5888   33.8745 H   0  0  0  0  0  0  0  0  0  0  0  0
    9.9707   44.0643   31.9682 H   0  0  0  0  0  0  0  0  0  0  0  0
    8.4828   43.0820   31.8668 H   0  0  0  0  0  0  0  0  0  0  0  0
    8.5702   46.1491   31.8191 H   0  0  0  0  0  0  0  0  0  0  0  0
    8.5218   45.0976   30.3814 H   0  0  0  0  0  0  0  0  0  0  0  0
    6.3125   45.0758   32.5383 H   0  0  0  0  0  0  0  0  0  0  0  0
    6.3164   44.1800   30.9791 H   0  0  0  0  0  0  0  0  0  0  0  0
    6.2485   46.2917   29.7215 H   0  0  0  0  0  0  0  0  0  0  0  0
    4.9241   46.2686   30.9243 H   0  0  0  0  0  0  0  0  0  0  0  0
    6.2765   47.7250   32.4270 H   0  0  0  0  0  0  0  0  0  0  0  0
    6.2585   50.1115   32.7885 H   0  0  0  0  0  0  0  0  0  0  0  0
    7.8116   49.3735   33.2927 H   0  0  0  0  0  0  0  0  0  0  0  0
    9.1519   50.8151   34.5153 H   0  0  0  0  0  0  0  0  0  0  0  0
   10.1412   53.0155   34.9670 H   0  0  0  0  0  0  0  0  0  0  0  0
    7.8428   54.7551   31.8069 H   0  0  0  0  0  0  0  0  0  0  0  0
    9.4984   54.9795   33.6084 H   0  0  0  0  0  0  0  0  0  0  0  0
   11.2240   41.0428   31.8929 H   0  0  0  0  0  0  0  0  0  0  0  0
    9.7472   40.0378   31.9304 H   0  0  0  0  0  0  0  0  0  0  0  0
   11.5927   39.0434   30.5966 H   0  0  0  0  0  0  0  0  0  0  0  0
   10.7003   37.5444   33.1641 H   0  0  0  0  0  0  0  0  0  0  0  0
   14.2051   37.4477   31.5560 H   0  0  0  0  0  0  0  0  0  0  0  0
    9.1373   37.6722   31.5906 H   0  0  0  0  0  0  0  0  0  0  0  0
   12.1305   35.7856   32.5586 H   0  0  0  0  0  0  0  0  0  0  0  0
   12.4606   37.0186   29.9674 H   0  0  0  0  0  0  0  0  0  0  0  0
   12.4327   38.4001   34.8694 H   0  0  0  0  0  0  0  0  0  0  0  0
   17.2665   34.4146   33.1690 H   0  0  0  0  0  0  0  0  0  0  0  0
   15.3754   36.1866   37.9788 H   0  0  0  0  0  0  0  0  0  0  0  0
   16.7634   35.0601   37.7894 H   0  0  0  0  0  0  0  0  0  0  0  0
  1  2  2  0
  1  3  1  0
  3  4  1  0
  4  5  1  0
  6  1  1  0
  7  6  1  0
  6  8  1  0
  8  9  1  0
  9 10  1  0
 10 11  1  0
 11 12  1  0
 12 13  1  0
 13 14  1  0
 13 15  2  0
 14 16  1  0
 16 17  1  0
 17 18  2  0
 19 17  1  0
 18 20  1  0
 21 19  2  0
 19 22  1  0
 20 23  2  0
 23 21  1  0
 22 24  1  0
 22 25  2  0
  4 26  2  0
  4 27  1  0
 28 27  1  0
 28 29  1  0
 29 30  1  0
 29 31  1  0
 30 32  1  0
 31 33  1  0
 31 34  1  0
 34 32  1  0
 32 35  1  0
 34 36  1  0
 37 35  1  0
 38 35  1  0
 39 37  2  0
 37 40  1  0
 41 38  2  0
 42 39  1  0
 40 43  2  0
 40 41  1  0
 44 42  2  0
 44 43  1  0
 43 45  1  0
  6 46  1  6
  7 47  1  0
  7 48  1  0
  8 49  1  0
  8 50  1  0
  9 51  1  0
  9 52  1  0
 10 53  1  0
 10 54  1  0
 11 55  1  0
 11 56  1  0
 12 57  1  0
 16 58  1  0
 16 59  1  0
 18 60  1  0
 20 61  1  0
 21 62  1  0
 23 63  1  0
 28 64  1  0
 28 65  1  0
 29 66  1  0
 31 67  1  0
 32 68  1  0
 33 69  1  0
 34 70  1  0
 36 71  1  0
 38 72  1  0
 42 73  1  0
 45 74  1  0
 45 75  1  0
M  CHG  3   5  -1  22   1  24  -1
M  END
>  <EmbedRMS>  (111) 
0.074980752175

$$$$

     RDKit          3D

 75 78  0  0  0  0  0  0  0  0999 V2000
    9.4329   42.9366   34.3462 C   0  0  0  0  0  0  0  0  0  0  0  0
   10.4905   43.0331   35.0317 O   0  0  0  0  0  0  0  0  0  0  0  0
    8.8558   41.7104   34.0299 O   0  0  0  0  0  0  0  0  0  0  0  0
    9.4944   40.2142   34.4677 P   0  0  0  0  0  0  0  0  0  0  0  0
    9.7317   40.1723   36.1287 O   0  0  0  0  0  0  0  0  0  0  0  0
    8.7503   44.1349   33.7740 C   0  0  1  0  0  0  0  0  0  0  0  0
    9.2960   45.3822   34.3131 N   0  0  0  0  0  0  0  0  0  0  0  0
    8.8892   44.0526   32.2357 C   0  0  0  0  0  0  0  0  0  0  0  0
    8.2032   45.1823   31.4610 C   0  0  0  0  0  0  0  0  0  0  0  0
    6.6657   45.1033   31.4817 C   0  0  0  0  0  0  0  0  0  0  0  0
    6.0276   46.3245   30.8114 C   0  0  0  0  0  0  0  0  0  0  0  0
    6.5104   47.5625   31.4230 N   0  0  0  0  0  0  0  0  0  0  0  0
    7.2375   48.5473   30.6790 C   0  0  0  0  0  0  0  0  0  0  0  0
    7.5840   49.7852   31.2377 O   0  0  0  0  0  0  0  0  0  0  0  0
    7.5951   48.3041   29.4971 O   0  0  0  0  0  0  0  0  0  0  0  0
    7.1787   50.2415   32.5281 C   0  0  0  0  0  0  0  0  0  0  0  0
    5.6901   50.5051   32.5706 C   0  0  0  0  0  0  0  0  0  0  0  0
    4.9260   49.8895   33.5793 C   0  0  0  0  0  0  0  0  0  0  0  0
    5.0375   51.3228   31.6088 C   0  0  0  0  0  0  0  0  0  0  0  0
    3.5411   50.0522   33.6245 C   0  0  0  0  0  0  0  0  0  0  0  0
    3.6382   51.4606   31.6643 C   0  0  0  0  0  0  0  0  0  0  0  0
    5.7657   52.0040   30.5710 N   0  0  0  0  0  0  0  0  0  0  0  0
    2.8978   50.8312   32.6655 C   0  0  0  0  0  0  0  0  0  0  0  0
    6.9740   52.6038   30.8393 O   0  0  0  0  0  0  0  0  0  0  0  0
    5.2333   52.2003   29.4589 O   0  0  0  0  0  0  0  0  0  0  0  0
    8.5373   39.1383   34.0122 O   0  0  0  0  0  0  0  0  0  0  0  0
   10.9795   40.0890   33.6815 O   0  0  0  0  0  0  0  0  0  0  0  0
   10.7982   40.0848   32.2819 C   0  0  0  0  0  0  0  0  0  0  0  0
   11.5886   38.9142   31.7009 C   0  0  0  0  0  0  0  0  0  0  0  0
   12.9213   38.9367   32.1698 O   0  0  0  0  0  0  0  0  0  0  0  0
   11.0047   37.5660   32.0990 C   0  0  0  0  0  0  0  0  0  0  0  0
   13.3510   37.5885   32.2601 C   0  0  0  0  0  0  0  0  0  0  0  0
    9.9296   37.1961   31.2780 O   0  0  0  0  0  0  0  0  0  0  0  0
   12.1923   36.6658   31.9047 C   0  0  0  0  0  0  0  0  0  0  0  0
   13.8033   37.2966   33.6188 N   0  0  0  0  0  0  0  0  0  0  0  0
   12.3007   36.2864   30.5561 O   0  0  0  0  0  0  0  0  0  0  0  0
   14.7933   36.4724   33.9860 C   0  0  0  0  0  0  0  0  0  0  0  0
   13.2753   37.7296   34.7935 C   0  0  0  0  0  0  0  0  0  0  0  0
   15.6243   35.7579   33.1860 N   0  0  0  0  0  0  0  0  0  0  0  0
   14.8728   36.4410   35.3328 C   0  0  0  0  0  0  0  0  0  0  0  0
   13.9209   37.2263   35.8804 N   0  0  0  0  0  0  0  0  0  0  0  0
   16.5873   34.9919   33.7803 C   0  0  0  0  0  0  0  0  0  0  0  0
   15.8577   35.6717   35.9443 C   0  0  0  0  0  0  0  0  0  0  0  0
   16.7025   34.9583   35.1440 N   0  0  0  0  0  0  0  0  0  0  0  0
   16.0100   35.6384   37.3563 N   0  0  0  0  0  0  0  0  0  0  0  0
    7.6767   44.0709   34.0501 H   0  0  0  0  0  0  0  0  0  0  0  0
    9.1820   45.3825   35.3532 H   0  0  0  0  0  0  0  0  0  0  0  0
   10.3189   45.4407   34.1001 H   0  0  0  0  0  0  0  0  0  0  0  0
    9.9711   44.0677   31.9740 H   0  0  0  0  0  0  0  0  0  0  0  0
    8.4814   43.0850   31.8667 H   0  0  0  0  0  0  0  0  0  0  0  0
    8.5409   45.1376   30.4024 H   0  0  0  0  0  0  0  0  0  0  0  0
    8.5545   46.1507   31.8754 H   0  0  0  0  0  0  0  0  0  0  0  0
    6.3005   45.0575   32.5287 H   0  0  0  0  0  0  0  0  0  0  0  0
    6.3316   44.1810   30.9590 H   0  0  0  0  0  0  0  0  0  0  0  0
    6.2423   46.2948   29.7217 H   0  0  0  0  0  0  0  0  0  0  0  0
    4.9245   46.2705   30.9319 H   0  0  0  0  0  0  0  0  0  0  0  0
    6.3115   47.7073   32.4362 H   0  0  0  0  0  0  0  0  0  0  0  0
    7.7167   51.1829   32.7610 H   0  0  0  0  0  0  0  0  0  0  0  0
    7.4974   49.5076   33.2998 H   0  0  0  0  0  0  0  0  0  0  0  0
    5.4013   49.2690   34.3290 H   0  0  0  0  0  0  0  0  0  0  0  0
    2.9649   49.5676   34.4022 H   0  0  0  0  0  0  0  0  0  0  0  0
    3.1193   52.0732   30.9378 H   0  0  0  0  0  0  0  0  0  0  0  0
    1.8227   50.9526   32.7005 H   0  0  0  0  0  0  0  0  0  0  0  0
   11.2130   41.0320   31.8756 H   0  0  0  0  0  0  0  0  0  0  0  0
    9.7426   40.0140   31.9266 H   0  0  0  0  0  0  0  0  0  0  0  0
   11.5980   39.0107   30.5904 H   0  0  0  0  0  0  0  0  0  0  0  0
   10.7009   37.5601   33.1721 H   0  0  0  0  0  0  0  0  0  0  0  0
   14.1977   37.4380   31.5532 H   0  0  0  0  0  0  0  0  0  0  0  0
    9.5180   36.3960   31.6977 H   0  0  0  0  0  0  0  0  0  0  0  0
   12.1419   35.7697   32.5692 H   0  0  0  0  0  0  0  0  0  0  0  0
   11.7730   35.4523   30.4488 H   0  0  0  0  0  0  0  0  0  0  0  0
   12.4320   38.3984   34.8692 H   0  0  0  0  0  0  0  0  0  0  0  0
   17.2667   34.4138   33.1694 H   0  0  0  0  0  0  0  0  0  0  0  0
   16.7634   35.0598   37.7897 H   0  0  0  0  0  0  0  0  0  0  0  0
   15.3757   36.1867   37.9790 H   0  0  0  0  0  0  0  0  0  0  0  0
  1  2  2  0
  1  3  1  0
  3  4  1  0
  4  5  1  0
  6  1  1  0
  7  6  1  0
  6  8  1  0
  8  9  1  0
  9 10  1  0
 10 11  1  0
 11 12  1  0
 12 13  1  0
 13 14  1  0
 13 15  2  0
 14 16  1  0
 16 17  1  0
 17 18  2  0
 19 17  1  0
 18 20  1  0
 21 19  2  0
 19 22  1  0
 20 23  2  0
 23 21  1  0
 22 24  1  0
 22 25  2  0
  4 26  2  0
  4 27  1  0
 28 27  1  0
 28 29  1  0
 29 30  1  0
 29 31  1  0
 30 32  1  0
 31 33  1  0
 31 34  1  0
 34 32  1  0
 32 35  1  0
 34 36  1  0
 37 35  1  0
 38 35  1  0
 39 37  2  0
 37 40  1  0
 41 38  2  0
 42 39  1  0
 40 43  2  0
 40 41  1  0
 44 42  2  0
 44 43  1  0
 43 45  1  0
  6 46  1  6
  7 47  1  0
  7 48  1  0
  8 49  1  0
  8 50  1  0
  9 51  1  0
  9 52  1  0
 10 53  1  0
 10 54  1  0
 11 55  1  0
 11 56  1  0
 12 57  1  0
 16 58  1  0
 16 59  1  0
 18 60  1  0
 20 61  1  0
 21 62  1  0
 23 63  1  0
 28 64  1  0
 28 65  1  0
 29 66  1  0
 31 67  1  0
 32 68  1  0
 33 69  1  0
 34 70  1  0
 36 71  1  0
 38 72  1  0
 42 73  1  0
 45 74  1  0
 45 75  1  0
M  CHG  3   5  -1  22   1  24  -1
M  END
>  <EmbedRMS>  (112) 
0.0741570192481

$$$$

     RDKit          3D

 75 78  0  0  0  0  0  0  0  0999 V2000
    9.4332   42.9366   34.3464 C   0  0  0  0  0  0  0  0  0  0  0  0
   10.4908   43.0331   35.0319 O   0  0  0  0  0  0  0  0  0  0  0  0
    8.8559   41.7104   34.0306 O   0  0  0  0  0  0  0  0  0  0  0  0
    9.4931   40.2143   34.4708 P   0  0  0  0  0  0  0  0  0  0  0  0
    9.7288   40.1729   36.1318 O   0  0  0  0  0  0  0  0  0  0  0  0
    8.7506   44.1348   33.7741 C   0  0  1  0  0  0  0  0  0  0  0  0
    9.2963   45.3821   34.3133 N   0  0  0  0  0  0  0  0  0  0  0  0
    8.8893   44.0526   32.2359 C   0  0  0  0  0  0  0  0  0  0  0  0
    8.2029   45.1821   31.4614 C   0  0  0  0  0  0  0  0  0  0  0  0
    6.6654   45.1046   31.4855 C   0  0  0  0  0  0  0  0  0  0  0  0
    6.0273   46.3227   30.8106 C   0  0  0  0  0  0  0  0  0  0  0  0
    6.5069   47.5640   31.4182 N   0  0  0  0  0  0  0  0  0  0  0  0
    7.2419   48.5403   30.6829 C   0  0  0  0  0  0  0  0  0  0  0  0
    7.5772   49.7507   31.3019 O   0  0  0  0  0  0  0  0  0  0  0  0
    7.5941   48.3109   29.4941 O   0  0  0  0  0  0  0  0  0  0  0  0
    8.3265   50.7821   30.6571 C   0  0  0  0  0  0  0  0  0  0  0  0
    7.4683   51.7039   29.8077 C   0  0  0  0  0  0  0  0  0  0  0  0
    6.0862   51.4588   29.6521 C   0  0  0  0  0  0  0  0  0  0  0  0
    8.0286   52.8650   29.2022 C   0  0  0  0  0  0  0  0  0  0  0  0
    5.2838   52.3269   28.9113 C   0  0  0  0  0  0  0  0  0  0  0  0
    7.1953   53.7321   28.4732 C   0  0  0  0  0  0  0  0  0  0  0  0
    9.4211   53.2055   29.3401 N   0  0  0  0  0  0  0  0  0  0  0  0
    5.8364   53.4607   28.3237 C   0  0  0  0  0  0  0  0  0  0  0  0
    9.8060   54.5267   29.3415 O   0  0  0  0  0  0  0  0  0  0  0  0
   10.3045   52.3262   29.2863 O   0  0  0  0  0  0  0  0  0  0  0  0
    8.5366   39.1385   34.0140 O   0  0  0  0  0  0  0  0  0  0  0  0
   10.9795   40.0875   33.6890 O   0  0  0  0  0  0  0  0  0  0  0  0
   10.8017   40.0947   32.2902 C   0  0  0  0  0  0  0  0  0  0  0  0
   11.5885   38.9266   31.7041 C   0  0  0  0  0  0  0  0  0  0  0  0
   12.9236   38.9445   32.1721 O   0  0  0  0  0  0  0  0  0  0  0  0
   11.0029   37.5725   32.0908 C   0  0  0  0  0  0  0  0  0  0  0  0
   13.3555   37.5960   32.2594 C   0  0  0  0  0  0  0  0  0  0  0  0
    9.9380   37.1846   31.2656 O   0  0  0  0  0  0  0  0  0  0  0  0
   12.1932   36.6769   31.8952 C   0  0  0  0  0  0  0  0  0  0  0  0
   13.8028   37.2977   33.6186 N   0  0  0  0  0  0  0  0  0  0  0  0
   12.2918   36.2396   30.5587 O   0  0  0  0  0  0  0  0  0  0  0  0
   14.7926   36.4727   33.9858 C   0  0  0  0  0  0  0  0  0  0  0  0
   13.2750   37.7302   34.7935 C   0  0  0  0  0  0  0  0  0  0  0  0
   15.6241   35.7586   33.1857 N   0  0  0  0  0  0  0  0  0  0  0  0
   14.8721   36.4408   35.3326 C   0  0  0  0  0  0  0  0  0  0  0  0
   13.9204   37.2263   35.8802 N   0  0  0  0  0  0  0  0  0  0  0  0
   16.5870   34.9925   33.7800 C   0  0  0  0  0  0  0  0  0  0  0  0
   15.8572   35.6716   35.9441 C   0  0  0  0  0  0  0  0  0  0  0  0
   16.7022   34.9585   35.1437 N   0  0  0  0  0  0  0  0  0  0  0  0
   16.0098   35.6384   37.3561 N   0  0  0  0  0  0  0  0  0  0  0  0
    7.6770   44.0707   34.0504 H   0  0  0  0  0  0  0  0  0  0  0  0
   10.3192   45.4407   34.0999 H   0  0  0  0  0  0  0  0  0  0  0  0
    9.1827   45.3822   35.3534 H   0  0  0  0  0  0  0  0  0  0  0  0
    9.9711   44.0678   31.9740 H   0  0  0  0  0  0  0  0  0  0  0  0
    8.4816   43.0849   31.8670 H   0  0  0  0  0  0  0  0  0  0  0  0
    8.5554   46.1508   31.8740 H   0  0  0  0  0  0  0  0  0  0  0  0
    8.5385   45.1360   30.4022 H   0  0  0  0  0  0  0  0  0  0  0  0
    6.3021   45.0643   32.5333 H   0  0  0  0  0  0  0  0  0  0  0  0
    6.3295   44.1801   30.9677 H   0  0  0  0  0  0  0  0  0  0  0  0
    4.9238   46.2678   30.9266 H   0  0  0  0  0  0  0  0  0  0  0  0
    6.2467   46.2900   29.7218 H   0  0  0  0  0  0  0  0  0  0  0  0
    6.2807   47.7542   32.4203 H   0  0  0  0  0  0  0  0  0  0  0  0
    8.8123   51.3904   31.4490 H   0  0  0  0  0  0  0  0  0  0  0  0
    9.1260   50.3212   30.0394 H   0  0  0  0  0  0  0  0  0  0  0  0
    5.6089   50.6045   30.1102 H   0  0  0  0  0  0  0  0  0  0  0  0
    4.2264   52.1233   28.8003 H   0  0  0  0  0  0  0  0  0  0  0  0
    7.6036   54.6197   28.0068 H   0  0  0  0  0  0  0  0  0  0  0  0
    5.2095   54.1343   27.7537 H   0  0  0  0  0  0  0  0  0  0  0  0
   11.2241   41.0427   31.8934 H   0  0  0  0  0  0  0  0  0  0  0  0
    9.7472   40.0378   31.9304 H   0  0  0  0  0  0  0  0  0  0  0  0
   11.5927   39.0434   30.5965 H   0  0  0  0  0  0  0  0  0  0  0  0
   10.7003   37.5442   33.1640 H   0  0  0  0  0  0  0  0  0  0  0  0
   14.2052   37.4477   31.5560 H   0  0  0  0  0  0  0  0  0  0  0  0
    9.1374   37.6721   31.5905 H   0  0  0  0  0  0  0  0  0  0  0  0
   12.1305   35.7855   32.5585 H   0  0  0  0  0  0  0  0  0  0  0  0
   12.4606   37.0186   29.9674 H   0  0  0  0  0  0  0  0  0  0  0  0
   12.4327   38.4001   34.8695 H   0  0  0  0  0  0  0  0  0  0  0  0
   17.2666   34.4146   33.1690 H   0  0  0  0  0  0  0  0  0  0  0  0
   15.3754   36.1866   37.9788 H   0  0  0  0  0  0  0  0  0  0  0  0
   16.7634   35.0601   37.7894 H   0  0  0  0  0  0  0  0  0  0  0  0
  1  2  2  0
  1  3  1  0
  3  4  1  0
  4  5  1  0
  6  1  1  0
  7  6  1  0
  6  8  1  0
  8  9  1  0
  9 10  1  0
 10 11  1  0
 11 12  1  0
 12 13  1  0
 13 14  1  0
 13 15  2  0
 14 16  1  0
 16 17  1  0
 17 18  2  0
 19 17  1  0
 18 20  1  0
 21 19  2  0
 19 22  1  0
 20 23  2  0
 23 21  1  0
 22 24  1  0
 22 25  2  0
  4 26  2  0
  4 27  1  0
 28 27  1  0
 28 29  1  0
 29 30  1  0
 29 31  1  0
 30 32  1  0
 31 33  1  0
 31 34  1  0
 34 32  1  0
 32 35  1  0
 34 36  1  0
 37 35  1  0
 38 35  1  0
 39 37  2  0
 37 40  1  0
 41 38  2  0
 42 39  1  0
 40 43  2  0
 40 41  1  0
 44 42  2  0
 44 43  1  0
 43 45  1  0
  6 46  1  6
  7 47  1  0
  7 48  1  0
  8 49  1  0
  8 50  1  0
  9 51  1  0
  9 52  1  0
 10 53  1  0
 10 54  1  0
 11 55  1  0
 11 56  1  0
 12 57  1  0
 16 58  1  0
 16 59  1  0
 18 60  1  0
 20 61  1  0
 21 62  1  0
 23 63  1  0
 28 64  1  0
 28 65  1  0
 29 66  1  0
 31 67  1  0
 32 68  1  0
 33 69  1  0
 34 70  1  0
 36 71  1  0
 38 72  1  0
 42 73  1  0
 45 74  1  0
 45 75  1  0
M  CHG  3   5  -1  22   1  24  -1
M  END
>  <EmbedRMS>  (113) 
0.0756656904745

$$$$

     RDKit          3D

 75 78  0  0  0  0  0  0  0  0999 V2000
    9.4331   42.9365   34.3462 C   0  0  0  0  0  0  0  0  0  0  0  0
   10.4907   43.0329   35.0317 O   0  0  0  0  0  0  0  0  0  0  0  0
    8.8558   41.7103   34.0299 O   0  0  0  0  0  0  0  0  0  0  0  0
    9.4944   40.2141   34.4677 P   0  0  0  0  0  0  0  0  0  0  0  0
    9.7317   40.1723   36.1287 O   0  0  0  0  0  0  0  0  0  0  0  0
    8.7506   44.1348   33.7741 C   0  0  1  0  0  0  0  0  0  0  0  0
    9.2963   45.3820   34.3133 N   0  0  0  0  0  0  0  0  0  0  0  0
    8.8893   44.0527   32.2358 C   0  0  0  0  0  0  0  0  0  0  0  0
    8.2029   45.1823   31.4614 C   0  0  0  0  0  0  0  0  0  0  0  0
    6.6654   45.1046   31.4854 C   0  0  0  0  0  0  0  0  0  0  0  0
    6.0272   46.3228   30.8107 C   0  0  0  0  0  0  0  0  0  0  0  0
    6.5069   47.5640   31.4183 N   0  0  0  0  0  0  0  0  0  0  0  0
    7.2416   48.5403   30.6828 C   0  0  0  0  0  0  0  0  0  0  0  0
    7.5839   49.7468   31.3033 O   0  0  0  0  0  0  0  0  0  0  0  0
    7.5944   48.3106   29.4942 O   0  0  0  0  0  0  0  0  0  0  0  0
    8.3052   50.7864   30.6439 C   0  0  0  0  0  0  0  0  0  0  0  0
    7.4426   51.4449   29.5907 C   0  0  0  0  0  0  0  0  0  0  0  0
    6.1711   51.9117   29.9700 C   0  0  0  0  0  0  0  0  0  0  0  0
    7.8469   51.5646   28.2360 C   0  0  0  0  0  0  0  0  0  0  0  0
    5.2978   52.4497   29.0234 C   0  0  0  0  0  0  0  0  0  0  0  0
    6.9466   52.0914   27.2935 C   0  0  0  0  0  0  0  0  0  0  0  0
    9.1638   51.1883   27.8066 N   0  0  0  0  0  0  0  0  0  0  0  0
    5.6812   52.5305   27.6858 C   0  0  0  0  0  0  0  0  0  0  0  0
   10.2665   51.6831   28.4641 O   0  0  0  0  0  0  0  0  0  0  0  0
    9.3222   50.6210   26.7059 O   0  0  0  0  0  0  0  0  0  0  0  0
    8.5373   39.1382   34.0122 O   0  0  0  0  0  0  0  0  0  0  0  0
   10.9795   40.0889   33.6815 O   0  0  0  0  0  0  0  0  0  0  0  0
   10.7982   40.0848   32.2819 C   0  0  0  0  0  0  0  0  0  0  0  0
   11.5886   38.9142   31.7009 C   0  0  0  0  0  0  0  0  0  0  0  0
   12.9214   38.9367   32.1698 O   0  0  0  0  0  0  0  0  0  0  0  0
   11.0047   37.5660   32.0990 C   0  0  0  0  0  0  0  0  0  0  0  0
   13.3511   37.5885   32.2601 C   0  0  0  0  0  0  0  0  0  0  0  0
    9.9296   37.1961   31.2780 O   0  0  0  0  0  0  0  0  0  0  0  0
   12.1923   36.6658   31.9047 C   0  0  0  0  0  0  0  0  0  0  0  0
   13.8033   37.2966   33.6187 N   0  0  0  0  0  0  0  0  0  0  0  0
   12.3007   36.2864   30.5561 O   0  0  0  0  0  0  0  0  0  0  0  0
   14.7933   36.4724   33.9860 C   0  0  0  0  0  0  0  0  0  0  0  0
   13.2753   37.7296   34.7935 C   0  0  0  0  0  0  0  0  0  0  0  0
   15.6243   35.7579   33.1860 N   0  0  0  0  0  0  0  0  0  0  0  0
   14.8728   36.4410   35.3328 C   0  0  0  0  0  0  0  0  0  0  0  0
   13.9209   37.2263   35.8804 N   0  0  0  0  0  0  0  0  0  0  0  0
   16.5873   34.9919   33.7803 C   0  0  0  0  0  0  0  0  0  0  0  0
   15.8577   35.6717   35.9443 C   0  0  0  0  0  0  0  0  0  0  0  0
   16.7025   34.9583   35.1440 N   0  0  0  0  0  0  0  0  0  0  0  0
   16.0100   35.6384   37.3564 N   0  0  0  0  0  0  0  0  0  0  0  0
    7.6770   44.0707   34.0503 H   0  0  0  0  0  0  0  0  0  0  0  0
    9.1827   45.3820   35.3535 H   0  0  0  0  0  0  0  0  0  0  0  0
   10.3192   45.4405   34.1000 H   0  0  0  0  0  0  0  0  0  0  0  0
    8.4816   43.0851   31.8668 H   0  0  0  0  0  0  0  0  0  0  0  0
    9.9711   44.0681   31.9739 H   0  0  0  0  0  0  0  0  0  0  0  0
    8.5385   45.1362   30.4021 H   0  0  0  0  0  0  0  0  0  0  0  0
    8.5554   46.1510   31.8740 H   0  0  0  0  0  0  0  0  0  0  0  0
    6.3296   44.1801   30.9675 H   0  0  0  0  0  0  0  0  0  0  0  0
    6.3020   45.0641   32.5332 H   0  0  0  0  0  0  0  0  0  0  0  0
    6.2463   46.2901   29.7218 H   0  0  0  0  0  0  0  0  0  0  0  0
    4.9237   46.2678   30.9269 H   0  0  0  0  0  0  0  0  0  0  0  0
    6.2818   47.7537   32.4209 H   0  0  0  0  0  0  0  0  0  0  0  0
    8.5876   51.5517   31.3969 H   0  0  0  0  0  0  0  0  0  0  0  0
    9.2419   50.3604   30.2334 H   0  0  0  0  0  0  0  0  0  0  0  0
    5.8476   51.8400   31.0014 H   0  0  0  0  0  0  0  0  0  0  0  0
    4.3184   52.7965   29.3268 H   0  0  0  0  0  0  0  0  0  0  0  0
    7.2369   52.1852   26.2545 H   0  0  0  0  0  0  0  0  0  0  0  0
    5.0007   52.9438   26.9526 H   0  0  0  0  0  0  0  0  0  0  0  0
    9.7427   40.0140   31.9266 H   0  0  0  0  0  0  0  0  0  0  0  0
   11.2131   41.0320   31.8757 H   0  0  0  0  0  0  0  0  0  0  0  0
   11.5980   39.0108   30.5904 H   0  0  0  0  0  0  0  0  0  0  0  0
   10.7009   37.5601   33.1721 H   0  0  0  0  0  0  0  0  0  0  0  0
   14.1977   37.4380   31.5532 H   0  0  0  0  0  0  0  0  0  0  0  0
    9.5181   36.3960   31.6977 H   0  0  0  0  0  0  0  0  0  0  0  0
   12.1419   35.7697   32.5692 H   0  0  0  0  0  0  0  0  0  0  0  0
   11.7730   35.4523   30.4488 H   0  0  0  0  0  0  0  0  0  0  0  0
   12.4321   38.3984   34.8692 H   0  0  0  0  0  0  0  0  0  0  0  0
   17.2667   34.4138   33.1694 H   0  0  0  0  0  0  0  0  0  0  0  0
   16.7634   35.0598   37.7897 H   0  0  0  0  0  0  0  0  0  0  0  0
   15.3757   36.1867   37.9790 H   0  0  0  0  0  0  0  0  0  0  0  0
  1  2  2  0
  1  3  1  0
  3  4  1  0
  4  5  1  0
  6  1  1  0
  7  6  1  0
  6  8  1  0
  8  9  1  0
  9 10  1  0
 10 11  1  0
 11 12  1  0
 12 13  1  0
 13 14  1  0
 13 15  2  0
 14 16  1  0
 16 17  1  0
 17 18  2  0
 19 17  1  0
 18 20  1  0
 21 19  2  0
 19 22  1  0
 20 23  2  0
 23 21  1  0
 22 24  1  0
 22 25  2  0
  4 26  2  0
  4 27  1  0
 28 27  1  0
 28 29  1  0
 29 30  1  0
 29 31  1  0
 30 32  1  0
 31 33  1  0
 31 34  1  0
 34 32  1  0
 32 35  1  0
 34 36  1  0
 37 35  1  0
 38 35  1  0
 39 37  2  0
 37 40  1  0
 41 38  2  0
 42 39  1  0
 40 43  2  0
 40 41  1  0
 44 42  2  0
 44 43  1  0
 43 45  1  0
  6 46  1  6
  7 47  1  0
  7 48  1  0
  8 49  1  0
  8 50  1  0
  9 51  1  0
  9 52  1  0
 10 53  1  0
 10 54  1  0
 11 55  1  0
 11 56  1  0
 12 57  1  0
 16 58  1  0
 16 59  1  0
 18 60  1  0
 20 61  1  0
 21 62  1  0
 23 63  1  0
 28 64  1  0
 28 65  1  0
 29 66  1  0
 31 67  1  0
 32 68  1  0
 33 69  1  0
 34 70  1  0
 36 71  1  0
 38 72  1  0
 42 73  1  0
 45 74  1  0
 45 75  1  0
M  CHG  3   5  -1  22   1  24  -1
M  END
>  <EmbedRMS>  (114) 
0.0743566524367

$$$$

     RDKit          3D

 75 78  0  0  0  0  0  0  0  0999 V2000
    9.4303   42.9406   34.3424 C   0  0  0  0  0  0  0  0  0  0  0  0
   10.4913   43.0387   35.0229 O   0  0  0  0  0  0  0  0  0  0  0  0
    8.8546   41.7127   34.0281 O   0  0  0  0  0  0  0  0  0  0  0  0
    9.4927   40.2163   34.4695 P   0  0  0  0  0  0  0  0  0  0  0  0
    9.7290   40.1748   36.1306 O   0  0  0  0  0  0  0  0  0  0  0  0
    8.7423   44.1401   33.7777 C   0  0  1  0  0  0  0  0  0  0  0  0
    9.3039   45.3731   34.3327 N   0  0  0  0  0  0  0  0  0  0  0  0
    8.8976   44.0642   32.2389 C   0  0  0  0  0  0  0  0  0  0  0  0
    8.2014   45.1742   31.4406 C   0  0  0  0  0  0  0  0  0  0  0  0
    6.6637   45.1089   31.4907 C   0  0  0  0  0  0  0  0  0  0  0  0
    6.0201   46.3203   30.8062 C   0  0  0  0  0  0  0  0  0  0  0  0
    6.4856   47.5673   31.4122 N   0  0  0  0  0  0  0  0  0  0  0  0
    7.2794   48.5134   30.7004 C   0  0  0  0  0  0  0  0  0  0  0  0
    7.7995   49.6144   31.3872 O   0  0  0  0  0  0  0  0  0  0  0  0
    7.5854   48.3123   29.4937 O   0  0  0  0  0  0  0  0  0  0  0  0
    8.9500   50.3280   30.9384 C   0  0  0  0  0  0  0  0  0  0  0  0
   10.1703   49.4334   30.9976 C   0  0  0  0  0  0  0  0  0  0  0  0
   10.4003   48.6981   32.1758 C   0  0  0  0  0  0  0  0  0  0  0  0
   11.0359   49.2493   29.8890 C   0  0  0  0  0  0  0  0  0  0  0  0
   11.4304   47.7592   32.2409 C   0  0  0  0  0  0  0  0  0  0  0  0
   12.0603   48.2889   29.9689 C   0  0  0  0  0  0  0  0  0  0  0  0
   10.9097   50.0385   28.6960 N   0  0  0  0  0  0  0  0  0  0  0  0
   12.2525   47.5475   31.1358 C   0  0  0  0  0  0  0  0  0  0  0  0
   10.8021   51.4072   28.7861 O   0  0  0  0  0  0  0  0  0  0  0  0
   11.1263   49.5228   27.5800 O   0  0  0  0  0  0  0  0  0  0  0  0
    8.5367   39.1396   34.0135 O   0  0  0  0  0  0  0  0  0  0  0  0
   10.9785   40.0876   33.6870 O   0  0  0  0  0  0  0  0  0  0  0  0
   10.7993   40.0947   32.2882 C   0  0  0  0  0  0  0  0  0  0  0  0
   11.5957   38.9352   31.6994 C   0  0  0  0  0  0  0  0  0  0  0  0
   12.9257   38.9478   32.1799 O   0  0  0  0  0  0  0  0  0  0  0  0
   11.0070   37.5758   32.0732 C   0  0  0  0  0  0  0  0  0  0  0  0
   13.3571   37.5980   32.2612 C   0  0  0  0  0  0  0  0  0  0  0  0
    9.9093   37.1808   31.2875 O   0  0  0  0  0  0  0  0  0  0  0  0
   12.1967   36.6764   31.8894 C   0  0  0  0  0  0  0  0  0  0  0  0
   13.8018   37.2956   33.6197 N   0  0  0  0  0  0  0  0  0  0  0  0
   12.3048   36.2360   30.5555 O   0  0  0  0  0  0  0  0  0  0  0  0
   14.7922   36.4716   33.9864 C   0  0  0  0  0  0  0  0  0  0  0  0
   13.2747   37.7291   34.7944 C   0  0  0  0  0  0  0  0  0  0  0  0
   15.6239   35.7582   33.1861 N   0  0  0  0  0  0  0  0  0  0  0  0
   14.8721   36.4402   35.3331 C   0  0  0  0  0  0  0  0  0  0  0  0
   13.9206   37.2257   35.8810 N   0  0  0  0  0  0  0  0  0  0  0  0
   16.5873   34.9924   33.7802 C   0  0  0  0  0  0  0  0  0  0  0  0
   15.8576   35.6714   35.9444 C   0  0  0  0  0  0  0  0  0  0  0  0
   16.7026   34.9585   35.1439 N   0  0  0  0  0  0  0  0  0  0  0  0
   16.0102   35.6383   37.3564 N   0  0  0  0  0  0  0  0  0  0  0  0
    7.6678   44.0686   34.0533 H   0  0  0  0  0  0  0  0  0  0  0  0
    8.6887   46.1709   34.0547 H   0  0  0  0  0  0  0  0  0  0  0  0
    9.2311   45.3302   35.3758 H   0  0  0  0  0  0  0  0  0  0  0  0
    9.9824   44.0998   31.9911 H   0  0  0  0  0  0  0  0  0  0  0  0
    8.5125   43.0885   31.8668 H   0  0  0  0  0  0  0  0  0  0  0  0
    8.5157   45.0844   30.3776 H   0  0  0  0  0  0  0  0  0  0  0  0
    8.5724   46.1573   31.7940 H   0  0  0  0  0  0  0  0  0  0  0  0
    6.3140   44.1776   30.9947 H   0  0  0  0  0  0  0  0  0  0  0  0
    6.3165   45.0890   32.5443 H   0  0  0  0  0  0  0  0  0  0  0  0
    4.9165   46.2575   30.9156 H   0  0  0  0  0  0  0  0  0  0  0  0
    6.2463   46.2853   29.7188 H   0  0  0  0  0  0  0  0  0  0  0  0
    6.2678   47.7499   32.4177 H   0  0  0  0  0  0  0  0  0  0  0  0
    9.1126   51.1959   31.6109 H   0  0  0  0  0  0  0  0  0  0  0  0
    8.7499   50.7178   29.9204 H   0  0  0  0  0  0  0  0  0  0  0  0
    9.7564   48.8283   33.0371 H   0  0  0  0  0  0  0  0  0  0  0  0
   11.5836   47.1862   33.1464 H   0  0  0  0  0  0  0  0  0  0  0  0
   12.7264   48.1300   29.1302 H   0  0  0  0  0  0  0  0  0  0  0  0
   13.0479   46.8152   31.1866 H   0  0  0  0  0  0  0  0  0  0  0  0
   11.2094   41.0481   31.8915 H   0  0  0  0  0  0  0  0  0  0  0  0
    9.7449   40.0202   31.9299 H   0  0  0  0  0  0  0  0  0  0  0  0
   11.6208   39.0685   30.5942 H   0  0  0  0  0  0  0  0  0  0  0  0
   10.7059   37.5565   33.1439 H   0  0  0  0  0  0  0  0  0  0  0  0
   14.2095   37.4544   31.5601 H   0  0  0  0  0  0  0  0  0  0  0  0
   10.0864   37.4211   30.3413 H   0  0  0  0  0  0  0  0  0  0  0  0
   12.1275   35.7873   32.5550 H   0  0  0  0  0  0  0  0  0  0  0  0
   12.5031   37.0109   29.9673 H   0  0  0  0  0  0  0  0  0  0  0  0
   12.4328   38.3997   34.8703 H   0  0  0  0  0  0  0  0  0  0  0  0
   17.2670   34.4149   33.1691 H   0  0  0  0  0  0  0  0  0  0  0  0
   15.3758   36.1862   37.9791 H   0  0  0  0  0  0  0  0  0  0  0  0
   16.7640   35.0601   37.7896 H   0  0  0  0  0  0  0  0  0  0  0  0
  1  2  2  0
  1  3  1  0
  3  4  1  0
  4  5  1  0
  6  1  1  0
  7  6  1  0
  6  8  1  0
  8  9  1  0
  9 10  1  0
 10 11  1  0
 11 12  1  0
 12 13  1  0
 13 14  1  0
 13 15  2  0
 14 16  1  0
 16 17  1  0
 17 18  2  0
 19 17  1  0
 18 20  1  0
 21 19  2  0
 19 22  1  0
 20 23  2  0
 23 21  1  0
 22 24  1  0
 22 25  2  0
  4 26  2  0
  4 27  1  0
 28 27  1  0
 28 29  1  0
 29 30  1  0
 29 31  1  0
 30 32  1  0
 31 33  1  0
 31 34  1  0
 34 32  1  0
 32 35  1  0
 34 36  1  0
 37 35  1  0
 38 35  1  0
 39 37  2  0
 37 40  1  0
 41 38  2  0
 42 39  1  0
 40 43  2  0
 40 41  1  0
 44 42  2  0
 44 43  1  0
 43 45  1  0
  6 46  1  6
  7 47  1  0
  7 48  1  0
  8 49  1  0
  8 50  1  0
  9 51  1  0
  9 52  1  0
 10 53  1  0
 10 54  1  0
 11 55  1  0
 11 56  1  0
 12 57  1  0
 16 58  1  0
 16 59  1  0
 18 60  1  0
 20 61  1  0
 21 62  1  0
 23 63  1  0
 28 64  1  0
 28 65  1  0
 29 66  1  0
 31 67  1  0
 32 68  1  0
 33 69  1  0
 34 70  1  0
 36 71  1  0
 38 72  1  0
 42 73  1  0
 45 74  1  0
 45 75  1  0
M  CHG  3   5  -1  22   1  24  -1
M  END
>  <EmbedRMS>  (115) 
0.0770423289766

$$$$

     RDKit          3D

 75 78  0  0  0  0  0  0  0  0999 V2000
    9.4311   42.9414   34.3438 C   0  0  0  0  0  0  0  0  0  0  0  0
   10.4884   43.0412   35.0294 O   0  0  0  0  0  0  0  0  0  0  0  0
    8.8562   41.7130   34.0288 O   0  0  0  0  0  0  0  0  0  0  0  0
    9.4947   40.2164   34.4679 P   0  0  0  0  0  0  0  0  0  0  0  0
    9.7310   40.1742   36.1290 O   0  0  0  0  0  0  0  0  0  0  0  0
    8.7481   44.1363   33.7722 C   0  0  1  0  0  0  0  0  0  0  0  0
    9.3035   45.3670   34.3389 N   0  0  0  0  0  0  0  0  0  0  0  0
    8.8891   44.0522   32.2310 C   0  0  0  0  0  0  0  0  0  0  0  0
    8.2016   45.1727   31.4439 C   0  0  0  0  0  0  0  0  0  0  0  0
    6.6643   45.1060   31.4863 C   0  0  0  0  0  0  0  0  0  0  0  0
    6.0277   46.3238   30.8097 C   0  0  0  0  0  0  0  0  0  0  0  0
    6.5058   47.5637   31.4215 N   0  0  0  0  0  0  0  0  0  0  0  0
    7.2526   48.5396   30.6848 C   0  0  0  0  0  0  0  0  0  0  0  0
    7.6538   49.7470   31.2686 O   0  0  0  0  0  0  0  0  0  0  0  0
    7.5861   48.3097   29.4931 O   0  0  0  0  0  0  0  0  0  0  0  0
    7.3861   50.1031   32.6231 C   0  0  0  0  0  0  0  0  0  0  0  0
    7.9534   51.4636   32.9689 C   0  0  0  0  0  0  0  0  0  0  0  0
    8.3522   52.3460   31.9429 C   0  0  0  0  0  0  0  0  0  0  0  0
    8.1041   51.8715   34.3235 C   0  0  0  0  0  0  0  0  0  0  0  0
    8.9191   53.5843   32.2466 C   0  0  0  0  0  0  0  0  0  0  0  0
    8.6938   53.1169   34.6046 C   0  0  0  0  0  0  0  0  0  0  0  0
    7.6818   51.0420   35.4224 N   0  0  0  0  0  0  0  0  0  0  0  0
    9.0964   53.9657   33.5739 C   0  0  0  0  0  0  0  0  0  0  0  0
    8.3255   51.1291   36.6355 O   0  0  0  0  0  0  0  0  0  0  0  0
    6.6351   50.3665   35.3473 O   0  0  0  0  0  0  0  0  0  0  0  0
    8.5375   39.1405   34.0127 O   0  0  0  0  0  0  0  0  0  0  0  0
   10.9805   40.0889   33.6836 O   0  0  0  0  0  0  0  0  0  0  0  0
   10.8025   40.0902   32.2837 C   0  0  0  0  0  0  0  0  0  0  0  0
   11.5888   38.9175   31.7008 C   0  0  0  0  0  0  0  0  0  0  0  0
   12.9219   38.9373   32.1692 O   0  0  0  0  0  0  0  0  0  0  0  0
   11.0028   37.5683   32.0981 C   0  0  0  0  0  0  0  0  0  0  0  0
   13.3496   37.5886   32.2601 C   0  0  0  0  0  0  0  0  0  0  0  0
    9.9343   37.1823   31.2757 O   0  0  0  0  0  0  0  0  0  0  0  0
   12.1891   36.6677   31.9050 C   0  0  0  0  0  0  0  0  0  0  0  0
   13.8025   37.2965   33.6186 N   0  0  0  0  0  0  0  0  0  0  0  0
   12.2990   36.2868   30.5568 O   0  0  0  0  0  0  0  0  0  0  0  0
   14.7929   36.4725   33.9858 C   0  0  0  0  0  0  0  0  0  0  0  0
   13.2749   37.7294   34.7935 C   0  0  0  0  0  0  0  0  0  0  0  0
   15.6240   35.7580   33.1858 N   0  0  0  0  0  0  0  0  0  0  0  0
   14.8727   36.4411   35.3327 C   0  0  0  0  0  0  0  0  0  0  0  0
   13.9208   37.2263   35.8803 N   0  0  0  0  0  0  0  0  0  0  0  0
   16.5871   34.9921   33.7801 C   0  0  0  0  0  0  0  0  0  0  0  0
   15.8576   35.6718   35.9441 C   0  0  0  0  0  0  0  0  0  0  0  0
   16.7024   34.9585   35.1438 N   0  0  0  0  0  0  0  0  0  0  0  0
   16.0099   35.6384   37.3562 N   0  0  0  0  0  0  0  0  0  0  0  0
    7.6760   44.0638   34.0546 H   0  0  0  0  0  0  0  0  0  0  0  0
   10.2144   45.5891   33.8744 H   0  0  0  0  0  0  0  0  0  0  0  0
    8.6460   46.1563   34.1441 H   0  0  0  0  0  0  0  0  0  0  0  0
    8.4828   43.0822   31.8666 H   0  0  0  0  0  0  0  0  0  0  0  0
    9.9707   44.0646   31.9682 H   0  0  0  0  0  0  0  0  0  0  0  0
    8.5217   45.0979   30.3815 H   0  0  0  0  0  0  0  0  0  0  0  0
    8.5700   46.1493   31.8194 H   0  0  0  0  0  0  0  0  0  0  0  0
    6.3164   44.1800   30.9793 H   0  0  0  0  0  0  0  0  0  0  0  0
    6.3124   45.0761   32.5383 H   0  0  0  0  0  0  0  0  0  0  0  0
    4.9240   46.2684   30.9236 H   0  0  0  0  0  0  0  0  0  0  0  0
    6.2490   46.2915   29.7213 H   0  0  0  0  0  0  0  0  0  0  0  0
    6.2746   47.7257   32.4264 H   0  0  0  0  0  0  0  0  0  0  0  0
    7.8559   49.3394   33.2807 H   0  0  0  0  0  0  0  0  0  0  0  0
    6.2879   50.1194   32.7904 H   0  0  0  0  0  0  0  0  0  0  0  0
    8.2306   52.0832   30.9002 H   0  0  0  0  0  0  0  0  0  0  0  0
    9.2249   54.2490   31.4488 H   0  0  0  0  0  0  0  0  0  0  0  0
    8.8247   53.4423   35.6288 H   0  0  0  0  0  0  0  0  0  0  0  0
    9.5397   54.9256   33.8056 H   0  0  0  0  0  0  0  0  0  0  0  0
    9.7476   40.0332   31.9256 H   0  0  0  0  0  0  0  0  0  0  0  0
   11.2257   41.0358   31.8824 H   0  0  0  0  0  0  0  0  0  0  0  0
   11.5975   39.0148   30.5905 H   0  0  0  0  0  0  0  0  0  0  0  0
   10.7023   37.5457   33.1720 H   0  0  0  0  0  0  0  0  0  0  0  0
   14.1957   37.4366   31.5528 H   0  0  0  0  0  0  0  0  0  0  0  0
    9.1339   37.6658   31.6070 H   0  0  0  0  0  0  0  0  0  0  0  0
   12.1380   35.7717   32.5698 H   0  0  0  0  0  0  0  0  0  0  0  0
   11.7706   35.4530   30.4497 H   0  0  0  0  0  0  0  0  0  0  0  0
   12.4314   38.3980   34.8694 H   0  0  0  0  0  0  0  0  0  0  0  0
   17.2665   34.4140   33.1691 H   0  0  0  0  0  0  0  0  0  0  0  0
   15.3757   36.1868   37.9789 H   0  0  0  0  0  0  0  0  0  0  0  0
   16.7633   35.0598   37.7895 H   0  0  0  0  0  0  0  0  0  0  0  0
  1  2  2  0
  1  3  1  0
  3  4  1  0
  4  5  1  0
  6  1  1  0
  7  6  1  0
  6  8  1  0
  8  9  1  0
  9 10  1  0
 10 11  1  0
 11 12  1  0
 12 13  1  0
 13 14  1  0
 13 15  2  0
 14 16  1  0
 16 17  1  0
 17 18  2  0
 19 17  1  0
 18 20  1  0
 21 19  2  0
 19 22  1  0
 20 23  2  0
 23 21  1  0
 22 24  1  0
 22 25  2  0
  4 26  2  0
  4 27  1  0
 28 27  1  0
 28 29  1  0
 29 30  1  0
 29 31  1  0
 30 32  1  0
 31 33  1  0
 31 34  1  0
 34 32  1  0
 32 35  1  0
 34 36  1  0
 37 35  1  0
 38 35  1  0
 39 37  2  0
 37 40  1  0
 41 38  2  0
 42 39  1  0
 40 43  2  0
 40 41  1  0
 44 42  2  0
 44 43  1  0
 43 45  1  0
  6 46  1  6
  7 47  1  0
  7 48  1  0
  8 49  1  0
  8 50  1  0
  9 51  1  0
  9 52  1  0
 10 53  1  0
 10 54  1  0
 11 55  1  0
 11 56  1  0
 12 57  1  0
 16 58  1  0
 16 59  1  0
 18 60  1  0
 20 61  1  0
 21 62  1  0
 23 63  1  0
 28 64  1  0
 28 65  1  0
 29 66  1  0
 31 67  1  0
 32 68  1  0
 33 69  1  0
 34 70  1  0
 36 71  1  0
 38 72  1  0
 42 73  1  0
 45 74  1  0
 45 75  1  0
M  CHG  3   5  -1  22   1  24  -1
M  END
>  <EmbedRMS>  (116) 
0.0735192826723

$$$$

     RDKit          3D

 75 78  0  0  0  0  0  0  0  0999 V2000
    9.4335   42.9368   34.3454 C   0  0  0  0  0  0  0  0  0  0  0  0
   10.4908   43.0332   35.0315 O   0  0  0  0  0  0  0  0  0  0  0  0
    8.8563   41.7107   34.0291 O   0  0  0  0  0  0  0  0  0  0  0  0
    9.4944   40.2144   34.4678 P   0  0  0  0  0  0  0  0  0  0  0  0
    9.7307   40.1729   36.1290 O   0  0  0  0  0  0  0  0  0  0  0  0
    8.7510   44.1355   33.7737 C   0  0  1  0  0  0  0  0  0  0  0  0
    9.2967   45.3821   34.3137 N   0  0  0  0  0  0  0  0  0  0  0  0
    8.8900   44.0553   32.2354 C   0  0  0  0  0  0  0  0  0  0  0  0
    8.2028   45.1860   31.4625 C   0  0  0  0  0  0  0  0  0  0  0  0
    6.6652   45.1062   31.4856 C   0  0  0  0  0  0  0  0  0  0  0  0
    6.0239   46.3220   30.8083 C   0  0  0  0  0  0  0  0  0  0  0  0
    6.4971   47.5658   31.4155 N   0  0  0  0  0  0  0  0  0  0  0  0
    7.2578   48.5292   30.6899 C   0  0  0  0  0  0  0  0  0  0  0  0
    7.6755   49.6954   31.3389 O   0  0  0  0  0  0  0  0  0  0  0  0
    7.5903   48.3102   29.4935 O   0  0  0  0  0  0  0  0  0  0  0  0
    8.6305   50.5965   30.7819 C   0  0  0  0  0  0  0  0  0  0  0  0
    9.9922   49.9432   30.7045 C   0  0  0  0  0  0  0  0  0  0  0  0
   10.6358   49.8753   29.4551 C   0  0  0  0  0  0  0  0  0  0  0  0
   10.6071   49.3397   31.8352 C   0  0  0  0  0  0  0  0  0  0  0  0
   11.8561   49.2132   29.3169 C   0  0  0  0  0  0  0  0  0  0  0  0
   11.8293   48.6623   31.6689 C   0  0  0  0  0  0  0  0  0  0  0  0
   10.0047   49.3830   33.1421 N   0  0  0  0  0  0  0  0  0  0  0  0
   12.4490   48.6035   30.4203 C   0  0  0  0  0  0  0  0  0  0  0  0
    9.3769   50.5219   33.5895 O   0  0  0  0  0  0  0  0  0  0  0  0
   10.1862   48.4452   33.9458 O   0  0  0  0  0  0  0  0  0  0  0  0
    8.5372   39.1388   34.0124 O   0  0  0  0  0  0  0  0  0  0  0  0
   10.9804   40.0881   33.6837 O   0  0  0  0  0  0  0  0  0  0  0  0
   10.8025   40.0900   32.2838 C   0  0  0  0  0  0  0  0  0  0  0  0
   11.5889   38.9174   31.7007 C   0  0  0  0  0  0  0  0  0  0  0  0
   12.9220   38.9373   32.1692 O   0  0  0  0  0  0  0  0  0  0  0  0
   11.0028   37.5682   32.0980 C   0  0  0  0  0  0  0  0  0  0  0  0
   13.3496   37.5885   32.2601 C   0  0  0  0  0  0  0  0  0  0  0  0
    9.9343   37.1822   31.2756 O   0  0  0  0  0  0  0  0  0  0  0  0
   12.1891   36.6677   31.9049 C   0  0  0  0  0  0  0  0  0  0  0  0
   13.8025   37.2965   33.6186 N   0  0  0  0  0  0  0  0  0  0  0  0
   12.2991   36.2867   30.5567 O   0  0  0  0  0  0  0  0  0  0  0  0
   14.7929   36.4725   33.9858 C   0  0  0  0  0  0  0  0  0  0  0  0
   13.2749   37.7294   34.7935 C   0  0  0  0  0  0  0  0  0  0  0  0
   15.6240   35.7580   33.1858 N   0  0  0  0  0  0  0  0  0  0  0  0
   14.8727   36.4411   35.3327 C   0  0  0  0  0  0  0  0  0  0  0  0
   13.9208   37.2263   35.8803 N   0  0  0  0  0  0  0  0  0  0  0  0
   16.5871   34.9921   33.7801 C   0  0  0  0  0  0  0  0  0  0  0  0
   15.8576   35.6718   35.9441 C   0  0  0  0  0  0  0  0  0  0  0  0
   16.7024   34.9584   35.1438 N   0  0  0  0  0  0  0  0  0  0  0  0
   16.0099   35.6384   37.3562 N   0  0  0  0  0  0  0  0  0  0  0  0
    7.6773   44.0714   34.0497 H   0  0  0  0  0  0  0  0  0  0  0  0
    9.1839   45.3817   35.3539 H   0  0  0  0  0  0  0  0  0  0  0  0
   10.3193   45.4414   34.0992 H   0  0  0  0  0  0  0  0  0  0  0  0
    9.9718   44.0722   31.9738 H   0  0  0  0  0  0  0  0  0  0  0  0
    8.4832   43.0879   31.8650 H   0  0  0  0  0  0  0  0  0  0  0  0
    8.5537   46.1549   31.8770 H   0  0  0  0  0  0  0  0  0  0  0  0
    8.5394   45.1426   30.4035 H   0  0  0  0  0  0  0  0  0  0  0  0
    6.3015   45.0667   32.5334 H   0  0  0  0  0  0  0  0  0  0  0  0
    6.3314   44.1802   30.9691 H   0  0  0  0  0  0  0  0  0  0  0  0
    4.9204   46.2630   30.9217 H   0  0  0  0  0  0  0  0  0  0  0  0
    6.2457   46.2889   29.7200 H   0  0  0  0  0  0  0  0  0  0  0  0
    6.2760   47.7521   32.4195 H   0  0  0  0  0  0  0  0  0  0  0  0
    8.6916   51.5043   31.4155 H   0  0  0  0  0  0  0  0  0  0  0  0
    8.2774   50.9332   29.7824 H   0  0  0  0  0  0  0  0  0  0  0  0
   10.1856   50.3244   28.5784 H   0  0  0  0  0  0  0  0  0  0  0  0
   12.3387   49.1651   28.3492 H   0  0  0  0  0  0  0  0  0  0  0  0
   12.3123   48.1891   32.5145 H   0  0  0  0  0  0  0  0  0  0  0  0
   13.3927   48.0852   30.3090 H   0  0  0  0  0  0  0  0  0  0  0  0
    9.7477   40.0332   31.9255 H   0  0  0  0  0  0  0  0  0  0  0  0
   11.2259   41.0357   31.8830 H   0  0  0  0  0  0  0  0  0  0  0  0
   11.5975   39.0148   30.5904 H   0  0  0  0  0  0  0  0  0  0  0  0
   10.7024   37.5455   33.1719 H   0  0  0  0  0  0  0  0  0  0  0  0
   14.1957   37.4366   31.5528 H   0  0  0  0  0  0  0  0  0  0  0  0
    9.1340   37.6659   31.6068 H   0  0  0  0  0  0  0  0  0  0  0  0
   12.1381   35.7717   32.5697 H   0  0  0  0  0  0  0  0  0  0  0  0
   11.7707   35.4530   30.4496 H   0  0  0  0  0  0  0  0  0  0  0  0
   12.4314   38.3980   34.8694 H   0  0  0  0  0  0  0  0  0  0  0  0
   17.2665   34.4140   33.1691 H   0  0  0  0  0  0  0  0  0  0  0  0
   15.3757   36.1868   37.9789 H   0  0  0  0  0  0  0  0  0  0  0  0
   16.7633   35.0598   37.7895 H   0  0  0  0  0  0  0  0  0  0  0  0
  1  2  2  0
  1  3  1  0
  3  4  1  0
  4  5  1  0
  6  1  1  0
  7  6  1  0
  6  8  1  0
  8  9  1  0
  9 10  1  0
 10 11  1  0
 11 12  1  0
 12 13  1  0
 13 14  1  0
 13 15  2  0
 14 16  1  0
 16 17  1  0
 17 18  2  0
 19 17  1  0
 18 20  1  0
 21 19  2  0
 19 22  1  0
 20 23  2  0
 23 21  1  0
 22 24  1  0
 22 25  2  0
  4 26  2  0
  4 27  1  0
 28 27  1  0
 28 29  1  0
 29 30  1  0
 29 31  1  0
 30 32  1  0
 31 33  1  0
 31 34  1  0
 34 32  1  0
 32 35  1  0
 34 36  1  0
 37 35  1  0
 38 35  1  0
 39 37  2  0
 37 40  1  0
 41 38  2  0
 42 39  1  0
 40 43  2  0
 40 41  1  0
 44 42  2  0
 44 43  1  0
 43 45  1  0
  6 46  1  6
  7 47  1  0
  7 48  1  0
  8 49  1  0
  8 50  1  0
  9 51  1  0
  9 52  1  0
 10 53  1  0
 10 54  1  0
 11 55  1  0
 11 56  1  0
 12 57  1  0
 16 58  1  0
 16 59  1  0
 18 60  1  0
 20 61  1  0
 21 62  1  0
 23 63  1  0
 28 64  1  0
 28 65  1  0
 29 66  1  0
 31 67  1  0
 32 68  1  0
 33 69  1  0
 34 70  1  0
 36 71  1  0
 38 72  1  0
 42 73  1  0
 45 74  1  0
 45 75  1  0
M  CHG  3   5  -1  22   1  24  -1
M  END
>  <EmbedRMS>  (117) 
0.0747423690797

$$$$

     RDKit          3D

 75 78  0  0  0  0  0  0  0  0999 V2000
    9.4314   42.9421   34.3428 C   0  0  0  0  0  0  0  0  0  0  0  0
   10.4885   43.0414   35.0288 O   0  0  0  0  0  0  0  0  0  0  0  0
    8.8558   41.7137   34.0284 O   0  0  0  0  0  0  0  0  0  0  0  0
    9.4944   40.2169   34.4673 P   0  0  0  0  0  0  0  0  0  0  0  0
    9.7317   40.1745   36.1283 O   0  0  0  0  0  0  0  0  0  0  0  0
    8.7491   44.1379   33.7714 C   0  0  1  0  0  0  0  0  0  0  0  0
    9.3053   45.3679   34.3386 N   0  0  0  0  0  0  0  0  0  0  0  0
    8.8901   44.0559   32.2300 C   0  0  0  0  0  0  0  0  0  0  0  0
    8.2007   45.1770   31.4441 C   0  0  0  0  0  0  0  0  0  0  0  0
    6.6631   45.1088   31.4884 C   0  0  0  0  0  0  0  0  0  0  0  0
    6.0207   46.3219   30.8071 C   0  0  0  0  0  0  0  0  0  0  0  0
    6.4902   47.5669   31.4139 N   0  0  0  0  0  0  0  0  0  0  0  0
    7.2726   48.5190   30.6973 C   0  0  0  0  0  0  0  0  0  0  0  0
    7.7580   49.6437   31.3717 O   0  0  0  0  0  0  0  0  0  0  0  0
    7.5868   48.3119   29.4937 O   0  0  0  0  0  0  0  0  0  0  0  0
    8.8310   50.4407   30.8734 C   0  0  0  0  0  0  0  0  0  0  0  0
   10.1165   49.6412   30.8683 C   0  0  0  0  0  0  0  0  0  0  0  0
   10.4579   48.9204   32.0282 C   0  0  0  0  0  0  0  0  0  0  0  0
   10.9456   49.5375   29.7220 C   0  0  0  0  0  0  0  0  0  0  0  0
   11.5673   48.0742   32.0410 C   0  0  0  0  0  0  0  0  0  0  0  0
   12.0502   48.6676   29.7489 C   0  0  0  0  0  0  0  0  0  0  0  0
   10.7025   50.3209   28.5434 N   0  0  0  0  0  0  0  0  0  0  0  0
   12.3561   47.9400   30.9000 C   0  0  0  0  0  0  0  0  0  0  0  0
   10.4915   51.6763   28.6511 O   0  0  0  0  0  0  0  0  0  0  0  0
   10.9089   49.8307   27.4140 O   0  0  0  0  0  0  0  0  0  0  0  0
    8.5373   39.1406   34.0123 O   0  0  0  0  0  0  0  0  0  0  0  0
   10.9795   40.0899   33.6814 O   0  0  0  0  0  0  0  0  0  0  0  0
   10.7982   40.0851   32.2817 C   0  0  0  0  0  0  0  0  0  0  0  0
   11.5886   38.9143   31.7009 C   0  0  0  0  0  0  0  0  0  0  0  0
   12.9214   38.9368   32.1699 O   0  0  0  0  0  0  0  0  0  0  0  0
   11.0047   37.5661   32.0991 C   0  0  0  0  0  0  0  0  0  0  0  0
   13.3510   37.5885   32.2602 C   0  0  0  0  0  0  0  0  0  0  0  0
    9.9296   37.1962   31.2780 O   0  0  0  0  0  0  0  0  0  0  0  0
   12.1922   36.6659   31.9047 C   0  0  0  0  0  0  0  0  0  0  0  0
   13.8033   37.2967   33.6188 N   0  0  0  0  0  0  0  0  0  0  0  0
   12.3006   36.2865   30.5562 O   0  0  0  0  0  0  0  0  0  0  0  0
   14.7933   36.4724   33.9860 C   0  0  0  0  0  0  0  0  0  0  0  0
   13.2753   37.7296   34.7935 C   0  0  0  0  0  0  0  0  0  0  0  0
   15.6243   35.7579   33.1860 N   0  0  0  0  0  0  0  0  0  0  0  0
   14.8728   36.4410   35.3328 C   0  0  0  0  0  0  0  0  0  0  0  0
   13.9209   37.2263   35.8804 N   0  0  0  0  0  0  0  0  0  0  0  0
   16.5873   34.9919   33.7803 C   0  0  0  0  0  0  0  0  0  0  0  0
   15.8577   35.6717   35.9443 C   0  0  0  0  0  0  0  0  0  0  0  0
   16.7025   34.9583   35.1440 N   0  0  0  0  0  0  0  0  0  0  0  0
   16.0100   35.6384   37.3563 N   0  0  0  0  0  0  0  0  0  0  0  0
    7.6770   44.0661   34.0537 H   0  0  0  0  0  0  0  0  0  0  0  0
    8.6514   46.1591   34.1396 H   0  0  0  0  0  0  0  0  0  0  0  0
   10.2186   45.5867   33.8772 H   0  0  0  0  0  0  0  0  0  0  0  0
    9.9717   44.0708   31.9673 H   0  0  0  0  0  0  0  0  0  0  0  0
    8.4854   43.0857   31.8645 H   0  0  0  0  0  0  0  0  0  0  0  0
    8.5201   45.1035   30.3814 H   0  0  0  0  0  0  0  0  0  0  0  0
    8.5685   46.1541   31.8192 H   0  0  0  0  0  0  0  0  0  0  0  0
    6.3129   45.0828   32.5410 H   0  0  0  0  0  0  0  0  0  0  0  0
    6.3164   44.1796   30.9863 H   0  0  0  0  0  0  0  0  0  0  0  0
    4.9172   46.2611   30.9188 H   0  0  0  0  0  0  0  0  0  0  0  0
    6.2446   46.2878   29.7193 H   0  0  0  0  0  0  0  0  0  0  0  0
    6.2720   47.7505   32.4191 H   0  0  0  0  0  0  0  0  0  0  0  0
    8.5540   50.8182   29.8688 H   0  0  0  0  0  0  0  0  0  0  0  0
    8.9608   51.3163   31.5431 H   0  0  0  0  0  0  0  0  0  0  0  0
    9.8443   48.9919   32.9181 H   0  0  0  0  0  0  0  0  0  0  0  0
   11.8100   47.5140   32.9348 H   0  0  0  0  0  0  0  0  0  0  0  0
   12.6907   48.5712   28.8811 H   0  0  0  0  0  0  0  0  0  0  0  0
   13.2135   47.2796   30.9107 H   0  0  0  0  0  0  0  0  0  0  0  0
   11.2131   41.0322   31.8751 H   0  0  0  0  0  0  0  0  0  0  0  0
    9.7427   40.0142   31.9264 H   0  0  0  0  0  0  0  0  0  0  0  0
   11.5981   39.0108   30.5905 H   0  0  0  0  0  0  0  0  0  0  0  0
   10.7008   37.5604   33.1721 H   0  0  0  0  0  0  0  0  0  0  0  0
   14.1976   37.4380   31.5532 H   0  0  0  0  0  0  0  0  0  0  0  0
    9.5180   36.3962   31.6978 H   0  0  0  0  0  0  0  0  0  0  0  0
   12.1418   35.7698   32.5693 H   0  0  0  0  0  0  0  0  0  0  0  0
   11.7729   35.4524   30.4489 H   0  0  0  0  0  0  0  0  0  0  0  0
   12.4321   38.3985   34.8692 H   0  0  0  0  0  0  0  0  0  0  0  0
   17.2667   34.4138   33.1693 H   0  0  0  0  0  0  0  0  0  0  0  0
   15.3758   36.1867   37.9790 H   0  0  0  0  0  0  0  0  0  0  0  0
   16.7634   35.0598   37.7897 H   0  0  0  0  0  0  0  0  0  0  0  0
  1  2  2  0
  1  3  1  0
  3  4  1  0
  4  5  1  0
  6  1  1  0
  7  6  1  0
  6  8  1  0
  8  9  1  0
  9 10  1  0
 10 11  1  0
 11 12  1  0
 12 13  1  0
 13 14  1  0
 13 15  2  0
 14 16  1  0
 16 17  1  0
 17 18  2  0
 19 17  1  0
 18 20  1  0
 21 19  2  0
 19 22  1  0
 20 23  2  0
 23 21  1  0
 22 24  1  0
 22 25  2  0
  4 26  2  0
  4 27  1  0
 28 27  1  0
 28 29  1  0
 29 30  1  0
 29 31  1  0
 30 32  1  0
 31 33  1  0
 31 34  1  0
 34 32  1  0
 32 35  1  0
 34 36  1  0
 37 35  1  0
 38 35  1  0
 39 37  2  0
 37 40  1  0
 41 38  2  0
 42 39  1  0
 40 43  2  0
 40 41  1  0
 44 42  2  0
 44 43  1  0
 43 45  1  0
  6 46  1  6
  7 47  1  0
  7 48  1  0
  8 49  1  0
  8 50  1  0
  9 51  1  0
  9 52  1  0
 10 53  1  0
 10 54  1  0
 11 55  1  0
 11 56  1  0
 12 57  1  0
 16 58  1  0
 16 59  1  0
 18 60  1  0
 20 61  1  0
 21 62  1  0
 23 63  1  0
 28 64  1  0
 28 65  1  0
 29 66  1  0
 31 67  1  0
 32 68  1  0
 33 69  1  0
 34 70  1  0
 36 71  1  0
 38 72  1  0
 42 73  1  0
 45 74  1  0
 45 75  1  0
M  CHG  3   5  -1  22   1  24  -1
M  END
>  <EmbedRMS>  (118) 
0.0747532080006

$$$$

     RDKit          3D

 75 78  0  0  0  0  0  0  0  0999 V2000
    9.4312   42.9410   34.3436 C   0  0  0  0  0  0  0  0  0  0  0  0
   10.4885   43.0409   35.0293 O   0  0  0  0  0  0  0  0  0  0  0  0
    8.8562   41.7127   34.0287 O   0  0  0  0  0  0  0  0  0  0  0  0
    9.4944   40.2160   34.4677 P   0  0  0  0  0  0  0  0  0  0  0  0
    9.7313   40.1740   36.1288 O   0  0  0  0  0  0  0  0  0  0  0  0
    8.7484   44.1359   33.7721 C   0  0  1  0  0  0  0  0  0  0  0  0
    9.3038   45.3664   34.3388 N   0  0  0  0  0  0  0  0  0  0  0  0
    8.8893   44.0519   32.2308 C   0  0  0  0  0  0  0  0  0  0  0  0
    8.2015   45.1722   31.4435 C   0  0  0  0  0  0  0  0  0  0  0  0
    6.6643   45.1067   31.4886 C   0  0  0  0  0  0  0  0  0  0  0  0
    6.0267   46.3237   30.8121 C   0  0  0  0  0  0  0  0  0  0  0  0
    6.5080   47.5647   31.4187 N   0  0  0  0  0  0  0  0  0  0  0  0
    7.2429   48.5404   30.6827 C   0  0  0  0  0  0  0  0  0  0  0  0
    7.5856   49.7461   31.3038 O   0  0  0  0  0  0  0  0  0  0  0  0
    7.5936   48.3101   29.4944 O   0  0  0  0  0  0  0  0  0  0  0  0
    8.3219   50.7862   30.6611 C   0  0  0  0  0  0  0  0  0  0  0  0
    7.4964   51.4394   29.5754 C   0  0  0  0  0  0  0  0  0  0  0  0
    6.2475   51.9784   29.9343 C   0  0  0  0  0  0  0  0  0  0  0  0
    7.9609   51.6009   28.2424 C   0  0  0  0  0  0  0  0  0  0  0  0
    5.4688   52.6606   28.9985 C   0  0  0  0  0  0  0  0  0  0  0  0
    7.1706   52.3077   27.3203 C   0  0  0  0  0  0  0  0  0  0  0  0
    9.2246   51.0782   27.8064 N   0  0  0  0  0  0  0  0  0  0  0  0
    5.9311   52.8280   27.6947 C   0  0  0  0  0  0  0  0  0  0  0  0
   10.0171   51.8289   26.9690 O   0  0  0  0  0  0  0  0  0  0  0  0
    9.4877   49.8678   27.9569 O   0  0  0  0  0  0  0  0  0  0  0  0
    8.5373   39.1400   34.0125 O   0  0  0  0  0  0  0  0  0  0  0  0
   10.9796   40.0877   33.6826 O   0  0  0  0  0  0  0  0  0  0  0  0
   10.7996   40.0900   32.2829 C   0  0  0  0  0  0  0  0  0  0  0  0
   11.5968   38.9274   31.6963 C   0  0  0  0  0  0  0  0  0  0  0  0
   12.9242   38.9426   32.1785 O   0  0  0  0  0  0  0  0  0  0  0  0
   11.0086   37.5713   32.0781 C   0  0  0  0  0  0  0  0  0  0  0  0
   13.3528   37.5929   32.2623 C   0  0  0  0  0  0  0  0  0  0  0  0
    9.9098   37.1771   31.2926 O   0  0  0  0  0  0  0  0  0  0  0  0
   12.1943   36.6683   31.8995 C   0  0  0  0  0  0  0  0  0  0  0  0
   13.8019   37.2950   33.6199 N   0  0  0  0  0  0  0  0  0  0  0  0
   12.3026   36.2774   30.5558 O   0  0  0  0  0  0  0  0  0  0  0  0
   14.7926   36.4715   33.9865 C   0  0  0  0  0  0  0  0  0  0  0  0
   13.2749   37.7286   34.7946 C   0  0  0  0  0  0  0  0  0  0  0  0
   15.6239   35.7577   33.1860 N   0  0  0  0  0  0  0  0  0  0  0  0
   14.8727   36.4403   35.3332 C   0  0  0  0  0  0  0  0  0  0  0  0
   13.9210   37.2257   35.8812 N   0  0  0  0  0  0  0  0  0  0  0  0
   16.5873   34.9921   33.7802 C   0  0  0  0  0  0  0  0  0  0  0  0
   15.8579   35.6714   35.9444 C   0  0  0  0  0  0  0  0  0  0  0  0
   16.7028   34.9583   35.1439 N   0  0  0  0  0  0  0  0  0  0  0  0
   16.0104   35.6381   37.3564 N   0  0  0  0  0  0  0  0  0  0  0  0
    7.6764   44.0633   34.0547 H   0  0  0  0  0  0  0  0  0  0  0  0
    8.6468   46.1558   34.1431 H   0  0  0  0  0  0  0  0  0  0  0  0
   10.2152   45.5878   33.8748 H   0  0  0  0  0  0  0  0  0  0  0  0
    9.9708   44.0644   31.9679 H   0  0  0  0  0  0  0  0  0  0  0  0
    8.4831   43.0818   31.8665 H   0  0  0  0  0  0  0  0  0  0  0  0
    8.5198   45.0960   30.3807 H   0  0  0  0  0  0  0  0  0  0  0  0
    8.5714   46.1488   31.8173 H   0  0  0  0  0  0  0  0  0  0  0  0
    6.3142   45.0786   32.5413 H   0  0  0  0  0  0  0  0  0  0  0  0
    6.3148   44.1801   30.9836 H   0  0  0  0  0  0  0  0  0  0  0  0
    4.9234   46.2698   30.9296 H   0  0  0  0  0  0  0  0  0  0  0  0
    6.2450   46.2896   29.7230 H   0  0  0  0  0  0  0  0  0  0  0  0
    6.2847   47.7543   32.4216 H   0  0  0  0  0  0  0  0  0  0  0  0
    9.2924   50.3911   30.3045 H   0  0  0  0  0  0  0  0  0  0  0  0
    8.5616   51.5587   31.4218 H   0  0  0  0  0  0  0  0  0  0  0  0
    5.8801   51.8784   30.9485 H   0  0  0  0  0  0  0  0  0  0  0  0
    4.5092   53.0689   29.2882 H   0  0  0  0  0  0  0  0  0  0  0  0
    7.5113   52.4426   26.3014 H   0  0  0  0  0  0  0  0  0  0  0  0
    5.3283   53.3628   26.9720 H   0  0  0  0  0  0  0  0  0  0  0  0
   11.2094   41.0419   31.8824 H   0  0  0  0  0  0  0  0  0  0  0  0
    9.7449   40.0144   31.9264 H   0  0  0  0  0  0  0  0  0  0  0  0
   11.6265   39.0456   30.5888 H   0  0  0  0  0  0  0  0  0  0  0  0
   10.7064   37.5575   33.1485 H   0  0  0  0  0  0  0  0  0  0  0  0
   14.2021   37.4484   31.5574 H   0  0  0  0  0  0  0  0  0  0  0  0
   10.0952   37.3991   30.3434 H   0  0  0  0  0  0  0  0  0  0  0  0
   12.1163   35.7745   32.5634 H   0  0  0  0  0  0  0  0  0  0  0  0
   12.9614   35.5349   30.5312 H   0  0  0  0  0  0  0  0  0  0  0  0
   12.4321   38.3982   34.8705 H   0  0  0  0  0  0  0  0  0  0  0  0
   17.2669   34.4143   33.1690 H   0  0  0  0  0  0  0  0  0  0  0  0
   15.3761   36.1862   37.9792 H   0  0  0  0  0  0  0  0  0  0  0  0
   16.7641   35.0598   37.7897 H   0  0  0  0  0  0  0  0  0  0  0  0
  1  2  2  0
  1  3  1  0
  3  4  1  0
  4  5  1  0
  6  1  1  0
  7  6  1  0
  6  8  1  0
  8  9  1  0
  9 10  1  0
 10 11  1  0
 11 12  1  0
 12 13  1  0
 13 14  1  0
 13 15  2  0
 14 16  1  0
 16 17  1  0
 17 18  2  0
 19 17  1  0
 18 20  1  0
 21 19  2  0
 19 22  1  0
 20 23  2  0
 23 21  1  0
 22 24  1  0
 22 25  2  0
  4 26  2  0
  4 27  1  0
 28 27  1  0
 28 29  1  0
 29 30  1  0
 29 31  1  0
 30 32  1  0
 31 33  1  0
 31 34  1  0
 34 32  1  0
 32 35  1  0
 34 36  1  0
 37 35  1  0
 38 35  1  0
 39 37  2  0
 37 40  1  0
 41 38  2  0
 42 39  1  0
 40 43  2  0
 40 41  1  0
 44 42  2  0
 44 43  1  0
 43 45  1  0
  6 46  1  6
  7 47  1  0
  7 48  1  0
  8 49  1  0
  8 50  1  0
  9 51  1  0
  9 52  1  0
 10 53  1  0
 10 54  1  0
 11 55  1  0
 11 56  1  0
 12 57  1  0
 16 58  1  0
 16 59  1  0
 18 60  1  0
 20 61  1  0
 21 62  1  0
 23 63  1  0
 28 64  1  0
 28 65  1  0
 29 66  1  0
 31 67  1  0
 32 68  1  0
 33 69  1  0
 34 70  1  0
 36 71  1  0
 38 72  1  0
 42 73  1  0
 45 74  1  0
 45 75  1  0
M  CHG  3   5  -1  22   1  24  -1
M  END
>  <EmbedRMS>  (119) 
0.0737469306724

$$$$

     RDKit          3D

 75 78  0  0  0  0  0  0  0  0999 V2000
    9.4333   42.9366   34.3461 C   0  0  0  0  0  0  0  0  0  0  0  0
   10.4907   43.0330   35.0318 O   0  0  0  0  0  0  0  0  0  0  0  0
    8.8563   41.7104   34.0296 O   0  0  0  0  0  0  0  0  0  0  0  0
    9.4944   40.2141   34.4680 P   0  0  0  0  0  0  0  0  0  0  0  0
    9.7309   40.1726   36.1291 O   0  0  0  0  0  0  0  0  0  0  0  0
    8.7506   44.1349   33.7741 C   0  0  1  0  0  0  0  0  0  0  0  0
    9.2963   45.3821   34.3133 N   0  0  0  0  0  0  0  0  0  0  0  0
    8.8893   44.0528   32.2358 C   0  0  0  0  0  0  0  0  0  0  0  0
    8.2028   45.1825   31.4615 C   0  0  0  0  0  0  0  0  0  0  0  0
    6.6653   45.1046   31.4854 C   0  0  0  0  0  0  0  0  0  0  0  0
    6.0268   46.3225   30.8103 C   0  0  0  0  0  0  0  0  0  0  0  0
    6.5059   47.5640   31.4179 N   0  0  0  0  0  0  0  0  0  0  0  0
    7.2446   48.5386   30.6840 C   0  0  0  0  0  0  0  0  0  0  0  0
    7.5999   49.7367   31.3091 O   0  0  0  0  0  0  0  0  0  0  0  0
    7.5930   48.3120   29.4935 O   0  0  0  0  0  0  0  0  0  0  0  0
    8.3566   50.7523   30.6559 C   0  0  0  0  0  0  0  0  0  0  0  0
    8.6287   51.8812   31.6200 C   0  0  0  0  0  0  0  0  0  0  0  0
    9.1775   51.5653   32.8765 C   0  0  0  0  0  0  0  0  0  0  0  0
    8.3244   53.2347   31.3201 C   0  0  0  0  0  0  0  0  0  0  0  0
    9.3781   52.5579   33.8369 C   0  0  0  0  0  0  0  0  0  0  0  0
    8.5152   54.2176   32.3073 C   0  0  0  0  0  0  0  0  0  0  0  0
    7.8611   53.6335   30.0209 N   0  0  0  0  0  0  0  0  0  0  0  0
    9.0376   53.8800   33.5566 C   0  0  0  0  0  0  0  0  0  0  0  0
    8.5476   53.2366   28.8965 O   0  0  0  0  0  0  0  0  0  0  0  0
    6.9950   54.5262   29.9145 O   0  0  0  0  0  0  0  0  0  0  0  0
    8.5371   39.1386   34.0125 O   0  0  0  0  0  0  0  0  0  0  0  0
   10.9802   40.0879   33.6835 O   0  0  0  0  0  0  0  0  0  0  0  0
   10.8020   40.0894   32.2837 C   0  0  0  0  0  0  0  0  0  0  0  0
   11.5900   38.9178   31.7006 C   0  0  0  0  0  0  0  0  0  0  0  0
   12.9224   38.9390   32.1711 O   0  0  0  0  0  0  0  0  0  0  0  0
   11.0052   37.5676   32.0966 C   0  0  0  0  0  0  0  0  0  0  0  0
   13.3518   37.5909   32.2610 C   0  0  0  0  0  0  0  0  0  0  0  0
    9.9381   37.1795   31.2732 O   0  0  0  0  0  0  0  0  0  0  0  0
   12.1912   36.6689   31.9042 C   0  0  0  0  0  0  0  0  0  0  0  0
   13.8027   37.2968   33.6192 N   0  0  0  0  0  0  0  0  0  0  0  0
   12.2877   36.2853   30.5567 O   0  0  0  0  0  0  0  0  0  0  0  0
   14.7928   36.4724   33.9861 C   0  0  0  0  0  0  0  0  0  0  0  0
   13.2751   37.7297   34.7941 C   0  0  0  0  0  0  0  0  0  0  0  0
   15.6239   35.7581   33.1859 N   0  0  0  0  0  0  0  0  0  0  0  0
   14.8726   36.4408   35.3329 C   0  0  0  0  0  0  0  0  0  0  0  0
   13.9209   37.2262   35.8807 N   0  0  0  0  0  0  0  0  0  0  0  0
   16.5871   34.9922   33.7801 C   0  0  0  0  0  0  0  0  0  0  0  0
   15.8576   35.6716   35.9442 C   0  0  0  0  0  0  0  0  0  0  0  0
   16.7024   34.9584   35.1438 N   0  0  0  0  0  0  0  0  0  0  0  0
   16.0101   35.6383   37.3563 N   0  0  0  0  0  0  0  0  0  0  0  0
    7.6770   44.0707   34.0504 H   0  0  0  0  0  0  0  0  0  0  0  0
   10.3192   45.4408   34.0999 H   0  0  0  0  0  0  0  0  0  0  0  0
    9.1827   45.3821   35.3535 H   0  0  0  0  0  0  0  0  0  0  0  0
    8.4817   43.0852   31.8668 H   0  0  0  0  0  0  0  0  0  0  0  0
    9.9711   44.0683   31.9739 H   0  0  0  0  0  0  0  0  0  0  0  0
    8.5550   46.1511   31.8744 H   0  0  0  0  0  0  0  0  0  0  0  0
    8.5385   45.1365   30.4023 H   0  0  0  0  0  0  0  0  0  0  0  0
    6.3297   44.1799   30.9677 H   0  0  0  0  0  0  0  0  0  0  0  0
    6.3019   45.0642   32.5332 H   0  0  0  0  0  0  0  0  0  0  0  0
    6.2465   46.2897   29.7216 H   0  0  0  0  0  0  0  0  0  0  0  0
    4.9234   46.2671   30.9262 H   0  0  0  0  0  0  0  0  0  0  0  0
    6.2825   47.7525   32.4210 H   0  0  0  0  0  0  0  0  0  0  0  0
    7.7878   51.0895   29.7669 H   0  0  0  0  0  0  0  0  0  0  0  0
    9.3280   50.3310   30.3176 H   0  0  0  0  0  0  0  0  0  0  0  0
    9.4341   50.5412   33.1198 H   0  0  0  0  0  0  0  0  0  0  0  0
    9.7915   52.2997   34.8034 H   0  0  0  0  0  0  0  0  0  0  0  0
    8.2837   55.2544   32.0975 H   0  0  0  0  0  0  0  0  0  0  0  0
    9.1904   54.6476   34.3044 H   0  0  0  0  0  0  0  0  0  0  0  0
    9.7472   40.0309   31.9256 H   0  0  0  0  0  0  0  0  0  0  0  0
   11.2239   41.0357   31.8826 H   0  0  0  0  0  0  0  0  0  0  0  0
   11.5999   39.0159   30.5904 H   0  0  0  0  0  0  0  0  0  0  0  0
   10.7034   37.5449   33.1702 H   0  0  0  0  0  0  0  0  0  0  0  0
   14.1992   37.4424   31.5548 H   0  0  0  0  0  0  0  0  0  0  0  0
    9.1370   37.6634   31.6024 H   0  0  0  0  0  0  0  0  0  0  0  0
   12.1204   35.7712   32.5636 H   0  0  0  0  0  0  0  0  0  0  0  0
   12.9457   35.5426   30.5220 H   0  0  0  0  0  0  0  0  0  0  0  0
   12.4321   38.3988   34.8700 H   0  0  0  0  0  0  0  0  0  0  0  0
   17.2665   34.4142   33.1690 H   0  0  0  0  0  0  0  0  0  0  0  0
   16.7636   35.0598   37.7895 H   0  0  0  0  0  0  0  0  0  0  0  0
   15.3759   36.1865   37.9790 H   0  0  0  0  0  0  0  0  0  0  0  0
  1  2  2  0
  1  3  1  0
  3  4  1  0
  4  5  1  0
  6  1  1  0
  7  6  1  0
  6  8  1  0
  8  9  1  0
  9 10  1  0
 10 11  1  0
 11 12  1  0
 12 13  1  0
 13 14  1  0
 13 15  2  0
 14 16  1  0
 16 17  1  0
 17 18  2  0
 19 17  1  0
 18 20  1  0
 21 19  2  0
 19 22  1  0
 20 23  2  0
 23 21  1  0
 22 24  1  0
 22 25  2  0
  4 26  2  0
  4 27  1  0
 28 27  1  0
 28 29  1  0
 29 30  1  0
 29 31  1  0
 30 32  1  0
 31 33  1  0
 31 34  1  0
 34 32  1  0
 32 35  1  0
 34 36  1  0
 37 35  1  0
 38 35  1  0
 39 37  2  0
 37 40  1  0
 41 38  2  0
 42 39  1  0
 40 43  2  0
 40 41  1  0
 44 42  2  0
 44 43  1  0
 43 45  1  0
  6 46  1  6
  7 47  1  0
  7 48  1  0
  8 49  1  0
  8 50  1  0
  9 51  1  0
  9 52  1  0
 10 53  1  0
 10 54  1  0
 11 55  1  0
 11 56  1  0
 12 57  1  0
 16 58  1  0
 16 59  1  0
 18 60  1  0
 20 61  1  0
 21 62  1  0
 23 63  1  0
 28 64  1  0
 28 65  1  0
 29 66  1  0
 31 67  1  0
 32 68  1  0
 33 69  1  0
 34 70  1  0
 36 71  1  0
 38 72  1  0
 42 73  1  0
 45 74  1  0
 45 75  1  0
M  CHG  3   5  -1  22   1  24  -1
M  END
>  <EmbedRMS>  (120) 
0.0741079903406

$$$$

     RDKit          3D

 75 78  0  0  0  0  0  0  0  0999 V2000
    9.4312   42.9410   34.3437 C   0  0  0  0  0  0  0  0  0  0  0  0
   10.4885   43.0408   35.0293 O   0  0  0  0  0  0  0  0  0  0  0  0
    8.8562   41.7127   34.0287 O   0  0  0  0  0  0  0  0  0  0  0  0
    9.4944   40.2160   34.4677 P   0  0  0  0  0  0  0  0  0  0  0  0
    9.7313   40.1739   36.1288 O   0  0  0  0  0  0  0  0  0  0  0  0
    8.7484   44.1359   33.7721 C   0  0  1  0  0  0  0  0  0  0  0  0
    9.3039   45.3664   34.3388 N   0  0  0  0  0  0  0  0  0  0  0  0
    8.8893   44.0519   32.2308 C   0  0  0  0  0  0  0  0  0  0  0  0
    8.2015   45.1722   31.4435 C   0  0  0  0  0  0  0  0  0  0  0  0
    6.6643   45.1066   31.4887 C   0  0  0  0  0  0  0  0  0  0  0  0
    6.0267   46.3237   30.8123 C   0  0  0  0  0  0  0  0  0  0  0  0
    6.5081   47.5646   31.4190 N   0  0  0  0  0  0  0  0  0  0  0  0
    7.2423   48.5405   30.6826 C   0  0  0  0  0  0  0  0  0  0  0  0
    7.5855   49.7469   31.3026 O   0  0  0  0  0  0  0  0  0  0  0  0
    7.5941   48.3104   29.4938 O   0  0  0  0  0  0  0  0  0  0  0  0
    8.3067   50.7861   30.6424 C   0  0  0  0  0  0  0  0  0  0  0  0
    7.4429   51.4451   29.5900 C   0  0  0  0  0  0  0  0  0  0  0  0
    6.1740   51.9155   29.9736 C   0  0  0  0  0  0  0  0  0  0  0  0
    7.8419   51.5628   28.2325 C   0  0  0  0  0  0  0  0  0  0  0  0
    5.2979   52.4534   29.0298 C   0  0  0  0  0  0  0  0  0  0  0  0
    6.9382   52.0878   27.2934 C   0  0  0  0  0  0  0  0  0  0  0  0
    9.1527   51.1798   27.7909 N   0  0  0  0  0  0  0  0  0  0  0  0
    5.6755   52.5304   27.6904 C   0  0  0  0  0  0  0  0  0  0  0  0
    9.3096   50.5746   26.5654 O   0  0  0  0  0  0  0  0  0  0  0  0
   10.1625   51.6170   28.3803 O   0  0  0  0  0  0  0  0  0  0  0  0
    8.5373   39.1399   34.0125 O   0  0  0  0  0  0  0  0  0  0  0  0
   10.9796   40.0877   33.6826 O   0  0  0  0  0  0  0  0  0  0  0  0
   10.7997   40.0900   32.2829 C   0  0  0  0  0  0  0  0  0  0  0  0
   11.5968   38.9274   31.6963 C   0  0  0  0  0  0  0  0  0  0  0  0
   12.9242   38.9426   32.1785 O   0  0  0  0  0  0  0  0  0  0  0  0
   11.0086   37.5714   32.0780 C   0  0  0  0  0  0  0  0  0  0  0  0
   13.3528   37.5929   32.2623 C   0  0  0  0  0  0  0  0  0  0  0  0
    9.9098   37.1771   31.2926 O   0  0  0  0  0  0  0  0  0  0  0  0
   12.1942   36.6683   31.8995 C   0  0  0  0  0  0  0  0  0  0  0  0
   13.8019   37.2950   33.6199 N   0  0  0  0  0  0  0  0  0  0  0  0
   12.3026   36.2773   30.5559 O   0  0  0  0  0  0  0  0  0  0  0  0
   14.7926   36.4715   33.9865 C   0  0  0  0  0  0  0  0  0  0  0  0
   13.2749   37.7286   34.7946 C   0  0  0  0  0  0  0  0  0  0  0  0
   15.6239   35.7577   33.1860 N   0  0  0  0  0  0  0  0  0  0  0  0
   14.8727   36.4403   35.3332 C   0  0  0  0  0  0  0  0  0  0  0  0
   13.9210   37.2257   35.8812 N   0  0  0  0  0  0  0  0  0  0  0  0
   16.5873   34.9921   33.7802 C   0  0  0  0  0  0  0  0  0  0  0  0
   15.8579   35.6714   35.9444 C   0  0  0  0  0  0  0  0  0  0  0  0
   16.7028   34.9583   35.1439 N   0  0  0  0  0  0  0  0  0  0  0  0
   16.0104   35.6381   37.3564 N   0  0  0  0  0  0  0  0  0  0  0  0
    7.6764   44.0633   34.0547 H   0  0  0  0  0  0  0  0  0  0  0  0
    8.6469   46.1558   34.1431 H   0  0  0  0  0  0  0  0  0  0  0  0
   10.2152   45.5878   33.8748 H   0  0  0  0  0  0  0  0  0  0  0  0
    9.9708   44.0643   31.9679 H   0  0  0  0  0  0  0  0  0  0  0  0
    8.4831   43.0818   31.8665 H   0  0  0  0  0  0  0  0  0  0  0  0
    8.5198   45.0959   30.3807 H   0  0  0  0  0  0  0  0  0  0  0  0
    8.5714   46.1488   31.8174 H   0  0  0  0  0  0  0  0  0  0  0  0
    6.3148   44.1801   30.9835 H   0  0  0  0  0  0  0  0  0  0  0  0
    6.3142   45.0783   32.5413 H   0  0  0  0  0  0  0  0  0  0  0  0
    6.2448   46.2897   29.7232 H   0  0  0  0  0  0  0  0  0  0  0  0
    4.9233   46.2698   30.9299 H   0  0  0  0  0  0  0  0  0  0  0  0
    6.2850   47.7542   32.4220 H   0  0  0  0  0  0  0  0  0  0  0  0
    8.5899   51.5514   31.3951 H   0  0  0  0  0  0  0  0  0  0  0  0
    9.2434   50.3596   30.2328 H   0  0  0  0  0  0  0  0  0  0  0  0
    5.8545   51.8462   31.0064 H   0  0  0  0  0  0  0  0  0  0  0  0
    4.3205   52.8029   29.3366 H   0  0  0  0  0  0  0  0  0  0  0  0
    7.2235   52.1781   26.2528 H   0  0  0  0  0  0  0  0  0  0  0  0
    4.9924   52.9431   26.9592 H   0  0  0  0  0  0  0  0  0  0  0  0
   11.2095   41.0419   31.8824 H   0  0  0  0  0  0  0  0  0  0  0  0
    9.7449   40.0145   31.9263 H   0  0  0  0  0  0  0  0  0  0  0  0
   11.6265   39.0456   30.5888 H   0  0  0  0  0  0  0  0  0  0  0  0
   10.7064   37.5575   33.1485 H   0  0  0  0  0  0  0  0  0  0  0  0
   14.2021   37.4484   31.5574 H   0  0  0  0  0  0  0  0  0  0  0  0
   10.0952   37.3991   30.3433 H   0  0  0  0  0  0  0  0  0  0  0  0
   12.1163   35.7745   32.5634 H   0  0  0  0  0  0  0  0  0  0  0  0
   12.9614   35.5349   30.5312 H   0  0  0  0  0  0  0  0  0  0  0  0
   12.4321   38.3982   34.8705 H   0  0  0  0  0  0  0  0  0  0  0  0
   17.2669   34.4144   33.1690 H   0  0  0  0  0  0  0  0  0  0  0  0
   15.3761   36.1862   37.9792 H   0  0  0  0  0  0  0  0  0  0  0  0
   16.7641   35.0599   37.7896 H   0  0  0  0  0  0  0  0  0  0  0  0
  1  2  2  0
  1  3  1  0
  3  4  1  0
  4  5  1  0
  6  1  1  0
  7  6  1  0
  6  8  1  0
  8  9  1  0
  9 10  1  0
 10 11  1  0
 11 12  1  0
 12 13  1  0
 13 14  1  0
 13 15  2  0
 14 16  1  0
 16 17  1  0
 17 18  2  0
 19 17  1  0
 18 20  1  0
 21 19  2  0
 19 22  1  0
 20 23  2  0
 23 21  1  0
 22 24  1  0
 22 25  2  0
  4 26  2  0
  4 27  1  0
 28 27  1  0
 28 29  1  0
 29 30  1  0
 29 31  1  0
 30 32  1  0
 31 33  1  0
 31 34  1  0
 34 32  1  0
 32 35  1  0
 34 36  1  0
 37 35  1  0
 38 35  1  0
 39 37  2  0
 37 40  1  0
 41 38  2  0
 42 39  1  0
 40 43  2  0
 40 41  1  0
 44 42  2  0
 44 43  1  0
 43 45  1  0
  6 46  1  6
  7 47  1  0
  7 48  1  0
  8 49  1  0
  8 50  1  0
  9 51  1  0
  9 52  1  0
 10 53  1  0
 10 54  1  0
 11 55  1  0
 11 56  1  0
 12 57  1  0
 16 58  1  0
 16 59  1  0
 18 60  1  0
 20 61  1  0
 21 62  1  0
 23 63  1  0
 28 64  1  0
 28 65  1  0
 29 66  1  0
 31 67  1  0
 32 68  1  0
 33 69  1  0
 34 70  1  0
 36 71  1  0
 38 72  1  0
 42 73  1  0
 45 74  1  0
 45 75  1  0
M  CHG  3   5  -1  22   1  24  -1
M  END
>  <EmbedRMS>  (121) 
0.0737399713546

$$$$

     RDKit          3D

 75 78  0  0  0  0  0  0  0  0999 V2000
    9.4333   42.9364   34.3461 C   0  0  0  0  0  0  0  0  0  0  0  0
   10.4907   43.0329   35.0319 O   0  0  0  0  0  0  0  0  0  0  0  0
    8.8563   41.7103   34.0295 O   0  0  0  0  0  0  0  0  0  0  0  0
    9.4943   40.2139   34.4679 P   0  0  0  0  0  0  0  0  0  0  0  0
    9.7310   40.1724   36.1290 O   0  0  0  0  0  0  0  0  0  0  0  0
    8.7506   44.1347   33.7741 C   0  0  1  0  0  0  0  0  0  0  0  0
    9.2963   45.3819   34.3133 N   0  0  0  0  0  0  0  0  0  0  0  0
    8.8893   44.0527   32.2358 C   0  0  0  0  0  0  0  0  0  0  0  0
    8.2029   45.1823   31.4614 C   0  0  0  0  0  0  0  0  0  0  0  0
    6.6654   45.1046   31.4854 C   0  0  0  0  0  0  0  0  0  0  0  0
    6.0272   46.3228   30.8107 C   0  0  0  0  0  0  0  0  0  0  0  0
    6.5069   47.5640   31.4183 N   0  0  0  0  0  0  0  0  0  0  0  0
    7.2416   48.5404   30.6829 C   0  0  0  0  0  0  0  0  0  0  0  0
    7.5840   49.7467   31.3034 O   0  0  0  0  0  0  0  0  0  0  0  0
    7.5944   48.3107   29.4942 O   0  0  0  0  0  0  0  0  0  0  0  0
    8.3045   50.7867   30.6437 C   0  0  0  0  0  0  0  0  0  0  0  0
    7.4402   51.4458   29.5919 C   0  0  0  0  0  0  0  0  0  0  0  0
    6.1714   51.9160   29.9763 C   0  0  0  0  0  0  0  0  0  0  0  0
    7.8385   51.5640   28.2343 C   0  0  0  0  0  0  0  0  0  0  0  0
    5.2948   52.4542   29.0330 C   0  0  0  0  0  0  0  0  0  0  0  0
    6.9343   52.0892   27.2957 C   0  0  0  0  0  0  0  0  0  0  0  0
    9.1491   51.1812   27.7919 N   0  0  0  0  0  0  0  0  0  0  0  0
    5.6718   52.5316   27.6935 C   0  0  0  0  0  0  0  0  0  0  0  0
    9.3053   50.5759   26.5663 O   0  0  0  0  0  0  0  0  0  0  0  0
   10.1592   51.6185   28.3806 O   0  0  0  0  0  0  0  0  0  0  0  0
    8.5372   39.1382   34.0121 O   0  0  0  0  0  0  0  0  0  0  0  0
   10.9798   40.0870   33.6829 O   0  0  0  0  0  0  0  0  0  0  0  0
   10.8002   40.0905   32.2832 C   0  0  0  0  0  0  0  0  0  0  0  0
   11.5958   38.9270   31.6963 C   0  0  0  0  0  0  0  0  0  0  0  0
   12.9239   38.9408   32.1766 O   0  0  0  0  0  0  0  0  0  0  0  0
   11.0062   37.5719   32.0793 C   0  0  0  0  0  0  0  0  0  0  0  0
   13.3507   37.5905   32.2614 C   0  0  0  0  0  0  0  0  0  0  0  0
    9.9064   37.1792   31.2946 O   0  0  0  0  0  0  0  0  0  0  0  0
   12.1920   36.6671   31.9003 C   0  0  0  0  0  0  0  0  0  0  0  0
   13.8017   37.2948   33.6193 N   0  0  0  0  0  0  0  0  0  0  0  0
   12.3134   36.2787   30.5560 O   0  0  0  0  0  0  0  0  0  0  0  0
   14.7927   36.4716   33.9862 C   0  0  0  0  0  0  0  0  0  0  0  0
   13.2746   37.7284   34.7941 C   0  0  0  0  0  0  0  0  0  0  0  0
   15.6240   35.7576   33.1859 N   0  0  0  0  0  0  0  0  0  0  0  0
   14.8728   36.4406   35.3330 C   0  0  0  0  0  0  0  0  0  0  0  0
   13.9209   37.2258   35.8807 N   0  0  0  0  0  0  0  0  0  0  0  0
   16.5874   34.9920   33.7802 C   0  0  0  0  0  0  0  0  0  0  0  0
   15.8579   35.6716   35.9443 C   0  0  0  0  0  0  0  0  0  0  0  0
   16.7028   34.9584   35.1439 N   0  0  0  0  0  0  0  0  0  0  0  0
   16.0103   35.6383   37.3563 N   0  0  0  0  0  0  0  0  0  0  0  0
    7.6771   44.0706   34.0503 H   0  0  0  0  0  0  0  0  0  0  0  0
   10.3192   45.4405   34.1000 H   0  0  0  0  0  0  0  0  0  0  0  0
    9.1827   45.3819   35.3535 H   0  0  0  0  0  0  0  0  0  0  0  0
    8.4816   43.0851   31.8668 H   0  0  0  0  0  0  0  0  0  0  0  0
    9.9711   44.0680   31.9739 H   0  0  0  0  0  0  0  0  0  0  0  0
    8.5554   46.1509   31.8740 H   0  0  0  0  0  0  0  0  0  0  0  0
    8.5385   45.1362   30.4021 H   0  0  0  0  0  0  0  0  0  0  0  0
    6.3020   45.0641   32.5332 H   0  0  0  0  0  0  0  0  0  0  0  0
    6.3296   44.1801   30.9675 H   0  0  0  0  0  0  0  0  0  0  0  0
    6.2463   46.2901   29.7218 H   0  0  0  0  0  0  0  0  0  0  0  0
    4.9237   46.2678   30.9270 H   0  0  0  0  0  0  0  0  0  0  0  0
    6.2818   47.7536   32.4209 H   0  0  0  0  0  0  0  0  0  0  0  0
    9.2414   50.3610   30.2337 H   0  0  0  0  0  0  0  0  0  0  0  0
    8.5875   51.5516   31.3968 H   0  0  0  0  0  0  0  0  0  0  0  0
    5.8524   51.8463   31.0092 H   0  0  0  0  0  0  0  0  0  0  0  0
    4.3175   52.8036   29.3405 H   0  0  0  0  0  0  0  0  0  0  0  0
    7.2191   52.1799   26.2550 H   0  0  0  0  0  0  0  0  0  0  0  0
    4.9884   52.9446   26.9628 H   0  0  0  0  0  0  0  0  0  0  0  0
   11.2116   41.0420   31.8834 H   0  0  0  0  0  0  0  0  0  0  0  0
    9.7455   40.0168   31.9263 H   0  0  0  0  0  0  0  0  0  0  0  0
   11.6245   39.0449   30.5888 H   0  0  0  0  0  0  0  0  0  0  0  0
   10.7051   37.5579   33.1500 H   0  0  0  0  0  0  0  0  0  0  0  0
   14.1985   37.4426   31.5553 H   0  0  0  0  0  0  0  0  0  0  0  0
   10.0893   37.4056   30.3459 H   0  0  0  0  0  0  0  0  0  0  0  0
   12.1337   35.7754   32.5703 H   0  0  0  0  0  0  0  0  0  0  0  0
   11.7934   35.4394   30.4513 H   0  0  0  0  0  0  0  0  0  0  0  0
   12.4314   38.3972   34.8700 H   0  0  0  0  0  0  0  0  0  0  0  0
   17.2669   34.4141   33.1692 H   0  0  0  0  0  0  0  0  0  0  0  0
   16.7638   35.0599   37.7896 H   0  0  0  0  0  0  0  0  0  0  0  0
   15.3759   36.1865   37.9790 H   0  0  0  0  0  0  0  0  0  0  0  0
  1  2  2  0
  1  3  1  0
  3  4  1  0
  4  5  1  0
  6  1  1  0
  7  6  1  0
  6  8  1  0
  8  9  1  0
  9 10  1  0
 10 11  1  0
 11 12  1  0
 12 13  1  0
 13 14  1  0
 13 15  2  0
 14 16  1  0
 16 17  1  0
 17 18  2  0
 19 17  1  0
 18 20  1  0
 21 19  2  0
 19 22  1  0
 20 23  2  0
 23 21  1  0
 22 24  1  0
 22 25  2  0
  4 26  2  0
  4 27  1  0
 28 27  1  0
 28 29  1  0
 29 30  1  0
 29 31  1  0
 30 32  1  0
 31 33  1  0
 31 34  1  0
 34 32  1  0
 32 35  1  0
 34 36  1  0
 37 35  1  0
 38 35  1  0
 39 37  2  0
 37 40  1  0
 41 38  2  0
 42 39  1  0
 40 43  2  0
 40 41  1  0
 44 42  2  0
 44 43  1  0
 43 45  1  0
  6 46  1  6
  7 47  1  0
  7 48  1  0
  8 49  1  0
  8 50  1  0
  9 51  1  0
  9 52  1  0
 10 53  1  0
 10 54  1  0
 11 55  1  0
 11 56  1  0
 12 57  1  0
 16 58  1  0
 16 59  1  0
 18 60  1  0
 20 61  1  0
 21 62  1  0
 23 63  1  0
 28 64  1  0
 28 65  1  0
 29 66  1  0
 31 67  1  0
 32 68  1  0
 33 69  1  0
 34 70  1  0
 36 71  1  0
 38 72  1  0
 42 73  1  0
 45 74  1  0
 45 75  1  0
M  CHG  3   5  -1  22   1  24  -1
M  END
>  <EmbedRMS>  (122) 
0.0747432702857

$$$$

     RDKit          3D

 75 78  0  0  0  0  0  0  0  0999 V2000
    9.4313   42.9411   34.3437 C   0  0  0  0  0  0  0  0  0  0  0  0
   10.4886   43.0410   35.0294 O   0  0  0  0  0  0  0  0  0  0  0  0
    8.8562   41.7129   34.0288 O   0  0  0  0  0  0  0  0  0  0  0  0
    9.4947   40.2163   34.4679 P   0  0  0  0  0  0  0  0  0  0  0  0
    9.7311   40.1742   36.1290 O   0  0  0  0  0  0  0  0  0  0  0  0
    8.7484   44.1360   33.7721 C   0  0  1  0  0  0  0  0  0  0  0  0
    9.3039   45.3665   34.3388 N   0  0  0  0  0  0  0  0  0  0  0  0
    8.8892   44.0520   32.2308 C   0  0  0  0  0  0  0  0  0  0  0  0
    8.2014   45.1722   31.4436 C   0  0  0  0  0  0  0  0  0  0  0  0
    6.6642   45.1066   31.4887 C   0  0  0  0  0  0  0  0  0  0  0  0
    6.0264   46.3234   30.8120 C   0  0  0  0  0  0  0  0  0  0  0  0
    6.5072   47.5646   31.4186 N   0  0  0  0  0  0  0  0  0  0  0  0
    7.2445   48.5392   30.6835 C   0  0  0  0  0  0  0  0  0  0  0  0
    7.5971   49.7392   31.3065 O   0  0  0  0  0  0  0  0  0  0  0  0
    7.5930   48.3115   29.4933 O   0  0  0  0  0  0  0  0  0  0  0  0
    8.3503   50.7559   30.6509 C   0  0  0  0  0  0  0  0  0  0  0  0
    8.5273   51.9335   31.5782 C   0  0  0  0  0  0  0  0  0  0  0  0
    7.3832   52.4723   32.1949 C   0  0  0  0  0  0  0  0  0  0  0  0
    9.7986   52.4909   31.8744 C   0  0  0  0  0  0  0  0  0  0  0  0
    7.4946   53.5101   33.1217 C   0  0  0  0  0  0  0  0  0  0  0  0
    9.8927   53.5226   32.8251 C   0  0  0  0  0  0  0  0  0  0  0  0
   10.9891   52.0539   31.2013 N   0  0  0  0  0  0  0  0  0  0  0  0
    8.7481   54.0271   33.4440 C   0  0  0  0  0  0  0  0  0  0  0  0
   11.0169   51.9941   29.8270 O   0  0  0  0  0  0  0  0  0  0  0  0
   12.0634   51.9627   31.8305 O   0  0  0  0  0  0  0  0  0  0  0  0
    8.5375   39.1404   34.0127 O   0  0  0  0  0  0  0  0  0  0  0  0
   10.9805   40.0889   33.6836 O   0  0  0  0  0  0  0  0  0  0  0  0
   10.8025   40.0902   32.2837 C   0  0  0  0  0  0  0  0  0  0  0  0
   11.5888   38.9175   31.7008 C   0  0  0  0  0  0  0  0  0  0  0  0
   12.9219   38.9373   32.1692 O   0  0  0  0  0  0  0  0  0  0  0  0
   11.0028   37.5683   32.0981 C   0  0  0  0  0  0  0  0  0  0  0  0
   13.3496   37.5886   32.2601 C   0  0  0  0  0  0  0  0  0  0  0  0
    9.9343   37.1823   31.2757 O   0  0  0  0  0  0  0  0  0  0  0  0
   12.1891   36.6677   31.9050 C   0  0  0  0  0  0  0  0  0  0  0  0
   13.8025   37.2965   33.6186 N   0  0  0  0  0  0  0  0  0  0  0  0
   12.2990   36.2867   30.5568 O   0  0  0  0  0  0  0  0  0  0  0  0
   14.7929   36.4725   33.9858 C   0  0  0  0  0  0  0  0  0  0  0  0
   13.2749   37.7294   34.7935 C   0  0  0  0  0  0  0  0  0  0  0  0
   15.6240   35.7580   33.1858 N   0  0  0  0  0  0  0  0  0  0  0  0
   14.8727   36.4411   35.3327 C   0  0  0  0  0  0  0  0  0  0  0  0
   13.9208   37.2263   35.8803 N   0  0  0  0  0  0  0  0  0  0  0  0
   16.5871   34.9921   33.7801 C   0  0  0  0  0  0  0  0  0  0  0  0
   15.8576   35.6718   35.9441 C   0  0  0  0  0  0  0  0  0  0  0  0
   16.7024   34.9584   35.1438 N   0  0  0  0  0  0  0  0  0  0  0  0
   16.0099   35.6384   37.3562 N   0  0  0  0  0  0  0  0  0  0  0  0
    7.6764   44.0635   34.0548 H   0  0  0  0  0  0  0  0  0  0  0  0
    8.6468   46.1559   34.1432 H   0  0  0  0  0  0  0  0  0  0  0  0
   10.2152   45.5880   33.8747 H   0  0  0  0  0  0  0  0  0  0  0  0
    8.4831   43.0819   31.8666 H   0  0  0  0  0  0  0  0  0  0  0  0
    9.9708   44.0644   31.9679 H   0  0  0  0  0  0  0  0  0  0  0  0
    8.5712   46.1489   31.8175 H   0  0  0  0  0  0  0  0  0  0  0  0
    8.5198   45.0961   30.3808 H   0  0  0  0  0  0  0  0  0  0  0  0
    6.3148   44.1799   30.9839 H   0  0  0  0  0  0  0  0  0  0  0  0
    6.3141   45.0785   32.5414 H   0  0  0  0  0  0  0  0  0  0  0  0
    6.2450   46.2893   29.7230 H   0  0  0  0  0  0  0  0  0  0  0  0
    4.9231   46.2692   30.9293 H   0  0  0  0  0  0  0  0  0  0  0  0
    6.2850   47.7535   32.4219 H   0  0  0  0  0  0  0  0  0  0  0  0
    7.8046   51.0944   29.7436 H   0  0  0  0  0  0  0  0  0  0  0  0
    9.3203   50.3208   30.3387 H   0  0  0  0  0  0  0  0  0  0  0  0
    6.4013   52.0736   31.9701 H   0  0  0  0  0  0  0  0  0  0  0  0
    6.6073   53.9086   33.5964 H   0  0  0  0  0  0  0  0  0  0  0  0
   10.8550   53.9561   33.0668 H   0  0  0  0  0  0  0  0  0  0  0  0
    8.8324   54.8291   34.1660 H   0  0  0  0  0  0  0  0  0  0  0  0
    9.7476   40.0332   31.9256 H   0  0  0  0  0  0  0  0  0  0  0  0
   11.2257   41.0358   31.8825 H   0  0  0  0  0  0  0  0  0  0  0  0
   11.5975   39.0148   30.5905 H   0  0  0  0  0  0  0  0  0  0  0  0
   10.7023   37.5457   33.1720 H   0  0  0  0  0  0  0  0  0  0  0  0
   14.1957   37.4366   31.5528 H   0  0  0  0  0  0  0  0  0  0  0  0
    9.1339   37.6658   31.6070 H   0  0  0  0  0  0  0  0  0  0  0  0
   12.1380   35.7717   32.5698 H   0  0  0  0  0  0  0  0  0  0  0  0
   11.7706   35.4530   30.4497 H   0  0  0  0  0  0  0  0  0  0  0  0
   12.4314   38.3980   34.8694 H   0  0  0  0  0  0  0  0  0  0  0  0
   17.2665   34.4140   33.1691 H   0  0  0  0  0  0  0  0  0  0  0  0
   15.3757   36.1868   37.9789 H   0  0  0  0  0  0  0  0  0  0  0  0
   16.7633   35.0598   37.7895 H   0  0  0  0  0  0  0  0  0  0  0  0
  1  2  2  0
  1  3  1  0
  3  4  1  0
  4  5  1  0
  6  1  1  0
  7  6  1  0
  6  8  1  0
  8  9  1  0
  9 10  1  0
 10 11  1  0
 11 12  1  0
 12 13  1  0
 13 14  1  0
 13 15  2  0
 14 16  1  0
 16 17  1  0
 17 18  2  0
 19 17  1  0
 18 20  1  0
 21 19  2  0
 19 22  1  0
 20 23  2  0
 23 21  1  0
 22 24  1  0
 22 25  2  0
  4 26  2  0
  4 27  1  0
 28 27  1  0
 28 29  1  0
 29 30  1  0
 29 31  1  0
 30 32  1  0
 31 33  1  0
 31 34  1  0
 34 32  1  0
 32 35  1  0
 34 36  1  0
 37 35  1  0
 38 35  1  0
 39 37  2  0
 37 40  1  0
 41 38  2  0
 42 39  1  0
 40 43  2  0
 40 41  1  0
 44 42  2  0
 44 43  1  0
 43 45  1  0
  6 46  1  6
  7 47  1  0
  7 48  1  0
  8 49  1  0
  8 50  1  0
  9 51  1  0
  9 52  1  0
 10 53  1  0
 10 54  1  0
 11 55  1  0
 11 56  1  0
 12 57  1  0
 16 58  1  0
 16 59  1  0
 18 60  1  0
 20 61  1  0
 21 62  1  0
 23 63  1  0
 28 64  1  0
 28 65  1  0
 29 66  1  0
 31 67  1  0
 32 68  1  0
 33 69  1  0
 34 70  1  0
 36 71  1  0
 38 72  1  0
 42 73  1  0
 45 74  1  0
 45 75  1  0
M  CHG  3   5  -1  22   1  24  -1
M  END
>  <EmbedRMS>  (123) 
0.0734042060546

$$$$

     RDKit          3D

 75 78  0  0  0  0  0  0  0  0999 V2000
    9.4333   42.9364   34.3461 C   0  0  0  0  0  0  0  0  0  0  0  0
   10.4907   43.0329   35.0319 O   0  0  0  0  0  0  0  0  0  0  0  0
    8.8563   41.7103   34.0295 O   0  0  0  0  0  0  0  0  0  0  0  0
    9.4943   40.2139   34.4679 P   0  0  0  0  0  0  0  0  0  0  0  0
    9.7310   40.1724   36.1290 O   0  0  0  0  0  0  0  0  0  0  0  0
    8.7506   44.1348   33.7741 C   0  0  1  0  0  0  0  0  0  0  0  0
    9.2963   45.3820   34.3134 N   0  0  0  0  0  0  0  0  0  0  0  0
    8.8893   44.0527   32.2358 C   0  0  0  0  0  0  0  0  0  0  0  0
    8.2028   45.1823   31.4615 C   0  0  0  0  0  0  0  0  0  0  0  0
    6.6653   45.1046   31.4856 C   0  0  0  0  0  0  0  0  0  0  0  0
    6.0270   46.3226   30.8106 C   0  0  0  0  0  0  0  0  0  0  0  0
    6.5064   47.5640   31.4180 N   0  0  0  0  0  0  0  0  0  0  0  0
    7.2434   48.5393   30.6834 C   0  0  0  0  0  0  0  0  0  0  0  0
    7.5915   49.7408   31.3056 O   0  0  0  0  0  0  0  0  0  0  0  0
    7.5935   48.3117   29.4936 O   0  0  0  0  0  0  0  0  0  0  0  0
    8.3328   50.7630   30.6465 C   0  0  0  0  0  0  0  0  0  0  0  0
    8.5091   51.9415   31.5714 C   0  0  0  0  0  0  0  0  0  0  0  0
    9.8147   52.3688   31.8782 C   0  0  0  0  0  0  0  0  0  0  0  0
    7.4039   52.6032   32.1731 C   0  0  0  0  0  0  0  0  0  0  0  0
   10.0300   53.4214   32.7684 C   0  0  0  0  0  0  0  0  0  0  0  0
    7.6457   53.6525   33.0794 C   0  0  0  0  0  0  0  0  0  0  0  0
    6.0439   52.2180   31.8986 N   0  0  0  0  0  0  0  0  0  0  0  0
    8.9481   54.0595   33.3705 C   0  0  0  0  0  0  0  0  0  0  0  0
    5.6516   51.8779   30.6252 O   0  0  0  0  0  0  0  0  0  0  0  0
    5.1691   52.3424   32.7807 O   0  0  0  0  0  0  0  0  0  0  0  0
    8.5372   39.1382   34.0121 O   0  0  0  0  0  0  0  0  0  0  0  0
   10.9798   40.0871   33.6829 O   0  0  0  0  0  0  0  0  0  0  0  0
   10.8002   40.0905   32.2832 C   0  0  0  0  0  0  0  0  0  0  0  0
   11.5958   38.9271   31.6963 C   0  0  0  0  0  0  0  0  0  0  0  0
   12.9239   38.9409   32.1766 O   0  0  0  0  0  0  0  0  0  0  0  0
   11.0062   37.5719   32.0793 C   0  0  0  0  0  0  0  0  0  0  0  0
   13.3507   37.5905   32.2614 C   0  0  0  0  0  0  0  0  0  0  0  0
    9.9064   37.1792   31.2946 O   0  0  0  0  0  0  0  0  0  0  0  0
   12.1920   36.6671   31.9003 C   0  0  0  0  0  0  0  0  0  0  0  0
   13.8017   37.2948   33.6193 N   0  0  0  0  0  0  0  0  0  0  0  0
   12.3134   36.2787   30.5560 O   0  0  0  0  0  0  0  0  0  0  0  0
   14.7927   36.4716   33.9861 C   0  0  0  0  0  0  0  0  0  0  0  0
   13.2746   37.7284   34.7941 C   0  0  0  0  0  0  0  0  0  0  0  0
   15.6240   35.7576   33.1859 N   0  0  0  0  0  0  0  0  0  0  0  0
   14.8728   36.4406   35.3330 C   0  0  0  0  0  0  0  0  0  0  0  0
   13.9209   37.2258   35.8807 N   0  0  0  0  0  0  0  0  0  0  0  0
   16.5874   34.9920   33.7802 C   0  0  0  0  0  0  0  0  0  0  0  0
   15.8579   35.6716   35.9443 C   0  0  0  0  0  0  0  0  0  0  0  0
   16.7028   34.9584   35.1439 N   0  0  0  0  0  0  0  0  0  0  0  0
   16.0103   35.6383   37.3563 N   0  0  0  0  0  0  0  0  0  0  0  0
    7.6770   44.0706   34.0504 H   0  0  0  0  0  0  0  0  0  0  0  0
   10.3192   45.4406   34.1000 H   0  0  0  0  0  0  0  0  0  0  0  0
    9.1827   45.3820   35.3535 H   0  0  0  0  0  0  0  0  0  0  0  0
    9.9711   44.0682   31.9739 H   0  0  0  0  0  0  0  0  0  0  0  0
    8.4817   43.0851   31.8668 H   0  0  0  0  0  0  0  0  0  0  0  0
    8.5384   45.1363   30.4022 H   0  0  0  0  0  0  0  0  0  0  0  0
    8.5552   46.1510   31.8743 H   0  0  0  0  0  0  0  0  0  0  0  0
    6.3020   45.0643   32.5334 H   0  0  0  0  0  0  0  0  0  0  0  0
    6.3296   44.1800   30.9678 H   0  0  0  0  0  0  0  0  0  0  0  0
    6.2465   46.2898   29.7217 H   0  0  0  0  0  0  0  0  0  0  0  0
    4.9235   46.2674   30.9266 H   0  0  0  0  0  0  0  0  0  0  0  0
    6.2816   47.7535   32.4207 H   0  0  0  0  0  0  0  0  0  0  0  0
    9.3171   50.3488   30.3353 H   0  0  0  0  0  0  0  0  0  0  0  0
    7.8081   51.0867   29.7233 H   0  0  0  0  0  0  0  0  0  0  0  0
   10.6736   51.8813   31.4336 H   0  0  0  0  0  0  0  0  0  0  0  0
   11.0394   53.7389   32.9965 H   0  0  0  0  0  0  0  0  0  0  0  0
    6.8196   54.1684   33.5524 H   0  0  0  0  0  0  0  0  0  0  0  0
    9.1182   54.8731   34.0638 H   0  0  0  0  0  0  0  0  0  0  0  0
    9.7455   40.0167   31.9263 H   0  0  0  0  0  0  0  0  0  0  0  0
   11.2116   41.0420   31.8834 H   0  0  0  0  0  0  0  0  0  0  0  0
   11.6245   39.0449   30.5888 H   0  0  0  0  0  0  0  0  0  0  0  0
   10.7051   37.5580   33.1499 H   0  0  0  0  0  0  0  0  0  0  0  0
   14.1985   37.4426   31.5553 H   0  0  0  0  0  0  0  0  0  0  0  0
   10.0893   37.4057   30.3459 H   0  0  0  0  0  0  0  0  0  0  0  0
   12.1337   35.7754   32.5703 H   0  0  0  0  0  0  0  0  0  0  0  0
   11.7934   35.4394   30.4513 H   0  0  0  0  0  0  0  0  0  0  0  0
   12.4314   38.3972   34.8700 H   0  0  0  0  0  0  0  0  0  0  0  0
   17.2669   34.4141   33.1692 H   0  0  0  0  0  0  0  0  0  0  0  0
   16.7638   35.0599   37.7897 H   0  0  0  0  0  0  0  0  0  0  0  0
   15.3759   36.1865   37.9790 H   0  0  0  0  0  0  0  0  0  0  0  0
  1  2  2  0
  1  3  1  0
  3  4  1  0
  4  5  1  0
  6  1  1  0
  7  6  1  0
  6  8  1  0
  8  9  1  0
  9 10  1  0
 10 11  1  0
 11 12  1  0
 12 13  1  0
 13 14  1  0
 13 15  2  0
 14 16  1  0
 16 17  1  0
 17 18  2  0
 19 17  1  0
 18 20  1  0
 21 19  2  0
 19 22  1  0
 20 23  2  0
 23 21  1  0
 22 24  1  0
 22 25  2  0
  4 26  2  0
  4 27  1  0
 28 27  1  0
 28 29  1  0
 29 30  1  0
 29 31  1  0
 30 32  1  0
 31 33  1  0
 31 34  1  0
 34 32  1  0
 32 35  1  0
 34 36  1  0
 37 35  1  0
 38 35  1  0
 39 37  2  0
 37 40  1  0
 41 38  2  0
 42 39  1  0
 40 43  2  0
 40 41  1  0
 44 42  2  0
 44 43  1  0
 43 45  1  0
  6 46  1  6
  7 47  1  0
  7 48  1  0
  8 49  1  0
  8 50  1  0
  9 51  1  0
  9 52  1  0
 10 53  1  0
 10 54  1  0
 11 55  1  0
 11 56  1  0
 12 57  1  0
 16 58  1  0
 16 59  1  0
 18 60  1  0
 20 61  1  0
 21 62  1  0
 23 63  1  0
 28 64  1  0
 28 65  1  0
 29 66  1  0
 31 67  1  0
 32 68  1  0
 33 69  1  0
 34 70  1  0
 36 71  1  0
 38 72  1  0
 42 73  1  0
 45 74  1  0
 45 75  1  0
M  CHG  3   5  -1  22   1  24  -1
M  END
>  <EmbedRMS>  (124) 
0.0747846324069

$$$$

     RDKit          3D

 75 78  0  0  0  0  0  0  0  0999 V2000
    9.4312   42.9411   34.3437 C   0  0  0  0  0  0  0  0  0  0  0  0
   10.4885   43.0410   35.0294 O   0  0  0  0  0  0  0  0  0  0  0  0
    8.8562   41.7128   34.0288 O   0  0  0  0  0  0  0  0  0  0  0  0
    9.4947   40.2163   34.4679 P   0  0  0  0  0  0  0  0  0  0  0  0
    9.7310   40.1742   36.1290 O   0  0  0  0  0  0  0  0  0  0  0  0
    8.7484   44.1360   33.7721 C   0  0  1  0  0  0  0  0  0  0  0  0
    9.3038   45.3665   34.3388 N   0  0  0  0  0  0  0  0  0  0  0  0
    8.8892   44.0519   32.2308 C   0  0  0  0  0  0  0  0  0  0  0  0
    8.2015   45.1721   31.4435 C   0  0  0  0  0  0  0  0  0  0  0  0
    6.6642   45.1066   31.4886 C   0  0  0  0  0  0  0  0  0  0  0  0
    6.0267   46.3237   30.8122 C   0  0  0  0  0  0  0  0  0  0  0  0
    6.5084   47.5645   31.4188 N   0  0  0  0  0  0  0  0  0  0  0  0
    7.2423   48.5408   30.6825 C   0  0  0  0  0  0  0  0  0  0  0  0
    7.5899   49.7440   31.3058 O   0  0  0  0  0  0  0  0  0  0  0  0
    7.5938   48.3102   29.4941 O   0  0  0  0  0  0  0  0  0  0  0  0
    8.2808   50.8042   30.6473 C   0  0  0  0  0  0  0  0  0  0  0  0
    7.3698   51.5132   29.6728 C   0  0  0  0  0  0  0  0  0  0  0  0
    7.5284   51.2574   28.2981 C   0  0  0  0  0  0  0  0  0  0  0  0
    6.3954   52.4586   30.0945 C   0  0  0  0  0  0  0  0  0  0  0  0
    6.7397   51.9153   27.3540 C   0  0  0  0  0  0  0  0  0  0  0  0
    5.6208   53.1204   29.1232 C   0  0  0  0  0  0  0  0  0  0  0  0
    6.1979   52.7839   31.4836 N   0  0  0  0  0  0  0  0  0  0  0  0
    5.7888   52.8459   27.7656 C   0  0  0  0  0  0  0  0  0  0  0  0
    6.2464   51.8085   32.4515 O   0  0  0  0  0  0  0  0  0  0  0  0
    5.8254   53.9302   31.8095 O   0  0  0  0  0  0  0  0  0  0  0  0
    8.5375   39.1404   34.0127 O   0  0  0  0  0  0  0  0  0  0  0  0
   10.9805   40.0889   33.6836 O   0  0  0  0  0  0  0  0  0  0  0  0
   10.8025   40.0902   32.2838 C   0  0  0  0  0  0  0  0  0  0  0  0
   11.5888   38.9175   31.7008 C   0  0  0  0  0  0  0  0  0  0  0  0
   12.9219   38.9373   32.1693 O   0  0  0  0  0  0  0  0  0  0  0  0
   11.0028   37.5683   32.0981 C   0  0  0  0  0  0  0  0  0  0  0  0
   13.3496   37.5886   32.2601 C   0  0  0  0  0  0  0  0  0  0  0  0
    9.9343   37.1823   31.2757 O   0  0  0  0  0  0  0  0  0  0  0  0
   12.1891   36.6677   31.9050 C   0  0  0  0  0  0  0  0  0  0  0  0
   13.8025   37.2965   33.6187 N   0  0  0  0  0  0  0  0  0  0  0  0
   12.2990   36.2868   30.5568 O   0  0  0  0  0  0  0  0  0  0  0  0
   14.7929   36.4725   33.9858 C   0  0  0  0  0  0  0  0  0  0  0  0
   13.2749   37.7294   34.7936 C   0  0  0  0  0  0  0  0  0  0  0  0
   15.6240   35.7580   33.1858 N   0  0  0  0  0  0  0  0  0  0  0  0
   14.8727   36.4411   35.3327 C   0  0  0  0  0  0  0  0  0  0  0  0
   13.9208   37.2263   35.8803 N   0  0  0  0  0  0  0  0  0  0  0  0
   16.5871   34.9921   33.7801 C   0  0  0  0  0  0  0  0  0  0  0  0
   15.8576   35.6718   35.9441 C   0  0  0  0  0  0  0  0  0  0  0  0
   16.7024   34.9584   35.1438 N   0  0  0  0  0  0  0  0  0  0  0  0
   16.0099   35.6384   37.3562 N   0  0  0  0  0  0  0  0  0  0  0  0
    7.6764   44.0634   34.0547 H   0  0  0  0  0  0  0  0  0  0  0  0
    8.6468   46.1558   34.1431 H   0  0  0  0  0  0  0  0  0  0  0  0
   10.2152   45.5879   33.8747 H   0  0  0  0  0  0  0  0  0  0  0  0
    8.4830   43.0818   31.8666 H   0  0  0  0  0  0  0  0  0  0  0  0
    9.9708   44.0643   31.9679 H   0  0  0  0  0  0  0  0  0  0  0  0
    8.5198   45.0959   30.3807 H   0  0  0  0  0  0  0  0  0  0  0  0
    8.5714   46.1487   31.8173 H   0  0  0  0  0  0  0  0  0  0  0  0
    6.3142   45.0783   32.5413 H   0  0  0  0  0  0  0  0  0  0  0  0
    6.3147   44.1801   30.9835 H   0  0  0  0  0  0  0  0  0  0  0  0
    6.2447   46.2897   29.7231 H   0  0  0  0  0  0  0  0  0  0  0  0
    4.9234   46.2700   30.9301 H   0  0  0  0  0  0  0  0  0  0  0  0
    6.2859   47.7539   32.4220 H   0  0  0  0  0  0  0  0  0  0  0  0
    9.1823   50.3978   30.1379 H   0  0  0  0  0  0  0  0  0  0  0  0
    8.6514   51.5273   31.4037 H   0  0  0  0  0  0  0  0  0  0  0  0
    8.2699   50.5477   27.9524 H   0  0  0  0  0  0  0  0  0  0  0  0
    6.8709   51.7068   26.3000 H   0  0  0  0  0  0  0  0  0  0  0  0
    4.8736   53.8456   29.4200 H   0  0  0  0  0  0  0  0  0  0  0  0
    5.1807   53.3579   27.0310 H   0  0  0  0  0  0  0  0  0  0  0  0
   11.2257   41.0358   31.8825 H   0  0  0  0  0  0  0  0  0  0  0  0
    9.7476   40.0331   31.9256 H   0  0  0  0  0  0  0  0  0  0  0  0
   11.5975   39.0148   30.5905 H   0  0  0  0  0  0  0  0  0  0  0  0
   10.7023   37.5457   33.1720 H   0  0  0  0  0  0  0  0  0  0  0  0
   14.1957   37.4366   31.5528 H   0  0  0  0  0  0  0  0  0  0  0  0
    9.1339   37.6658   31.6070 H   0  0  0  0  0  0  0  0  0  0  0  0
   12.1380   35.7717   32.5698 H   0  0  0  0  0  0  0  0  0  0  0  0
   11.7707   35.4530   30.4496 H   0  0  0  0  0  0  0  0  0  0  0  0
   12.4314   38.3980   34.8694 H   0  0  0  0  0  0  0  0  0  0  0  0
   17.2665   34.4140   33.1691 H   0  0  0  0  0  0  0  0  0  0  0  0
   15.3757   36.1868   37.9789 H   0  0  0  0  0  0  0  0  0  0  0  0
   16.7633   35.0598   37.7895 H   0  0  0  0  0  0  0  0  0  0  0  0
  1  2  2  0
  1  3  1  0
  3  4  1  0
  4  5  1  0
  6  1  1  0
  7  6  1  0
  6  8  1  0
  8  9  1  0
  9 10  1  0
 10 11  1  0
 11 12  1  0
 12 13  1  0
 13 14  1  0
 13 15  2  0
 14 16  1  0
 16 17  1  0
 17 18  2  0
 19 17  1  0
 18 20  1  0
 21 19  2  0
 19 22  1  0
 20 23  2  0
 23 21  1  0
 22 24  1  0
 22 25  2  0
  4 26  2  0
  4 27  1  0
 28 27  1  0
 28 29  1  0
 29 30  1  0
 29 31  1  0
 30 32  1  0
 31 33  1  0
 31 34  1  0
 34 32  1  0
 32 35  1  0
 34 36  1  0
 37 35  1  0
 38 35  1  0
 39 37  2  0
 37 40  1  0
 41 38  2  0
 42 39  1  0
 40 43  2  0
 40 41  1  0
 44 42  2  0
 44 43  1  0
 43 45  1  0
  6 46  1  6
  7 47  1  0
  7 48  1  0
  8 49  1  0
  8 50  1  0
  9 51  1  0
  9 52  1  0
 10 53  1  0
 10 54  1  0
 11 55  1  0
 11 56  1  0
 12 57  1  0
 16 58  1  0
 16 59  1  0
 18 60  1  0
 20 61  1  0
 21 62  1  0
 23 63  1  0
 28 64  1  0
 28 65  1  0
 29 66  1  0
 31 67  1  0
 32 68  1  0
 33 69  1  0
 34 70  1  0
 36 71  1  0
 38 72  1  0
 42 73  1  0
 45 74  1  0
 45 75  1  0
M  CHG  3   5  -1  22   1  24  -1
M  END
>  <EmbedRMS>  (125) 
0.073336795557

$$$$

     RDKit          3D

 75 78  0  0  0  0  0  0  0  0999 V2000
    9.4313   42.9417   34.3434 C   0  0  0  0  0  0  0  0  0  0  0  0
   10.4886   43.0413   35.0292 O   0  0  0  0  0  0  0  0  0  0  0  0
    8.8558   41.7133   34.0290 O   0  0  0  0  0  0  0  0  0  0  0  0
    9.4945   40.2166   34.4675 P   0  0  0  0  0  0  0  0  0  0  0  0
    9.7318   40.1741   36.1285 O   0  0  0  0  0  0  0  0  0  0  0  0
    8.7488   44.1369   33.7717 C   0  0  1  0  0  0  0  0  0  0  0  0
    9.3051   45.3676   34.3376 N   0  0  0  0  0  0  0  0  0  0  0  0
    8.8890   44.0527   32.2303 C   0  0  0  0  0  0  0  0  0  0  0  0
    8.2004   45.1730   31.4436 C   0  0  0  0  0  0  0  0  0  0  0  0
    6.6633   45.1070   31.4883 C   0  0  0  0  0  0  0  0  0  0  0  0
    6.0244   46.3228   30.8098 C   0  0  0  0  0  0  0  0  0  0  0  0
    6.5005   47.5655   31.4169 N   0  0  0  0  0  0  0  0  0  0  0  0
    7.2530   48.5335   30.6888 C   0  0  0  0  0  0  0  0  0  0  0  0
    7.6508   49.7114   31.3328 O   0  0  0  0  0  0  0  0  0  0  0  0
    7.5937   48.3102   29.4954 O   0  0  0  0  0  0  0  0  0  0  0  0
    8.5349   50.6673   30.7452 C   0  0  0  0  0  0  0  0  0  0  0  0
    9.9999   50.3093   30.9281 C   0  0  0  0  0  0  0  0  0  0  0  0
   10.3732   49.1076   31.5702 C   0  0  0  0  0  0  0  0  0  0  0  0
   11.0224   51.2080   30.5153 C   0  0  0  0  0  0  0  0  0  0  0  0
   11.7161   48.7945   31.7806 C   0  0  0  0  0  0  0  0  0  0  0  0
   12.3693   50.8770   30.7520 C   0  0  0  0  0  0  0  0  0  0  0  0
   10.7189   52.4689   29.8904 N   0  0  0  0  0  0  0  0  0  0  0  0
   12.7120   49.6765   31.3722 C   0  0  0  0  0  0  0  0  0  0  0  0
    9.7642   52.5536   28.9044 O   0  0  0  0  0  0  0  0  0  0  0  0
   11.4411   53.4633   30.1105 O   0  0  0  0  0  0  0  0  0  0  0  0
    8.5374   39.1403   34.0124 O   0  0  0  0  0  0  0  0  0  0  0  0
   10.9796   40.0898   33.6814 O   0  0  0  0  0  0  0  0  0  0  0  0
   10.7982   40.0851   32.2818 C   0  0  0  0  0  0  0  0  0  0  0  0
   11.5886   38.9143   31.7009 C   0  0  0  0  0  0  0  0  0  0  0  0
   12.9213   38.9368   32.1699 O   0  0  0  0  0  0  0  0  0  0  0  0
   11.0047   37.5661   32.0991 C   0  0  0  0  0  0  0  0  0  0  0  0
   13.3510   37.5885   32.2602 C   0  0  0  0  0  0  0  0  0  0  0  0
    9.9296   37.1962   31.2780 O   0  0  0  0  0  0  0  0  0  0  0  0
   12.1923   36.6659   31.9047 C   0  0  0  0  0  0  0  0  0  0  0  0
   13.8033   37.2967   33.6188 N   0  0  0  0  0  0  0  0  0  0  0  0
   12.3006   36.2865   30.5562 O   0  0  0  0  0  0  0  0  0  0  0  0
   14.7933   36.4724   33.9860 C   0  0  0  0  0  0  0  0  0  0  0  0
   13.2753   37.7296   34.7935 C   0  0  0  0  0  0  0  0  0  0  0  0
   15.6243   35.7579   33.1860 N   0  0  0  0  0  0  0  0  0  0  0  0
   14.8728   36.4410   35.3328 C   0  0  0  0  0  0  0  0  0  0  0  0
   13.9209   37.2263   35.8804 N   0  0  0  0  0  0  0  0  0  0  0  0
   16.5873   34.9919   33.7803 C   0  0  0  0  0  0  0  0  0  0  0  0
   15.8577   35.6717   35.9443 C   0  0  0  0  0  0  0  0  0  0  0  0
   16.7025   34.9583   35.1440 N   0  0  0  0  0  0  0  0  0  0  0  0
   16.0100   35.6384   37.3563 N   0  0  0  0  0  0  0  0  0  0  0  0
    7.6769   44.0650   34.0546 H   0  0  0  0  0  0  0  0  0  0  0  0
    8.6477   46.1570   34.1432 H   0  0  0  0  0  0  0  0  0  0  0  0
   10.2152   45.5901   33.8714 H   0  0  0  0  0  0  0  0  0  0  0  0
    9.9705   44.0658   31.9670 H   0  0  0  0  0  0  0  0  0  0  0  0
    8.4830   43.0825   31.8662 H   0  0  0  0  0  0  0  0  0  0  0  0
    8.5198   45.0990   30.3809 H   0  0  0  0  0  0  0  0  0  0  0  0
    8.5683   46.1486   31.8195 H   0  0  0  0  0  0  0  0  0  0  0  0
    6.3146   44.1796   30.9843 H   0  0  0  0  0  0  0  0  0  0  0  0
    6.3130   45.0797   32.5409 H   0  0  0  0  0  0  0  0  0  0  0  0
    4.9209   46.2662   30.9243 H   0  0  0  0  0  0  0  0  0  0  0  0
    6.2455   46.2890   29.7213 H   0  0  0  0  0  0  0  0  0  0  0  0
    6.2797   47.7520   32.4210 H   0  0  0  0  0  0  0  0  0  0  0  0
    8.2938   50.7726   29.6670 H   0  0  0  0  0  0  0  0  0  0  0  0
    8.3506   51.6462   31.2358 H   0  0  0  0  0  0  0  0  0  0  0  0
    9.6348   48.4066   31.9304 H   0  0  0  0  0  0  0  0  0  0  0  0
   11.9841   47.8677   32.2718 H   0  0  0  0  0  0  0  0  0  0  0  0
   13.1597   51.5499   30.4440 H   0  0  0  0  0  0  0  0  0  0  0  0
   13.7529   49.4327   31.5417 H   0  0  0  0  0  0  0  0  0  0  0  0
   11.2130   41.0322   31.8751 H   0  0  0  0  0  0  0  0  0  0  0  0
    9.7427   40.0141   31.9266 H   0  0  0  0  0  0  0  0  0  0  0  0
   11.5981   39.0108   30.5905 H   0  0  0  0  0  0  0  0  0  0  0  0
   10.7008   37.5604   33.1721 H   0  0  0  0  0  0  0  0  0  0  0  0
   14.1976   37.4380   31.5532 H   0  0  0  0  0  0  0  0  0  0  0  0
    9.5180   36.3962   31.6978 H   0  0  0  0  0  0  0  0  0  0  0  0
   12.1418   35.7698   32.5693 H   0  0  0  0  0  0  0  0  0  0  0  0
   11.7729   35.4524   30.4489 H   0  0  0  0  0  0  0  0  0  0  0  0
   12.4321   38.3985   34.8692 H   0  0  0  0  0  0  0  0  0  0  0  0
   17.2667   34.4138   33.1694 H   0  0  0  0  0  0  0  0  0  0  0  0
   15.3757   36.1867   37.9790 H   0  0  0  0  0  0  0  0  0  0  0  0
   16.7634   35.0598   37.7897 H   0  0  0  0  0  0  0  0  0  0  0  0
  1  2  2  0
  1  3  1  0
  3  4  1  0
  4  5  1  0
  6  1  1  0
  7  6  1  0
  6  8  1  0
  8  9  1  0
  9 10  1  0
 10 11  1  0
 11 12  1  0
 12 13  1  0
 13 14  1  0
 13 15  2  0
 14 16  1  0
 16 17  1  0
 17 18  2  0
 19 17  1  0
 18 20  1  0
 21 19  2  0
 19 22  1  0
 20 23  2  0
 23 21  1  0
 22 24  1  0
 22 25  2  0
  4 26  2  0
  4 27  1  0
 28 27  1  0
 28 29  1  0
 29 30  1  0
 29 31  1  0
 30 32  1  0
 31 33  1  0
 31 34  1  0
 34 32  1  0
 32 35  1  0
 34 36  1  0
 37 35  1  0
 38 35  1  0
 39 37  2  0
 37 40  1  0
 41 38  2  0
 42 39  1  0
 40 43  2  0
 40 41  1  0
 44 42  2  0
 44 43  1  0
 43 45  1  0
  6 46  1  6
  7 47  1  0
  7 48  1  0
  8 49  1  0
  8 50  1  0
  9 51  1  0
  9 52  1  0
 10 53  1  0
 10 54  1  0
 11 55  1  0
 11 56  1  0
 12 57  1  0
 16 58  1  0
 16 59  1  0
 18 60  1  0
 20 61  1  0
 21 62  1  0
 23 63  1  0
 28 64  1  0
 28 65  1  0
 29 66  1  0
 31 67  1  0
 32 68  1  0
 33 69  1  0
 34 70  1  0
 36 71  1  0
 38 72  1  0
 42 73  1  0
 45 74  1  0
 45 75  1  0
M  CHG  3   5  -1  22   1  24  -1
M  END
>  <EmbedRMS>  (126) 
0.0739098013109

$$$$

     RDKit          3D

 75 78  0  0  0  0  0  0  0  0999 V2000
    9.4337   42.9376   34.3450 C   0  0  0  0  0  0  0  0  0  0  0  0
   10.4909   43.0337   35.0313 O   0  0  0  0  0  0  0  0  0  0  0  0
    8.8564   41.7113   34.0288 O   0  0  0  0  0  0  0  0  0  0  0  0
    9.4943   40.2148   34.4677 P   0  0  0  0  0  0  0  0  0  0  0  0
    9.7307   40.1732   36.1289 O   0  0  0  0  0  0  0  0  0  0  0  0
    8.7513   44.1366   33.7733 C   0  0  1  0  0  0  0  0  0  0  0  0
    9.2971   45.3835   34.3132 N   0  0  0  0  0  0  0  0  0  0  0  0
    8.8901   44.0569   32.2349 C   0  0  0  0  0  0  0  0  0  0  0  0
    8.2019   45.1877   31.4625 C   0  0  0  0  0  0  0  0  0  0  0  0
    6.6641   45.1069   31.4851 C   0  0  0  0  0  0  0  0  0  0  0  0
    6.0208   46.3211   30.8055 C   0  0  0  0  0  0  0  0  0  0  0  0
    6.4884   47.5667   31.4130 N   0  0  0  0  0  0  0  0  0  0  0  0
    7.2743   48.5174   30.6982 C   0  0  0  0  0  0  0  0  0  0  0  0
    7.7685   49.6361   31.3760 O   0  0  0  0  0  0  0  0  0  0  0  0
    7.5863   48.3123   29.4937 O   0  0  0  0  0  0  0  0  0  0  0  0
    8.8562   50.4180   30.8860 C   0  0  0  0  0  0  0  0  0  0  0  0
   10.1293   49.5986   30.8863 C   0  0  0  0  0  0  0  0  0  0  0  0
   10.4520   48.8689   32.0459 C   0  0  0  0  0  0  0  0  0  0  0  0
   10.9626   49.4836   29.7441 C   0  0  0  0  0  0  0  0  0  0  0  0
   11.5455   48.0022   32.0618 C   0  0  0  0  0  0  0  0  0  0  0  0
   12.0514   48.5941   29.7742 C   0  0  0  0  0  0  0  0  0  0  0  0
   10.7395   50.2746   28.5665 N   0  0  0  0  0  0  0  0  0  0  0  0
   12.3377   47.8573   30.9246 C   0  0  0  0  0  0  0  0  0  0  0  0
   10.5494   51.6328   28.6773 O   0  0  0  0  0  0  0  0  0  0  0  0
   10.9448   49.7846   27.4368 O   0  0  0  0  0  0  0  0  0  0  0  0
    8.5371   39.1392   34.0123 O   0  0  0  0  0  0  0  0  0  0  0  0
   10.9803   40.0881   33.6836 O   0  0  0  0  0  0  0  0  0  0  0  0
   10.8026   40.0901   32.2838 C   0  0  0  0  0  0  0  0  0  0  0  0
   11.5889   38.9174   31.7007 C   0  0  0  0  0  0  0  0  0  0  0  0
   12.9220   38.9373   32.1692 O   0  0  0  0  0  0  0  0  0  0  0  0
   11.0028   37.5682   32.0980 C   0  0  0  0  0  0  0  0  0  0  0  0
   13.3496   37.5885   32.2601 C   0  0  0  0  0  0  0  0  0  0  0  0
    9.9343   37.1823   31.2756 O   0  0  0  0  0  0  0  0  0  0  0  0
   12.1891   36.6677   31.9049 C   0  0  0  0  0  0  0  0  0  0  0  0
   13.8025   37.2965   33.6186 N   0  0  0  0  0  0  0  0  0  0  0  0
   12.2991   36.2867   30.5568 O   0  0  0  0  0  0  0  0  0  0  0  0
   14.7929   36.4725   33.9858 C   0  0  0  0  0  0  0  0  0  0  0  0
   13.2749   37.7294   34.7935 C   0  0  0  0  0  0  0  0  0  0  0  0
   15.6240   35.7580   33.1858 N   0  0  0  0  0  0  0  0  0  0  0  0
   14.8727   36.4411   35.3327 C   0  0  0  0  0  0  0  0  0  0  0  0
   13.9208   37.2263   35.8803 N   0  0  0  0  0  0  0  0  0  0  0  0
   16.5871   34.9921   33.7801 C   0  0  0  0  0  0  0  0  0  0  0  0
   15.8576   35.6718   35.9441 C   0  0  0  0  0  0  0  0  0  0  0  0
   16.7024   34.9584   35.1438 N   0  0  0  0  0  0  0  0  0  0  0  0
   16.0099   35.6384   37.3562 N   0  0  0  0  0  0  0  0  0  0  0  0
    7.6777   44.0727   34.0492 H   0  0  0  0  0  0  0  0  0  0  0  0
   10.3196   45.4432   34.0981 H   0  0  0  0  0  0  0  0  0  0  0  0
    9.1852   45.3826   35.3535 H   0  0  0  0  0  0  0  0  0  0  0  0
    8.4841   43.0893   31.8643 H   0  0  0  0  0  0  0  0  0  0  0  0
    9.9720   44.0751   31.9733 H   0  0  0  0  0  0  0  0  0  0  0  0
    8.5516   46.1565   31.8777 H   0  0  0  0  0  0  0  0  0  0  0  0
    8.5391   45.1455   30.4036 H   0  0  0  0  0  0  0  0  0  0  0  0
    6.3003   45.0682   32.5328 H   0  0  0  0  0  0  0  0  0  0  0  0
    6.3315   44.1798   30.9698 H   0  0  0  0  0  0  0  0  0  0  0  0
    6.2457   46.2883   29.7178 H   0  0  0  0  0  0  0  0  0  0  0  0
    4.9172   46.2590   30.9158 H   0  0  0  0  0  0  0  0  0  0  0  0
    6.2691   47.7498   32.4180 H   0  0  0  0  0  0  0  0  0  0  0  0
    8.5910   50.8020   29.8807 H   0  0  0  0  0  0  0  0  0  0  0  0
    8.9955   51.2900   31.5586 H   0  0  0  0  0  0  0  0  0  0  0  0
    9.8349   48.9486   32.9327 H   0  0  0  0  0  0  0  0  0  0  0  0
   11.7725   47.4343   32.9548 H   0  0  0  0  0  0  0  0  0  0  0  0
   12.6946   48.4887   28.9096 H   0  0  0  0  0  0  0  0  0  0  0  0
   13.1828   47.1811   30.9375 H   0  0  0  0  0  0  0  0  0  0  0  0
   11.2260   41.0358   31.8829 H   0  0  0  0  0  0  0  0  0  0  0  0
    9.7477   40.0333   31.9254 H   0  0  0  0  0  0  0  0  0  0  0  0
   11.5975   39.0148   30.5904 H   0  0  0  0  0  0  0  0  0  0  0  0
   10.7023   37.5456   33.1719 H   0  0  0  0  0  0  0  0  0  0  0  0
   14.1957   37.4366   31.5528 H   0  0  0  0  0  0  0  0  0  0  0  0
    9.1340   37.6659   31.6068 H   0  0  0  0  0  0  0  0  0  0  0  0
   12.1380   35.7717   32.5697 H   0  0  0  0  0  0  0  0  0  0  0  0
   11.7707   35.4530   30.4496 H   0  0  0  0  0  0  0  0  0  0  0  0
   12.4314   38.3980   34.8694 H   0  0  0  0  0  0  0  0  0  0  0  0
   17.2665   34.4140   33.1691 H   0  0  0  0  0  0  0  0  0  0  0  0
   15.3757   36.1868   37.9789 H   0  0  0  0  0  0  0  0  0  0  0  0
   16.7633   35.0599   37.7895 H   0  0  0  0  0  0  0  0  0  0  0  0
  1  2  2  0
  1  3  1  0
  3  4  1  0
  4  5  1  0
  6  1  1  0
  7  6  1  0
  6  8  1  0
  8  9  1  0
  9 10  1  0
 10 11  1  0
 11 12  1  0
 12 13  1  0
 13 14  1  0
 13 15  2  0
 14 16  1  0
 16 17  1  0
 17 18  2  0
 19 17  1  0
 18 20  1  0
 21 19  2  0
 19 22  1  0
 20 23  2  0
 23 21  1  0
 22 24  1  0
 22 25  2  0
  4 26  2  0
  4 27  1  0
 28 27  1  0
 28 29  1  0
 29 30  1  0
 29 31  1  0
 30 32  1  0
 31 33  1  0
 31 34  1  0
 34 32  1  0
 32 35  1  0
 34 36  1  0
 37 35  1  0
 38 35  1  0
 39 37  2  0
 37 40  1  0
 41 38  2  0
 42 39  1  0
 40 43  2  0
 40 41  1  0
 44 42  2  0
 44 43  1  0
 43 45  1  0
  6 46  1  6
  7 47  1  0
  7 48  1  0
  8 49  1  0
  8 50  1  0
  9 51  1  0
  9 52  1  0
 10 53  1  0
 10 54  1  0
 11 55  1  0
 11 56  1  0
 12 57  1  0
 16 58  1  0
 16 59  1  0
 18 60  1  0
 20 61  1  0
 21 62  1  0
 23 63  1  0
 28 64  1  0
 28 65  1  0
 29 66  1  0
 31 67  1  0
 32 68  1  0
 33 69  1  0
 34 70  1  0
 36 71  1  0
 38 72  1  0
 42 73  1  0
 45 74  1  0
 45 75  1  0
M  CHG  3   5  -1  22   1  24  -1
M  END
>  <EmbedRMS>  (127) 
0.0754639442672

$$$$

     RDKit          3D

 75 78  0  0  0  0  0  0  0  0999 V2000
    9.4312   42.9410   34.3437 C   0  0  0  0  0  0  0  0  0  0  0  0
   10.4885   43.0409   35.0294 O   0  0  0  0  0  0  0  0  0  0  0  0
    8.8562   41.7127   34.0287 O   0  0  0  0  0  0  0  0  0  0  0  0
    9.4945   40.2160   34.4677 P   0  0  0  0  0  0  0  0  0  0  0  0
    9.7312   40.1739   36.1288 O   0  0  0  0  0  0  0  0  0  0  0  0
    8.7484   44.1359   33.7721 C   0  0  1  0  0  0  0  0  0  0  0  0
    9.3039   45.3664   34.3388 N   0  0  0  0  0  0  0  0  0  0  0  0
    8.8892   44.0518   32.2308 C   0  0  0  0  0  0  0  0  0  0  0  0
    8.2015   45.1721   31.4435 C   0  0  0  0  0  0  0  0  0  0  0  0
    6.6642   45.1065   31.4887 C   0  0  0  0  0  0  0  0  0  0  0  0
    6.0267   46.3237   30.8123 C   0  0  0  0  0  0  0  0  0  0  0  0
    6.5083   47.5645   31.4190 N   0  0  0  0  0  0  0  0  0  0  0  0
    7.2421   48.5406   30.6825 C   0  0  0  0  0  0  0  0  0  0  0  0
    7.5844   49.7469   31.3027 O   0  0  0  0  0  0  0  0  0  0  0  0
    7.5941   48.3105   29.4938 O   0  0  0  0  0  0  0  0  0  0  0  0
    8.2913   50.7944   30.6405 C   0  0  0  0  0  0  0  0  0  0  0  0
    7.4260   51.4404   29.5822 C   0  0  0  0  0  0  0  0  0  0  0  0
    7.8902   51.4573   28.2539 C   0  0  0  0  0  0  0  0  0  0  0  0
    6.1453   51.9852   29.8765 C   0  0  0  0  0  0  0  0  0  0  0  0
    7.1045   51.9885   27.2307 C   0  0  0  0  0  0  0  0  0  0  0  0
    5.3646   52.5008   28.8264 C   0  0  0  0  0  0  0  0  0  0  0  0
    5.6095   52.0060   31.2127 N   0  0  0  0  0  0  0  0  0  0  0  0
    5.8428   52.5054   27.5156 C   0  0  0  0  0  0  0  0  0  0  0  0
    4.2483   51.9521   31.4073 O   0  0  0  0  0  0  0  0  0  0  0  0
    6.3454   52.2346   32.1940 O   0  0  0  0  0  0  0  0  0  0  0  0
    8.5374   39.1400   34.0124 O   0  0  0  0  0  0  0  0  0  0  0  0
   10.9799   40.0879   33.6828 O   0  0  0  0  0  0  0  0  0  0  0  0
   10.8002   40.0907   32.2831 C   0  0  0  0  0  0  0  0  0  0  0  0
   11.5958   38.9271   31.6964 C   0  0  0  0  0  0  0  0  0  0  0  0
   12.9239   38.9409   32.1767 O   0  0  0  0  0  0  0  0  0  0  0  0
   11.0062   37.5720   32.0794 C   0  0  0  0  0  0  0  0  0  0  0  0
   13.3506   37.5905   32.2614 C   0  0  0  0  0  0  0  0  0  0  0  0
    9.9064   37.1793   31.2946 O   0  0  0  0  0  0  0  0  0  0  0  0
   12.1919   36.6672   31.9003 C   0  0  0  0  0  0  0  0  0  0  0  0
   13.8017   37.2948   33.6193 N   0  0  0  0  0  0  0  0  0  0  0  0
   12.3133   36.2788   30.5561 O   0  0  0  0  0  0  0  0  0  0  0  0
   14.7927   36.4716   33.9862 C   0  0  0  0  0  0  0  0  0  0  0  0
   13.2746   37.7284   34.7941 C   0  0  0  0  0  0  0  0  0  0  0  0
   15.6240   35.7576   33.1859 N   0  0  0  0  0  0  0  0  0  0  0  0
   14.8728   36.4406   35.3330 C   0  0  0  0  0  0  0  0  0  0  0  0
   13.9209   37.2258   35.8808 N   0  0  0  0  0  0  0  0  0  0  0  0
   16.5874   34.9920   33.7802 C   0  0  0  0  0  0  0  0  0  0  0  0
   15.8579   35.6716   35.9443 C   0  0  0  0  0  0  0  0  0  0  0  0
   16.7028   34.9584   35.1439 N   0  0  0  0  0  0  0  0  0  0  0  0
   16.0103   35.6383   37.3563 N   0  0  0  0  0  0  0  0  0  0  0  0
    7.6764   44.0633   34.0547 H   0  0  0  0  0  0  0  0  0  0  0  0
   10.2152   45.5879   33.8747 H   0  0  0  0  0  0  0  0  0  0  0  0
    8.6468   46.1558   34.1431 H   0  0  0  0  0  0  0  0  0  0  0  0
    9.9708   44.0643   31.9679 H   0  0  0  0  0  0  0  0  0  0  0  0
    8.4831   43.0817   31.8666 H   0  0  0  0  0  0  0  0  0  0  0  0
    8.5198   45.0958   30.3807 H   0  0  0  0  0  0  0  0  0  0  0  0
    8.5714   46.1487   31.8173 H   0  0  0  0  0  0  0  0  0  0  0  0
    6.3142   45.0783   32.5413 H   0  0  0  0  0  0  0  0  0  0  0  0
    6.3147   44.1801   30.9835 H   0  0  0  0  0  0  0  0  0  0  0  0
    4.9234   46.2700   30.9301 H   0  0  0  0  0  0  0  0  0  0  0  0
    6.2448   46.2897   29.7232 H   0  0  0  0  0  0  0  0  0  0  0  0
    6.2848   47.7544   32.4218 H   0  0  0  0  0  0  0  0  0  0  0  0
    9.2320   50.3853   30.2105 H   0  0  0  0  0  0  0  0  0  0  0  0
    8.5954   51.5582   31.3848 H   0  0  0  0  0  0  0  0  0  0  0  0
    8.8610   51.0473   28.0041 H   0  0  0  0  0  0  0  0  0  0  0  0
    7.4726   51.9926   26.2128 H   0  0  0  0  0  0  0  0  0  0  0  0
    4.3849   52.9165   29.0254 H   0  0  0  0  0  0  0  0  0  0  0  0
    5.2335   52.9129   26.7192 H   0  0  0  0  0  0  0  0  0  0  0  0
   11.2114   41.0421   31.8829 H   0  0  0  0  0  0  0  0  0  0  0  0
    9.7454   40.0168   31.9263 H   0  0  0  0  0  0  0  0  0  0  0  0
   11.6246   39.0449   30.5889 H   0  0  0  0  0  0  0  0  0  0  0  0
   10.7050   37.5581   33.1500 H   0  0  0  0  0  0  0  0  0  0  0  0
   14.1985   37.4426   31.5553 H   0  0  0  0  0  0  0  0  0  0  0  0
   10.0893   37.4058   30.3459 H   0  0  0  0  0  0  0  0  0  0  0  0
   12.1336   35.7754   32.5703 H   0  0  0  0  0  0  0  0  0  0  0  0
   11.7934   35.4394   30.4514 H   0  0  0  0  0  0  0  0  0  0  0  0
   12.4314   38.3973   34.8700 H   0  0  0  0  0  0  0  0  0  0  0  0
   17.2669   34.4141   33.1692 H   0  0  0  0  0  0  0  0  0  0  0  0
   16.7638   35.0599   37.7897 H   0  0  0  0  0  0  0  0  0  0  0  0
   15.3759   36.1865   37.9790 H   0  0  0  0  0  0  0  0  0  0  0  0
  1  2  2  0
  1  3  1  0
  3  4  1  0
  4  5  1  0
  6  1  1  0
  7  6  1  0
  6  8  1  0
  8  9  1  0
  9 10  1  0
 10 11  1  0
 11 12  1  0
 12 13  1  0
 13 14  1  0
 13 15  2  0
 14 16  1  0
 16 17  1  0
 17 18  2  0
 19 17  1  0
 18 20  1  0
 21 19  2  0
 19 22  1  0
 20 23  2  0
 23 21  1  0
 22 24  1  0
 22 25  2  0
  4 26  2  0
  4 27  1  0
 28 27  1  0
 28 29  1  0
 29 30  1  0
 29 31  1  0
 30 32  1  0
 31 33  1  0
 31 34  1  0
 34 32  1  0
 32 35  1  0
 34 36  1  0
 37 35  1  0
 38 35  1  0
 39 37  2  0
 37 40  1  0
 41 38  2  0
 42 39  1  0
 40 43  2  0
 40 41  1  0
 44 42  2  0
 44 43  1  0
 43 45  1  0
  6 46  1  6
  7 47  1  0
  7 48  1  0
  8 49  1  0
  8 50  1  0
  9 51  1  0
  9 52  1  0
 10 53  1  0
 10 54  1  0
 11 55  1  0
 11 56  1  0
 12 57  1  0
 16 58  1  0
 16 59  1  0
 18 60  1  0
 20 61  1  0
 21 62  1  0
 23 63  1  0
 28 64  1  0
 28 65  1  0
 29 66  1  0
 31 67  1  0
 32 68  1  0
 33 69  1  0
 34 70  1  0
 36 71  1  0
 38 72  1  0
 42 73  1  0
 45 74  1  0
 45 75  1  0
M  CHG  3   5  -1  22   1  24  -1
M  END
>  <EmbedRMS>  (128) 
0.0739220566221

$$$$

     RDKit          3D

 75 78  0  0  0  0  0  0  0  0999 V2000
    9.4299   42.9393   34.3434 C   0  0  0  0  0  0  0  0  0  0  0  0
   10.4913   43.0379   35.0234 O   0  0  0  0  0  0  0  0  0  0  0  0
    8.8546   41.7115   34.0287 O   0  0  0  0  0  0  0  0  0  0  0  0
    9.4943   40.2155   34.4673 P   0  0  0  0  0  0  0  0  0  0  0  0
    9.7316   40.1737   36.1283 O   0  0  0  0  0  0  0  0  0  0  0  0
    8.7412   44.1376   33.7786 C   0  0  1  0  0  0  0  0  0  0  0  0
    9.3016   45.3716   34.3325 N   0  0  0  0  0  0  0  0  0  0  0  0
    8.8963   44.0591   32.2399 C   0  0  0  0  0  0  0  0  0  0  0  0
    8.2027   45.1686   31.4400 C   0  0  0  0  0  0  0  0  0  0  0  0
    6.6653   45.1063   31.4910 C   0  0  0  0  0  0  0  0  0  0  0  0
    6.0278   46.3225   30.8125 C   0  0  0  0  0  0  0  0  0  0  0  0
    6.5082   47.5640   31.4188 N   0  0  0  0  0  0  0  0  0  0  0  0
    7.2416   48.5404   30.6823 C   0  0  0  0  0  0  0  0  0  0  0  0
    7.5829   49.7472   31.3021 O   0  0  0  0  0  0  0  0  0  0  0  0
    7.5940   48.3103   29.4937 O   0  0  0  0  0  0  0  0  0  0  0  0
    8.2896   50.7947   30.6399 C   0  0  0  0  0  0  0  0  0  0  0  0
    7.4263   51.4386   29.5790 C   0  0  0  0  0  0  0  0  0  0  0  0
    7.9023   51.4743   28.2553 C   0  0  0  0  0  0  0  0  0  0  0  0
    6.1366   51.9619   29.8666 C   0  0  0  0  0  0  0  0  0  0  0  0
    7.1188   52.0047   27.2299 C   0  0  0  0  0  0  0  0  0  0  0  0
    5.3578   52.4781   28.8143 C   0  0  0  0  0  0  0  0  0  0  0  0
    5.5949   51.9603   31.2003 N   0  0  0  0  0  0  0  0  0  0  0  0
    5.8476   52.5019   27.5080 C   0  0  0  0  0  0  0  0  0  0  0  0
    6.3893   52.2587   32.2825 O   0  0  0  0  0  0  0  0  0  0  0  0
    4.3640   51.8452   31.3749 O   0  0  0  0  0  0  0  0  0  0  0  0
    8.5375   39.1390   34.0123 O   0  0  0  0  0  0  0  0  0  0  0  0
   10.9794   40.0897   33.6813 O   0  0  0  0  0  0  0  0  0  0  0  0
   10.7981   40.0850   32.2817 C   0  0  0  0  0  0  0  0  0  0  0  0
   11.5886   38.9142   31.7009 C   0  0  0  0  0  0  0  0  0  0  0  0
   12.9213   38.9368   32.1699 O   0  0  0  0  0  0  0  0  0  0  0  0
   11.0047   37.5661   32.0991 C   0  0  0  0  0  0  0  0  0  0  0  0
   13.3510   37.5885   32.2601 C   0  0  0  0  0  0  0  0  0  0  0  0
    9.9296   37.1961   31.2780 O   0  0  0  0  0  0  0  0  0  0  0  0
   12.1923   36.6659   31.9047 C   0  0  0  0  0  0  0  0  0  0  0  0
   13.8033   37.2967   33.6188 N   0  0  0  0  0  0  0  0  0  0  0  0
   12.3007   36.2865   30.5562 O   0  0  0  0  0  0  0  0  0  0  0  0
   14.7933   36.4724   33.9860 C   0  0  0  0  0  0  0  0  0  0  0  0
   13.2753   37.7296   34.7935 C   0  0  0  0  0  0  0  0  0  0  0  0
   15.6243   35.7579   33.1860 N   0  0  0  0  0  0  0  0  0  0  0  0
   14.8728   36.4410   35.3328 C   0  0  0  0  0  0  0  0  0  0  0  0
   13.9209   37.2263   35.8804 N   0  0  0  0  0  0  0  0  0  0  0  0
   16.5873   34.9919   33.7803 C   0  0  0  0  0  0  0  0  0  0  0  0
   15.8577   35.6717   35.9443 C   0  0  0  0  0  0  0  0  0  0  0  0
   16.7025   34.9583   35.1440 N   0  0  0  0  0  0  0  0  0  0  0  0
   16.0100   35.6384   37.3563 N   0  0  0  0  0  0  0  0  0  0  0  0
    7.6668   44.0651   34.0548 H   0  0  0  0  0  0  0  0  0  0  0  0
    8.6809   46.1666   34.0588 H   0  0  0  0  0  0  0  0  0  0  0  0
    9.2335   45.3272   35.3759 H   0  0  0  0  0  0  0  0  0  0  0  0
    8.5084   43.0838   31.8695 H   0  0  0  0  0  0  0  0  0  0  0  0
    9.9810   44.0905   31.9915 H   0  0  0  0  0  0  0  0  0  0  0  0
    8.5770   46.1511   31.7918 H   0  0  0  0  0  0  0  0  0  0  0  0
    8.5157   45.0753   30.3769 H   0  0  0  0  0  0  0  0  0  0  0  0
    6.3124   44.1783   30.9911 H   0  0  0  0  0  0  0  0  0  0  0  0
    6.3182   45.0834   32.5446 H   0  0  0  0  0  0  0  0  0  0  0  0
    4.9243   46.2684   30.9294 H   0  0  0  0  0  0  0  0  0  0  0  0
    6.2469   46.2877   29.7237 H   0  0  0  0  0  0  0  0  0  0  0  0
    6.2841   47.7544   32.4214 H   0  0  0  0  0  0  0  0  0  0  0  0
    9.2317   50.3863   30.2121 H   0  0  0  0  0  0  0  0  0  0  0  0
    8.5913   51.5598   31.3834 H   0  0  0  0  0  0  0  0  0  0  0  0
    8.8810   51.0801   28.0108 H   0  0  0  0  0  0  0  0  0  0  0  0
    7.4961   52.0236   26.2155 H   0  0  0  0  0  0  0  0  0  0  0  0
    4.3707   52.8781   29.0092 H   0  0  0  0  0  0  0  0  0  0  0  0
    5.2402   52.9089   26.7100 H   0  0  0  0  0  0  0  0  0  0  0  0
    9.7426   40.0140   31.9264 H   0  0  0  0  0  0  0  0  0  0  0  0
   11.2130   41.0320   31.8751 H   0  0  0  0  0  0  0  0  0  0  0  0
   11.5981   39.0107   30.5904 H   0  0  0  0  0  0  0  0  0  0  0  0
   10.7009   37.5603   33.1721 H   0  0  0  0  0  0  0  0  0  0  0  0
   14.1977   37.4380   31.5532 H   0  0  0  0  0  0  0  0  0  0  0  0
    9.5180   36.3961   31.6978 H   0  0  0  0  0  0  0  0  0  0  0  0
   12.1418   35.7698   32.5692 H   0  0  0  0  0  0  0  0  0  0  0  0
   11.7729   35.4524   30.4489 H   0  0  0  0  0  0  0  0  0  0  0  0
   12.4321   38.3985   34.8692 H   0  0  0  0  0  0  0  0  0  0  0  0
   17.2667   34.4138   33.1694 H   0  0  0  0  0  0  0  0  0  0  0  0
   16.7634   35.0598   37.7897 H   0  0  0  0  0  0  0  0  0  0  0  0
   15.3757   36.1867   37.9790 H   0  0  0  0  0  0  0  0  0  0  0  0
  1  2  2  0
  1  3  1  0
  3  4  1  0
  4  5  1  0
  6  1  1  0
  7  6  1  0
  6  8  1  0
  8  9  1  0
  9 10  1  0
 10 11  1  0
 11 12  1  0
 12 13  1  0
 13 14  1  0
 13 15  2  0
 14 16  1  0
 16 17  1  0
 17 18  2  0
 19 17  1  0
 18 20  1  0
 21 19  2  0
 19 22  1  0
 20 23  2  0
 23 21  1  0
 22 24  1  0
 22 25  2  0
  4 26  2  0
  4 27  1  0
 28 27  1  0
 28 29  1  0
 29 30  1  0
 29 31  1  0
 30 32  1  0
 31 33  1  0
 31 34  1  0
 34 32  1  0
 32 35  1  0
 34 36  1  0
 37 35  1  0
 38 35  1  0
 39 37  2  0
 37 40  1  0
 41 38  2  0
 42 39  1  0
 40 43  2  0
 40 41  1  0
 44 42  2  0
 44 43  1  0
 43 45  1  0
  6 46  1  6
  7 47  1  0
  7 48  1  0
  8 49  1  0
  8 50  1  0
  9 51  1  0
  9 52  1  0
 10 53  1  0
 10 54  1  0
 11 55  1  0
 11 56  1  0
 12 57  1  0
 16 58  1  0
 16 59  1  0
 18 60  1  0
 20 61  1  0
 21 62  1  0
 23 63  1  0
 28 64  1  0
 28 65  1  0
 29 66  1  0
 31 67  1  0
 32 68  1  0
 33 69  1  0
 34 70  1  0
 36 71  1  0
 38 72  1  0
 42 73  1  0
 45 74  1  0
 45 75  1  0
M  CHG  3   5  -1  22   1  24  -1
M  END
>  <EmbedRMS>  (129) 
0.073677652874

$$$$

     RDKit          3D

 75 78  0  0  0  0  0  0  0  0999 V2000
    9.4331   42.9365   34.3462 C   0  0  0  0  0  0  0  0  0  0  0  0
   10.4907   43.0329   35.0318 O   0  0  0  0  0  0  0  0  0  0  0  0
    8.8558   41.7104   34.0299 O   0  0  0  0  0  0  0  0  0  0  0  0
    9.4943   40.2141   34.4677 P   0  0  0  0  0  0  0  0  0  0  0  0
    9.7317   40.1723   36.1287 O   0  0  0  0  0  0  0  0  0  0  0  0
    8.7506   44.1348   33.7741 C   0  0  1  0  0  0  0  0  0  0  0  0
    9.2963   45.3820   34.3133 N   0  0  0  0  0  0  0  0  0  0  0  0
    8.8893   44.0528   32.2358 C   0  0  0  0  0  0  0  0  0  0  0  0
    8.2028   45.1824   31.4615 C   0  0  0  0  0  0  0  0  0  0  0  0
    6.6653   45.1046   31.4855 C   0  0  0  0  0  0  0  0  0  0  0  0
    6.0269   46.3226   30.8105 C   0  0  0  0  0  0  0  0  0  0  0  0
    6.5061   47.5640   31.4180 N   0  0  0  0  0  0  0  0  0  0  0  0
    7.2437   48.5392   30.6836 C   0  0  0  0  0  0  0  0  0  0  0  0
    7.5945   49.7397   31.3067 O   0  0  0  0  0  0  0  0  0  0  0  0
    7.5934   48.3117   29.4937 O   0  0  0  0  0  0  0  0  0  0  0  0
    8.3463   50.7574   30.6511 C   0  0  0  0  0  0  0  0  0  0  0  0
    8.5210   51.9356   31.5781 C   0  0  0  0  0  0  0  0  0  0  0  0
    7.3760   52.4720   32.1953 C   0  0  0  0  0  0  0  0  0  0  0  0
    9.7911   52.4962   31.8732 C   0  0  0  0  0  0  0  0  0  0  0  0
    7.4855   53.5104   33.1216 C   0  0  0  0  0  0  0  0  0  0  0  0
    9.8833   53.5286   32.8234 C   0  0  0  0  0  0  0  0  0  0  0  0
   10.9822   52.0620   31.1994 N   0  0  0  0  0  0  0  0  0  0  0  0
    8.7379   54.0305   33.4429 C   0  0  0  0  0  0  0  0  0  0  0  0
   11.0090   52.0013   29.8251 O   0  0  0  0  0  0  0  0  0  0  0  0
   12.0573   51.9740   31.8278 O   0  0  0  0  0  0  0  0  0  0  0  0
    8.5371   39.1382   34.0123 O   0  0  0  0  0  0  0  0  0  0  0  0
   10.9793   40.0887   33.6814 O   0  0  0  0  0  0  0  0  0  0  0  0
   10.7976   40.0842   32.2817 C   0  0  0  0  0  0  0  0  0  0  0  0
   11.5897   38.9146   31.7008 C   0  0  0  0  0  0  0  0  0  0  0  0
   12.9218   38.9385   32.1717 O   0  0  0  0  0  0  0  0  0  0  0  0
   11.0071   37.5654   32.0975 C   0  0  0  0  0  0  0  0  0  0  0  0
   13.3533   37.5909   32.2610 C   0  0  0  0  0  0  0  0  0  0  0  0
    9.9333   37.1935   31.2754 O   0  0  0  0  0  0  0  0  0  0  0  0
   12.1945   36.6671   31.9040 C   0  0  0  0  0  0  0  0  0  0  0  0
   13.8036   37.2970   33.6193 N   0  0  0  0  0  0  0  0  0  0  0  0
   12.2893   36.2849   30.5562 O   0  0  0  0  0  0  0  0  0  0  0  0
   14.7931   36.4723   33.9863 C   0  0  0  0  0  0  0  0  0  0  0  0
   13.2756   37.7298   34.7940 C   0  0  0  0  0  0  0  0  0  0  0  0
   15.6242   35.7580   33.1861 N   0  0  0  0  0  0  0  0  0  0  0  0
   14.8727   36.4407   35.3331 C   0  0  0  0  0  0  0  0  0  0  0  0
   13.9210   37.2262   35.8808 N   0  0  0  0  0  0  0  0  0  0  0  0
   16.5872   34.9920   33.7803 C   0  0  0  0  0  0  0  0  0  0  0  0
   15.8577   35.6715   35.9444 C   0  0  0  0  0  0  0  0  0  0  0  0
   16.7025   34.9582   35.1440 N   0  0  0  0  0  0  0  0  0  0  0  0
   16.0101   35.6382   37.3564 N   0  0  0  0  0  0  0  0  0  0  0  0
    7.6770   44.0707   34.0504 H   0  0  0  0  0  0  0  0  0  0  0  0
    9.1827   45.3820   35.3535 H   0  0  0  0  0  0  0  0  0  0  0  0
   10.3192   45.4406   34.1000 H   0  0  0  0  0  0  0  0  0  0  0  0
    9.9711   44.0682   31.9739 H   0  0  0  0  0  0  0  0  0  0  0  0
    8.4817   43.0851   31.8668 H   0  0  0  0  0  0  0  0  0  0  0  0
    8.5552   46.1510   31.8743 H   0  0  0  0  0  0  0  0  0  0  0  0
    8.5385   45.1364   30.4022 H   0  0  0  0  0  0  0  0  0  0  0  0
    6.3020   45.0643   32.5333 H   0  0  0  0  0  0  0  0  0  0  0  0
    6.3297   44.1800   30.9678 H   0  0  0  0  0  0  0  0  0  0  0  0
    6.2465   46.2897   29.7217 H   0  0  0  0  0  0  0  0  0  0  0  0
    4.9235   46.2672   30.9264 H   0  0  0  0  0  0  0  0  0  0  0  0
    6.2820   47.7530   32.4209 H   0  0  0  0  0  0  0  0  0  0  0  0
    9.3172   50.3238   30.3396 H   0  0  0  0  0  0  0  0  0  0  0  0
    7.8005   51.0947   29.7435 H   0  0  0  0  0  0  0  0  0  0  0  0
    6.3949   52.0709   31.9712 H   0  0  0  0  0  0  0  0  0  0  0  0
    6.5975   53.9070   33.5967 H   0  0  0  0  0  0  0  0  0  0  0  0
   10.8448   53.9646   33.0644 H   0  0  0  0  0  0  0  0  0  0  0  0
    8.8208   54.8330   34.1645 H   0  0  0  0  0  0  0  0  0  0  0  0
   11.2111   41.0320   31.8753 H   0  0  0  0  0  0  0  0  0  0  0  0
    9.7422   40.0117   31.9267 H   0  0  0  0  0  0  0  0  0  0  0  0
   11.6004   39.0119   30.5904 H   0  0  0  0  0  0  0  0  0  0  0  0
   10.7015   37.5592   33.1701 H   0  0  0  0  0  0  0  0  0  0  0  0
   14.2012   37.4438   31.5551 H   0  0  0  0  0  0  0  0  0  0  0  0
    9.5289   36.3869   31.6895 H   0  0  0  0  0  0  0  0  0  0  0  0
   12.1244   35.7693   32.5633 H   0  0  0  0  0  0  0  0  0  0  0  0
   12.9478   35.5427   30.5201 H   0  0  0  0  0  0  0  0  0  0  0  0
   12.4328   38.3993   34.8697 H   0  0  0  0  0  0  0  0  0  0  0  0
   17.2667   34.4140   33.1693 H   0  0  0  0  0  0  0  0  0  0  0  0
   15.3759   36.1865   37.9791 H   0  0  0  0  0  0  0  0  0  0  0  0
   16.7637   35.0598   37.7897 H   0  0  0  0  0  0  0  0  0  0  0  0
  1  2  2  0
  1  3  1  0
  3  4  1  0
  4  5  1  0
  6  1  1  0
  7  6  1  0
  6  8  1  0
  8  9  1  0
  9 10  1  0
 10 11  1  0
 11 12  1  0
 12 13  1  0
 13 14  1  0
 13 15  2  0
 14 16  1  0
 16 17  1  0
 17 18  2  0
 19 17  1  0
 18 20  1  0
 21 19  2  0
 19 22  1  0
 20 23  2  0
 23 21  1  0
 22 24  1  0
 22 25  2  0
  4 26  2  0
  4 27  1  0
 28 27  1  0
 28 29  1  0
 29 30  1  0
 29 31  1  0
 30 32  1  0
 31 33  1  0
 31 34  1  0
 34 32  1  0
 32 35  1  0
 34 36  1  0
 37 35  1  0
 38 35  1  0
 39 37  2  0
 37 40  1  0
 41 38  2  0
 42 39  1  0
 40 43  2  0
 40 41  1  0
 44 42  2  0
 44 43  1  0
 43 45  1  0
  6 46  1  6
  7 47  1  0
  7 48  1  0
  8 49  1  0
  8 50  1  0
  9 51  1  0
  9 52  1  0
 10 53  1  0
 10 54  1  0
 11 55  1  0
 11 56  1  0
 12 57  1  0
 16 58  1  0
 16 59  1  0
 18 60  1  0
 20 61  1  0
 21 62  1  0
 23 63  1  0
 28 64  1  0
 28 65  1  0
 29 66  1  0
 31 67  1  0
 32 68  1  0
 33 69  1  0
 34 70  1  0
 36 71  1  0
 38 72  1  0
 42 73  1  0
 45 74  1  0
 45 75  1  0
M  CHG  3   5  -1  22   1  24  -1
M  END
>  <EmbedRMS>  (130) 
0.0742676917754

$$$$

     RDKit          3D

 75 78  0  0  0  0  0  0  0  0999 V2000
    9.4312   42.9416   34.3438 C   0  0  0  0  0  0  0  0  0  0  0  0
   10.4886   43.0413   35.0294 O   0  0  0  0  0  0  0  0  0  0  0  0
    8.8558   41.7132   34.0295 O   0  0  0  0  0  0  0  0  0  0  0  0
    9.4932   40.2165   34.4701 P   0  0  0  0  0  0  0  0  0  0  0  0
    9.7295   40.1744   36.1311 O   0  0  0  0  0  0  0  0  0  0  0  0
    8.7485   44.1368   33.7721 C   0  0  1  0  0  0  0  0  0  0  0  0
    9.3043   45.3674   34.3387 N   0  0  0  0  0  0  0  0  0  0  0  0
    8.8891   44.0529   32.2308 C   0  0  0  0  0  0  0  0  0  0  0  0
    8.2010   45.1734   31.4440 C   0  0  0  0  0  0  0  0  0  0  0  0
    6.6636   45.1067   31.4880 C   0  0  0  0  0  0  0  0  0  0  0  0
    6.0248   46.3225   30.8097 C   0  0  0  0  0  0  0  0  0  0  0  0
    6.5026   47.5642   31.4169 N   0  0  0  0  0  0  0  0  0  0  0  0
    7.2572   48.5311   30.6896 C   0  0  0  0  0  0  0  0  0  0  0  0
    7.6681   49.6982   31.3374 O   0  0  0  0  0  0  0  0  0  0  0  0
    7.5877   48.3148   29.4921 O   0  0  0  0  0  0  0  0  0  0  0  0
    8.4970   50.6753   30.7163 C   0  0  0  0  0  0  0  0  0  0  0  0
    8.8945   51.7187   31.7302 C   0  0  0  0  0  0  0  0  0  0  0  0
    8.5620   53.0632   31.4803 C   0  0  0  0  0  0  0  0  0  0  0  0
    9.5554   51.3813   32.9445 C   0  0  0  0  0  0  0  0  0  0  0  0
    8.8638   54.0571   32.4119 C   0  0  0  0  0  0  0  0  0  0  0  0
    9.8350   52.3981   33.8752 C   0  0  0  0  0  0  0  0  0  0  0  0
    9.9268   50.0272   33.2660 N   0  0  0  0  0  0  0  0  0  0  0  0
    9.4954   53.7248   33.6082 C   0  0  0  0  0  0  0  0  0  0  0  0
    9.9816   49.6242   34.5806 O   0  0  0  0  0  0  0  0  0  0  0  0
   10.3532   49.2530   32.3851 O   0  0  0  0  0  0  0  0  0  0  0  0
    8.5368   39.1402   34.0138 O   0  0  0  0  0  0  0  0  0  0  0  0
   10.9789   40.0875   33.6872 O   0  0  0  0  0  0  0  0  0  0  0  0
   10.7993   40.0946   32.2884 C   0  0  0  0  0  0  0  0  0  0  0  0
   11.5957   38.9352   31.6994 C   0  0  0  0  0  0  0  0  0  0  0  0
   12.9257   38.9478   32.1799 O   0  0  0  0  0  0  0  0  0  0  0  0
   11.0070   37.5758   32.0732 C   0  0  0  0  0  0  0  0  0  0  0  0
   13.3571   37.5980   32.2612 C   0  0  0  0  0  0  0  0  0  0  0  0
    9.9093   37.1808   31.2875 O   0  0  0  0  0  0  0  0  0  0  0  0
   12.1967   36.6764   31.8894 C   0  0  0  0  0  0  0  0  0  0  0  0
   13.8018   37.2956   33.6197 N   0  0  0  0  0  0  0  0  0  0  0  0
   12.3048   36.2360   30.5555 O   0  0  0  0  0  0  0  0  0  0  0  0
   14.7922   36.4716   33.9864 C   0  0  0  0  0  0  0  0  0  0  0  0
   13.2747   37.7291   34.7944 C   0  0  0  0  0  0  0  0  0  0  0  0
   15.6240   35.7581   33.1861 N   0  0  0  0  0  0  0  0  0  0  0  0
   14.8721   36.4402   35.3331 C   0  0  0  0  0  0  0  0  0  0  0  0
   13.9206   37.2257   35.8810 N   0  0  0  0  0  0  0  0  0  0  0  0
   16.5873   34.9924   33.7802 C   0  0  0  0  0  0  0  0  0  0  0  0
   15.8576   35.6714   35.9444 C   0  0  0  0  0  0  0  0  0  0  0  0
   16.7026   34.9585   35.1439 N   0  0  0  0  0  0  0  0  0  0  0  0
   16.0102   35.6383   37.3564 N   0  0  0  0  0  0  0  0  0  0  0  0
    7.6765   44.0645   34.0548 H   0  0  0  0  0  0  0  0  0  0  0  0
    8.6474   46.1570   34.1436 H   0  0  0  0  0  0  0  0  0  0  0  0
   10.2153   45.5892   33.8742 H   0  0  0  0  0  0  0  0  0  0  0  0
    9.9706   44.0656   31.9678 H   0  0  0  0  0  0  0  0  0  0  0  0
    8.4831   43.0827   31.8666 H   0  0  0  0  0  0  0  0  0  0  0  0
    8.5201   45.0983   30.3813 H   0  0  0  0  0  0  0  0  0  0  0  0
    8.5698   46.1501   31.8189 H   0  0  0  0  0  0  0  0  0  0  0  0
    6.3154   44.1793   30.9836 H   0  0  0  0  0  0  0  0  0  0  0  0
    6.3129   45.0789   32.5405 H   0  0  0  0  0  0  0  0  0  0  0  0
    4.9213   46.2667   30.9252 H   0  0  0  0  0  0  0  0  0  0  0  0
    6.2454   46.2887   29.7212 H   0  0  0  0  0  0  0  0  0  0  0  0
    6.2844   47.7495   32.4218 H   0  0  0  0  0  0  0  0  0  0  0  0
    7.9420   51.1287   29.8659 H   0  0  0  0  0  0  0  0  0  0  0  0
    9.4093   50.2002   30.2976 H   0  0  0  0  0  0  0  0  0  0  0  0
    8.0590   53.3460   30.5637 H   0  0  0  0  0  0  0  0  0  0  0  0
    8.6012   55.0872   32.2078 H   0  0  0  0  0  0  0  0  0  0  0  0
   10.3331   52.1649   34.8077 H   0  0  0  0  0  0  0  0  0  0  0  0
    9.7244   54.4975   34.3308 H   0  0  0  0  0  0  0  0  0  0  0  0
    9.7448   40.0200   31.9304 H   0  0  0  0  0  0  0  0  0  0  0  0
   11.2092   41.0481   31.8916 H   0  0  0  0  0  0  0  0  0  0  0  0
   11.6207   39.0685   30.5943 H   0  0  0  0  0  0  0  0  0  0  0  0
   10.7059   37.5565   33.1439 H   0  0  0  0  0  0  0  0  0  0  0  0
   14.2095   37.4543   31.5601 H   0  0  0  0  0  0  0  0  0  0  0  0
   10.0864   37.4210   30.3414 H   0  0  0  0  0  0  0  0  0  0  0  0
   12.1275   35.7872   32.5550 H   0  0  0  0  0  0  0  0  0  0  0  0
   12.5030   37.0109   29.9673 H   0  0  0  0  0  0  0  0  0  0  0  0
   12.4328   38.3996   34.8703 H   0  0  0  0  0  0  0  0  0  0  0  0
   17.2670   34.4149   33.1690 H   0  0  0  0  0  0  0  0  0  0  0  0
   15.3758   36.1862   37.9792 H   0  0  0  0  0  0  0  0  0  0  0  0
   16.7640   35.0601   37.7896 H   0  0  0  0  0  0  0  0  0  0  0  0
  1  2  2  0
  1  3  1  0
  3  4  1  0
  4  5  1  0
  6  1  1  0
  7  6  1  0
  6  8  1  0
  8  9  1  0
  9 10  1  0
 10 11  1  0
 11 12  1  0
 12 13  1  0
 13 14  1  0
 13 15  2  0
 14 16  1  0
 16 17  1  0
 17 18  2  0
 19 17  1  0
 18 20  1  0
 21 19  2  0
 19 22  1  0
 20 23  2  0
 23 21  1  0
 22 24  1  0
 22 25  2  0
  4 26  2  0
  4 27  1  0
 28 27  1  0
 28 29  1  0
 29 30  1  0
 29 31  1  0
 30 32  1  0
 31 33  1  0
 31 34  1  0
 34 32  1  0
 32 35  1  0
 34 36  1  0
 37 35  1  0
 38 35  1  0
 39 37  2  0
 37 40  1  0
 41 38  2  0
 42 39  1  0
 40 43  2  0
 40 41  1  0
 44 42  2  0
 44 43  1  0
 43 45  1  0
  6 46  1  6
  7 47  1  0
  7 48  1  0
  8 49  1  0
  8 50  1  0
  9 51  1  0
  9 52  1  0
 10 53  1  0
 10 54  1  0
 11 55  1  0
 11 56  1  0
 12 57  1  0
 16 58  1  0
 16 59  1  0
 18 60  1  0
 20 61  1  0
 21 62  1  0
 23 63  1  0
 28 64  1  0
 28 65  1  0
 29 66  1  0
 31 67  1  0
 32 68  1  0
 33 69  1  0
 34 70  1  0
 36 71  1  0
 38 72  1  0
 42 73  1  0
 45 74  1  0
 45 75  1  0
M  CHG  3   5  -1  22   1  24  -1
M  END
>  <EmbedRMS>  (131) 
0.0757131124502

$$$$

     RDKit          3D

 75 78  0  0  0  0  0  0  0  0999 V2000
    9.4313   42.9410   34.3437 C   0  0  0  0  0  0  0  0  0  0  0  0
   10.4885   43.0409   35.0294 O   0  0  0  0  0  0  0  0  0  0  0  0
    8.8562   41.7127   34.0287 O   0  0  0  0  0  0  0  0  0  0  0  0
    9.4945   40.2160   34.4678 P   0  0  0  0  0  0  0  0  0  0  0  0
    9.7312   40.1739   36.1288 O   0  0  0  0  0  0  0  0  0  0  0  0
    8.7484   44.1359   33.7721 C   0  0  1  0  0  0  0  0  0  0  0  0
    9.3039   45.3664   34.3388 N   0  0  0  0  0  0  0  0  0  0  0  0
    8.8892   44.0519   32.2308 C   0  0  0  0  0  0  0  0  0  0  0  0
    8.2015   45.1722   31.4435 C   0  0  0  0  0  0  0  0  0  0  0  0
    6.6643   45.1066   31.4887 C   0  0  0  0  0  0  0  0  0  0  0  0
    6.0267   46.3237   30.8123 C   0  0  0  0  0  0  0  0  0  0  0  0
    6.5081   47.5646   31.4190 N   0  0  0  0  0  0  0  0  0  0  0  0
    7.2423   48.5405   30.6826 C   0  0  0  0  0  0  0  0  0  0  0  0
    7.5855   49.7470   31.3025 O   0  0  0  0  0  0  0  0  0  0  0  0
    7.5941   48.3103   29.4938 O   0  0  0  0  0  0  0  0  0  0  0  0
    8.3068   50.7861   30.6422 C   0  0  0  0  0  0  0  0  0  0  0  0
    7.4429   51.4453   29.5901 C   0  0  0  0  0  0  0  0  0  0  0  0
    6.1742   51.9161   29.9740 C   0  0  0  0  0  0  0  0  0  0  0  0
    7.8416   51.5630   28.2325 C   0  0  0  0  0  0  0  0  0  0  0  0
    5.2981   52.4545   29.0305 C   0  0  0  0  0  0  0  0  0  0  0  0
    6.9379   52.0885   27.2937 C   0  0  0  0  0  0  0  0  0  0  0  0
    9.1522   51.1796   27.7905 N   0  0  0  0  0  0  0  0  0  0  0  0
    5.6755   52.5315   27.6910 C   0  0  0  0  0  0  0  0  0  0  0  0
    9.3086   50.5744   26.5650 O   0  0  0  0  0  0  0  0  0  0  0  0
   10.1623   51.6165   28.3796 O   0  0  0  0  0  0  0  0  0  0  0  0
    8.5374   39.1400   34.0124 O   0  0  0  0  0  0  0  0  0  0  0  0
   10.9799   40.0879   33.6828 O   0  0  0  0  0  0  0  0  0  0  0  0
   10.8002   40.0907   32.2831 C   0  0  0  0  0  0  0  0  0  0  0  0
   11.5958   38.9271   31.6964 C   0  0  0  0  0  0  0  0  0  0  0  0
   12.9239   38.9409   32.1767 O   0  0  0  0  0  0  0  0  0  0  0  0
   11.0062   37.5719   32.0794 C   0  0  0  0  0  0  0  0  0  0  0  0
   13.3506   37.5905   32.2614 C   0  0  0  0  0  0  0  0  0  0  0  0
    9.9064   37.1793   31.2946 O   0  0  0  0  0  0  0  0  0  0  0  0
   12.1920   36.6672   31.9003 C   0  0  0  0  0  0  0  0  0  0  0  0
   13.8017   37.2948   33.6193 N   0  0  0  0  0  0  0  0  0  0  0  0
   12.3133   36.2788   30.5561 O   0  0  0  0  0  0  0  0  0  0  0  0
   14.7927   36.4716   33.9862 C   0  0  0  0  0  0  0  0  0  0  0  0
   13.2746   37.7284   34.7941 C   0  0  0  0  0  0  0  0  0  0  0  0
   15.6240   35.7576   33.1859 N   0  0  0  0  0  0  0  0  0  0  0  0
   14.8728   36.4406   35.3330 C   0  0  0  0  0  0  0  0  0  0  0  0
   13.9209   37.2258   35.8808 N   0  0  0  0  0  0  0  0  0  0  0  0
   16.5874   34.9920   33.7802 C   0  0  0  0  0  0  0  0  0  0  0  0
   15.8579   35.6716   35.9443 C   0  0  0  0  0  0  0  0  0  0  0  0
   16.7028   34.9584   35.1439 N   0  0  0  0  0  0  0  0  0  0  0  0
   16.0103   35.6383   37.3563 N   0  0  0  0  0  0  0  0  0  0  0  0
    7.6764   44.0633   34.0547 H   0  0  0  0  0  0  0  0  0  0  0  0
    8.6468   46.1558   34.1431 H   0  0  0  0  0  0  0  0  0  0  0  0
   10.2152   45.5878   33.8748 H   0  0  0  0  0  0  0  0  0  0  0  0
    9.9708   44.0643   31.9679 H   0  0  0  0  0  0  0  0  0  0  0  0
    8.4830   43.0818   31.8666 H   0  0  0  0  0  0  0  0  0  0  0  0
    8.5198   45.0959   30.3807 H   0  0  0  0  0  0  0  0  0  0  0  0
    8.5714   46.1488   31.8173 H   0  0  0  0  0  0  0  0  0  0  0  0
    6.3142   45.0784   32.5413 H   0  0  0  0  0  0  0  0  0  0  0  0
    6.3147   44.1801   30.9836 H   0  0  0  0  0  0  0  0  0  0  0  0
    6.2448   46.2897   29.7232 H   0  0  0  0  0  0  0  0  0  0  0  0
    4.9233   46.2699   30.9300 H   0  0  0  0  0  0  0  0  0  0  0  0
    6.2850   47.7543   32.4220 H   0  0  0  0  0  0  0  0  0  0  0  0
    9.2434   50.3595   30.2325 H   0  0  0  0  0  0  0  0  0  0  0  0
    8.5902   51.5512   31.3950 H   0  0  0  0  0  0  0  0  0  0  0  0
    5.8550   51.8469   31.0069 H   0  0  0  0  0  0  0  0  0  0  0  0
    4.3209   52.8044   29.3376 H   0  0  0  0  0  0  0  0  0  0  0  0
    7.2230   52.1788   26.2530 H   0  0  0  0  0  0  0  0  0  0  0  0
    4.9924   52.9447   26.9600 H   0  0  0  0  0  0  0  0  0  0  0  0
    9.7454   40.0168   31.9263 H   0  0  0  0  0  0  0  0  0  0  0  0
   11.2114   41.0421   31.8829 H   0  0  0  0  0  0  0  0  0  0  0  0
   11.6246   39.0449   30.5889 H   0  0  0  0  0  0  0  0  0  0  0  0
   10.7050   37.5581   33.1500 H   0  0  0  0  0  0  0  0  0  0  0  0
   14.1985   37.4426   31.5553 H   0  0  0  0  0  0  0  0  0  0  0  0
   10.0893   37.4058   30.3459 H   0  0  0  0  0  0  0  0  0  0  0  0
   12.1337   35.7754   32.5703 H   0  0  0  0  0  0  0  0  0  0  0  0
   11.7934   35.4394   30.4514 H   0  0  0  0  0  0  0  0  0  0  0  0
   12.4314   38.3973   34.8700 H   0  0  0  0  0  0  0  0  0  0  0  0
   17.2669   34.4142   33.1692 H   0  0  0  0  0  0  0  0  0  0  0  0
   15.3759   36.1864   37.9790 H   0  0  0  0  0  0  0  0  0  0  0  0
   16.7638   35.0599   37.7896 H   0  0  0  0  0  0  0  0  0  0  0  0
  1  2  2  0
  1  3  1  0
  3  4  1  0
  4  5  1  0
  6  1  1  0
  7  6  1  0
  6  8  1  0
  8  9  1  0
  9 10  1  0
 10 11  1  0
 11 12  1  0
 12 13  1  0
 13 14  1  0
 13 15  2  0
 14 16  1  0
 16 17  1  0
 17 18  2  0
 19 17  1  0
 18 20  1  0
 21 19  2  0
 19 22  1  0
 20 23  2  0
 23 21  1  0
 22 24  1  0
 22 25  2  0
  4 26  2  0
  4 27  1  0
 28 27  1  0
 28 29  1  0
 29 30  1  0
 29 31  1  0
 30 32  1  0
 31 33  1  0
 31 34  1  0
 34 32  1  0
 32 35  1  0
 34 36  1  0
 37 35  1  0
 38 35  1  0
 39 37  2  0
 37 40  1  0
 41 38  2  0
 42 39  1  0
 40 43  2  0
 40 41  1  0
 44 42  2  0
 44 43  1  0
 43 45  1  0
  6 46  1  6
  7 47  1  0
  7 48  1  0
  8 49  1  0
  8 50  1  0
  9 51  1  0
  9 52  1  0
 10 53  1  0
 10 54  1  0
 11 55  1  0
 11 56  1  0
 12 57  1  0
 16 58  1  0
 16 59  1  0
 18 60  1  0
 20 61  1  0
 21 62  1  0
 23 63  1  0
 28 64  1  0
 28 65  1  0
 29 66  1  0
 31 67  1  0
 32 68  1  0
 33 69  1  0
 34 70  1  0
 36 71  1  0
 38 72  1  0
 42 73  1  0
 45 74  1  0
 45 75  1  0
M  CHG  3   5  -1  22   1  24  -1
M  END
>  <EmbedRMS>  (132) 
0.0739313545369

$$$$

     RDKit          3D

 75 78  0  0  0  0  0  0  0  0999 V2000
    9.4333   42.9365   34.3461 C   0  0  0  0  0  0  0  0  0  0  0  0
   10.4907   43.0330   35.0318 O   0  0  0  0  0  0  0  0  0  0  0  0
    8.8563   41.7104   34.0296 O   0  0  0  0  0  0  0  0  0  0  0  0
    9.4945   40.2142   34.4680 P   0  0  0  0  0  0  0  0  0  0  0  0
    9.7309   40.1726   36.1291 O   0  0  0  0  0  0  0  0  0  0  0  0
    8.7506   44.1348   33.7741 C   0  0  1  0  0  0  0  0  0  0  0  0
    9.2963   45.3820   34.3133 N   0  0  0  0  0  0  0  0  0  0  0  0
    8.8893   44.0527   32.2358 C   0  0  0  0  0  0  0  0  0  0  0  0
    8.2029   45.1823   31.4613 C   0  0  0  0  0  0  0  0  0  0  0  0
    6.6654   45.1046   31.4854 C   0  0  0  0  0  0  0  0  0  0  0  0
    6.0272   46.3228   30.8107 C   0  0  0  0  0  0  0  0  0  0  0  0
    6.5069   47.5640   31.4183 N   0  0  0  0  0  0  0  0  0  0  0  0
    7.2417   48.5403   30.6828 C   0  0  0  0  0  0  0  0  0  0  0  0
    7.5840   49.7468   31.3033 O   0  0  0  0  0  0  0  0  0  0  0  0
    7.5944   48.3106   29.4942 O   0  0  0  0  0  0  0  0  0  0  0  0
    8.3048   50.7865   30.6436 C   0  0  0  0  0  0  0  0  0  0  0  0
    7.4410   51.4453   29.5912 C   0  0  0  0  0  0  0  0  0  0  0  0
    6.1720   51.9157   29.9749 C   0  0  0  0  0  0  0  0  0  0  0  0
    7.8398   51.5628   28.2337 C   0  0  0  0  0  0  0  0  0  0  0  0
    5.2958   52.4535   29.0311 C   0  0  0  0  0  0  0  0  0  0  0  0
    6.9359   52.0876   27.2946 C   0  0  0  0  0  0  0  0  0  0  0  0
    9.1506   51.1798   27.7920 N   0  0  0  0  0  0  0  0  0  0  0  0
    5.6733   52.5302   27.6916 C   0  0  0  0  0  0  0  0  0  0  0  0
    9.3073   50.5741   26.5667 O   0  0  0  0  0  0  0  0  0  0  0  0
   10.1604   51.6173   28.3810 O   0  0  0  0  0  0  0  0  0  0  0  0
    8.5372   39.1386   34.0125 O   0  0  0  0  0  0  0  0  0  0  0  0
   10.9805   40.0880   33.6837 O   0  0  0  0  0  0  0  0  0  0  0  0
   10.8025   40.0899   32.2839 C   0  0  0  0  0  0  0  0  0  0  0  0
   11.5888   38.9174   31.7007 C   0  0  0  0  0  0  0  0  0  0  0  0
   12.9219   38.9373   32.1692 O   0  0  0  0  0  0  0  0  0  0  0  0
   11.0028   37.5682   32.0980 C   0  0  0  0  0  0  0  0  0  0  0  0
   13.3496   37.5885   32.2601 C   0  0  0  0  0  0  0  0  0  0  0  0
    9.9343   37.1822   31.2756 O   0  0  0  0  0  0  0  0  0  0  0  0
   12.1891   36.6677   31.9049 C   0  0  0  0  0  0  0  0  0  0  0  0
   13.8025   37.2965   33.6186 N   0  0  0  0  0  0  0  0  0  0  0  0
   12.2991   36.2867   30.5567 O   0  0  0  0  0  0  0  0  0  0  0  0
   14.7929   36.4725   33.9858 C   0  0  0  0  0  0  0  0  0  0  0  0
   13.2749   37.7294   34.7935 C   0  0  0  0  0  0  0  0  0  0  0  0
   15.6240   35.7580   33.1858 N   0  0  0  0  0  0  0  0  0  0  0  0
   14.8727   36.4411   35.3327 C   0  0  0  0  0  0  0  0  0  0  0  0
   13.9208   37.2263   35.8803 N   0  0  0  0  0  0  0  0  0  0  0  0
   16.5871   34.9921   33.7801 C   0  0  0  0  0  0  0  0  0  0  0  0
   15.8576   35.6718   35.9441 C   0  0  0  0  0  0  0  0  0  0  0  0
   16.7024   34.9584   35.1438 N   0  0  0  0  0  0  0  0  0  0  0  0
   16.0099   35.6384   37.3562 N   0  0  0  0  0  0  0  0  0  0  0  0
    7.6770   44.0706   34.0503 H   0  0  0  0  0  0  0  0  0  0  0  0
    9.1827   45.3820   35.3535 H   0  0  0  0  0  0  0  0  0  0  0  0
   10.3192   45.4407   34.0999 H   0  0  0  0  0  0  0  0  0  0  0  0
    9.9711   44.0680   31.9739 H   0  0  0  0  0  0  0  0  0  0  0  0
    8.4816   43.0851   31.8668 H   0  0  0  0  0  0  0  0  0  0  0  0
    8.5385   45.1362   30.4021 H   0  0  0  0  0  0  0  0  0  0  0  0
    8.5554   46.1510   31.8740 H   0  0  0  0  0  0  0  0  0  0  0  0
    6.3296   44.1802   30.9675 H   0  0  0  0  0  0  0  0  0  0  0  0
    6.3021   45.0641   32.5332 H   0  0  0  0  0  0  0  0  0  0  0  0
    4.9237   46.2678   30.9270 H   0  0  0  0  0  0  0  0  0  0  0  0
    6.2463   46.2901   29.7218 H   0  0  0  0  0  0  0  0  0  0  0  0
    6.2818   47.7537   32.4209 H   0  0  0  0  0  0  0  0  0  0  0  0
    8.5874   51.5517   31.3967 H   0  0  0  0  0  0  0  0  0  0  0  0
    9.2419   50.3607   30.2342 H   0  0  0  0  0  0  0  0  0  0  0  0
    5.8526   51.8465   31.0077 H   0  0  0  0  0  0  0  0  0  0  0  0
    4.3184   52.8030   29.3379 H   0  0  0  0  0  0  0  0  0  0  0  0
    7.2212   52.1777   26.2539 H   0  0  0  0  0  0  0  0  0  0  0  0
    4.9902   52.9428   26.9604 H   0  0  0  0  0  0  0  0  0  0  0  0
    9.7476   40.0331   31.9256 H   0  0  0  0  0  0  0  0  0  0  0  0
   11.2258   41.0357   31.8830 H   0  0  0  0  0  0  0  0  0  0  0  0
   11.5974   39.0148   30.5904 H   0  0  0  0  0  0  0  0  0  0  0  0
   10.7023   37.5455   33.1719 H   0  0  0  0  0  0  0  0  0  0  0  0
   14.1957   37.4366   31.5528 H   0  0  0  0  0  0  0  0  0  0  0  0
    9.1340   37.6658   31.6069 H   0  0  0  0  0  0  0  0  0  0  0  0
   12.1381   35.7717   32.5697 H   0  0  0  0  0  0  0  0  0  0  0  0
   11.7707   35.4530   30.4496 H   0  0  0  0  0  0  0  0  0  0  0  0
   12.4314   38.3980   34.8694 H   0  0  0  0  0  0  0  0  0  0  0  0
   17.2665   34.4140   33.1691 H   0  0  0  0  0  0  0  0  0  0  0  0
   15.3757   36.1868   37.9789 H   0  0  0  0  0  0  0  0  0  0  0  0
   16.7633   35.0598   37.7895 H   0  0  0  0  0  0  0  0  0  0  0  0
  1  2  2  0
  1  3  1  0
  3  4  1  0
  4  5  1  0
  6  1  1  0
  7  6  1  0
  6  8  1  0
  8  9  1  0
  9 10  1  0
 10 11  1  0
 11 12  1  0
 12 13  1  0
 13 14  1  0
 13 15  2  0
 14 16  1  0
 16 17  1  0
 17 18  2  0
 19 17  1  0
 18 20  1  0
 21 19  2  0
 19 22  1  0
 20 23  2  0
 23 21  1  0
 22 24  1  0
 22 25  2  0
  4 26  2  0
  4 27  1  0
 28 27  1  0
 28 29  1  0
 29 30  1  0
 29 31  1  0
 30 32  1  0
 31 33  1  0
 31 34  1  0
 34 32  1  0
 32 35  1  0
 34 36  1  0
 37 35  1  0
 38 35  1  0
 39 37  2  0
 37 40  1  0
 41 38  2  0
 42 39  1  0
 40 43  2  0
 40 41  1  0
 44 42  2  0
 44 43  1  0
 43 45  1  0
  6 46  1  6
  7 47  1  0
  7 48  1  0
  8 49  1  0
  8 50  1  0
  9 51  1  0
  9 52  1  0
 10 53  1  0
 10 54  1  0
 11 55  1  0
 11 56  1  0
 12 57  1  0
 16 58  1  0
 16 59  1  0
 18 60  1  0
 20 61  1  0
 21 62  1  0
 23 63  1  0
 28 64  1  0
 28 65  1  0
 29 66  1  0
 31 67  1  0
 32 68  1  0
 33 69  1  0
 34 70  1  0
 36 71  1  0
 38 72  1  0
 42 73  1  0
 45 74  1  0
 45 75  1  0
M  CHG  3   5  -1  22   1  24  -1
M  END
>  <EmbedRMS>  (133) 
0.0741650676926

$$$$

     RDKit          3D

 75 78  0  0  0  0  0  0  0  0999 V2000
    9.4329   42.9368   34.3464 C   0  0  0  0  0  0  0  0  0  0  0  0
   10.4905   43.0334   35.0320 O   0  0  0  0  0  0  0  0  0  0  0  0
    8.8562   41.7106   34.0297 O   0  0  0  0  0  0  0  0  0  0  0  0
    9.4945   40.2143   34.4680 P   0  0  0  0  0  0  0  0  0  0  0  0
    9.7309   40.1727   36.1291 O   0  0  0  0  0  0  0  0  0  0  0  0
    8.7501   44.1351   33.7743 C   0  0  1  0  0  0  0  0  0  0  0  0
    9.2953   45.3826   34.3134 N   0  0  0  0  0  0  0  0  0  0  0  0
    8.8890   44.0528   32.2361 C   0  0  0  0  0  0  0  0  0  0  0  0
    8.2030   45.1825   31.4618 C   0  0  0  0  0  0  0  0  0  0  0  0
    6.6655   45.1037   31.4825 C   0  0  0  0  0  0  0  0  0  0  0  0
    6.0289   46.3231   30.8080 C   0  0  0  0  0  0  0  0  0  0  0  0
    6.5082   47.5617   31.4208 N   0  0  0  0  0  0  0  0  0  0  0  0
    7.2521   48.5399   30.6856 C   0  0  0  0  0  0  0  0  0  0  0  0
    7.6518   49.7513   31.2665 O   0  0  0  0  0  0  0  0  0  0  0  0
    7.5832   48.3112   29.4930 O   0  0  0  0  0  0  0  0  0  0  0  0
    7.4394   50.1179   32.6306 C   0  0  0  0  0  0  0  0  0  0  0  0
    5.9759   50.3781   32.9185 C   0  0  0  0  0  0  0  0  0  0  0  0
    5.2271   51.1094   31.9769 C   0  0  0  0  0  0  0  0  0  0  0  0
    5.3646   50.0104   34.1475 C   0  0  0  0  0  0  0  0  0  0  0  0
    3.8948   51.4417   32.2263 C   0  0  0  0  0  0  0  0  0  0  0  0
    4.0282   50.3704   34.3871 C   0  0  0  0  0  0  0  0  0  0  0  0
    6.0823   49.3143   35.1771 N   0  0  0  0  0  0  0  0  0  0  0  0
    3.2961   51.0723   33.4290 C   0  0  0  0  0  0  0  0  0  0  0  0
    5.9541   49.7231   36.4843 O   0  0  0  0  0  0  0  0  0  0  0  0
    6.5852   48.1962   34.9446 O   0  0  0  0  0  0  0  0  0  0  0  0
    8.5372   39.1387   34.0125 O   0  0  0  0  0  0  0  0  0  0  0  0
   10.9804   40.0881   33.6837 O   0  0  0  0  0  0  0  0  0  0  0  0
   10.8025   40.0900   32.2839 C   0  0  0  0  0  0  0  0  0  0  0  0
   11.5888   38.9174   31.7007 C   0  0  0  0  0  0  0  0  0  0  0  0
   12.9219   38.9373   32.1692 O   0  0  0  0  0  0  0  0  0  0  0  0
   11.0028   37.5682   32.0980 C   0  0  0  0  0  0  0  0  0  0  0  0
   13.3496   37.5885   32.2601 C   0  0  0  0  0  0  0  0  0  0  0  0
    9.9343   37.1822   31.2756 O   0  0  0  0  0  0  0  0  0  0  0  0
   12.1891   36.6677   31.9049 C   0  0  0  0  0  0  0  0  0  0  0  0
   13.8025   37.2965   33.6186 N   0  0  0  0  0  0  0  0  0  0  0  0
   12.2991   36.2867   30.5567 O   0  0  0  0  0  0  0  0  0  0  0  0
   14.7929   36.4725   33.9858 C   0  0  0  0  0  0  0  0  0  0  0  0
   13.2749   37.7294   34.7935 C   0  0  0  0  0  0  0  0  0  0  0  0
   15.6240   35.7580   33.1858 N   0  0  0  0  0  0  0  0  0  0  0  0
   14.8727   36.4411   35.3327 C   0  0  0  0  0  0  0  0  0  0  0  0
   13.9208   37.2263   35.8803 N   0  0  0  0  0  0  0  0  0  0  0  0
   16.5871   34.9921   33.7801 C   0  0  0  0  0  0  0  0  0  0  0  0
   15.8576   35.6718   35.9441 C   0  0  0  0  0  0  0  0  0  0  0  0
   16.7024   34.9584   35.1438 N   0  0  0  0  0  0  0  0  0  0  0  0
   16.0099   35.6384   37.3562 N   0  0  0  0  0  0  0  0  0  0  0  0
    7.6763   44.0710   34.0501 H   0  0  0  0  0  0  0  0  0  0  0  0
    9.1795   45.3839   35.3533 H   0  0  0  0  0  0  0  0  0  0  0  0
   10.3185   45.4409   34.1018 H   0  0  0  0  0  0  0  0  0  0  0  0
    8.4813   43.0852   31.8670 H   0  0  0  0  0  0  0  0  0  0  0  0
    9.9709   44.0681   31.9745 H   0  0  0  0  0  0  0  0  0  0  0  0
    8.5540   46.1509   31.8766 H   0  0  0  0  0  0  0  0  0  0  0  0
    8.5408   45.1381   30.4032 H   0  0  0  0  0  0  0  0  0  0  0  0
    6.3000   45.0614   32.5296 H   0  0  0  0  0  0  0  0  0  0  0  0
    6.3312   44.1800   30.9623 H   0  0  0  0  0  0  0  0  0  0  0  0
    4.9252   46.2684   30.9225 H   0  0  0  0  0  0  0  0  0  0  0  0
    6.2497   46.2921   29.7196 H   0  0  0  0  0  0  0  0  0  0  0  0
    6.2825   47.7174   32.4254 H   0  0  0  0  0  0  0  0  0  0  0  0
    7.9916   51.0622   32.8184 H   0  0  0  0  0  0  0  0  0  0  0  0
    7.8907   49.3514   33.2885 H   0  0  0  0  0  0  0  0  0  0  0  0
    5.6783   51.4310   31.0464 H   0  0  0  0  0  0  0  0  0  0  0  0
    3.3291   51.9973   31.4896 H   0  0  0  0  0  0  0  0  0  0  0  0
    3.5500   50.0978   35.3197 H   0  0  0  0  0  0  0  0  0  0  0  0
    2.2649   51.3374   33.6233 H   0  0  0  0  0  0  0  0  0  0  0  0
    9.7476   40.0331   31.9256 H   0  0  0  0  0  0  0  0  0  0  0  0
   11.2258   41.0357   31.8829 H   0  0  0  0  0  0  0  0  0  0  0  0
   11.5974   39.0148   30.5905 H   0  0  0  0  0  0  0  0  0  0  0  0
   10.7023   37.5455   33.1719 H   0  0  0  0  0  0  0  0  0  0  0  0
   14.1957   37.4366   31.5528 H   0  0  0  0  0  0  0  0  0  0  0  0
    9.1339   37.6658   31.6069 H   0  0  0  0  0  0  0  0  0  0  0  0
   12.1380   35.7717   32.5697 H   0  0  0  0  0  0  0  0  0  0  0  0
   11.7707   35.4530   30.4496 H   0  0  0  0  0  0  0  0  0  0  0  0
   12.4314   38.3980   34.8694 H   0  0  0  0  0  0  0  0  0  0  0  0
   17.2665   34.4140   33.1691 H   0  0  0  0  0  0  0  0  0  0  0  0
   16.7633   35.0598   37.7895 H   0  0  0  0  0  0  0  0  0  0  0  0
   15.3757   36.1867   37.9789 H   0  0  0  0  0  0  0  0  0  0  0  0
  1  2  2  0
  1  3  1  0
  3  4  1  0
  4  5  1  0
  6  1  1  0
  7  6  1  0
  6  8  1  0
  8  9  1  0
  9 10  1  0
 10 11  1  0
 11 12  1  0
 12 13  1  0
 13 14  1  0
 13 15  2  0
 14 16  1  0
 16 17  1  0
 17 18  2  0
 19 17  1  0
 18 20  1  0
 21 19  2  0
 19 22  1  0
 20 23  2  0
 23 21  1  0
 22 24  1  0
 22 25  2  0
  4 26  2  0
  4 27  1  0
 28 27  1  0
 28 29  1  0
 29 30  1  0
 29 31  1  0
 30 32  1  0
 31 33  1  0
 31 34  1  0
 34 32  1  0
 32 35  1  0
 34 36  1  0
 37 35  1  0
 38 35  1  0
 39 37  2  0
 37 40  1  0
 41 38  2  0
 42 39  1  0
 40 43  2  0
 40 41  1  0
 44 42  2  0
 44 43  1  0
 43 45  1  0
  6 46  1  6
  7 47  1  0
  7 48  1  0
  8 49  1  0
  8 50  1  0
  9 51  1  0
  9 52  1  0
 10 53  1  0
 10 54  1  0
 11 55  1  0
 11 56  1  0
 12 57  1  0
 16 58  1  0
 16 59  1  0
 18 60  1  0
 20 61  1  0
 21 62  1  0
 23 63  1  0
 28 64  1  0
 28 65  1  0
 29 66  1  0
 31 67  1  0
 32 68  1  0
 33 69  1  0
 34 70  1  0
 36 71  1  0
 38 72  1  0
 42 73  1  0
 45 74  1  0
 45 75  1  0
M  CHG  3   5  -1  22   1  24  -1
M  END
>  <EmbedRMS>  (134) 
0.0742454894257

$$$$

     RDKit          3D

 75 78  0  0  0  0  0  0  0  0999 V2000
    9.4334   42.9375   34.3456 C   0  0  0  0  0  0  0  0  0  0  0  0
   10.4909   43.0337   35.0313 O   0  0  0  0  0  0  0  0  0  0  0  0
    8.8556   41.7113   34.0304 O   0  0  0  0  0  0  0  0  0  0  0  0
    9.4929   40.2148   34.4704 P   0  0  0  0  0  0  0  0  0  0  0  0
    9.7295   40.1732   36.1313 O   0  0  0  0  0  0  0  0  0  0  0  0
    8.7512   44.1364   33.7735 C   0  0  1  0  0  0  0  0  0  0  0  0
    9.2972   45.3835   34.3129 N   0  0  0  0  0  0  0  0  0  0  0  0
    8.8895   44.0558   32.2351 C   0  0  0  0  0  0  0  0  0  0  0  0
    8.2019   45.1864   31.4621 C   0  0  0  0  0  0  0  0  0  0  0  0
    6.6642   45.1065   31.4851 C   0  0  0  0  0  0  0  0  0  0  0  0
    6.0221   46.3212   30.8059 C   0  0  0  0  0  0  0  0  0  0  0  0
    6.4914   47.5660   31.4136 N   0  0  0  0  0  0  0  0  0  0  0  0
    7.2692   48.5215   30.6959 C   0  0  0  0  0  0  0  0  0  0  0  0
    7.7351   49.6568   31.3656 O   0  0  0  0  0  0  0  0  0  0  0  0
    7.5878   48.3120   29.4946 O   0  0  0  0  0  0  0  0  0  0  0  0
    8.7771   50.4911   30.8621 C   0  0  0  0  0  0  0  0  0  0  0  0
   10.0882   49.7361   30.8331 C   0  0  0  0  0  0  0  0  0  0  0  0
   10.5283   49.1364   32.0278 C   0  0  0  0  0  0  0  0  0  0  0  0
   10.9098   49.6557   29.6774 C   0  0  0  0  0  0  0  0  0  0  0  0
   11.7505   48.4655   32.0821 C   0  0  0  0  0  0  0  0  0  0  0  0
   12.1479   48.9963   29.7587 C   0  0  0  0  0  0  0  0  0  0  0  0
   10.5213   50.2372   28.4244 N   0  0  0  0  0  0  0  0  0  0  0  0
   12.5612   48.3995   30.9507 C   0  0  0  0  0  0  0  0  0  0  0  0
   11.4578   50.8994   27.6648 O   0  0  0  0  0  0  0  0  0  0  0  0
    9.4359   49.9195   27.8972 O   0  0  0  0  0  0  0  0  0  0  0  0
    8.5365   39.1387   34.0139 O   0  0  0  0  0  0  0  0  0  0  0  0
   10.9784   40.0884   33.6868 O   0  0  0  0  0  0  0  0  0  0  0  0
   10.7974   40.0896   32.2882 C   0  0  0  0  0  0  0  0  0  0  0  0
   11.5882   38.9234   31.7042 C   0  0  0  0  0  0  0  0  0  0  0  0
   12.9230   38.9440   32.1728 O   0  0  0  0  0  0  0  0  0  0  0  0
   11.0048   37.5704   32.0916 C   0  0  0  0  0  0  0  0  0  0  0  0
   13.3570   37.5960   32.2595 C   0  0  0  0  0  0  0  0  0  0  0  0
    9.9332   37.1987   31.2676 O   0  0  0  0  0  0  0  0  0  0  0  0
   12.1965   36.6751   31.8949 C   0  0  0  0  0  0  0  0  0  0  0  0
   13.8037   37.2979   33.6187 N   0  0  0  0  0  0  0  0  0  0  0  0
   12.2934   36.2389   30.5582 O   0  0  0  0  0  0  0  0  0  0  0  0
   14.7929   36.4726   33.9860 C   0  0  0  0  0  0  0  0  0  0  0  0
   13.2755   37.7304   34.7934 C   0  0  0  0  0  0  0  0  0  0  0  0
   15.6244   35.7585   33.1859 N   0  0  0  0  0  0  0  0  0  0  0  0
   14.8722   36.4407   35.3328 C   0  0  0  0  0  0  0  0  0  0  0  0
   13.9205   37.2263   35.8803 N   0  0  0  0  0  0  0  0  0  0  0  0
   16.5872   34.9923   33.7802 C   0  0  0  0  0  0  0  0  0  0  0  0
   15.8573   35.6715   35.9442 C   0  0  0  0  0  0  0  0  0  0  0  0
   16.7023   34.9584   35.1439 N   0  0  0  0  0  0  0  0  0  0  0  0
   16.0098   35.6384   37.3563 N   0  0  0  0  0  0  0  0  0  0  0  0
    7.6776   44.0727   34.0498 H   0  0  0  0  0  0  0  0  0  0  0  0
    9.1877   45.3820   35.3534 H   0  0  0  0  0  0  0  0  0  0  0  0
   10.3191   45.4447   34.0951 H   0  0  0  0  0  0  0  0  0  0  0  0
    9.9713   44.0726   31.9731 H   0  0  0  0  0  0  0  0  0  0  0  0
    8.4826   43.0882   31.8653 H   0  0  0  0  0  0  0  0  0  0  0  0
    8.5386   45.1430   30.4031 H   0  0  0  0  0  0  0  0  0  0  0  0
    8.5524   46.1554   31.8764 H   0  0  0  0  0  0  0  0  0  0  0  0
    6.3308   44.1797   30.9697 H   0  0  0  0  0  0  0  0  0  0  0  0
    6.3005   45.0679   32.5329 H   0  0  0  0  0  0  0  0  0  0  0  0
    4.9184   46.2603   30.9166 H   0  0  0  0  0  0  0  0  0  0  0  0
    6.2465   46.2883   29.7181 H   0  0  0  0  0  0  0  0  0  0  0  0
    6.2703   47.7502   32.4180 H   0  0  0  0  0  0  0  0  0  0  0  0
    8.8909   51.3549   31.5503 H   0  0  0  0  0  0  0  0  0  0  0  0
    8.4816   50.9085   29.8806 H   0  0  0  0  0  0  0  0  0  0  0  0
    9.9213   49.1915   32.9235 H   0  0  0  0  0  0  0  0  0  0  0  0
   12.0731   48.0033   33.0062 H   0  0  0  0  0  0  0  0  0  0  0  0
   12.7874   48.9289   28.8875 H   0  0  0  0  0  0  0  0  0  0  0  0
   13.5119   47.8842   30.9964 H   0  0  0  0  0  0  0  0  0  0  0  0
   11.2114   41.0391   31.8861 H   0  0  0  0  0  0  0  0  0  0  0  0
    9.7422   40.0187   31.9313 H   0  0  0  0  0  0  0  0  0  0  0  0
   11.5932   39.0396   30.5966 H   0  0  0  0  0  0  0  0  0  0  0  0
   10.6986   37.5586   33.1640 H   0  0  0  0  0  0  0  0  0  0  0  0
   14.2072   37.4493   31.5564 H   0  0  0  0  0  0  0  0  0  0  0  0
    9.5321   36.3881   31.6771 H   0  0  0  0  0  0  0  0  0  0  0  0
   12.1344   35.7838   32.5583 H   0  0  0  0  0  0  0  0  0  0  0  0
   12.4641   37.0179   29.9674 H   0  0  0  0  0  0  0  0  0  0  0  0
   12.4333   38.4005   34.8692 H   0  0  0  0  0  0  0  0  0  0  0  0
   17.2668   34.4144   33.1692 H   0  0  0  0  0  0  0  0  0  0  0  0
   16.7634   35.0600   37.7896 H   0  0  0  0  0  0  0  0  0  0  0  0
   15.3755   36.1866   37.9789 H   0  0  0  0  0  0  0  0  0  0  0  0
  1  2  2  0
  1  3  1  0
  3  4  1  0
  4  5  1  0
  6  1  1  0
  7  6  1  0
  6  8  1  0
  8  9  1  0
  9 10  1  0
 10 11  1  0
 11 12  1  0
 12 13  1  0
 13 14  1  0
 13 15  2  0
 14 16  1  0
 16 17  1  0
 17 18  2  0
 19 17  1  0
 18 20  1  0
 21 19  2  0
 19 22  1  0
 20 23  2  0
 23 21  1  0
 22 24  1  0
 22 25  2  0
  4 26  2  0
  4 27  1  0
 28 27  1  0
 28 29  1  0
 29 30  1  0
 29 31  1  0
 30 32  1  0
 31 33  1  0
 31 34  1  0
 34 32  1  0
 32 35  1  0
 34 36  1  0
 37 35  1  0
 38 35  1  0
 39 37  2  0
 37 40  1  0
 41 38  2  0
 42 39  1  0
 40 43  2  0
 40 41  1  0
 44 42  2  0
 44 43  1  0
 43 45  1  0
  6 46  1  6
  7 47  1  0
  7 48  1  0
  8 49  1  0
  8 50  1  0
  9 51  1  0
  9 52  1  0
 10 53  1  0
 10 54  1  0
 11 55  1  0
 11 56  1  0
 12 57  1  0
 16 58  1  0
 16 59  1  0
 18 60  1  0
 20 61  1  0
 21 62  1  0
 23 63  1  0
 28 64  1  0
 28 65  1  0
 29 66  1  0
 31 67  1  0
 32 68  1  0
 33 69  1  0
 34 70  1  0
 36 71  1  0
 38 72  1  0
 42 73  1  0
 45 74  1  0
 45 75  1  0
M  CHG  3   5  -1  22   1  24  -1
M  END
>  <EmbedRMS>  (135) 
0.0768452659047

$$$$

     RDKit          3D

 75 78  0  0  0  0  0  0  0  0999 V2000
    9.4335   42.9368   34.3454 C   0  0  0  0  0  0  0  0  0  0  0  0
   10.4907   43.0331   35.0315 O   0  0  0  0  0  0  0  0  0  0  0  0
    8.8563   41.7106   34.0290 O   0  0  0  0  0  0  0  0  0  0  0  0
    9.4942   40.2142   34.4677 P   0  0  0  0  0  0  0  0  0  0  0  0
    9.7309   40.1727   36.1288 O   0  0  0  0  0  0  0  0  0  0  0  0
    8.7510   44.1354   33.7737 C   0  0  1  0  0  0  0  0  0  0  0  0
    9.2967   45.3821   34.3135 N   0  0  0  0  0  0  0  0  0  0  0  0
    8.8899   44.0552   32.2353 C   0  0  0  0  0  0  0  0  0  0  0  0
    8.2028   45.1859   31.4625 C   0  0  0  0  0  0  0  0  0  0  0  0
    6.6652   45.1062   31.4856 C   0  0  0  0  0  0  0  0  0  0  0  0
    6.0239   46.3220   30.8083 C   0  0  0  0  0  0  0  0  0  0  0  0
    6.4971   47.5657   31.4155 N   0  0  0  0  0  0  0  0  0  0  0  0
    7.2575   48.5293   30.6900 C   0  0  0  0  0  0  0  0  0  0  0  0
    7.6737   49.6964   31.3385 O   0  0  0  0  0  0  0  0  0  0  0  0
    7.5906   48.3102   29.4937 O   0  0  0  0  0  0  0  0  0  0  0  0
    8.6279   50.5983   30.7815 C   0  0  0  0  0  0  0  0  0  0  0  0
    9.9914   49.9476   30.7111 C   0  0  0  0  0  0  0  0  0  0  0  0
   10.6280   49.8556   29.4597 C   0  0  0  0  0  0  0  0  0  0  0  0
   10.6163   49.3702   31.8516 C   0  0  0  0  0  0  0  0  0  0  0  0
   11.8497   49.1948   29.3281 C   0  0  0  0  0  0  0  0  0  0  0  0
   11.8389   48.6938   31.6914 C   0  0  0  0  0  0  0  0  0  0  0  0
   10.0268   49.4345   33.1638 N   0  0  0  0  0  0  0  0  0  0  0  0
   12.4512   48.6106   30.4405 C   0  0  0  0  0  0  0  0  0  0  0  0
   10.2864   48.4437   34.0826 O   0  0  0  0  0  0  0  0  0  0  0  0
    9.4171   50.4553   33.5421 O   0  0  0  0  0  0  0  0  0  0  0  0
    8.5371   39.1384   34.0121 O   0  0  0  0  0  0  0  0  0  0  0  0
   10.9797   40.0871   33.6829 O   0  0  0  0  0  0  0  0  0  0  0  0
   10.8003   40.0905   32.2832 C   0  0  0  0  0  0  0  0  0  0  0  0
   11.5958   38.9271   31.6963 C   0  0  0  0  0  0  0  0  0  0  0  0
   12.9239   38.9409   32.1766 O   0  0  0  0  0  0  0  0  0  0  0  0
   11.0062   37.5719   32.0793 C   0  0  0  0  0  0  0  0  0  0  0  0
   13.3507   37.5905   32.2613 C   0  0  0  0  0  0  0  0  0  0  0  0
    9.9064   37.1793   31.2946 O   0  0  0  0  0  0  0  0  0  0  0  0
   12.1920   36.6671   31.9003 C   0  0  0  0  0  0  0  0  0  0  0  0
   13.8018   37.2948   33.6193 N   0  0  0  0  0  0  0  0  0  0  0  0
   12.3133   36.2787   30.5560 O   0  0  0  0  0  0  0  0  0  0  0  0
   14.7927   36.4717   33.9861 C   0  0  0  0  0  0  0  0  0  0  0  0
   13.2746   37.7284   34.7941 C   0  0  0  0  0  0  0  0  0  0  0  0
   15.6240   35.7576   33.1859 N   0  0  0  0  0  0  0  0  0  0  0  0
   14.8728   36.4406   35.3329 C   0  0  0  0  0  0  0  0  0  0  0  0
   13.9209   37.2258   35.8807 N   0  0  0  0  0  0  0  0  0  0  0  0
   16.5874   34.9920   33.7802 C   0  0  0  0  0  0  0  0  0  0  0  0
   15.8579   35.6716   35.9443 C   0  0  0  0  0  0  0  0  0  0  0  0
   16.7028   34.9584   35.1439 N   0  0  0  0  0  0  0  0  0  0  0  0
   16.0103   35.6383   37.3563 N   0  0  0  0  0  0  0  0  0  0  0  0
    7.6773   44.0714   34.0497 H   0  0  0  0  0  0  0  0  0  0  0  0
    9.1840   45.3818   35.3538 H   0  0  0  0  0  0  0  0  0  0  0  0
   10.3194   45.4413   34.0990 H   0  0  0  0  0  0  0  0  0  0  0  0
    9.9718   44.0720   31.9737 H   0  0  0  0  0  0  0  0  0  0  0  0
    8.4830   43.0878   31.8651 H   0  0  0  0  0  0  0  0  0  0  0  0
    8.5393   45.1424   30.4034 H   0  0  0  0  0  0  0  0  0  0  0  0
    8.5538   46.1548   31.8769 H   0  0  0  0  0  0  0  0  0  0  0  0
    6.3015   45.0667   32.5333 H   0  0  0  0  0  0  0  0  0  0  0  0
    6.3313   44.1802   30.9691 H   0  0  0  0  0  0  0  0  0  0  0  0
    6.2458   46.2889   29.7200 H   0  0  0  0  0  0  0  0  0  0  0  0
    4.9204   46.2630   30.9216 H   0  0  0  0  0  0  0  0  0  0  0  0
    6.2758   47.7521   32.4195 H   0  0  0  0  0  0  0  0  0  0  0  0
    8.2770   50.9306   29.7797 H   0  0  0  0  0  0  0  0  0  0  0  0
    8.6842   51.5087   31.4123 H   0  0  0  0  0  0  0  0  0  0  0  0
   10.1710   50.2842   28.5762 H   0  0  0  0  0  0  0  0  0  0  0  0
   12.3266   49.1279   28.3588 H   0  0  0  0  0  0  0  0  0  0  0  0
   12.3299   48.2403   32.5431 H   0  0  0  0  0  0  0  0  0  0  0  0
   13.3960   48.0933   30.3343 H   0  0  0  0  0  0  0  0  0  0  0  0
    9.7455   40.0169   31.9262 H   0  0  0  0  0  0  0  0  0  0  0  0
   11.2117   41.0420   31.8834 H   0  0  0  0  0  0  0  0  0  0  0  0
   11.6245   39.0449   30.5888 H   0  0  0  0  0  0  0  0  0  0  0  0
   10.7051   37.5580   33.1499 H   0  0  0  0  0  0  0  0  0  0  0  0
   14.1985   37.4426   31.5553 H   0  0  0  0  0  0  0  0  0  0  0  0
   10.0893   37.4057   30.3459 H   0  0  0  0  0  0  0  0  0  0  0  0
   12.1337   35.7754   32.5703 H   0  0  0  0  0  0  0  0  0  0  0  0
   11.7934   35.4394   30.4514 H   0  0  0  0  0  0  0  0  0  0  0  0
   12.4314   38.3972   34.8699 H   0  0  0  0  0  0  0  0  0  0  0  0
   17.2669   34.4141   33.1692 H   0  0  0  0  0  0  0  0  0  0  0  0
   15.3759   36.1865   37.9790 H   0  0  0  0  0  0  0  0  0  0  0  0
   16.7638   35.0599   37.7896 H   0  0  0  0  0  0  0  0  0  0  0  0
  1  2  2  0
  1  3  1  0
  3  4  1  0
  4  5  1  0
  6  1  1  0
  7  6  1  0
  6  8  1  0
  8  9  1  0
  9 10  1  0
 10 11  1  0
 11 12  1  0
 12 13  1  0
 13 14  1  0
 13 15  2  0
 14 16  1  0
 16 17  1  0
 17 18  2  0
 19 17  1  0
 18 20  1  0
 21 19  2  0
 19 22  1  0
 20 23  2  0
 23 21  1  0
 22 24  1  0
 22 25  2  0
  4 26  2  0
  4 27  1  0
 28 27  1  0
 28 29  1  0
 29 30  1  0
 29 31  1  0
 30 32  1  0
 31 33  1  0
 31 34  1  0
 34 32  1  0
 32 35  1  0
 34 36  1  0
 37 35  1  0
 38 35  1  0
 39 37  2  0
 37 40  1  0
 41 38  2  0
 42 39  1  0
 40 43  2  0
 40 41  1  0
 44 42  2  0
 44 43  1  0
 43 45  1  0
  6 46  1  6
  7 47  1  0
  7 48  1  0
  8 49  1  0
  8 50  1  0
  9 51  1  0
  9 52  1  0
 10 53  1  0
 10 54  1  0
 11 55  1  0
 11 56  1  0
 12 57  1  0
 16 58  1  0
 16 59  1  0
 18 60  1  0
 20 61  1  0
 21 62  1  0
 23 63  1  0
 28 64  1  0
 28 65  1  0
 29 66  1  0
 31 67  1  0
 32 68  1  0
 33 69  1  0
 34 70  1  0
 36 71  1  0
 38 72  1  0
 42 73  1  0
 45 74  1  0
 45 75  1  0
M  CHG  3   5  -1  22   1  24  -1
M  END
>  <EmbedRMS>  (136) 
0.0753118784557

$$$$

     RDKit          3D

 75 78  0  0  0  0  0  0  0  0999 V2000
    9.4312   42.9416   34.3437 C   0  0  0  0  0  0  0  0  0  0  0  0
   10.4885   43.0414   35.0293 O   0  0  0  0  0  0  0  0  0  0  0  0
    8.8562   41.7133   34.0287 O   0  0  0  0  0  0  0  0  0  0  0  0
    9.4946   40.2166   34.4678 P   0  0  0  0  0  0  0  0  0  0  0  0
    9.7310   40.1744   36.1289 O   0  0  0  0  0  0  0  0  0  0  0  0
    8.7483   44.1368   33.7722 C   0  0  1  0  0  0  0  0  0  0  0  0
    9.3039   45.3675   34.3388 N   0  0  0  0  0  0  0  0  0  0  0  0
    8.8890   44.0529   32.2310 C   0  0  0  0  0  0  0  0  0  0  0  0
    8.2013   45.1736   31.4443 C   0  0  0  0  0  0  0  0  0  0  0  0
    6.6639   45.1066   31.4864 C   0  0  0  0  0  0  0  0  0  0  0  0
    6.0270   46.3230   30.8074 C   0  0  0  0  0  0  0  0  0  0  0  0
    6.5012   47.5639   31.4199 N   0  0  0  0  0  0  0  0  0  0  0  0
    7.2622   48.5335   30.6894 C   0  0  0  0  0  0  0  0  0  0  0  0
    7.7051   49.7180   31.2894 O   0  0  0  0  0  0  0  0  0  0  0  0
    7.5821   48.3119   29.4924 O   0  0  0  0  0  0  0  0  0  0  0  0
    7.4660   50.0570   32.6515 C   0  0  0  0  0  0  0  0  0  0  0  0
    8.1692   51.3492   32.9759 C   0  0  0  0  0  0  0  0  0  0  0  0
    7.4184   52.5390   32.9810 C   0  0  0  0  0  0  0  0  0  0  0  0
    9.5531   51.3988   33.3000 C   0  0  0  0  0  0  0  0  0  0  0  0
    8.0133   53.7552   33.3180 C   0  0  0  0  0  0  0  0  0  0  0  0
   10.1274   52.6337   33.6520 C   0  0  0  0  0  0  0  0  0  0  0  0
   10.3839   50.2222   33.2999 N   0  0  0  0  0  0  0  0  0  0  0  0
    9.3637   53.8017   33.6574 C   0  0  0  0  0  0  0  0  0  0  0  0
   11.4766   50.1536   34.1336 O   0  0  0  0  0  0  0  0  0  0  0  0
   10.2287   49.3283   32.4431 O   0  0  0  0  0  0  0  0  0  0  0  0
    8.5374   39.1406   34.0127 O   0  0  0  0  0  0  0  0  0  0  0  0
   10.9805   40.0890   33.6836 O   0  0  0  0  0  0  0  0  0  0  0  0
   10.8025   40.0902   32.2837 C   0  0  0  0  0  0  0  0  0  0  0  0
   11.5888   38.9175   31.7008 C   0  0  0  0  0  0  0  0  0  0  0  0
   12.9219   38.9374   32.1693 O   0  0  0  0  0  0  0  0  0  0  0  0
   11.0028   37.5683   32.0981 C   0  0  0  0  0  0  0  0  0  0  0  0
   13.3496   37.5886   32.2601 C   0  0  0  0  0  0  0  0  0  0  0  0
    9.9343   37.1823   31.2757 O   0  0  0  0  0  0  0  0  0  0  0  0
   12.1890   36.6677   31.9050 C   0  0  0  0  0  0  0  0  0  0  0  0
   13.8025   37.2965   33.6186 N   0  0  0  0  0  0  0  0  0  0  0  0
   12.2990   36.2868   30.5568 O   0  0  0  0  0  0  0  0  0  0  0  0
   14.7929   36.4725   33.9858 C   0  0  0  0  0  0  0  0  0  0  0  0
   13.2749   37.7294   34.7935 C   0  0  0  0  0  0  0  0  0  0  0  0
   15.6240   35.7580   33.1858 N   0  0  0  0  0  0  0  0  0  0  0  0
   14.8727   36.4411   35.3327 C   0  0  0  0  0  0  0  0  0  0  0  0
   13.9208   37.2263   35.8803 N   0  0  0  0  0  0  0  0  0  0  0  0
   16.5871   34.9921   33.7801 C   0  0  0  0  0  0  0  0  0  0  0  0
   15.8576   35.6718   35.9441 C   0  0  0  0  0  0  0  0  0  0  0  0
   16.7024   34.9585   35.1438 N   0  0  0  0  0  0  0  0  0  0  0  0
   16.0099   35.6384   37.3562 N   0  0  0  0  0  0  0  0  0  0  0  0
    7.6762   44.0645   34.0546 H   0  0  0  0  0  0  0  0  0  0  0  0
   10.2148   45.5896   33.8741 H   0  0  0  0  0  0  0  0  0  0  0  0
    8.6467   46.1570   34.1440 H   0  0  0  0  0  0  0  0  0  0  0  0
    8.4828   43.0829   31.8665 H   0  0  0  0  0  0  0  0  0  0  0  0
    9.9706   44.0655   31.9681 H   0  0  0  0  0  0  0  0  0  0  0  0
    8.5217   45.0994   30.3819 H   0  0  0  0  0  0  0  0  0  0  0  0
    8.5692   46.1503   31.8202 H   0  0  0  0  0  0  0  0  0  0  0  0
    6.3165   44.1796   30.9808 H   0  0  0  0  0  0  0  0  0  0  0  0
    6.3118   45.0782   32.5385 H   0  0  0  0  0  0  0  0  0  0  0  0
    6.2518   46.2904   29.7198 H   0  0  0  0  0  0  0  0  0  0  0  0
    4.9230   46.2660   30.9176 H   0  0  0  0  0  0  0  0  0  0  0  0
    6.2576   47.7300   32.4210 H   0  0  0  0  0  0  0  0  0  0  0  0
    7.8282   49.2517   33.3265 H   0  0  0  0  0  0  0  0  0  0  0  0
    6.3703   50.1579   32.8134 H   0  0  0  0  0  0  0  0  0  0  0  0
    6.3651   52.5257   32.7286 H   0  0  0  0  0  0  0  0  0  0  0  0
    7.4240   54.6632   33.3206 H   0  0  0  0  0  0  0  0  0  0  0  0
   11.1775   52.6964   33.9077 H   0  0  0  0  0  0  0  0  0  0  0  0
    9.8219   54.7460   33.9220 H   0  0  0  0  0  0  0  0  0  0  0  0
    9.7476   40.0332   31.9255 H   0  0  0  0  0  0  0  0  0  0  0  0
   11.2257   41.0358   31.8824 H   0  0  0  0  0  0  0  0  0  0  0  0
   11.5975   39.0148   30.5905 H   0  0  0  0  0  0  0  0  0  0  0  0
   10.7023   37.5457   33.1720 H   0  0  0  0  0  0  0  0  0  0  0  0
   14.1957   37.4366   31.5528 H   0  0  0  0  0  0  0  0  0  0  0  0
    9.1339   37.6659   31.6070 H   0  0  0  0  0  0  0  0  0  0  0  0
   12.1380   35.7718   32.5698 H   0  0  0  0  0  0  0  0  0  0  0  0
   11.7706   35.4530   30.4496 H   0  0  0  0  0  0  0  0  0  0  0  0
   12.4314   38.3980   34.8694 H   0  0  0  0  0  0  0  0  0  0  0  0
   17.2665   34.4140   33.1691 H   0  0  0  0  0  0  0  0  0  0  0  0
   15.3757   36.1868   37.9789 H   0  0  0  0  0  0  0  0  0  0  0  0
   16.7633   35.0598   37.7895 H   0  0  0  0  0  0  0  0  0  0  0  0
  1  2  2  0
  1  3  1  0
  3  4  1  0
  4  5  1  0
  6  1  1  0
  7  6  1  0
  6  8  1  0
  8  9  1  0
  9 10  1  0
 10 11  1  0
 11 12  1  0
 12 13  1  0
 13 14  1  0
 13 15  2  0
 14 16  1  0
 16 17  1  0
 17 18  2  0
 19 17  1  0
 18 20  1  0
 21 19  2  0
 19 22  1  0
 20 23  2  0
 23 21  1  0
 22 24  1  0
 22 25  2  0
  4 26  2  0
  4 27  1  0
 28 27  1  0
 28 29  1  0
 29 30  1  0
 29 31  1  0
 30 32  1  0
 31 33  1  0
 31 34  1  0
 34 32  1  0
 32 35  1  0
 34 36  1  0
 37 35  1  0
 38 35  1  0
 39 37  2  0
 37 40  1  0
 41 38  2  0
 42 39  1  0
 40 43  2  0
 40 41  1  0
 44 42  2  0
 44 43  1  0
 43 45  1  0
  6 46  1  6
  7 47  1  0
  7 48  1  0
  8 49  1  0
  8 50  1  0
  9 51  1  0
  9 52  1  0
 10 53  1  0
 10 54  1  0
 11 55  1  0
 11 56  1  0
 12 57  1  0
 16 58  1  0
 16 59  1  0
 18 60  1  0
 20 61  1  0
 21 62  1  0
 23 63  1  0
 28 64  1  0
 28 65  1  0
 29 66  1  0
 31 67  1  0
 32 68  1  0
 33 69  1  0
 34 70  1  0
 36 71  1  0
 38 72  1  0
 42 73  1  0
 45 74  1  0
 45 75  1  0
M  CHG  3   5  -1  22   1  24  -1
M  END
>  <EmbedRMS>  (137) 
0.0738601413175

$$$$

     RDKit          3D

 75 78  0  0  0  0  0  0  0  0999 V2000
    9.4313   42.9415   34.3436 C   0  0  0  0  0  0  0  0  0  0  0  0
   10.4885   43.0412   35.0293 O   0  0  0  0  0  0  0  0  0  0  0  0
    8.8562   41.7132   34.0286 O   0  0  0  0  0  0  0  0  0  0  0  0
    9.4945   40.2163   34.4677 P   0  0  0  0  0  0  0  0  0  0  0  0
    9.7311   40.1741   36.1288 O   0  0  0  0  0  0  0  0  0  0  0  0
    8.7485   44.1368   33.7721 C   0  0  1  0  0  0  0  0  0  0  0  0
    9.3043   45.3673   34.3387 N   0  0  0  0  0  0  0  0  0  0  0  0
    8.8891   44.0530   32.2308 C   0  0  0  0  0  0  0  0  0  0  0  0
    8.2009   45.1735   31.4440 C   0  0  0  0  0  0  0  0  0  0  0  0
    6.6636   45.1067   31.4880 C   0  0  0  0  0  0  0  0  0  0  0  0
    6.0247   46.3225   30.8097 C   0  0  0  0  0  0  0  0  0  0  0  0
    6.5025   47.5643   31.4169 N   0  0  0  0  0  0  0  0  0  0  0  0
    7.2574   48.5310   30.6896 C   0  0  0  0  0  0  0  0  0  0  0  0
    7.6694   49.6974   31.3378 O   0  0  0  0  0  0  0  0  0  0  0  0
    7.5876   48.3147   29.4921 O   0  0  0  0  0  0  0  0  0  0  0  0
    8.5005   50.6732   30.7175 C   0  0  0  0  0  0  0  0  0  0  0  0
    8.9007   51.7154   31.7311 C   0  0  0  0  0  0  0  0  0  0  0  0
    8.5928   53.0638   31.4711 C   0  0  0  0  0  0  0  0  0  0  0  0
    9.5400   51.3730   32.9542 C   0  0  0  0  0  0  0  0  0  0  0  0
    8.8989   54.0572   32.4018 C   0  0  0  0  0  0  0  0  0  0  0  0
    9.8254   52.3898   33.8843 C   0  0  0  0  0  0  0  0  0  0  0  0
    9.8839   50.0128   33.2797 N   0  0  0  0  0  0  0  0  0  0  0  0
    9.5106   53.7206   33.6073 C   0  0  0  0  0  0  0  0  0  0  0  0
   10.3921   49.1658   32.3227 O   0  0  0  0  0  0  0  0  0  0  0  0
    9.8708   49.6323   34.4688 O   0  0  0  0  0  0  0  0  0  0  0  0
    8.5374   39.1402   34.0124 O   0  0  0  0  0  0  0  0  0  0  0  0
   10.9798   40.0879   33.6828 O   0  0  0  0  0  0  0  0  0  0  0  0
   10.8002   40.0907   32.2831 C   0  0  0  0  0  0  0  0  0  0  0  0
   11.5958   38.9271   31.6964 C   0  0  0  0  0  0  0  0  0  0  0  0
   12.9239   38.9409   32.1767 O   0  0  0  0  0  0  0  0  0  0  0  0
   11.0062   37.5720   32.0794 C   0  0  0  0  0  0  0  0  0  0  0  0
   13.3506   37.5906   32.2614 C   0  0  0  0  0  0  0  0  0  0  0  0
    9.9064   37.1793   31.2946 O   0  0  0  0  0  0  0  0  0  0  0  0
   12.1920   36.6672   31.9003 C   0  0  0  0  0  0  0  0  0  0  0  0
   13.8017   37.2948   33.6193 N   0  0  0  0  0  0  0  0  0  0  0  0
   12.3133   36.2788   30.5561 O   0  0  0  0  0  0  0  0  0  0  0  0
   14.7927   36.4716   33.9862 C   0  0  0  0  0  0  0  0  0  0  0  0
   13.2746   37.7284   34.7941 C   0  0  0  0  0  0  0  0  0  0  0  0
   15.6240   35.7576   33.1859 N   0  0  0  0  0  0  0  0  0  0  0  0
   14.8728   36.4406   35.3330 C   0  0  0  0  0  0  0  0  0  0  0  0
   13.9209   37.2258   35.8808 N   0  0  0  0  0  0  0  0  0  0  0  0
   16.5874   34.9920   33.7802 C   0  0  0  0  0  0  0  0  0  0  0  0
   15.8579   35.6716   35.9443 C   0  0  0  0  0  0  0  0  0  0  0  0
   16.7028   34.9584   35.1439 N   0  0  0  0  0  0  0  0  0  0  0  0
   16.0103   35.6383   37.3563 N   0  0  0  0  0  0  0  0  0  0  0  0
    7.6765   44.0645   34.0548 H   0  0  0  0  0  0  0  0  0  0  0  0
   10.2153   45.5893   33.8742 H   0  0  0  0  0  0  0  0  0  0  0  0
    8.6473   46.1570   34.1437 H   0  0  0  0  0  0  0  0  0  0  0  0
    8.4831   43.0829   31.8664 H   0  0  0  0  0  0  0  0  0  0  0  0
    9.9706   44.0658   31.9677 H   0  0  0  0  0  0  0  0  0  0  0  0
    8.5697   46.1502   31.8190 H   0  0  0  0  0  0  0  0  0  0  0  0
    8.5201   45.0985   30.3814 H   0  0  0  0  0  0  0  0  0  0  0  0
    6.3129   45.0789   32.5405 H   0  0  0  0  0  0  0  0  0  0  0  0
    6.3154   44.1794   30.9836 H   0  0  0  0  0  0  0  0  0  0  0  0
    4.9212   46.2667   30.9252 H   0  0  0  0  0  0  0  0  0  0  0  0
    6.2453   46.2887   29.7212 H   0  0  0  0  0  0  0  0  0  0  0  0
    6.2844   47.7495   32.4218 H   0  0  0  0  0  0  0  0  0  0  0  0
    7.9469   51.1283   29.8672 H   0  0  0  0  0  0  0  0  0  0  0  0
    9.4118   50.1965   30.2989 H   0  0  0  0  0  0  0  0  0  0  0  0
    8.1061   53.3500   30.5468 H   0  0  0  0  0  0  0  0  0  0  0  0
    8.6554   55.0904   32.1897 H   0  0  0  0  0  0  0  0  0  0  0  0
   10.3081   52.1521   34.8240 H   0  0  0  0  0  0  0  0  0  0  0  0
    9.7432   54.4929   34.3291 H   0  0  0  0  0  0  0  0  0  0  0  0
    9.7454   40.0168   31.9263 H   0  0  0  0  0  0  0  0  0  0  0  0
   11.2114   41.0421   31.8829 H   0  0  0  0  0  0  0  0  0  0  0  0
   11.6246   39.0449   30.5889 H   0  0  0  0  0  0  0  0  0  0  0  0
   10.7050   37.5581   33.1500 H   0  0  0  0  0  0  0  0  0  0  0  0
   14.1985   37.4426   31.5553 H   0  0  0  0  0  0  0  0  0  0  0  0
   10.0893   37.4058   30.3459 H   0  0  0  0  0  0  0  0  0  0  0  0
   12.1337   35.7755   32.5703 H   0  0  0  0  0  0  0  0  0  0  0  0
   11.7934   35.4394   30.4514 H   0  0  0  0  0  0  0  0  0  0  0  0
   12.4314   38.3973   34.8700 H   0  0  0  0  0  0  0  0  0  0  0  0
   17.2669   34.4142   33.1692 H   0  0  0  0  0  0  0  0  0  0  0  0
   15.3759   36.1864   37.9790 H   0  0  0  0  0  0  0  0  0  0  0  0
   16.7638   35.0599   37.7896 H   0  0  0  0  0  0  0  0  0  0  0  0
  1  2  2  0
  1  3  1  0
  3  4  1  0
  4  5  1  0
  6  1  1  0
  7  6  1  0
  6  8  1  0
  8  9  1  0
  9 10  1  0
 10 11  1  0
 11 12  1  0
 12 13  1  0
 13 14  1  0
 13 15  2  0
 14 16  1  0
 16 17  1  0
 17 18  2  0
 19 17  1  0
 18 20  1  0
 21 19  2  0
 19 22  1  0
 20 23  2  0
 23 21  1  0
 22 24  1  0
 22 25  2  0
  4 26  2  0
  4 27  1  0
 28 27  1  0
 28 29  1  0
 29 30  1  0
 29 31  1  0
 30 32  1  0
 31 33  1  0
 31 34  1  0
 34 32  1  0
 32 35  1  0
 34 36  1  0
 37 35  1  0
 38 35  1  0
 39 37  2  0
 37 40  1  0
 41 38  2  0
 42 39  1  0
 40 43  2  0
 40 41  1  0
 44 42  2  0
 44 43  1  0
 43 45  1  0
  6 46  1  6
  7 47  1  0
  7 48  1  0
  8 49  1  0
  8 50  1  0
  9 51  1  0
  9 52  1  0
 10 53  1  0
 10 54  1  0
 11 55  1  0
 11 56  1  0
 12 57  1  0
 16 58  1  0
 16 59  1  0
 18 60  1  0
 20 61  1  0
 21 62  1  0
 23 63  1  0
 28 64  1  0
 28 65  1  0
 29 66  1  0
 31 67  1  0
 32 68  1  0
 33 69  1  0
 34 70  1  0
 36 71  1  0
 38 72  1  0
 42 73  1  0
 45 74  1  0
 45 75  1  0
M  CHG  3   5  -1  22   1  24  -1
M  END
>  <EmbedRMS>  (138) 
0.074328048654

$$$$

     RDKit          3D

 75 78  0  0  0  0  0  0  0  0999 V2000
    9.4333   42.9364   34.3461 C   0  0  0  0  0  0  0  0  0  0  0  0
   10.4907   43.0329   35.0318 O   0  0  0  0  0  0  0  0  0  0  0  0
    8.8562   41.7103   34.0295 O   0  0  0  0  0  0  0  0  0  0  0  0
    9.4942   40.2139   34.4678 P   0  0  0  0  0  0  0  0  0  0  0  0
    9.7311   40.1724   36.1289 O   0  0  0  0  0  0  0  0  0  0  0  0
    8.7506   44.1347   33.7740 C   0  0  1  0  0  0  0  0  0  0  0  0
    9.2963   45.3819   34.3133 N   0  0  0  0  0  0  0  0  0  0  0  0
    8.8893   44.0527   32.2357 C   0  0  0  0  0  0  0  0  0  0  0  0
    8.2029   45.1824   31.4614 C   0  0  0  0  0  0  0  0  0  0  0  0
    6.6654   45.1047   31.4855 C   0  0  0  0  0  0  0  0  0  0  0  0
    6.0272   46.3228   30.8105 C   0  0  0  0  0  0  0  0  0  0  0  0
    6.5068   47.5642   31.4180 N   0  0  0  0  0  0  0  0  0  0  0  0
    7.2422   48.5403   30.6828 C   0  0  0  0  0  0  0  0  0  0  0  0
    7.5825   49.7467   31.3039 O   0  0  0  0  0  0  0  0  0  0  0  0
    7.5939   48.3102   29.4948 O   0  0  0  0  0  0  0  0  0  0  0  0
    8.3224   50.7859   30.6637 C   0  0  0  0  0  0  0  0  0  0  0  0
    7.5089   51.4300   29.5639 C   0  0  0  0  0  0  0  0  0  0  0  0
    6.2438   51.9475   29.8963 C   0  0  0  0  0  0  0  0  0  0  0  0
    8.0016   51.6051   28.2440 C   0  0  0  0  0  0  0  0  0  0  0  0
    5.4743   52.6181   28.9445 C   0  0  0  0  0  0  0  0  0  0  0  0
    7.2191   52.2985   27.3042 C   0  0  0  0  0  0  0  0  0  0  0  0
    9.2855   51.1050   27.8417 N   0  0  0  0  0  0  0  0  0  0  0  0
    5.9623   52.7957   27.6513 C   0  0  0  0  0  0  0  0  0  0  0  0
    9.5810   49.7698   27.9879 O   0  0  0  0  0  0  0  0  0  0  0  0
   10.0328   51.8124   27.1350 O   0  0  0  0  0  0  0  0  0  0  0  0
    8.5370   39.1382   34.0122 O   0  0  0  0  0  0  0  0  0  0  0  0
   10.9795   40.0869   33.6827 O   0  0  0  0  0  0  0  0  0  0  0  0
   10.7997   40.0898   32.2830 C   0  0  0  0  0  0  0  0  0  0  0  0
   11.5968   38.9273   31.6962 C   0  0  0  0  0  0  0  0  0  0  0  0
   12.9242   38.9425   32.1784 O   0  0  0  0  0  0  0  0  0  0  0  0
   11.0086   37.5713   32.0780 C   0  0  0  0  0  0  0  0  0  0  0  0
   13.3528   37.5929   32.2623 C   0  0  0  0  0  0  0  0  0  0  0  0
    9.9098   37.1770   31.2925 O   0  0  0  0  0  0  0  0  0  0  0  0
   12.1943   36.6683   31.8994 C   0  0  0  0  0  0  0  0  0  0  0  0
   13.8019   37.2950   33.6199 N   0  0  0  0  0  0  0  0  0  0  0  0
   12.3027   36.2773   30.5558 O   0  0  0  0  0  0  0  0  0  0  0  0
   14.7926   36.4715   33.9865 C   0  0  0  0  0  0  0  0  0  0  0  0
   13.2749   37.7286   34.7946 C   0  0  0  0  0  0  0  0  0  0  0  0
   15.6239   35.7577   33.1860 N   0  0  0  0  0  0  0  0  0  0  0  0
   14.8727   36.4403   35.3332 C   0  0  0  0  0  0  0  0  0  0  0  0
   13.9210   37.2257   35.8811 N   0  0  0  0  0  0  0  0  0  0  0  0
   16.5873   34.9921   33.7802 C   0  0  0  0  0  0  0  0  0  0  0  0
   15.8579   35.6714   35.9444 C   0  0  0  0  0  0  0  0  0  0  0  0
   16.7028   34.9583   35.1439 N   0  0  0  0  0  0  0  0  0  0  0  0
   16.0104   35.6381   37.3564 N   0  0  0  0  0  0  0  0  0  0  0  0
    7.6770   44.0706   34.0503 H   0  0  0  0  0  0  0  0  0  0  0  0
    9.1827   45.3819   35.3535 H   0  0  0  0  0  0  0  0  0  0  0  0
   10.3192   45.4406   34.1000 H   0  0  0  0  0  0  0  0  0  0  0  0
    9.9712   44.0681   31.9739 H   0  0  0  0  0  0  0  0  0  0  0  0
    8.4817   43.0851   31.8667 H   0  0  0  0  0  0  0  0  0  0  0  0
    8.5554   46.1510   31.8740 H   0  0  0  0  0  0  0  0  0  0  0  0
    8.5385   45.1363   30.4021 H   0  0  0  0  0  0  0  0  0  0  0  0
    6.3296   44.1801   30.9677 H   0  0  0  0  0  0  0  0  0  0  0  0
    6.3021   45.0644   32.5333 H   0  0  0  0  0  0  0  0  0  0  0  0
    6.2464   46.2899   29.7217 H   0  0  0  0  0  0  0  0  0  0  0  0
    4.9238   46.2677   30.9267 H   0  0  0  0  0  0  0  0  0  0  0  0
    6.2814   47.7539   32.4205 H   0  0  0  0  0  0  0  0  0  0  0  0
    9.2978   50.3917   30.3192 H   0  0  0  0  0  0  0  0  0  0  0  0
    8.5501   51.5637   31.4226 H   0  0  0  0  0  0  0  0  0  0  0  0
    5.8556   51.8387   30.9018 H   0  0  0  0  0  0  0  0  0  0  0  0
    4.5015   53.0092   29.2135 H   0  0  0  0  0  0  0  0  0  0  0  0
    7.5809   52.4418   26.2936 H   0  0  0  0  0  0  0  0  0  0  0  0
    5.3664   53.3211   26.9161 H   0  0  0  0  0  0  0  0  0  0  0  0
    9.7449   40.0145   31.9263 H   0  0  0  0  0  0  0  0  0  0  0  0
   11.2096   41.0418   31.8830 H   0  0  0  0  0  0  0  0  0  0  0  0
   11.6265   39.0456   30.5888 H   0  0  0  0  0  0  0  0  0  0  0  0
   10.7064   37.5573   33.1484 H   0  0  0  0  0  0  0  0  0  0  0  0
   14.2021   37.4484   31.5574 H   0  0  0  0  0  0  0  0  0  0  0  0
   10.0952   37.3990   30.3433 H   0  0  0  0  0  0  0  0  0  0  0  0
   12.1163   35.7744   32.5633 H   0  0  0  0  0  0  0  0  0  0  0  0
   12.9615   35.5349   30.5311 H   0  0  0  0  0  0  0  0  0  0  0  0
   12.4321   38.3982   34.8705 H   0  0  0  0  0  0  0  0  0  0  0  0
   17.2669   34.4144   33.1690 H   0  0  0  0  0  0  0  0  0  0  0  0
   15.3761   36.1862   37.9792 H   0  0  0  0  0  0  0  0  0  0  0  0
   16.7641   35.0598   37.7896 H   0  0  0  0  0  0  0  0  0  0  0  0
  1  2  2  0
  1  3  1  0
  3  4  1  0
  4  5  1  0
  6  1  1  0
  7  6  1  0
  6  8  1  0
  8  9  1  0
  9 10  1  0
 10 11  1  0
 11 12  1  0
 12 13  1  0
 13 14  1  0
 13 15  2  0
 14 16  1  0
 16 17  1  0
 17 18  2  0
 19 17  1  0
 18 20  1  0
 21 19  2  0
 19 22  1  0
 20 23  2  0
 23 21  1  0
 22 24  1  0
 22 25  2  0
  4 26  2  0
  4 27  1  0
 28 27  1  0
 28 29  1  0
 29 30  1  0
 29 31  1  0
 30 32  1  0
 31 33  1  0
 31 34  1  0
 34 32  1  0
 32 35  1  0
 34 36  1  0
 37 35  1  0
 38 35  1  0
 39 37  2  0
 37 40  1  0
 41 38  2  0
 42 39  1  0
 40 43  2  0
 40 41  1  0
 44 42  2  0
 44 43  1  0
 43 45  1  0
  6 46  1  6
  7 47  1  0
  7 48  1  0
  8 49  1  0
  8 50  1  0
  9 51  1  0
  9 52  1  0
 10 53  1  0
 10 54  1  0
 11 55  1  0
 11 56  1  0
 12 57  1  0
 16 58  1  0
 16 59  1  0
 18 60  1  0
 20 61  1  0
 21 62  1  0
 23 63  1  0
 28 64  1  0
 28 65  1  0
 29 66  1  0
 31 67  1  0
 32 68  1  0
 33 69  1  0
 34 70  1  0
 36 71  1  0
 38 72  1  0
 42 73  1  0
 45 74  1  0
 45 75  1  0
M  CHG  3   5  -1  22   1  24  -1
M  END
>  <EmbedRMS>  (139) 
0.0745625119545

$$$$

     RDKit          3D

 75 78  0  0  0  0  0  0  0  0999 V2000
    9.4313   42.9411   34.3437 C   0  0  0  0  0  0  0  0  0  0  0  0
   10.4885   43.0410   35.0294 O   0  0  0  0  0  0  0  0  0  0  0  0
    8.8562   41.7128   34.0288 O   0  0  0  0  0  0  0  0  0  0  0  0
    9.4947   40.2163   34.4679 P   0  0  0  0  0  0  0  0  0  0  0  0
    9.7310   40.1742   36.1290 O   0  0  0  0  0  0  0  0  0  0  0  0
    8.7484   44.1359   33.7721 C   0  0  1  0  0  0  0  0  0  0  0  0
    9.3039   45.3665   34.3388 N   0  0  0  0  0  0  0  0  0  0  0  0
    8.8892   44.0518   32.2308 C   0  0  0  0  0  0  0  0  0  0  0  0
    8.2015   45.1721   31.4435 C   0  0  0  0  0  0  0  0  0  0  0  0
    6.6642   45.1066   31.4887 C   0  0  0  0  0  0  0  0  0  0  0  0
    6.0267   46.3237   30.8123 C   0  0  0  0  0  0  0  0  0  0  0  0
    6.5083   47.5645   31.4190 N   0  0  0  0  0  0  0  0  0  0  0  0
    7.2421   48.5406   30.6825 C   0  0  0  0  0  0  0  0  0  0  0  0
    7.5845   49.7469   31.3026 O   0  0  0  0  0  0  0  0  0  0  0  0
    7.5941   48.3104   29.4938 O   0  0  0  0  0  0  0  0  0  0  0  0
    8.2922   50.7940   30.6407 C   0  0  0  0  0  0  0  0  0  0  0  0
    7.4280   51.4398   29.5814 C   0  0  0  0  0  0  0  0  0  0  0  0
    7.8934   51.4563   28.2535 C   0  0  0  0  0  0  0  0  0  0  0  0
    6.1471   51.9850   29.8743 C   0  0  0  0  0  0  0  0  0  0  0  0
    7.1088   51.9873   27.2294 C   0  0  0  0  0  0  0  0  0  0  0  0
    5.3675   52.5006   28.8233 C   0  0  0  0  0  0  0  0  0  0  0  0
    5.6101   52.0064   31.2100 N   0  0  0  0  0  0  0  0  0  0  0  0
    5.8470   52.5046   27.5130 C   0  0  0  0  0  0  0  0  0  0  0  0
    4.2487   51.9530   31.4033 O   0  0  0  0  0  0  0  0  0  0  0  0
    6.3452   52.2351   32.1919 O   0  0  0  0  0  0  0  0  0  0  0  0
    8.5375   39.1404   34.0127 O   0  0  0  0  0  0  0  0  0  0  0  0
   10.9805   40.0889   33.6836 O   0  0  0  0  0  0  0  0  0  0  0  0
   10.8025   40.0902   32.2838 C   0  0  0  0  0  0  0  0  0  0  0  0
   11.5888   38.9175   31.7008 C   0  0  0  0  0  0  0  0  0  0  0  0
   12.9219   38.9373   32.1692 O   0  0  0  0  0  0  0  0  0  0  0  0
   11.0028   37.5683   32.0981 C   0  0  0  0  0  0  0  0  0  0  0  0
   13.3496   37.5886   32.2601 C   0  0  0  0  0  0  0  0  0  0  0  0
    9.9343   37.1823   31.2757 O   0  0  0  0  0  0  0  0  0  0  0  0
   12.1891   36.6677   31.9050 C   0  0  0  0  0  0  0  0  0  0  0  0
   13.8025   37.2965   33.6187 N   0  0  0  0  0  0  0  0  0  0  0  0
   12.2990   36.2868   30.5568 O   0  0  0  0  0  0  0  0  0  0  0  0
   14.7929   36.4725   33.9858 C   0  0  0  0  0  0  0  0  0  0  0  0
   13.2749   37.7294   34.7936 C   0  0  0  0  0  0  0  0  0  0  0  0
   15.6240   35.7580   33.1858 N   0  0  0  0  0  0  0  0  0  0  0  0
   14.8727   36.4411   35.3327 C   0  0  0  0  0  0  0  0  0  0  0  0
   13.9208   37.2263   35.8803 N   0  0  0  0  0  0  0  0  0  0  0  0
   16.5871   34.9921   33.7801 C   0  0  0  0  0  0  0  0  0  0  0  0
   15.8576   35.6718   35.9441 C   0  0  0  0  0  0  0  0  0  0  0  0
   16.7024   34.9584   35.1438 N   0  0  0  0  0  0  0  0  0  0  0  0
   16.0099   35.6384   37.3562 N   0  0  0  0  0  0  0  0  0  0  0  0
    7.6764   44.0634   34.0548 H   0  0  0  0  0  0  0  0  0  0  0  0
    8.6468   46.1558   34.1431 H   0  0  0  0  0  0  0  0  0  0  0  0
   10.2152   45.5879   33.8747 H   0  0  0  0  0  0  0  0  0  0  0  0
    8.4830   43.0817   31.8666 H   0  0  0  0  0  0  0  0  0  0  0  0
    9.9708   44.0642   31.9679 H   0  0  0  0  0  0  0  0  0  0  0  0
    8.5198   45.0958   30.3807 H   0  0  0  0  0  0  0  0  0  0  0  0
    8.5714   46.1487   31.8173 H   0  0  0  0  0  0  0  0  0  0  0  0
    6.3142   45.0784   32.5413 H   0  0  0  0  0  0  0  0  0  0  0  0
    6.3147   44.1801   30.9835 H   0  0  0  0  0  0  0  0  0  0  0  0
    6.2448   46.2897   29.7232 H   0  0  0  0  0  0  0  0  0  0  0  0
    4.9234   46.2700   30.9301 H   0  0  0  0  0  0  0  0  0  0  0  0
    6.2849   47.7545   32.4218 H   0  0  0  0  0  0  0  0  0  0  0  0
    8.5958   51.5580   31.3850 H   0  0  0  0  0  0  0  0  0  0  0  0
    9.2332   50.3845   30.2116 H   0  0  0  0  0  0  0  0  0  0  0  0
    8.8644   51.0460   28.0047 H   0  0  0  0  0  0  0  0  0  0  0  0
    7.4779   51.9911   26.2119 H   0  0  0  0  0  0  0  0  0  0  0  0
    4.3878   52.9165   29.0213 H   0  0  0  0  0  0  0  0  0  0  0  0
    5.2386   52.9120   26.7158 H   0  0  0  0  0  0  0  0  0  0  0  0
   11.2257   41.0358   31.8825 H   0  0  0  0  0  0  0  0  0  0  0  0
    9.7476   40.0332   31.9256 H   0  0  0  0  0  0  0  0  0  0  0  0
   11.5975   39.0148   30.5905 H   0  0  0  0  0  0  0  0  0  0  0  0
   10.7023   37.5457   33.1720 H   0  0  0  0  0  0  0  0  0  0  0  0
   14.1957   37.4366   31.5528 H   0  0  0  0  0  0  0  0  0  0  0  0
    9.1339   37.6659   31.6070 H   0  0  0  0  0  0  0  0  0  0  0  0
   12.1380   35.7717   32.5698 H   0  0  0  0  0  0  0  0  0  0  0  0
   11.7707   35.4530   30.4496 H   0  0  0  0  0  0  0  0  0  0  0  0
   12.4314   38.3980   34.8694 H   0  0  0  0  0  0  0  0  0  0  0  0
   17.2664   34.4140   33.1691 H   0  0  0  0  0  0  0  0  0  0  0  0
   15.3757   36.1867   37.9789 H   0  0  0  0  0  0  0  0  0  0  0  0
   16.7633   35.0598   37.7895 H   0  0  0  0  0  0  0  0  0  0  0  0
  1  2  2  0
  1  3  1  0
  3  4  1  0
  4  5  1  0
  6  1  1  0
  7  6  1  0
  6  8  1  0
  8  9  1  0
  9 10  1  0
 10 11  1  0
 11 12  1  0
 12 13  1  0
 13 14  1  0
 13 15  2  0
 14 16  1  0
 16 17  1  0
 17 18  2  0
 19 17  1  0
 18 20  1  0
 21 19  2  0
 19 22  1  0
 20 23  2  0
 23 21  1  0
 22 24  1  0
 22 25  2  0
  4 26  2  0
  4 27  1  0
 28 27  1  0
 28 29  1  0
 29 30  1  0
 29 31  1  0
 30 32  1  0
 31 33  1  0
 31 34  1  0
 34 32  1  0
 32 35  1  0
 34 36  1  0
 37 35  1  0
 38 35  1  0
 39 37  2  0
 37 40  1  0
 41 38  2  0
 42 39  1  0
 40 43  2  0
 40 41  1  0
 44 42  2  0
 44 43  1  0
 43 45  1  0
  6 46  1  6
  7 47  1  0
  7 48  1  0
  8 49  1  0
  8 50  1  0
  9 51  1  0
  9 52  1  0
 10 53  1  0
 10 54  1  0
 11 55  1  0
 11 56  1  0
 12 57  1  0
 16 58  1  0
 16 59  1  0
 18 60  1  0
 20 61  1  0
 21 62  1  0
 23 63  1  0
 28 64  1  0
 28 65  1  0
 29 66  1  0
 31 67  1  0
 32 68  1  0
 33 69  1  0
 34 70  1  0
 36 71  1  0
 38 72  1  0
 42 73  1  0
 45 74  1  0
 45 75  1  0
M  CHG  3   5  -1  22   1  24  -1
M  END
>  <EmbedRMS>  (140) 
0.0733387585313

$$$$

     RDKit          3D

 75 78  0  0  0  0  0  0  0  0999 V2000
    9.4314   42.9421   34.3430 C   0  0  0  0  0  0  0  0  0  0  0  0
   10.4886   43.0415   35.0290 O   0  0  0  0  0  0  0  0  0  0  0  0
    8.8558   41.7137   34.0289 O   0  0  0  0  0  0  0  0  0  0  0  0
    9.4931   40.2169   34.4699 P   0  0  0  0  0  0  0  0  0  0  0  0
    9.7293   40.1748   36.1309 O   0  0  0  0  0  0  0  0  0  0  0  0
    8.7492   44.1379   33.7714 C   0  0  1  0  0  0  0  0  0  0  0  0
    9.3053   45.3680   34.3386 N   0  0  0  0  0  0  0  0  0  0  0  0
    8.8901   44.0558   32.2300 C   0  0  0  0  0  0  0  0  0  0  0  0
    8.2007   45.1769   31.4441 C   0  0  0  0  0  0  0  0  0  0  0  0
    6.6632   45.1088   31.4884 C   0  0  0  0  0  0  0  0  0  0  0  0
    6.0207   46.3219   30.8072 C   0  0  0  0  0  0  0  0  0  0  0  0
    6.4902   47.5670   31.4139 N   0  0  0  0  0  0  0  0  0  0  0  0
    7.2729   48.5189   30.6973 C   0  0  0  0  0  0  0  0  0  0  0  0
    7.7593   49.6430   31.3719 O   0  0  0  0  0  0  0  0  0  0  0  0
    7.5867   48.3119   29.4936 O   0  0  0  0  0  0  0  0  0  0  0  0
    8.8330   50.4389   30.8737 C   0  0  0  0  0  0  0  0  0  0  0  0
   10.1178   49.6376   30.8689 C   0  0  0  0  0  0  0  0  0  0  0  0
   10.4586   48.9202   32.0310 C   0  0  0  0  0  0  0  0  0  0  0  0
   10.9476   49.5284   29.7222 C   0  0  0  0  0  0  0  0  0  0  0  0
   11.5661   48.0715   32.0461 C   0  0  0  0  0  0  0  0  0  0  0  0
   12.0484   48.6552   29.7514 C   0  0  0  0  0  0  0  0  0  0  0  0
   10.7083   50.3018   28.5364 N   0  0  0  0  0  0  0  0  0  0  0  0
   12.3534   47.9311   30.9050 C   0  0  0  0  0  0  0  0  0  0  0  0
   10.9597   49.7529   27.3001 O   0  0  0  0  0  0  0  0  0  0  0  0
   10.5126   51.5317   28.6206 O   0  0  0  0  0  0  0  0  0  0  0  0
    8.5367   39.1405   34.0137 O   0  0  0  0  0  0  0  0  0  0  0  0
   10.9788   40.0876   33.6872 O   0  0  0  0  0  0  0  0  0  0  0  0
   10.7993   40.0947   32.2884 C   0  0  0  0  0  0  0  0  0  0  0  0
   11.5957   38.9352   31.6994 C   0  0  0  0  0  0  0  0  0  0  0  0
   12.9257   38.9478   32.1799 O   0  0  0  0  0  0  0  0  0  0  0  0
   11.0070   37.5759   32.0732 C   0  0  0  0  0  0  0  0  0  0  0  0
   13.3571   37.5980   32.2612 C   0  0  0  0  0  0  0  0  0  0  0  0
    9.9093   37.1809   31.2875 O   0  0  0  0  0  0  0  0  0  0  0  0
   12.1967   36.6764   31.8894 C   0  0  0  0  0  0  0  0  0  0  0  0
   13.8018   37.2956   33.6197 N   0  0  0  0  0  0  0  0  0  0  0  0
   12.3048   36.2361   30.5555 O   0  0  0  0  0  0  0  0  0  0  0  0
   14.7922   36.4716   33.9864 C   0  0  0  0  0  0  0  0  0  0  0  0
   13.2747   37.7291   34.7944 C   0  0  0  0  0  0  0  0  0  0  0  0
   15.6239   35.7581   33.1861 N   0  0  0  0  0  0  0  0  0  0  0  0
   14.8721   36.4402   35.3331 C   0  0  0  0  0  0  0  0  0  0  0  0
   13.9206   37.2257   35.8810 N   0  0  0  0  0  0  0  0  0  0  0  0
   16.5873   34.9924   33.7802 C   0  0  0  0  0  0  0  0  0  0  0  0
   15.8576   35.6714   35.9444 C   0  0  0  0  0  0  0  0  0  0  0  0
   16.7026   34.9585   35.1439 N   0  0  0  0  0  0  0  0  0  0  0  0
   16.0102   35.6382   37.3564 N   0  0  0  0  0  0  0  0  0  0  0  0
    7.6771   44.0661   34.0537 H   0  0  0  0  0  0  0  0  0  0  0  0
    8.6514   46.1591   34.1395 H   0  0  0  0  0  0  0  0  0  0  0  0
   10.2186   45.5866   33.8773 H   0  0  0  0  0  0  0  0  0  0  0  0
    8.4854   43.0856   31.8646 H   0  0  0  0  0  0  0  0  0  0  0  0
    9.9717   44.0707   31.9674 H   0  0  0  0  0  0  0  0  0  0  0  0
    8.5201   45.1034   30.3814 H   0  0  0  0  0  0  0  0  0  0  0  0
    8.5685   46.1541   31.8192 H   0  0  0  0  0  0  0  0  0  0  0  0
    6.3129   45.0828   32.5411 H   0  0  0  0  0  0  0  0  0  0  0  0
    6.3163   44.1796   30.9863 H   0  0  0  0  0  0  0  0  0  0  0  0
    4.9172   46.2611   30.9189 H   0  0  0  0  0  0  0  0  0  0  0  0
    6.2446   46.2878   29.7193 H   0  0  0  0  0  0  0  0  0  0  0  0
    6.2722   47.7504   32.4191 H   0  0  0  0  0  0  0  0  0  0  0  0
    8.5554   50.8180   29.8701 H   0  0  0  0  0  0  0  0  0  0  0  0
    8.9640   51.3140   31.5439 H   0  0  0  0  0  0  0  0  0  0  0  0
    9.8457   48.9960   32.9211 H   0  0  0  0  0  0  0  0  0  0  0  0
   11.8082   47.5141   32.9417 H   0  0  0  0  0  0  0  0  0  0  0  0
   12.6877   48.5532   28.8835 H   0  0  0  0  0  0  0  0  0  0  0  0
   13.2090   47.2683   30.9172 H   0  0  0  0  0  0  0  0  0  0  0  0
   11.2093   41.0482   31.8916 H   0  0  0  0  0  0  0  0  0  0  0  0
    9.7449   40.0202   31.9303 H   0  0  0  0  0  0  0  0  0  0  0  0
   11.6208   39.0685   30.5942 H   0  0  0  0  0  0  0  0  0  0  0  0
   10.7059   37.5565   33.1439 H   0  0  0  0  0  0  0  0  0  0  0  0
   14.2095   37.4544   31.5601 H   0  0  0  0  0  0  0  0  0  0  0  0
   10.0864   37.4211   30.3413 H   0  0  0  0  0  0  0  0  0  0  0  0
   12.1275   35.7873   32.5550 H   0  0  0  0  0  0  0  0  0  0  0  0
   12.5030   37.0109   29.9673 H   0  0  0  0  0  0  0  0  0  0  0  0
   12.4328   38.3996   34.8703 H   0  0  0  0  0  0  0  0  0  0  0  0
   17.2670   34.4149   33.1691 H   0  0  0  0  0  0  0  0  0  0  0  0
   16.7640   35.0601   37.7896 H   0  0  0  0  0  0  0  0  0  0  0  0
   15.3758   36.1862   37.9791 H   0  0  0  0  0  0  0  0  0  0  0  0
  1  2  2  0
  1  3  1  0
  3  4  1  0
  4  5  1  0
  6  1  1  0
  7  6  1  0
  6  8  1  0
  8  9  1  0
  9 10  1  0
 10 11  1  0
 11 12  1  0
 12 13  1  0
 13 14  1  0
 13 15  2  0
 14 16  1  0
 16 17  1  0
 17 18  2  0
 19 17  1  0
 18 20  1  0
 21 19  2  0
 19 22  1  0
 20 23  2  0
 23 21  1  0
 22 24  1  0
 22 25  2  0
  4 26  2  0
  4 27  1  0
 28 27  1  0
 28 29  1  0
 29 30  1  0
 29 31  1  0
 30 32  1  0
 31 33  1  0
 31 34  1  0
 34 32  1  0
 32 35  1  0
 34 36  1  0
 37 35  1  0
 38 35  1  0
 39 37  2  0
 37 40  1  0
 41 38  2  0
 42 39  1  0
 40 43  2  0
 40 41  1  0
 44 42  2  0
 44 43  1  0
 43 45  1  0
  6 46  1  6
  7 47  1  0
  7 48  1  0
  8 49  1  0
  8 50  1  0
  9 51  1  0
  9 52  1  0
 10 53  1  0
 10 54  1  0
 11 55  1  0
 11 56  1  0
 12 57  1  0
 16 58  1  0
 16 59  1  0
 18 60  1  0
 20 61  1  0
 21 62  1  0
 23 63  1  0
 28 64  1  0
 28 65  1  0
 29 66  1  0
 31 67  1  0
 32 68  1  0
 33 69  1  0
 34 70  1  0
 36 71  1  0
 38 72  1  0
 42 73  1  0
 45 74  1  0
 45 75  1  0
M  CHG  3   5  -1  22   1  24  -1
M  END
>  <EmbedRMS>  (141) 
0.0765206852636

$$$$

     RDKit          3D

 75 78  0  0  0  0  0  0  0  0999 V2000
    9.4302   42.9406   34.3422 C   0  0  0  0  0  0  0  0  0  0  0  0
   10.4912   43.0386   35.0228 O   0  0  0  0  0  0  0  0  0  0  0  0
    8.8546   41.7127   34.0277 O   0  0  0  0  0  0  0  0  0  0  0  0
    9.4940   40.2164   34.4669 P   0  0  0  0  0  0  0  0  0  0  0  0
    9.7313   40.1745   36.1280 O   0  0  0  0  0  0  0  0  0  0  0  0
    8.7423   44.1401   33.7777 C   0  0  1  0  0  0  0  0  0  0  0  0
    9.3039   45.3731   34.3327 N   0  0  0  0  0  0  0  0  0  0  0  0
    8.8976   44.0643   32.2389 C   0  0  0  0  0  0  0  0  0  0  0  0
    8.2014   45.1743   31.4405 C   0  0  0  0  0  0  0  0  0  0  0  0
    6.6637   45.1089   31.4907 C   0  0  0  0  0  0  0  0  0  0  0  0
    6.0201   46.3203   30.8062 C   0  0  0  0  0  0  0  0  0  0  0  0
    6.4855   47.5673   31.4122 N   0  0  0  0  0  0  0  0  0  0  0  0
    7.2794   48.5134   30.7005 C   0  0  0  0  0  0  0  0  0  0  0  0
    7.7996   49.6143   31.3874 O   0  0  0  0  0  0  0  0  0  0  0  0
    7.5854   48.3124   29.4937 O   0  0  0  0  0  0  0  0  0  0  0  0
    8.9500   50.3279   30.9384 C   0  0  0  0  0  0  0  0  0  0  0  0
   10.1704   49.4327   30.9971 C   0  0  0  0  0  0  0  0  0  0  0  0
   10.4006   48.6999   32.1768 C   0  0  0  0  0  0  0  0  0  0  0  0
   11.0367   49.2453   29.8883 C   0  0  0  0  0  0  0  0  0  0  0  0
   11.4295   47.7598   32.2433 C   0  0  0  0  0  0  0  0  0  0  0  0
   12.0581   48.2832   29.9695 C   0  0  0  0  0  0  0  0  0  0  0  0
   10.9132   50.0253   28.6892 N   0  0  0  0  0  0  0  0  0  0  0  0
   12.2501   47.5443   31.1380 C   0  0  0  0  0  0  0  0  0  0  0  0
   11.1755   49.4482   27.4681 O   0  0  0  0  0  0  0  0  0  0  0  0
   10.8103   51.2674   28.7585 O   0  0  0  0  0  0  0  0  0  0  0  0
    8.5373   39.1397   34.0122 O   0  0  0  0  0  0  0  0  0  0  0  0
   10.9793   40.0899   33.6812 O   0  0  0  0  0  0  0  0  0  0  0  0
   10.7982   40.0851   32.2815 C   0  0  0  0  0  0  0  0  0  0  0  0
   11.5886   38.9143   31.7009 C   0  0  0  0  0  0  0  0  0  0  0  0
   12.9214   38.9368   32.1699 O   0  0  0  0  0  0  0  0  0  0  0  0
   11.0047   37.5661   32.0991 C   0  0  0  0  0  0  0  0  0  0  0  0
   13.3510   37.5885   32.2602 C   0  0  0  0  0  0  0  0  0  0  0  0
    9.9296   37.1962   31.2780 O   0  0  0  0  0  0  0  0  0  0  0  0
   12.1923   36.6659   31.9047 C   0  0  0  0  0  0  0  0  0  0  0  0
   13.8033   37.2967   33.6188 N   0  0  0  0  0  0  0  0  0  0  0  0
   12.3006   36.2865   30.5562 O   0  0  0  0  0  0  0  0  0  0  0  0
   14.7933   36.4724   33.9860 C   0  0  0  0  0  0  0  0  0  0  0  0
   13.2753   37.7296   34.7935 C   0  0  0  0  0  0  0  0  0  0  0  0
   15.6243   35.7579   33.1860 N   0  0  0  0  0  0  0  0  0  0  0  0
   14.8728   36.4410   35.3328 C   0  0  0  0  0  0  0  0  0  0  0  0
   13.9209   37.2263   35.8804 N   0  0  0  0  0  0  0  0  0  0  0  0
   16.5873   34.9919   33.7803 C   0  0  0  0  0  0  0  0  0  0  0  0
   15.8577   35.6717   35.9443 C   0  0  0  0  0  0  0  0  0  0  0  0
   16.7025   34.9583   35.1440 N   0  0  0  0  0  0  0  0  0  0  0  0
   16.0100   35.6384   37.3563 N   0  0  0  0  0  0  0  0  0  0  0  0
    7.6677   44.0687   34.0533 H   0  0  0  0  0  0  0  0  0  0  0  0
    9.2310   45.3302   35.3758 H   0  0  0  0  0  0  0  0  0  0  0  0
    8.6887   46.1709   34.0547 H   0  0  0  0  0  0  0  0  0  0  0  0
    8.5126   43.0886   31.8667 H   0  0  0  0  0  0  0  0  0  0  0  0
    9.9824   44.0999   31.9911 H   0  0  0  0  0  0  0  0  0  0  0  0
    8.5157   45.0845   30.3776 H   0  0  0  0  0  0  0  0  0  0  0  0
    8.5723   46.1574   31.7941 H   0  0  0  0  0  0  0  0  0  0  0  0
    6.3140   44.1776   30.9946 H   0  0  0  0  0  0  0  0  0  0  0  0
    6.3165   45.0890   32.5443 H   0  0  0  0  0  0  0  0  0  0  0  0
    4.9164   46.2574   30.9156 H   0  0  0  0  0  0  0  0  0  0  0  0
    6.2463   46.2853   29.7188 H   0  0  0  0  0  0  0  0  0  0  0  0
    6.2678   47.7498   32.4177 H   0  0  0  0  0  0  0  0  0  0  0  0
    8.7486   50.7194   29.9214 H   0  0  0  0  0  0  0  0  0  0  0  0
    9.1131   51.1952   31.6115 H   0  0  0  0  0  0  0  0  0  0  0  0
    9.7574   48.8326   33.0384 H   0  0  0  0  0  0  0  0  0  0  0  0
   11.5825   47.1887   33.1500 H   0  0  0  0  0  0  0  0  0  0  0  0
   12.7230   48.1206   29.1307 H   0  0  0  0  0  0  0  0  0  0  0  0
   13.0442   46.8106   31.1898 H   0  0  0  0  0  0  0  0  0  0  0  0
    9.7427   40.0142   31.9261 H   0  0  0  0  0  0  0  0  0  0  0  0
   11.2131   41.0322   31.8750 H   0  0  0  0  0  0  0  0  0  0  0  0
   11.5982   39.0107   30.5904 H   0  0  0  0  0  0  0  0  0  0  0  0
   10.7008   37.5604   33.1721 H   0  0  0  0  0  0  0  0  0  0  0  0
   14.1976   37.4380   31.5532 H   0  0  0  0  0  0  0  0  0  0  0  0
    9.5180   36.3962   31.6978 H   0  0  0  0  0  0  0  0  0  0  0  0
   12.1418   35.7698   32.5693 H   0  0  0  0  0  0  0  0  0  0  0  0
   11.7729   35.4524   30.4489 H   0  0  0  0  0  0  0  0  0  0  0  0
   12.4321   38.3985   34.8692 H   0  0  0  0  0  0  0  0  0  0  0  0
   17.2667   34.4138   33.1694 H   0  0  0  0  0  0  0  0  0  0  0  0
   16.7634   35.0598   37.7897 H   0  0  0  0  0  0  0  0  0  0  0  0
   15.3757   36.1867   37.9790 H   0  0  0  0  0  0  0  0  0  0  0  0
  1  2  2  0
  1  3  1  0
  3  4  1  0
  4  5  1  0
  6  1  1  0
  7  6  1  0
  6  8  1  0
  8  9  1  0
  9 10  1  0
 10 11  1  0
 11 12  1  0
 12 13  1  0
 13 14  1  0
 13 15  2  0
 14 16  1  0
 16 17  1  0
 17 18  2  0
 19 17  1  0
 18 20  1  0
 21 19  2  0
 19 22  1  0
 20 23  2  0
 23 21  1  0
 22 24  1  0
 22 25  2  0
  4 26  2  0
  4 27  1  0
 28 27  1  0
 28 29  1  0
 29 30  1  0
 29 31  1  0
 30 32  1  0
 31 33  1  0
 31 34  1  0
 34 32  1  0
 32 35  1  0
 34 36  1  0
 37 35  1  0
 38 35  1  0
 39 37  2  0
 37 40  1  0
 41 38  2  0
 42 39  1  0
 40 43  2  0
 40 41  1  0
 44 42  2  0
 44 43  1  0
 43 45  1  0
  6 46  1  6
  7 47  1  0
  7 48  1  0
  8 49  1  0
  8 50  1  0
  9 51  1  0
  9 52  1  0
 10 53  1  0
 10 54  1  0
 11 55  1  0
 11 56  1  0
 12 57  1  0
 16 58  1  0
 16 59  1  0
 18 60  1  0
 20 61  1  0
 21 62  1  0
 23 63  1  0
 28 64  1  0
 28 65  1  0
 29 66  1  0
 31 67  1  0
 32 68  1  0
 33 69  1  0
 34 70  1  0
 36 71  1  0
 38 72  1  0
 42 73  1  0
 45 74  1  0
 45 75  1  0
M  CHG  3   5  -1  22   1  24  -1
M  END
>  <EmbedRMS>  (142) 
0.0752950664857

$$$$

     RDKit          3D

 75 78  0  0  0  0  0  0  0  0999 V2000
    9.4315   42.9408   34.3436 C   0  0  0  0  0  0  0  0  0  0  0  0
   10.4886   43.0407   35.0296 O   0  0  0  0  0  0  0  0  0  0  0  0
    8.8558   41.7127   34.0295 O   0  0  0  0  0  0  0  0  0  0  0  0
    9.4933   40.2161   34.4702 P   0  0  0  0  0  0  0  0  0  0  0  0
    9.7295   40.1743   36.1312 O   0  0  0  0  0  0  0  0  0  0  0  0
    8.7492   44.1355   33.7712 C   0  0  1  0  0  0  0  0  0  0  0  0
    9.3043   45.3658   34.3365 N   0  0  0  0  0  0  0  0  0  0  0  0
    8.8899   44.0523   32.2301 C   0  0  0  0  0  0  0  0  0  0  0  0
    8.2018   45.1728   31.4425 C   0  0  0  0  0  0  0  0  0  0  0  0
    6.6649   45.1092   31.4907 C   0  0  0  0  0  0  0  0  0  0  0  0
    6.0283   46.3245   30.8101 C   0  0  0  0  0  0  0  0  0  0  0  0
    6.5009   47.5678   31.4204 N   0  0  0  0  0  0  0  0  0  0  0  0
    7.2383   48.5465   30.6799 C   0  0  0  0  0  0  0  0  0  0  0  0
    7.5787   49.7902   31.2283 O   0  0  0  0  0  0  0  0  0  0  0  0
    7.6005   48.2981   29.5003 O   0  0  0  0  0  0  0  0  0  0  0  0
    7.2102   50.2604   32.5234 C   0  0  0  0  0  0  0  0  0  0  0  0
    8.0386   49.6218   33.6166 C   0  0  0  0  0  0  0  0  0  0  0  0
    7.3809   48.8991   34.6305 C   0  0  0  0  0  0  0  0  0  0  0  0
    9.4372   49.8386   33.7247 C   0  0  0  0  0  0  0  0  0  0  0  0
    8.0917   48.3782   35.7128 C   0  0  0  0  0  0  0  0  0  0  0  0
   10.1352   49.3079   34.8232 C   0  0  0  0  0  0  0  0  0  0  0  0
   10.1527   50.6378   32.7713 N   0  0  0  0  0  0  0  0  0  0  0  0
    9.4675   48.5768   35.8058 C   0  0  0  0  0  0  0  0  0  0  0  0
   10.1632   50.2841   31.4431 O   0  0  0  0  0  0  0  0  0  0  0  0
   10.9672   51.4951   33.1710 O   0  0  0  0  0  0  0  0  0  0  0  0
    8.5368   39.1398   34.0139 O   0  0  0  0  0  0  0  0  0  0  0  0
   10.9789   40.0874   33.6873 O   0  0  0  0  0  0  0  0  0  0  0  0
   10.7993   40.0946   32.2885 C   0  0  0  0  0  0  0  0  0  0  0  0
   11.5957   38.9352   31.6994 C   0  0  0  0  0  0  0  0  0  0  0  0
   12.9257   38.9478   32.1798 O   0  0  0  0  0  0  0  0  0  0  0  0
   11.0070   37.5758   32.0732 C   0  0  0  0  0  0  0  0  0  0  0  0
   13.3571   37.5980   32.2612 C   0  0  0  0  0  0  0  0  0  0  0  0
    9.9093   37.1808   31.2875 O   0  0  0  0  0  0  0  0  0  0  0  0
   12.1967   36.6764   31.8894 C   0  0  0  0  0  0  0  0  0  0  0  0
   13.8018   37.2956   33.6197 N   0  0  0  0  0  0  0  0  0  0  0  0
   12.3048   36.2360   30.5555 O   0  0  0  0  0  0  0  0  0  0  0  0
   14.7922   36.4716   33.9864 C   0  0  0  0  0  0  0  0  0  0  0  0
   13.2747   37.7291   34.7944 C   0  0  0  0  0  0  0  0  0  0  0  0
   15.6239   35.7581   33.1861 N   0  0  0  0  0  0  0  0  0  0  0  0
   14.8721   36.4402   35.3331 C   0  0  0  0  0  0  0  0  0  0  0  0
   13.9206   37.2257   35.8810 N   0  0  0  0  0  0  0  0  0  0  0  0
   16.5873   34.9924   33.7802 C   0  0  0  0  0  0  0  0  0  0  0  0
   15.8576   35.6714   35.9444 C   0  0  0  0  0  0  0  0  0  0  0  0
   16.7026   34.9585   35.1439 N   0  0  0  0  0  0  0  0  0  0  0  0
   16.0102   35.6382   37.3564 N   0  0  0  0  0  0  0  0  0  0  0  0
    7.6772   44.0639   34.0539 H   0  0  0  0  0  0  0  0  0  0  0  0
   10.2265   45.5745   33.8883 H   0  0  0  0  0  0  0  0  0  0  0  0
    8.6589   46.1549   34.1099 H   0  0  0  0  0  0  0  0  0  0  0  0
    8.4841   43.0822   31.8657 H   0  0  0  0  0  0  0  0  0  0  0  0
    9.9715   44.0653   31.9674 H   0  0  0  0  0  0  0  0  0  0  0  0
    8.5733   46.1508   31.8114 H   0  0  0  0  0  0  0  0  0  0  0  0
    8.5177   45.0934   30.3792 H   0  0  0  0  0  0  0  0  0  0  0  0
    6.3166   45.0861   32.5441 H   0  0  0  0  0  0  0  0  0  0  0  0
    6.3134   44.1812   30.9898 H   0  0  0  0  0  0  0  0  0  0  0  0
    6.2523   46.2899   29.7224 H   0  0  0  0  0  0  0  0  0  0  0  0
    4.9243   46.2667   30.9204 H   0  0  0  0  0  0  0  0  0  0  0  0
    6.2437   47.7419   32.4142 H   0  0  0  0  0  0  0  0  0  0  0  0
    6.1204   50.1051   32.6794 H   0  0  0  0  0  0  0  0  0  0  0  0
    7.3789   51.3572   32.5573 H   0  0  0  0  0  0  0  0  0  0  0  0
    6.3086   48.7525   34.5969 H   0  0  0  0  0  0  0  0  0  0  0  0
    7.5732   47.8213   36.4825 H   0  0  0  0  0  0  0  0  0  0  0  0
   11.2025   49.4645   34.9171 H   0  0  0  0  0  0  0  0  0  0  0  0
   10.0168   48.1710   36.6455 H   0  0  0  0  0  0  0  0  0  0  0  0
   11.2093   41.0481   31.8917 H   0  0  0  0  0  0  0  0  0  0  0  0
    9.7448   40.0201   31.9305 H   0  0  0  0  0  0  0  0  0  0  0  0
   11.6207   39.0685   30.5942 H   0  0  0  0  0  0  0  0  0  0  0  0
   10.7059   37.5564   33.1439 H   0  0  0  0  0  0  0  0  0  0  0  0
   14.2095   37.4543   31.5601 H   0  0  0  0  0  0  0  0  0  0  0  0
   10.0864   37.4210   30.3414 H   0  0  0  0  0  0  0  0  0  0  0  0
   12.1275   35.7872   32.5550 H   0  0  0  0  0  0  0  0  0  0  0  0
   12.5030   37.0109   29.9673 H   0  0  0  0  0  0  0  0  0  0  0  0
   12.4328   38.3997   34.8703 H   0  0  0  0  0  0  0  0  0  0  0  0
   17.2670   34.4149   33.1691 H   0  0  0  0  0  0  0  0  0  0  0  0
   16.7640   35.0601   37.7896 H   0  0  0  0  0  0  0  0  0  0  0  0
   15.3758   36.1862   37.9791 H   0  0  0  0  0  0  0  0  0  0  0  0
  1  2  2  0
  1  3  1  0
  3  4  1  0
  4  5  1  0
  6  1  1  0
  7  6  1  0
  6  8  1  0
  8  9  1  0
  9 10  1  0
 10 11  1  0
 11 12  1  0
 12 13  1  0
 13 14  1  0
 13 15  2  0
 14 16  1  0
 16 17  1  0
 17 18  2  0
 19 17  1  0
 18 20  1  0
 21 19  2  0
 19 22  1  0
 20 23  2  0
 23 21  1  0
 22 24  1  0
 22 25  2  0
  4 26  2  0
  4 27  1  0
 28 27  1  0
 28 29  1  0
 29 30  1  0
 29 31  1  0
 30 32  1  0
 31 33  1  0
 31 34  1  0
 34 32  1  0
 32 35  1  0
 34 36  1  0
 37 35  1  0
 38 35  1  0
 39 37  2  0
 37 40  1  0
 41 38  2  0
 42 39  1  0
 40 43  2  0
 40 41  1  0
 44 42  2  0
 44 43  1  0
 43 45  1  0
  6 46  1  6
  7 47  1  0
  7 48  1  0
  8 49  1  0
  8 50  1  0
  9 51  1  0
  9 52  1  0
 10 53  1  0
 10 54  1  0
 11 55  1  0
 11 56  1  0
 12 57  1  0
 16 58  1  0
 16 59  1  0
 18 60  1  0
 20 61  1  0
 21 62  1  0
 23 63  1  0
 28 64  1  0
 28 65  1  0
 29 66  1  0
 31 67  1  0
 32 68  1  0
 33 69  1  0
 34 70  1  0
 36 71  1  0
 38 72  1  0
 42 73  1  0
 45 74  1  0
 45 75  1  0
M  CHG  3   5  -1  22   1  24  -1
M  END
>  <EmbedRMS>  (143) 
0.0756570521412

$$$$

     RDKit          3D

 75 78  0  0  0  0  0  0  0  0999 V2000
    9.4333   42.9364   34.3461 C   0  0  0  0  0  0  0  0  0  0  0  0
   10.4907   43.0329   35.0318 O   0  0  0  0  0  0  0  0  0  0  0  0
    8.8563   41.7103   34.0295 O   0  0  0  0  0  0  0  0  0  0  0  0
    9.4943   40.2139   34.4679 P   0  0  0  0  0  0  0  0  0  0  0  0
    9.7310   40.1724   36.1290 O   0  0  0  0  0  0  0  0  0  0  0  0
    8.7506   44.1348   33.7741 C   0  0  1  0  0  0  0  0  0  0  0  0
    9.2963   45.3820   34.3133 N   0  0  0  0  0  0  0  0  0  0  0  0
    8.8893   44.0527   32.2358 C   0  0  0  0  0  0  0  0  0  0  0  0
    8.2028   45.1823   31.4615 C   0  0  0  0  0  0  0  0  0  0  0  0
    6.6653   45.1046   31.4855 C   0  0  0  0  0  0  0  0  0  0  0  0
    6.0270   46.3225   30.8105 C   0  0  0  0  0  0  0  0  0  0  0  0
    6.5063   47.5639   31.4180 N   0  0  0  0  0  0  0  0  0  0  0  0
    7.2437   48.5392   30.6836 C   0  0  0  0  0  0  0  0  0  0  0  0
    7.5929   49.7400   31.3065 O   0  0  0  0  0  0  0  0  0  0  0  0
    7.5934   48.3119   29.4937 O   0  0  0  0  0  0  0  0  0  0  0  0
    8.3356   50.7617   30.6482 C   0  0  0  0  0  0  0  0  0  0  0  0
    8.5148   51.9380   31.5759 C   0  0  0  0  0  0  0  0  0  0  0  0
    9.8222   52.3463   31.9008 C   0  0  0  0  0  0  0  0  0  0  0  0
    7.4105   52.6166   32.1631 C   0  0  0  0  0  0  0  0  0  0  0  0
   10.0405   53.3952   32.7945 C   0  0  0  0  0  0  0  0  0  0  0  0
    7.6557   53.6607   33.0731 C   0  0  0  0  0  0  0  0  0  0  0  0
    6.0463   52.2554   31.8754 N   0  0  0  0  0  0  0  0  0  0  0  0
    8.9598   54.0485   33.3821 C   0  0  0  0  0  0  0  0  0  0  0  0
    5.0683   52.4598   32.8216 O   0  0  0  0  0  0  0  0  0  0  0  0
    5.7036   51.9091   30.7267 O   0  0  0  0  0  0  0  0  0  0  0  0
    8.5372   39.1382   34.0121 O   0  0  0  0  0  0  0  0  0  0  0  0
   10.9798   40.0871   33.6829 O   0  0  0  0  0  0  0  0  0  0  0  0
   10.8002   40.0905   32.2832 C   0  0  0  0  0  0  0  0  0  0  0  0
   11.5958   38.9270   31.6963 C   0  0  0  0  0  0  0  0  0  0  0  0
   12.9239   38.9408   32.1766 O   0  0  0  0  0  0  0  0  0  0  0  0
   11.0062   37.5719   32.0793 C   0  0  0  0  0  0  0  0  0  0  0  0
   13.3507   37.5905   32.2614 C   0  0  0  0  0  0  0  0  0  0  0  0
    9.9064   37.1792   31.2946 O   0  0  0  0  0  0  0  0  0  0  0  0
   12.1920   36.6671   31.9003 C   0  0  0  0  0  0  0  0  0  0  0  0
   13.8017   37.2948   33.6193 N   0  0  0  0  0  0  0  0  0  0  0  0
   12.3134   36.2788   30.5560 O   0  0  0  0  0  0  0  0  0  0  0  0
   14.7927   36.4716   33.9862 C   0  0  0  0  0  0  0  0  0  0  0  0
   13.2746   37.7284   34.7941 C   0  0  0  0  0  0  0  0  0  0  0  0
   15.6240   35.7576   33.1859 N   0  0  0  0  0  0  0  0  0  0  0  0
   14.8728   36.4406   35.3330 C   0  0  0  0  0  0  0  0  0  0  0  0
   13.9209   37.2258   35.8808 N   0  0  0  0  0  0  0  0  0  0  0  0
   16.5874   34.9921   33.7802 C   0  0  0  0  0  0  0  0  0  0  0  0
   15.8579   35.6716   35.9443 C   0  0  0  0  0  0  0  0  0  0  0  0
   16.7028   34.9584   35.1439 N   0  0  0  0  0  0  0  0  0  0  0  0
   16.0103   35.6383   37.3563 N   0  0  0  0  0  0  0  0  0  0  0  0
    7.6770   44.0706   34.0504 H   0  0  0  0  0  0  0  0  0  0  0  0
    9.1827   45.3820   35.3535 H   0  0  0  0  0  0  0  0  0  0  0  0
   10.3192   45.4406   34.1000 H   0  0  0  0  0  0  0  0  0  0  0  0
    9.9711   44.0682   31.9739 H   0  0  0  0  0  0  0  0  0  0  0  0
    8.4816   43.0851   31.8668 H   0  0  0  0  0  0  0  0  0  0  0  0
    8.5385   45.1363   30.4022 H   0  0  0  0  0  0  0  0  0  0  0  0
    8.5552   46.1510   31.8743 H   0  0  0  0  0  0  0  0  0  0  0  0
    6.3019   45.0643   32.5333 H   0  0  0  0  0  0  0  0  0  0  0  0
    6.3296   44.1799   30.9678 H   0  0  0  0  0  0  0  0  0  0  0  0
    4.9235   46.2673   30.9264 H   0  0  0  0  0  0  0  0  0  0  0  0
    6.2466   46.2897   29.7217 H   0  0  0  0  0  0  0  0  0  0  0  0
    6.2816   47.7532   32.4207 H   0  0  0  0  0  0  0  0  0  0  0  0
    9.3187   50.3459   30.3356 H   0  0  0  0  0  0  0  0  0  0  0  0
    7.8105   51.0879   29.7258 H   0  0  0  0  0  0  0  0  0  0  0  0
   10.6801   51.8464   31.4681 H   0  0  0  0  0  0  0  0  0  0  0  0
   11.0512   53.6979   33.0366 H   0  0  0  0  0  0  0  0  0  0  0  0
    6.8316   54.1891   33.5354 H   0  0  0  0  0  0  0  0  0  0  0  0
    9.1323   54.8592   34.0783 H   0  0  0  0  0  0  0  0  0  0  0  0
   11.2115   41.0420   31.8834 H   0  0  0  0  0  0  0  0  0  0  0  0
    9.7454   40.0167   31.9263 H   0  0  0  0  0  0  0  0  0  0  0  0
   11.6245   39.0449   30.5888 H   0  0  0  0  0  0  0  0  0  0  0  0
   10.7051   37.5579   33.1500 H   0  0  0  0  0  0  0  0  0  0  0  0
   14.1985   37.4426   31.5553 H   0  0  0  0  0  0  0  0  0  0  0  0
   10.0893   37.4056   30.3459 H   0  0  0  0  0  0  0  0  0  0  0  0
   12.1337   35.7754   32.5703 H   0  0  0  0  0  0  0  0  0  0  0  0
   11.7934   35.4394   30.4513 H   0  0  0  0  0  0  0  0  0  0  0  0
   12.4314   38.3973   34.8700 H   0  0  0  0  0  0  0  0  0  0  0  0
   17.2669   34.4142   33.1691 H   0  0  0  0  0  0  0  0  0  0  0  0
   16.7638   35.0599   37.7896 H   0  0  0  0  0  0  0  0  0  0  0  0
   15.3759   36.1865   37.9790 H   0  0  0  0  0  0  0  0  0  0  0  0
  1  2  2  0
  1  3  1  0
  3  4  1  0
  4  5  1  0
  6  1  1  0
  7  6  1  0
  6  8  1  0
  8  9  1  0
  9 10  1  0
 10 11  1  0
 11 12  1  0
 12 13  1  0
 13 14  1  0
 13 15  2  0
 14 16  1  0
 16 17  1  0
 17 18  2  0
 19 17  1  0
 18 20  1  0
 21 19  2  0
 19 22  1  0
 20 23  2  0
 23 21  1  0
 22 24  1  0
 22 25  2  0
  4 26  2  0
  4 27  1  0
 28 27  1  0
 28 29  1  0
 29 30  1  0
 29 31  1  0
 30 32  1  0
 31 33  1  0
 31 34  1  0
 34 32  1  0
 32 35  1  0
 34 36  1  0
 37 35  1  0
 38 35  1  0
 39 37  2  0
 37 40  1  0
 41 38  2  0
 42 39  1  0
 40 43  2  0
 40 41  1  0
 44 42  2  0
 44 43  1  0
 43 45  1  0
  6 46  1  6
  7 47  1  0
  7 48  1  0
  8 49  1  0
  8 50  1  0
  9 51  1  0
  9 52  1  0
 10 53  1  0
 10 54  1  0
 11 55  1  0
 11 56  1  0
 12 57  1  0
 16 58  1  0
 16 59  1  0
 18 60  1  0
 20 61  1  0
 21 62  1  0
 23 63  1  0
 28 64  1  0
 28 65  1  0
 29 66  1  0
 31 67  1  0
 32 68  1  0
 33 69  1  0
 34 70  1  0
 36 71  1  0
 38 72  1  0
 42 73  1  0
 45 74  1  0
 45 75  1  0
M  CHG  3   5  -1  22   1  24  -1
M  END
>  <EmbedRMS>  (144) 
0.0747900866949

$$$$

     RDKit          3D

 75 78  0  0  0  0  0  0  0  0999 V2000
    9.4332   42.9368   34.3461 C   0  0  0  0  0  0  0  0  0  0  0  0
   10.4907   43.0332   35.0317 O   0  0  0  0  0  0  0  0  0  0  0  0
    8.8559   41.7107   34.0298 O   0  0  0  0  0  0  0  0  0  0  0  0
    9.4943   40.2143   34.4677 P   0  0  0  0  0  0  0  0  0  0  0  0
    9.7317   40.1725   36.1287 O   0  0  0  0  0  0  0  0  0  0  0  0
    8.7507   44.1354   33.7741 C   0  0  1  0  0  0  0  0  0  0  0  0
    9.2964   45.3827   34.3133 N   0  0  0  0  0  0  0  0  0  0  0  0
    8.8892   44.0536   32.2358 C   0  0  0  0  0  0  0  0  0  0  0  0
    8.2024   45.1835   31.4619 C   0  0  0  0  0  0  0  0  0  0  0  0
    6.6649   45.1047   31.4849 C   0  0  0  0  0  0  0  0  0  0  0  0
    6.0255   46.3219   30.8087 C   0  0  0  0  0  0  0  0  0  0  0  0
    6.5024   47.5638   31.4166 N   0  0  0  0  0  0  0  0  0  0  0  0
    7.2543   48.5325   30.6886 C   0  0  0  0  0  0  0  0  0  0  0  0
    7.6542   49.7056   31.3326 O   0  0  0  0  0  0  0  0  0  0  0  0
    7.5888   48.3144   29.4926 O   0  0  0  0  0  0  0  0  0  0  0  0
    8.4695   50.6907   30.7057 C   0  0  0  0  0  0  0  0  0  0  0  0
    8.8439   51.7521   31.7093 C   0  0  0  0  0  0  0  0  0  0  0  0
    8.5076   53.0906   31.4337 C   0  0  0  0  0  0  0  0  0  0  0  0
    9.4866   51.4371   32.9379 C   0  0  0  0  0  0  0  0  0  0  0  0
    8.7891   54.1006   32.3544 C   0  0  0  0  0  0  0  0  0  0  0  0
    9.7469   52.4700   33.8577 C   0  0  0  0  0  0  0  0  0  0  0  0
    9.8594   50.0885   33.2792 N   0  0  0  0  0  0  0  0  0  0  0  0
    9.4040   53.7905   33.5653 C   0  0  0  0  0  0  0  0  0  0  0  0
   10.3879   49.2422   32.3327 O   0  0  0  0  0  0  0  0  0  0  0  0
    9.8527   49.7213   34.4725 O   0  0  0  0  0  0  0  0  0  0  0  0
    8.5370   39.1384   34.0123 O   0  0  0  0  0  0  0  0  0  0  0  0
   10.9792   40.0888   33.6814 O   0  0  0  0  0  0  0  0  0  0  0  0
   10.7977   40.0842   32.2817 C   0  0  0  0  0  0  0  0  0  0  0  0
   11.5897   38.9146   31.7008 C   0  0  0  0  0  0  0  0  0  0  0  0
   12.9218   38.9385   32.1717 O   0  0  0  0  0  0  0  0  0  0  0  0
   11.0070   37.5654   32.0975 C   0  0  0  0  0  0  0  0  0  0  0  0
   13.3533   37.5909   32.2610 C   0  0  0  0  0  0  0  0  0  0  0  0
    9.9333   37.1935   31.2754 O   0  0  0  0  0  0  0  0  0  0  0  0
   12.1945   36.6671   31.9040 C   0  0  0  0  0  0  0  0  0  0  0  0
   13.8036   37.2970   33.6193 N   0  0  0  0  0  0  0  0  0  0  0  0
   12.2893   36.2849   30.5562 O   0  0  0  0  0  0  0  0  0  0  0  0
   14.7931   36.4723   33.9863 C   0  0  0  0  0  0  0  0  0  0  0  0
   13.2756   37.7298   34.7940 C   0  0  0  0  0  0  0  0  0  0  0  0
   15.6242   35.7580   33.1861 N   0  0  0  0  0  0  0  0  0  0  0  0
   14.8727   36.4407   35.3331 C   0  0  0  0  0  0  0  0  0  0  0  0
   13.9210   37.2262   35.8807 N   0  0  0  0  0  0  0  0  0  0  0  0
   16.5872   34.9920   33.7803 C   0  0  0  0  0  0  0  0  0  0  0  0
   15.8577   35.6715   35.9444 C   0  0  0  0  0  0  0  0  0  0  0  0
   16.7025   34.9582   35.1440 N   0  0  0  0  0  0  0  0  0  0  0  0
   16.0101   35.6382   37.3564 N   0  0  0  0  0  0  0  0  0  0  0  0
    7.6770   44.0714   34.0503 H   0  0  0  0  0  0  0  0  0  0  0  0
   10.3190   45.4420   34.0990 H   0  0  0  0  0  0  0  0  0  0  0  0
    9.1835   45.3826   35.3535 H   0  0  0  0  0  0  0  0  0  0  0  0
    8.4817   43.0860   31.8666 H   0  0  0  0  0  0  0  0  0  0  0  0
    9.9710   44.0693   31.9738 H   0  0  0  0  0  0  0  0  0  0  0  0
    8.5539   46.1522   31.8756 H   0  0  0  0  0  0  0  0  0  0  0  0
    8.5387   45.1385   30.4028 H   0  0  0  0  0  0  0  0  0  0  0  0
    6.3010   45.0646   32.5326 H   0  0  0  0  0  0  0  0  0  0  0  0
    6.3302   44.1796   30.9675 H   0  0  0  0  0  0  0  0  0  0  0  0
    6.2467   46.2893   29.7202 H   0  0  0  0  0  0  0  0  0  0  0  0
    4.9220   46.2653   30.9232 H   0  0  0  0  0  0  0  0  0  0  0  0
    6.2820   47.7496   32.4209 H   0  0  0  0  0  0  0  0  0  0  0  0
    9.3915   50.2271   30.2962 H   0  0  0  0  0  0  0  0  0  0  0  0
    7.9113   51.1258   29.8479 H   0  0  0  0  0  0  0  0  0  0  0  0
    8.0177   53.3563   30.5050 H   0  0  0  0  0  0  0  0  0  0  0  0
    8.5238   55.1258   32.1304 H   0  0  0  0  0  0  0  0  0  0  0  0
   10.2317   52.2532   34.8013 H   0  0  0  0  0  0  0  0  0  0  0  0
    9.6175   54.5755   34.2793 H   0  0  0  0  0  0  0  0  0  0  0  0
    9.7422   40.0118   31.9266 H   0  0  0  0  0  0  0  0  0  0  0  0
   11.2111   41.0320   31.8753 H   0  0  0  0  0  0  0  0  0  0  0  0
   11.6005   39.0119   30.5904 H   0  0  0  0  0  0  0  0  0  0  0  0
   10.7015   37.5593   33.1701 H   0  0  0  0  0  0  0  0  0  0  0  0
   14.2012   37.4438   31.5552 H   0  0  0  0  0  0  0  0  0  0  0  0
    9.5289   36.3869   31.6895 H   0  0  0  0  0  0  0  0  0  0  0  0
   12.1244   35.7693   32.5633 H   0  0  0  0  0  0  0  0  0  0  0  0
   12.9478   35.5427   30.5202 H   0  0  0  0  0  0  0  0  0  0  0  0
   12.4328   38.3993   34.8697 H   0  0  0  0  0  0  0  0  0  0  0  0
   17.2667   34.4140   33.1692 H   0  0  0  0  0  0  0  0  0  0  0  0
   16.7636   35.0598   37.7897 H   0  0  0  0  0  0  0  0  0  0  0  0
   15.3759   36.1865   37.9791 H   0  0  0  0  0  0  0  0  0  0  0  0
  1  2  2  0
  1  3  1  0
  3  4  1  0
  4  5  1  0
  6  1  1  0
  7  6  1  0
  6  8  1  0
  8  9  1  0
  9 10  1  0
 10 11  1  0
 11 12  1  0
 12 13  1  0
 13 14  1  0
 13 15  2  0
 14 16  1  0
 16 17  1  0
 17 18  2  0
 19 17  1  0
 18 20  1  0
 21 19  2  0
 19 22  1  0
 20 23  2  0
 23 21  1  0
 22 24  1  0
 22 25  2  0
  4 26  2  0
  4 27  1  0
 28 27  1  0
 28 29  1  0
 29 30  1  0
 29 31  1  0
 30 32  1  0
 31 33  1  0
 31 34  1  0
 34 32  1  0
 32 35  1  0
 34 36  1  0
 37 35  1  0
 38 35  1  0
 39 37  2  0
 37 40  1  0
 41 38  2  0
 42 39  1  0
 40 43  2  0
 40 41  1  0
 44 42  2  0
 44 43  1  0
 43 45  1  0
  6 46  1  6
  7 47  1  0
  7 48  1  0
  8 49  1  0
  8 50  1  0
  9 51  1  0
  9 52  1  0
 10 53  1  0
 10 54  1  0
 11 55  1  0
 11 56  1  0
 12 57  1  0
 16 58  1  0
 16 59  1  0
 18 60  1  0
 20 61  1  0
 21 62  1  0
 23 63  1  0
 28 64  1  0
 28 65  1  0
 29 66  1  0
 31 67  1  0
 32 68  1  0
 33 69  1  0
 34 70  1  0
 36 71  1  0
 38 72  1  0
 42 73  1  0
 45 74  1  0
 45 75  1  0
M  CHG  3   5  -1  22   1  24  -1
M  END
>  <EmbedRMS>  (145) 
0.0745327513664

$$$$

     RDKit          3D

 75 78  0  0  0  0  0  0  0  0999 V2000
    9.4332   42.9366   34.3464 C   0  0  0  0  0  0  0  0  0  0  0  0
   10.4908   43.0331   35.0319 O   0  0  0  0  0  0  0  0  0  0  0  0
    8.8559   41.7104   34.0306 O   0  0  0  0  0  0  0  0  0  0  0  0
    9.4931   40.2143   34.4708 P   0  0  0  0  0  0  0  0  0  0  0  0
    9.7288   40.1729   36.1318 O   0  0  0  0  0  0  0  0  0  0  0  0
    8.7506   44.1348   33.7741 C   0  0  1  0  0  0  0  0  0  0  0  0
    9.2963   45.3821   34.3133 N   0  0  0  0  0  0  0  0  0  0  0  0
    8.8893   44.0527   32.2358 C   0  0  0  0  0  0  0  0  0  0  0  0
    8.2029   45.1823   31.4614 C   0  0  0  0  0  0  0  0  0  0  0  0
    6.6654   45.1047   31.4855 C   0  0  0  0  0  0  0  0  0  0  0  0
    6.0272   46.3228   30.8106 C   0  0  0  0  0  0  0  0  0  0  0  0
    6.5068   47.5642   31.4180 N   0  0  0  0  0  0  0  0  0  0  0  0
    7.2422   48.5403   30.6828 C   0  0  0  0  0  0  0  0  0  0  0  0
    7.5832   49.7463   31.3041 O   0  0  0  0  0  0  0  0  0  0  0  0
    7.5939   48.3102   29.4948 O   0  0  0  0  0  0  0  0  0  0  0  0
    8.3196   50.7868   30.6620 C   0  0  0  0  0  0  0  0  0  0  0  0
    7.4956   51.4383   29.5741 C   0  0  0  0  0  0  0  0  0  0  0  0
    6.2455   51.9764   29.9301 C   0  0  0  0  0  0  0  0  0  0  0  0
    7.9624   51.5990   28.2419 C   0  0  0  0  0  0  0  0  0  0  0  0
    5.4678   52.6568   28.9922 C   0  0  0  0  0  0  0  0  0  0  0  0
    7.1732   52.3042   27.3176 C   0  0  0  0  0  0  0  0  0  0  0  0
    9.2275   51.0771   27.8087 N   0  0  0  0  0  0  0  0  0  0  0  0
    5.9324   52.8235   27.6891 C   0  0  0  0  0  0  0  0  0  0  0  0
   10.0207   51.8278   26.9721 O   0  0  0  0  0  0  0  0  0  0  0  0
    9.4915   49.8671   27.9608 O   0  0  0  0  0  0  0  0  0  0  0  0
    8.5366   39.1385   34.0140 O   0  0  0  0  0  0  0  0  0  0  0  0
   10.9795   40.0875   33.6890 O   0  0  0  0  0  0  0  0  0  0  0  0
   10.8017   40.0947   32.2902 C   0  0  0  0  0  0  0  0  0  0  0  0
   11.5885   38.9266   31.7041 C   0  0  0  0  0  0  0  0  0  0  0  0
   12.9237   38.9445   32.1721 O   0  0  0  0  0  0  0  0  0  0  0  0
   11.0029   37.5726   32.0908 C   0  0  0  0  0  0  0  0  0  0  0  0
   13.3555   37.5960   32.2594 C   0  0  0  0  0  0  0  0  0  0  0  0
    9.9380   37.1846   31.2656 O   0  0  0  0  0  0  0  0  0  0  0  0
   12.1932   36.6769   31.8952 C   0  0  0  0  0  0  0  0  0  0  0  0
   13.8028   37.2977   33.6186 N   0  0  0  0  0  0  0  0  0  0  0  0
   12.2918   36.2396   30.5587 O   0  0  0  0  0  0  0  0  0  0  0  0
   14.7926   36.4727   33.9858 C   0  0  0  0  0  0  0  0  0  0  0  0
   13.2750   37.7302   34.7935 C   0  0  0  0  0  0  0  0  0  0  0  0
   15.6241   35.7586   33.1857 N   0  0  0  0  0  0  0  0  0  0  0  0
   14.8721   36.4408   35.3326 C   0  0  0  0  0  0  0  0  0  0  0  0
   13.9204   37.2263   35.8802 N   0  0  0  0  0  0  0  0  0  0  0  0
   16.5870   34.9924   33.7800 C   0  0  0  0  0  0  0  0  0  0  0  0
   15.8572   35.6717   35.9441 C   0  0  0  0  0  0  0  0  0  0  0  0
   16.7022   34.9585   35.1437 N   0  0  0  0  0  0  0  0  0  0  0  0
   16.0097   35.6384   37.3561 N   0  0  0  0  0  0  0  0  0  0  0  0
    7.6770   44.0707   34.0504 H   0  0  0  0  0  0  0  0  0  0  0  0
    9.1827   45.3821   35.3534 H   0  0  0  0  0  0  0  0  0  0  0  0
   10.3192   45.4407   34.0999 H   0  0  0  0  0  0  0  0  0  0  0  0
    9.9711   44.0680   31.9739 H   0  0  0  0  0  0  0  0  0  0  0  0
    8.4816   43.0850   31.8669 H   0  0  0  0  0  0  0  0  0  0  0  0
    8.5554   46.1509   31.8739 H   0  0  0  0  0  0  0  0  0  0  0  0
    8.5385   45.1361   30.4021 H   0  0  0  0  0  0  0  0  0  0  0  0
    6.3021   45.0644   32.5333 H   0  0  0  0  0  0  0  0  0  0  0  0
    6.3296   44.1801   30.9677 H   0  0  0  0  0  0  0  0  0  0  0  0
    6.2464   46.2899   29.7217 H   0  0  0  0  0  0  0  0  0  0  0  0
    4.9238   46.2677   30.9267 H   0  0  0  0  0  0  0  0  0  0  0  0
    6.2816   47.7538   32.4205 H   0  0  0  0  0  0  0  0  0  0  0  0
    9.2913   50.3924   30.3076 H   0  0  0  0  0  0  0  0  0  0  0  0
    8.5570   51.5601   31.4226 H   0  0  0  0  0  0  0  0  0  0  0  0
    5.8762   51.8769   30.9438 H   0  0  0  0  0  0  0  0  0  0  0  0
    4.5072   53.0645   29.2798 H   0  0  0  0  0  0  0  0  0  0  0  0
    7.5156   52.4384   26.2992 H   0  0  0  0  0  0  0  0  0  0  0  0
    5.3305   53.3570   26.9648 H   0  0  0  0  0  0  0  0  0  0  0  0
    9.7472   40.0378   31.9304 H   0  0  0  0  0  0  0  0  0  0  0  0
   11.2242   41.0427   31.8934 H   0  0  0  0  0  0  0  0  0  0  0  0
   11.5927   39.0434   30.5965 H   0  0  0  0  0  0  0  0  0  0  0  0
   10.7003   37.5442   33.1640 H   0  0  0  0  0  0  0  0  0  0  0  0
   14.2052   37.4477   31.5560 H   0  0  0  0  0  0  0  0  0  0  0  0
    9.1374   37.6722   31.5905 H   0  0  0  0  0  0  0  0  0  0  0  0
   12.1305   35.7855   32.5585 H   0  0  0  0  0  0  0  0  0  0  0  0
   12.4606   37.0186   29.9674 H   0  0  0  0  0  0  0  0  0  0  0  0
   12.4327   38.4000   34.8694 H   0  0  0  0  0  0  0  0  0  0  0  0
   17.2666   34.4146   33.1690 H   0  0  0  0  0  0  0  0  0  0  0  0
   16.7634   35.0601   37.7894 H   0  0  0  0  0  0  0  0  0  0  0  0
   15.3754   36.1866   37.9788 H   0  0  0  0  0  0  0  0  0  0  0  0
  1  2  2  0
  1  3  1  0
  3  4  1  0
  4  5  1  0
  6  1  1  0
  7  6  1  0
  6  8  1  0
  8  9  1  0
  9 10  1  0
 10 11  1  0
 11 12  1  0
 12 13  1  0
 13 14  1  0
 13 15  2  0
 14 16  1  0
 16 17  1  0
 17 18  2  0
 19 17  1  0
 18 20  1  0
 21 19  2  0
 19 22  1  0
 20 23  2  0
 23 21  1  0
 22 24  1  0
 22 25  2  0
  4 26  2  0
  4 27  1  0
 28 27  1  0
 28 29  1  0
 29 30  1  0
 29 31  1  0
 30 32  1  0
 31 33  1  0
 31 34  1  0
 34 32  1  0
 32 35  1  0
 34 36  1  0
 37 35  1  0
 38 35  1  0
 39 37  2  0
 37 40  1  0
 41 38  2  0
 42 39  1  0
 40 43  2  0
 40 41  1  0
 44 42  2  0
 44 43  1  0
 43 45  1  0
  6 46  1  6
  7 47  1  0
  7 48  1  0
  8 49  1  0
  8 50  1  0
  9 51  1  0
  9 52  1  0
 10 53  1  0
 10 54  1  0
 11 55  1  0
 11 56  1  0
 12 57  1  0
 16 58  1  0
 16 59  1  0
 18 60  1  0
 20 61  1  0
 21 62  1  0
 23 63  1  0
 28 64  1  0
 28 65  1  0
 29 66  1  0
 31 67  1  0
 32 68  1  0
 33 69  1  0
 34 70  1  0
 36 71  1  0
 38 72  1  0
 42 73  1  0
 45 74  1  0
 45 75  1  0
M  CHG  3   5  -1  22   1  24  -1
M  END
>  <EmbedRMS>  (146) 
0.0756660289628

$$$$

     RDKit          3D

 75 78  0  0  0  0  0  0  0  0999 V2000
    9.4334   42.9372   34.3455 C   0  0  0  0  0  0  0  0  0  0  0  0
   10.4908   43.0335   35.0313 O   0  0  0  0  0  0  0  0  0  0  0  0
    8.8560   41.7110   34.0295 O   0  0  0  0  0  0  0  0  0  0  0  0
    9.4943   40.2146   34.4675 P   0  0  0  0  0  0  0  0  0  0  0  0
    9.7316   40.1727   36.1286 O   0  0  0  0  0  0  0  0  0  0  0  0
    8.7511   44.1360   33.7736 C   0  0  1  0  0  0  0  0  0  0  0  0
    9.2969   45.3831   34.3131 N   0  0  0  0  0  0  0  0  0  0  0  0
    8.8895   44.0552   32.2352 C   0  0  0  0  0  0  0  0  0  0  0  0
    8.2022   45.1857   31.4619 C   0  0  0  0  0  0  0  0  0  0  0  0
    6.6645   45.1061   31.4851 C   0  0  0  0  0  0  0  0  0  0  0  0
    6.0232   46.3216   30.8069 C   0  0  0  0  0  0  0  0  0  0  0  0
    6.4947   47.5656   31.4146 N   0  0  0  0  0  0  0  0  0  0  0  0
    7.2634   48.5257   30.6931 C   0  0  0  0  0  0  0  0  0  0  0  0
    7.7031   49.6775   31.3528 O   0  0  0  0  0  0  0  0  0  0  0  0
    7.5888   48.3115   29.4945 O   0  0  0  0  0  0  0  0  0  0  0  0
    8.6846   50.5636   30.8171 C   0  0  0  0  0  0  0  0  0  0  0  0
   10.0320   49.8791   30.7446 C   0  0  0  0  0  0  0  0  0  0  0  0
   10.5447   49.3099   31.9250 C   0  0  0  0  0  0  0  0  0  0  0  0
   10.8184   49.8418   29.5624 C   0  0  0  0  0  0  0  0  0  0  0  0
   11.8049   48.7111   31.9402 C   0  0  0  0  0  0  0  0  0  0  0  0
   12.0943   49.2546   29.6039 C   0  0  0  0  0  0  0  0  0  0  0  0
   10.3569   50.3971   28.3223 N   0  0  0  0  0  0  0  0  0  0  0  0
   12.5803   48.6873   30.7827 C   0  0  0  0  0  0  0  0  0  0  0  0
   11.2299   51.1065   27.5302 O   0  0  0  0  0  0  0  0  0  0  0  0
    9.2726   50.0204   27.8330 O   0  0  0  0  0  0  0  0  0  0  0  0
    8.5372   39.1386   34.0121 O   0  0  0  0  0  0  0  0  0  0  0  0
   10.9795   40.0890   33.6815 O   0  0  0  0  0  0  0  0  0  0  0  0
   10.7982   40.0849   32.2819 C   0  0  0  0  0  0  0  0  0  0  0  0
   11.5886   38.9142   31.7009 C   0  0  0  0  0  0  0  0  0  0  0  0
   12.9214   38.9368   32.1698 O   0  0  0  0  0  0  0  0  0  0  0  0
   11.0047   37.5660   32.0990 C   0  0  0  0  0  0  0  0  0  0  0  0
   13.3511   37.5885   32.2601 C   0  0  0  0  0  0  0  0  0  0  0  0
    9.9296   37.1961   31.2780 O   0  0  0  0  0  0  0  0  0  0  0  0
   12.1923   36.6659   31.9047 C   0  0  0  0  0  0  0  0  0  0  0  0
   13.8033   37.2967   33.6188 N   0  0  0  0  0  0  0  0  0  0  0  0
   12.3007   36.2864   30.5561 O   0  0  0  0  0  0  0  0  0  0  0  0
   14.7933   36.4724   33.9860 C   0  0  0  0  0  0  0  0  0  0  0  0
   13.2753   37.7296   34.7935 C   0  0  0  0  0  0  0  0  0  0  0  0
   15.6243   35.7579   33.1860 N   0  0  0  0  0  0  0  0  0  0  0  0
   14.8728   36.4410   35.3328 C   0  0  0  0  0  0  0  0  0  0  0  0
   13.9209   37.2263   35.8804 N   0  0  0  0  0  0  0  0  0  0  0  0
   16.5873   34.9919   33.7803 C   0  0  0  0  0  0  0  0  0  0  0  0
   15.8577   35.6716   35.9443 C   0  0  0  0  0  0  0  0  0  0  0  0
   16.7025   34.9583   35.1440 N   0  0  0  0  0  0  0  0  0  0  0  0
   16.0100   35.6384   37.3563 N   0  0  0  0  0  0  0  0  0  0  0  0
    7.6774   44.0721   34.0498 H   0  0  0  0  0  0  0  0  0  0  0  0
    9.1863   45.3819   35.3535 H   0  0  0  0  0  0  0  0  0  0  0  0
   10.3191   45.4437   34.0965 H   0  0  0  0  0  0  0  0  0  0  0  0
    8.4824   43.0877   31.8654 H   0  0  0  0  0  0  0  0  0  0  0  0
    9.9713   44.0718   31.9732 H   0  0  0  0  0  0  0  0  0  0  0  0
    8.5531   46.1546   31.8759 H   0  0  0  0  0  0  0  0  0  0  0  0
    8.5386   45.1417   30.4029 H   0  0  0  0  0  0  0  0  0  0  0  0
    6.3307   44.1798   30.9692 H   0  0  0  0  0  0  0  0  0  0  0  0
    6.3009   45.0671   32.5329 H   0  0  0  0  0  0  0  0  0  0  0  0
    4.9196   46.2619   30.9189 H   0  0  0  0  0  0  0  0  0  0  0  0
    6.2464   46.2887   29.7189 H   0  0  0  0  0  0  0  0  0  0  0  0
    6.2731   47.7508   32.4187 H   0  0  0  0  0  0  0  0  0  0  0  0
    8.3364   50.9653   29.8464 H   0  0  0  0  0  0  0  0  0  0  0  0
    8.7756   51.4326   31.5022 H   0  0  0  0  0  0  0  0  0  0  0  0
    9.9658   49.3345   32.8404 H   0  0  0  0  0  0  0  0  0  0  0  0
   12.1843   48.2727   32.8543 H   0  0  0  0  0  0  0  0  0  0  0  0
   12.7076   49.2209   28.7122 H   0  0  0  0  0  0  0  0  0  0  0  0
   13.5603   48.2280   30.7980 H   0  0  0  0  0  0  0  0  0  0  0  0
    9.7427   40.0141   31.9265 H   0  0  0  0  0  0  0  0  0  0  0  0
   11.2132   41.0320   31.8756 H   0  0  0  0  0  0  0  0  0  0  0  0
   11.5980   39.0108   30.5904 H   0  0  0  0  0  0  0  0  0  0  0  0
   10.7009   37.5602   33.1721 H   0  0  0  0  0  0  0  0  0  0  0  0
   14.1977   37.4380   31.5532 H   0  0  0  0  0  0  0  0  0  0  0  0
    9.5181   36.3961   31.6977 H   0  0  0  0  0  0  0  0  0  0  0  0
   12.1418   35.7697   32.5692 H   0  0  0  0  0  0  0  0  0  0  0  0
   11.7730   35.4523   30.4489 H   0  0  0  0  0  0  0  0  0  0  0  0
   12.4321   38.3985   34.8692 H   0  0  0  0  0  0  0  0  0  0  0  0
   17.2667   34.4138   33.1694 H   0  0  0  0  0  0  0  0  0  0  0  0
   16.7634   35.0598   37.7897 H   0  0  0  0  0  0  0  0  0  0  0  0
   15.3757   36.1867   37.9790 H   0  0  0  0  0  0  0  0  0  0  0  0
  1  2  2  0
  1  3  1  0
  3  4  1  0
  4  5  1  0
  6  1  1  0
  7  6  1  0
  6  8  1  0
  8  9  1  0
  9 10  1  0
 10 11  1  0
 11 12  1  0
 12 13  1  0
 13 14  1  0
 13 15  2  0
 14 16  1  0
 16 17  1  0
 17 18  2  0
 19 17  1  0
 18 20  1  0
 21 19  2  0
 19 22  1  0
 20 23  2  0
 23 21  1  0
 22 24  1  0
 22 25  2  0
  4 26  2  0
  4 27  1  0
 28 27  1  0
 28 29  1  0
 29 30  1  0
 29 31  1  0
 30 32  1  0
 31 33  1  0
 31 34  1  0
 34 32  1  0
 32 35  1  0
 34 36  1  0
 37 35  1  0
 38 35  1  0
 39 37  2  0
 37 40  1  0
 41 38  2  0
 42 39  1  0
 40 43  2  0
 40 41  1  0
 44 42  2  0
 44 43  1  0
 43 45  1  0
  6 46  1  6
  7 47  1  0
  7 48  1  0
  8 49  1  0
  8 50  1  0
  9 51  1  0
  9 52  1  0
 10 53  1  0
 10 54  1  0
 11 55  1  0
 11 56  1  0
 12 57  1  0
 16 58  1  0
 16 59  1  0
 18 60  1  0
 20 61  1  0
 21 62  1  0
 23 63  1  0
 28 64  1  0
 28 65  1  0
 29 66  1  0
 31 67  1  0
 32 68  1  0
 33 69  1  0
 34 70  1  0
 36 71  1  0
 38 72  1  0
 42 73  1  0
 45 74  1  0
 45 75  1  0
M  CHG  3   5  -1  22   1  24  -1
M  END
>  <EmbedRMS>  (147) 
0.0751142470346

$$$$

     RDKit          3D

 75 78  0  0  0  0  0  0  0  0999 V2000
    9.4300   42.9394   34.3437 C   0  0  0  0  0  0  0  0  0  0  0  0
   10.4914   43.0381   35.0235 O   0  0  0  0  0  0  0  0  0  0  0  0
    8.8546   41.7116   34.0293 O   0  0  0  0  0  0  0  0  0  0  0  0
    9.4930   40.2157   34.4704 P   0  0  0  0  0  0  0  0  0  0  0  0
    9.7287   40.1743   36.1314 O   0  0  0  0  0  0  0  0  0  0  0  0
    8.7413   44.1376   33.7786 C   0  0  1  0  0  0  0  0  0  0  0  0
    9.3016   45.3717   34.3325 N   0  0  0  0  0  0  0  0  0  0  0  0
    8.8963   44.0590   32.2399 C   0  0  0  0  0  0  0  0  0  0  0  0
    8.2027   45.1685   31.4400 C   0  0  0  0  0  0  0  0  0  0  0  0
    6.6653   45.1062   31.4909 C   0  0  0  0  0  0  0  0  0  0  0  0
    6.0278   46.3225   30.8125 C   0  0  0  0  0  0  0  0  0  0  0  0
    6.5084   47.5641   31.4187 N   0  0  0  0  0  0  0  0  0  0  0  0
    7.2417   48.5407   30.6822 C   0  0  0  0  0  0  0  0  0  0  0  0
    7.5879   49.7445   31.3052 O   0  0  0  0  0  0  0  0  0  0  0  0
    7.5938   48.3100   29.4941 O   0  0  0  0  0  0  0  0  0  0  0  0
    8.2777   50.8053   30.6464 C   0  0  0  0  0  0  0  0  0  0  0  0
    7.3662   51.5124   29.6710 C   0  0  0  0  0  0  0  0  0  0  0  0
    7.5259   51.2561   28.2965 C   0  0  0  0  0  0  0  0  0  0  0  0
    6.3902   52.4566   30.0918 C   0  0  0  0  0  0  0  0  0  0  0  0
    6.7367   51.9122   27.3518 C   0  0  0  0  0  0  0  0  0  0  0  0
    5.6151   53.1167   29.1197 C   0  0  0  0  0  0  0  0  0  0  0  0
    6.1916   52.7825   31.4805 N   0  0  0  0  0  0  0  0  0  0  0  0
    5.7841   52.8417   27.7623 C   0  0  0  0  0  0  0  0  0  0  0  0
    6.2412   51.8078   32.4490 O   0  0  0  0  0  0  0  0  0  0  0  0
    5.8171   53.9284   31.8056 O   0  0  0  0  0  0  0  0  0  0  0  0
    8.5369   39.1392   34.0141 O   0  0  0  0  0  0  0  0  0  0  0  0
   10.9794   40.0882   33.6887 O   0  0  0  0  0  0  0  0  0  0  0  0
   10.8017   40.0949   32.2899 C   0  0  0  0  0  0  0  0  0  0  0  0
   11.5885   38.9266   31.7041 C   0  0  0  0  0  0  0  0  0  0  0  0
   12.9236   38.9445   32.1722 O   0  0  0  0  0  0  0  0  0  0  0  0
   11.0029   37.5726   32.0908 C   0  0  0  0  0  0  0  0  0  0  0  0
   13.3555   37.5960   32.2595 C   0  0  0  0  0  0  0  0  0  0  0  0
    9.9379   37.1846   31.2657 O   0  0  0  0  0  0  0  0  0  0  0  0
   12.1932   36.6769   31.8952 C   0  0  0  0  0  0  0  0  0  0  0  0
   13.8028   37.2977   33.6186 N   0  0  0  0  0  0  0  0  0  0  0  0
   12.2918   36.2396   30.5587 O   0  0  0  0  0  0  0  0  0  0  0  0
   14.7926   36.4727   33.9858 C   0  0  0  0  0  0  0  0  0  0  0  0
   13.2750   37.7302   34.7935 C   0  0  0  0  0  0  0  0  0  0  0  0
   15.6241   35.7586   33.1857 N   0  0  0  0  0  0  0  0  0  0  0  0
   14.8721   36.4408   35.3326 C   0  0  0  0  0  0  0  0  0  0  0  0
   13.9204   37.2263   35.8802 N   0  0  0  0  0  0  0  0  0  0  0  0
   16.5870   34.9925   33.7800 C   0  0  0  0  0  0  0  0  0  0  0  0
   15.8572   35.6717   35.9441 C   0  0  0  0  0  0  0  0  0  0  0  0
   16.7022   34.9585   35.1437 N   0  0  0  0  0  0  0  0  0  0  0  0
   16.0097   35.6384   37.3561 N   0  0  0  0  0  0  0  0  0  0  0  0
    7.6669   44.0651   34.0548 H   0  0  0  0  0  0  0  0  0  0  0  0
    8.6809   46.1667   34.0586 H   0  0  0  0  0  0  0  0  0  0  0  0
    9.2335   45.3274   35.3759 H   0  0  0  0  0  0  0  0  0  0  0  0
    8.5084   43.0837   31.8696 H   0  0  0  0  0  0  0  0  0  0  0  0
    9.9810   44.0904   31.9915 H   0  0  0  0  0  0  0  0  0  0  0  0
    8.5770   46.1511   31.7918 H   0  0  0  0  0  0  0  0  0  0  0  0
    8.5157   45.0751   30.3769 H   0  0  0  0  0  0  0  0  0  0  0  0
    6.3182   45.0834   32.5446 H   0  0  0  0  0  0  0  0  0  0  0  0
    6.3124   44.1782   30.9910 H   0  0  0  0  0  0  0  0  0  0  0  0
    4.9244   46.2684   30.9296 H   0  0  0  0  0  0  0  0  0  0  0  0
    6.2468   46.2876   29.7236 H   0  0  0  0  0  0  0  0  0  0  0  0
    6.2852   47.7538   32.4216 H   0  0  0  0  0  0  0  0  0  0  0  0
    9.1800   50.3997   30.1376 H   0  0  0  0  0  0  0  0  0  0  0  0
    8.6470   51.5293   31.4025 H   0  0  0  0  0  0  0  0  0  0  0  0
    8.2686   50.5473   27.9517 H   0  0  0  0  0  0  0  0  0  0  0  0
    6.8687   51.7034   26.2979 H   0  0  0  0  0  0  0  0  0  0  0  0
    4.8666   53.8409   29.4157 H   0  0  0  0  0  0  0  0  0  0  0  0
    5.1756   53.3524   27.0271 H   0  0  0  0  0  0  0  0  0  0  0  0
    9.7472   40.0378   31.9302 H   0  0  0  0  0  0  0  0  0  0  0  0
   11.2240   41.0428   31.8928 H   0  0  0  0  0  0  0  0  0  0  0  0
   11.5928   39.0433   30.5965 H   0  0  0  0  0  0  0  0  0  0  0  0
   10.7003   37.5443   33.1640 H   0  0  0  0  0  0  0  0  0  0  0  0
   14.2051   37.4477   31.5560 H   0  0  0  0  0  0  0  0  0  0  0  0
    9.1374   37.6722   31.5906 H   0  0  0  0  0  0  0  0  0  0  0  0
   12.1305   35.7856   32.5586 H   0  0  0  0  0  0  0  0  0  0  0  0
   12.4607   37.0186   29.9674 H   0  0  0  0  0  0  0  0  0  0  0  0
   12.4327   38.4001   34.8694 H   0  0  0  0  0  0  0  0  0  0  0  0
   17.2666   34.4146   33.1690 H   0  0  0  0  0  0  0  0  0  0  0  0
   15.3754   36.1866   37.9788 H   0  0  0  0  0  0  0  0  0  0  0  0
   16.7633   35.0601   37.7894 H   0  0  0  0  0  0  0  0  0  0  0  0
  1  2  2  0
  1  3  1  0
  3  4  1  0
  4  5  1  0
  6  1  1  0
  7  6  1  0
  6  8  1  0
  8  9  1  0
  9 10  1  0
 10 11  1  0
 11 12  1  0
 12 13  1  0
 13 14  1  0
 13 15  2  0
 14 16  1  0
 16 17  1  0
 17 18  2  0
 19 17  1  0
 18 20  1  0
 21 19  2  0
 19 22  1  0
 20 23  2  0
 23 21  1  0
 22 24  1  0
 22 25  2  0
  4 26  2  0
  4 27  1  0
 28 27  1  0
 28 29  1  0
 29 30  1  0
 29 31  1  0
 30 32  1  0
 31 33  1  0
 31 34  1  0
 34 32  1  0
 32 35  1  0
 34 36  1  0
 37 35  1  0
 38 35  1  0
 39 37  2  0
 37 40  1  0
 41 38  2  0
 42 39  1  0
 40 43  2  0
 40 41  1  0
 44 42  2  0
 44 43  1  0
 43 45  1  0
  6 46  1  6
  7 47  1  0
  7 48  1  0
  8 49  1  0
  8 50  1  0
  9 51  1  0
  9 52  1  0
 10 53  1  0
 10 54  1  0
 11 55  1  0
 11 56  1  0
 12 57  1  0
 16 58  1  0
 16 59  1  0
 18 60  1  0
 20 61  1  0
 21 62  1  0
 23 63  1  0
 28 64  1  0
 28 65  1  0
 29 66  1  0
 31 67  1  0
 32 68  1  0
 33 69  1  0
 34 70  1  0
 36 71  1  0
 38 72  1  0
 42 73  1  0
 45 74  1  0
 45 75  1  0
M  CHG  3   5  -1  22   1  24  -1
M  END
>  <EmbedRMS>  (148) 
0.0749895525701

$$$$

     RDKit          3D

 75 78  0  0  0  0  0  0  0  0999 V2000
    9.4312   42.9417   34.3439 C   0  0  0  0  0  0  0  0  0  0  0  0
   10.4886   43.0414   35.0294 O   0  0  0  0  0  0  0  0  0  0  0  0
    8.8558   41.7133   34.0297 O   0  0  0  0  0  0  0  0  0  0  0  0
    9.4932   40.2167   34.4707 P   0  0  0  0  0  0  0  0  0  0  0  0
    9.7290   40.1747   36.1316 O   0  0  0  0  0  0  0  0  0  0  0  0
    8.7486   44.1368   33.7721 C   0  0  1  0  0  0  0  0  0  0  0  0
    9.3043   45.3675   34.3387 N   0  0  0  0  0  0  0  0  0  0  0  0
    8.8891   44.0529   32.2308 C   0  0  0  0  0  0  0  0  0  0  0  0
    8.2010   45.1734   31.4440 C   0  0  0  0  0  0  0  0  0  0  0  0
    6.6636   45.1067   31.4881 C   0  0  0  0  0  0  0  0  0  0  0  0
    6.0247   46.3225   30.8098 C   0  0  0  0  0  0  0  0  0  0  0  0
    6.5025   47.5643   31.4169 N   0  0  0  0  0  0  0  0  0  0  0  0
    7.2573   48.5310   30.6896 C   0  0  0  0  0  0  0  0  0  0  0  0
    7.6690   49.6977   31.3376 O   0  0  0  0  0  0  0  0  0  0  0  0
    7.5876   48.3147   29.4921 O   0  0  0  0  0  0  0  0  0  0  0  0
    8.4998   50.6736   30.7169 C   0  0  0  0  0  0  0  0  0  0  0  0
    8.8989   51.7167   31.7301 C   0  0  0  0  0  0  0  0  0  0  0  0
    8.5903   53.0647   31.4689 C   0  0  0  0  0  0  0  0  0  0  0  0
    9.5380   51.3756   32.9536 C   0  0  0  0  0  0  0  0  0  0  0  0
    8.8955   54.0590   32.3991 C   0  0  0  0  0  0  0  0  0  0  0  0
    9.8224   52.3932   33.8832 C   0  0  0  0  0  0  0  0  0  0  0  0
    9.8826   50.0158   33.2802 N   0  0  0  0  0  0  0  0  0  0  0  0
    9.5069   53.7236   33.6051 C   0  0  0  0  0  0  0  0  0  0  0  0
   10.3916   49.1684   32.3239 O   0  0  0  0  0  0  0  0  0  0  0  0
    9.8693   49.6361   34.4695 O   0  0  0  0  0  0  0  0  0  0  0  0
    8.5368   39.1405   34.0142 O   0  0  0  0  0  0  0  0  0  0  0  0
   10.9795   40.0884   33.6888 O   0  0  0  0  0  0  0  0  0  0  0  0
   10.8017   40.0950   32.2900 C   0  0  0  0  0  0  0  0  0  0  0  0
   11.5885   38.9267   31.7042 C   0  0  0  0  0  0  0  0  0  0  0  0
   12.9237   38.9445   32.1722 O   0  0  0  0  0  0  0  0  0  0  0  0
   11.0029   37.5727   32.0908 C   0  0  0  0  0  0  0  0  0  0  0  0
   13.3555   37.5960   32.2595 C   0  0  0  0  0  0  0  0  0  0  0  0
    9.9379   37.1847   31.2657 O   0  0  0  0  0  0  0  0  0  0  0  0
   12.1931   36.6770   31.8952 C   0  0  0  0  0  0  0  0  0  0  0  0
   13.8028   37.2977   33.6186 N   0  0  0  0  0  0  0  0  0  0  0  0
   12.2918   36.2396   30.5587 O   0  0  0  0  0  0  0  0  0  0  0  0
   14.7926   36.4727   33.9858 C   0  0  0  0  0  0  0  0  0  0  0  0
   13.2750   37.7302   34.7935 C   0  0  0  0  0  0  0  0  0  0  0  0
   15.6241   35.7586   33.1857 N   0  0  0  0  0  0  0  0  0  0  0  0
   14.8721   36.4408   35.3326 C   0  0  0  0  0  0  0  0  0  0  0  0
   13.9204   37.2263   35.8802 N   0  0  0  0  0  0  0  0  0  0  0  0
   16.5870   34.9925   33.7800 C   0  0  0  0  0  0  0  0  0  0  0  0
   15.8572   35.6716   35.9441 C   0  0  0  0  0  0  0  0  0  0  0  0
   16.7022   34.9586   35.1437 N   0  0  0  0  0  0  0  0  0  0  0  0
   16.0097   35.6384   37.3561 N   0  0  0  0  0  0  0  0  0  0  0  0
    7.6765   44.0646   34.0548 H   0  0  0  0  0  0  0  0  0  0  0  0
   10.2153   45.5894   33.8741 H   0  0  0  0  0  0  0  0  0  0  0  0
    8.6473   46.1571   34.1436 H   0  0  0  0  0  0  0  0  0  0  0  0
    9.9707   44.0656   31.9678 H   0  0  0  0  0  0  0  0  0  0  0  0
    8.4831   43.0828   31.8666 H   0  0  0  0  0  0  0  0  0  0  0  0
    8.5698   46.1501   31.8188 H   0  0  0  0  0  0  0  0  0  0  0  0
    8.5201   45.0983   30.3813 H   0  0  0  0  0  0  0  0  0  0  0  0
    6.3130   45.0789   32.5406 H   0  0  0  0  0  0  0  0  0  0  0  0
    6.3154   44.1794   30.9836 H   0  0  0  0  0  0  0  0  0  0  0  0
    4.9212   46.2667   30.9253 H   0  0  0  0  0  0  0  0  0  0  0  0
    6.2452   46.2887   29.7213 H   0  0  0  0  0  0  0  0  0  0  0  0
    6.2844   47.7495   32.4219 H   0  0  0  0  0  0  0  0  0  0  0  0
    9.4115   50.1972   30.2990 H   0  0  0  0  0  0  0  0  0  0  0  0
    7.9462   51.1278   29.8661 H   0  0  0  0  0  0  0  0  0  0  0  0
    8.1039   53.3501   30.5443 H   0  0  0  0  0  0  0  0  0  0  0  0
    8.6515   55.0918   32.1863 H   0  0  0  0  0  0  0  0  0  0  0  0
   10.3049   52.1564   34.8231 H   0  0  0  0  0  0  0  0  0  0  0  0
    9.7388   54.4965   34.3265 H   0  0  0  0  0  0  0  0  0  0  0  0
   11.2240   41.0428   31.8929 H   0  0  0  0  0  0  0  0  0  0  0  0
    9.7472   40.0379   31.9304 H   0  0  0  0  0  0  0  0  0  0  0  0
   11.5927   39.0434   30.5966 H   0  0  0  0  0  0  0  0  0  0  0  0
   10.7003   37.5444   33.1641 H   0  0  0  0  0  0  0  0  0  0  0  0
   14.2051   37.4478   31.5560 H   0  0  0  0  0  0  0  0  0  0  0  0
    9.1374   37.6722   31.5906 H   0  0  0  0  0  0  0  0  0  0  0  0
   12.1305   35.7856   32.5586 H   0  0  0  0  0  0  0  0  0  0  0  0
   12.4606   37.0186   29.9674 H   0  0  0  0  0  0  0  0  0  0  0  0
   12.4327   38.4001   34.8694 H   0  0  0  0  0  0  0  0  0  0  0  0
   17.2666   34.4146   33.1690 H   0  0  0  0  0  0  0  0  0  0  0  0
   15.3754   36.1866   37.9788 H   0  0  0  0  0  0  0  0  0  0  0  0
   16.7633   35.0601   37.7894 H   0  0  0  0  0  0  0  0  0  0  0  0
  1  2  2  0
  1  3  1  0
  3  4  1  0
  4  5  1  0
  6  1  1  0
  7  6  1  0
  6  8  1  0
  8  9  1  0
  9 10  1  0
 10 11  1  0
 11 12  1  0
 12 13  1  0
 13 14  1  0
 13 15  2  0
 14 16  1  0
 16 17  1  0
 17 18  2  0
 19 17  1  0
 18 20  1  0
 21 19  2  0
 19 22  1  0
 20 23  2  0
 23 21  1  0
 22 24  1  0
 22 25  2  0
  4 26  2  0
  4 27  1  0
 28 27  1  0
 28 29  1  0
 29 30  1  0
 29 31  1  0
 30 32  1  0
 31 33  1  0
 31 34  1  0
 34 32  1  0
 32 35  1  0
 34 36  1  0
 37 35  1  0
 38 35  1  0
 39 37  2  0
 37 40  1  0
 41 38  2  0
 42 39  1  0
 40 43  2  0
 40 41  1  0
 44 42  2  0
 44 43  1  0
 43 45  1  0
  6 46  1  6
  7 47  1  0
  7 48  1  0
  8 49  1  0
  8 50  1  0
  9 51  1  0
  9 52  1  0
 10 53  1  0
 10 54  1  0
 11 55  1  0
 11 56  1  0
 12 57  1  0
 16 58  1  0
 16 59  1  0
 18 60  1  0
 20 61  1  0
 21 62  1  0
 23 63  1  0
 28 64  1  0
 28 65  1  0
 29 66  1  0
 31 67  1  0
 32 68  1  0
 33 69  1  0
 34 70  1  0
 36 71  1  0
 38 72  1  0
 42 73  1  0
 45 74  1  0
 45 75  1  0
M  CHG  3   5  -1  22   1  24  -1
M  END
>  <EmbedRMS>  (149) 
0.0752467782431

$$$$

     RDKit          3D

 75 78  0  0  0  0  0  0  0  0999 V2000
    9.4310   42.9413   34.3437 C   0  0  0  0  0  0  0  0  0  0  0  0
   10.4884   43.0412   35.0293 O   0  0  0  0  0  0  0  0  0  0  0  0
    8.8561   41.7129   34.0288 O   0  0  0  0  0  0  0  0  0  0  0  0
    9.4946   40.2163   34.4679 P   0  0  0  0  0  0  0  0  0  0  0  0
    9.7311   40.1742   36.1289 O   0  0  0  0  0  0  0  0  0  0  0  0
    8.7481   44.1361   33.7720 C   0  0  1  0  0  0  0  0  0  0  0  0
    9.3034   45.3668   34.3386 N   0  0  0  0  0  0  0  0  0  0  0  0
    8.8891   44.0518   32.2307 C   0  0  0  0  0  0  0  0  0  0  0  0
    8.2018   45.1721   31.4431 C   0  0  0  0  0  0  0  0  0  0  0  0
    6.6645   45.1051   31.4847 C   0  0  0  0  0  0  0  0  0  0  0  0
    6.0271   46.3254   30.8130 C   0  0  0  0  0  0  0  0  0  0  0  0
    6.5119   47.5629   31.4238 N   0  0  0  0  0  0  0  0  0  0  0  0
    7.2386   48.5473   30.6790 C   0  0  0  0  0  0  0  0  0  0  0  0
    7.5879   49.7842   31.2379 O   0  0  0  0  0  0  0  0  0  0  0  0
    7.5944   48.3039   29.4966 O   0  0  0  0  0  0  0  0  0  0  0  0
    7.1853   50.2412   32.5289 C   0  0  0  0  0  0  0  0  0  0  0  0
    5.6974   50.5100   32.5719 C   0  0  0  0  0  0  0  0  0  0  0  0
    4.9293   49.8836   33.5709 C   0  0  0  0  0  0  0  0  0  0  0  0
    5.0486   51.3451   31.6209 C   0  0  0  0  0  0  0  0  0  0  0  0
    3.5449   50.0502   33.6157 C   0  0  0  0  0  0  0  0  0  0  0  0
    3.6504   51.4856   31.6755 C   0  0  0  0  0  0  0  0  0  0  0  0
    5.7753   52.0413   30.5917 N   0  0  0  0  0  0  0  0  0  0  0  0
    2.9060   50.8443   32.6662 C   0  0  0  0  0  0  0  0  0  0  0  0
    5.1680   52.3144   29.3875 O   0  0  0  0  0  0  0  0  0  0  0  0
    6.8888   52.5514   30.8302 O   0  0  0  0  0  0  0  0  0  0  0  0
    8.5374   39.1404   34.0128 O   0  0  0  0  0  0  0  0  0  0  0  0
   10.9803   40.0888   33.6834 O   0  0  0  0  0  0  0  0  0  0  0  0
   10.8020   40.0896   32.2836 C   0  0  0  0  0  0  0  0  0  0  0  0
   11.5900   38.9179   31.7007 C   0  0  0  0  0  0  0  0  0  0  0  0
   12.9224   38.9391   32.1711 O   0  0  0  0  0  0  0  0  0  0  0  0
   11.0051   37.5677   32.0967 C   0  0  0  0  0  0  0  0  0  0  0  0
   13.3518   37.5910   32.2610 C   0  0  0  0  0  0  0  0  0  0  0  0
    9.9381   37.1796   31.2733 O   0  0  0  0  0  0  0  0  0  0  0  0
   12.1912   36.6690   31.9043 C   0  0  0  0  0  0  0  0  0  0  0  0
   13.8027   37.2968   33.6192 N   0  0  0  0  0  0  0  0  0  0  0  0
   12.2877   36.2854   30.5568 O   0  0  0  0  0  0  0  0  0  0  0  0
   14.7928   36.4724   33.9861 C   0  0  0  0  0  0  0  0  0  0  0  0
   13.2751   37.7297   34.7941 C   0  0  0  0  0  0  0  0  0  0  0  0
   15.6239   35.7581   33.1859 N   0  0  0  0  0  0  0  0  0  0  0  0
   14.8726   36.4408   35.3329 C   0  0  0  0  0  0  0  0  0  0  0  0
   13.9209   37.2262   35.8807 N   0  0  0  0  0  0  0  0  0  0  0  0
   16.5870   34.9921   33.7801 C   0  0  0  0  0  0  0  0  0  0  0  0
   15.8576   35.6716   35.9442 C   0  0  0  0  0  0  0  0  0  0  0  0
   16.7024   34.9584   35.1438 N   0  0  0  0  0  0  0  0  0  0  0  0
   16.0101   35.6383   37.3562 N   0  0  0  0  0  0  0  0  0  0  0  0
    7.6760   44.0636   34.0544 H   0  0  0  0  0  0  0  0  0  0  0  0
   10.2143   45.5888   33.8741 H   0  0  0  0  0  0  0  0  0  0  0  0
    8.6458   46.1560   34.1436 H   0  0  0  0  0  0  0  0  0  0  0  0
    8.4828   43.0817   31.8665 H   0  0  0  0  0  0  0  0  0  0  0  0
    9.9708   44.0639   31.9680 H   0  0  0  0  0  0  0  0  0  0  0  0
    8.5705   46.1485   31.8186 H   0  0  0  0  0  0  0  0  0  0  0  0
    8.5223   45.0973   30.3808 H   0  0  0  0  0  0  0  0  0  0  0  0
    6.3166   44.1808   30.9746 H   0  0  0  0  0  0  0  0  0  0  0  0
    6.3124   45.0712   32.5366 H   0  0  0  0  0  0  0  0  0  0  0  0
    4.9241   46.2727   30.9353 H   0  0  0  0  0  0  0  0  0  0  0  0
    6.2405   46.2945   29.7230 H   0  0  0  0  0  0  0  0  0  0  0  0
    6.3168   47.7067   32.4378 H   0  0  0  0  0  0  0  0  0  0  0  0
    7.7267   51.1810   32.7612 H   0  0  0  0  0  0  0  0  0  0  0  0
    7.5022   49.5059   33.3001 H   0  0  0  0  0  0  0  0  0  0  0  0
    5.4009   49.2513   34.3131 H   0  0  0  0  0  0  0  0  0  0  0  0
    2.9655   49.5569   34.3855 H   0  0  0  0  0  0  0  0  0  0  0  0
    3.1344   52.1102   30.9574 H   0  0  0  0  0  0  0  0  0  0  0  0
    1.8314   50.9686   32.7008 H   0  0  0  0  0  0  0  0  0  0  0  0
    9.7471   40.0309   31.9256 H   0  0  0  0  0  0  0  0  0  0  0  0
   11.2237   41.0358   31.8821 H   0  0  0  0  0  0  0  0  0  0  0  0
   11.5999   39.0159   30.5905 H   0  0  0  0  0  0  0  0  0  0  0  0
   10.7034   37.5451   33.1703 H   0  0  0  0  0  0  0  0  0  0  0  0
   14.1992   37.4424   31.5548 H   0  0  0  0  0  0  0  0  0  0  0  0
    9.1370   37.6634   31.6025 H   0  0  0  0  0  0  0  0  0  0  0  0
   12.1204   35.7713   32.5637 H   0  0  0  0  0  0  0  0  0  0  0  0
   12.9456   35.5426   30.5221 H   0  0  0  0  0  0  0  0  0  0  0  0
   12.4322   38.3989   34.8700 H   0  0  0  0  0  0  0  0  0  0  0  0
   17.2664   34.4142   33.1690 H   0  0  0  0  0  0  0  0  0  0  0  0
   15.3759   36.1865   37.9790 H   0  0  0  0  0  0  0  0  0  0  0  0
   16.7636   35.0598   37.7895 H   0  0  0  0  0  0  0  0  0  0  0  0
  1  2  2  0
  1  3  1  0
  3  4  1  0
  4  5  1  0
  6  1  1  0
  7  6  1  0
  6  8  1  0
  8  9  1  0
  9 10  1  0
 10 11  1  0
 11 12  1  0
 12 13  1  0
 13 14  1  0
 13 15  2  0
 14 16  1  0
 16 17  1  0
 17 18  2  0
 19 17  1  0
 18 20  1  0
 21 19  2  0
 19 22  1  0
 20 23  2  0
 23 21  1  0
 22 24  1  0
 22 25  2  0
  4 26  2  0
  4 27  1  0
 28 27  1  0
 28 29  1  0
 29 30  1  0
 29 31  1  0
 30 32  1  0
 31 33  1  0
 31 34  1  0
 34 32  1  0
 32 35  1  0
 34 36  1  0
 37 35  1  0
 38 35  1  0
 39 37  2  0
 37 40  1  0
 41 38  2  0
 42 39  1  0
 40 43  2  0
 40 41  1  0
 44 42  2  0
 44 43  1  0
 43 45  1  0
  6 46  1  6
  7 47  1  0
  7 48  1  0
  8 49  1  0
  8 50  1  0
  9 51  1  0
  9 52  1  0
 10 53  1  0
 10 54  1  0
 11 55  1  0
 11 56  1  0
 12 57  1  0
 16 58  1  0
 16 59  1  0
 18 60  1  0
 20 61  1  0
 21 62  1  0
 23 63  1  0
 28 64  1  0
 28 65  1  0
 29 66  1  0
 31 67  1  0
 32 68  1  0
 33 69  1  0
 34 70  1  0
 36 71  1  0
 38 72  1  0
 42 73  1  0
 45 74  1  0
 45 75  1  0
M  CHG  3   5  -1  22   1  24  -1
M  END
>  <EmbedRMS>  (150) 
0.0729997958452

$$$$

     RDKit          3D

 75 78  0  0  0  0  0  0  0  0999 V2000
    9.4299   42.9394   34.3434 C   0  0  0  0  0  0  0  0  0  0  0  0
   10.4911   43.0381   35.0234 O   0  0  0  0  0  0  0  0  0  0  0  0
    8.8549   41.7115   34.0282 O   0  0  0  0  0  0  0  0  0  0  0  0
    9.4941   40.2154   34.4674 P   0  0  0  0  0  0  0  0  0  0  0  0
    9.7310   40.1738   36.1285 O   0  0  0  0  0  0  0  0  0  0  0  0
    8.7410   44.1377   33.7784 C   0  0  1  0  0  0  0  0  0  0  0  0
    9.3011   45.3720   34.3323 N   0  0  0  0  0  0  0  0  0  0  0  0
    8.8962   44.0590   32.2397 C   0  0  0  0  0  0  0  0  0  0  0  0
    8.2030   45.1686   31.4396 C   0  0  0  0  0  0  0  0  0  0  0  0
    6.6656   45.1048   31.4870 C   0  0  0  0  0  0  0  0  0  0  0  0
    6.0281   46.3241   30.8132 C   0  0  0  0  0  0  0  0  0  0  0  0
    6.5118   47.5624   31.4236 N   0  0  0  0  0  0  0  0  0  0  0  0
    7.2384   48.5470   30.6790 C   0  0  0  0  0  0  0  0  0  0  0  0
    7.5883   49.7836   31.2383 O   0  0  0  0  0  0  0  0  0  0  0  0
    7.5941   48.3039   29.4964 O   0  0  0  0  0  0  0  0  0  0  0  0
    7.1878   50.2395   32.5303 C   0  0  0  0  0  0  0  0  0  0  0  0
    5.7002   50.5097   32.5756 C   0  0  0  0  0  0  0  0  0  0  0  0
    4.9328   49.8830   33.5750 C   0  0  0  0  0  0  0  0  0  0  0  0
    5.0510   51.3467   31.6265 C   0  0  0  0  0  0  0  0  0  0  0  0
    3.5487   50.0511   33.6219 C   0  0  0  0  0  0  0  0  0  0  0  0
    3.6530   51.4887   31.6833 C   0  0  0  0  0  0  0  0  0  0  0  0
    5.7770   52.0433   30.5972 N   0  0  0  0  0  0  0  0  0  0  0  0
    2.9094   50.8471   32.6744 C   0  0  0  0  0  0  0  0  0  0  0  0
    5.1683   52.3187   29.3942 O   0  0  0  0  0  0  0  0  0  0  0  0
    6.8915   52.5519   30.8347 O   0  0  0  0  0  0  0  0  0  0  0  0
    8.5373   39.1390   34.0124 O   0  0  0  0  0  0  0  0  0  0  0  0
   10.9794   40.0877   33.6824 O   0  0  0  0  0  0  0  0  0  0  0  0
   10.7996   40.0900   32.2828 C   0  0  0  0  0  0  0  0  0  0  0  0
   11.5968   38.9274   31.6962 C   0  0  0  0  0  0  0  0  0  0  0  0
   12.9242   38.9426   32.1785 O   0  0  0  0  0  0  0  0  0  0  0  0
   11.0086   37.5713   32.0780 C   0  0  0  0  0  0  0  0  0  0  0  0
   13.3528   37.5929   32.2623 C   0  0  0  0  0  0  0  0  0  0  0  0
    9.9098   37.1771   31.2926 O   0  0  0  0  0  0  0  0  0  0  0  0
   12.1943   36.6683   31.8995 C   0  0  0  0  0  0  0  0  0  0  0  0
   13.8019   37.2950   33.6199 N   0  0  0  0  0  0  0  0  0  0  0  0
   12.3027   36.2773   30.5559 O   0  0  0  0  0  0  0  0  0  0  0  0
   14.7926   36.4715   33.9865 C   0  0  0  0  0  0  0  0  0  0  0  0
   13.2749   37.7286   34.7946 C   0  0  0  0  0  0  0  0  0  0  0  0
   15.6239   35.7577   33.1860 N   0  0  0  0  0  0  0  0  0  0  0  0
   14.8727   36.4403   35.3332 C   0  0  0  0  0  0  0  0  0  0  0  0
   13.9210   37.2257   35.8811 N   0  0  0  0  0  0  0  0  0  0  0  0
   16.5873   34.9921   33.7802 C   0  0  0  0  0  0  0  0  0  0  0  0
   15.8579   35.6714   35.9444 C   0  0  0  0  0  0  0  0  0  0  0  0
   16.7028   34.9583   35.1439 N   0  0  0  0  0  0  0  0  0  0  0  0
   16.0104   35.6381   37.3564 N   0  0  0  0  0  0  0  0  0  0  0  0
    7.6665   44.0652   34.0544 H   0  0  0  0  0  0  0  0  0  0  0  0
    8.6799   46.1668   34.0590 H   0  0  0  0  0  0  0  0  0  0  0  0
    9.2334   45.3273   35.3757 H   0  0  0  0  0  0  0  0  0  0  0  0
    8.5082   43.0837   31.8694 H   0  0  0  0  0  0  0  0  0  0  0  0
    9.9809   44.0902   31.9916 H   0  0  0  0  0  0  0  0  0  0  0  0
    8.5181   45.0767   30.3770 H   0  0  0  0  0  0  0  0  0  0  0  0
    8.5761   46.1510   31.7930 H   0  0  0  0  0  0  0  0  0  0  0  0
    6.3143   44.1789   30.9820 H   0  0  0  0  0  0  0  0  0  0  0  0
    6.3164   45.0762   32.5399 H   0  0  0  0  0  0  0  0  0  0  0  0
    6.2426   46.2925   29.7235 H   0  0  0  0  0  0  0  0  0  0  0  0
    4.9251   46.2711   30.9345 H   0  0  0  0  0  0  0  0  0  0  0  0
    6.3158   47.7065   32.4374 H   0  0  0  0  0  0  0  0  0  0  0  0
    7.7304   51.1785   32.7631 H   0  0  0  0  0  0  0  0  0  0  0  0
    7.5050   49.5030   33.3003 H   0  0  0  0  0  0  0  0  0  0  0  0
    5.4048   49.2493   34.3158 H   0  0  0  0  0  0  0  0  0  0  0  0
    2.9699   49.5575   34.3920 H   0  0  0  0  0  0  0  0  0  0  0  0
    3.1367   52.1148   30.9667 H   0  0  0  0  0  0  0  0  0  0  0  0
    1.8349   50.9726   32.7107 H   0  0  0  0  0  0  0  0  0  0  0  0
    9.7449   40.0145   31.9261 H   0  0  0  0  0  0  0  0  0  0  0  0
   11.2095   41.0419   31.8823 H   0  0  0  0  0  0  0  0  0  0  0  0
   11.6266   39.0455   30.5888 H   0  0  0  0  0  0  0  0  0  0  0  0
   10.7064   37.5575   33.1485 H   0  0  0  0  0  0  0  0  0  0  0  0
   14.2021   37.4484   31.5574 H   0  0  0  0  0  0  0  0  0  0  0  0
   10.0952   37.3990   30.3433 H   0  0  0  0  0  0  0  0  0  0  0  0
   12.1163   35.7745   32.5634 H   0  0  0  0  0  0  0  0  0  0  0  0
   12.9614   35.5349   30.5312 H   0  0  0  0  0  0  0  0  0  0  0  0
   12.4321   38.3982   34.8705 H   0  0  0  0  0  0  0  0  0  0  0  0
   17.2669   34.4144   33.1690 H   0  0  0  0  0  0  0  0  0  0  0  0
   16.7641   35.0599   37.7896 H   0  0  0  0  0  0  0  0  0  0  0  0
   15.3761   36.1862   37.9792 H   0  0  0  0  0  0  0  0  0  0  0  0
  1  2  2  0
  1  3  1  0
  3  4  1  0
  4  5  1  0
  6  1  1  0
  7  6  1  0
  6  8  1  0
  8  9  1  0
  9 10  1  0
 10 11  1  0
 11 12  1  0
 12 13  1  0
 13 14  1  0
 13 15  2  0
 14 16  1  0
 16 17  1  0
 17 18  2  0
 19 17  1  0
 18 20  1  0
 21 19  2  0
 19 22  1  0
 20 23  2  0
 23 21  1  0
 22 24  1  0
 22 25  2  0
  4 26  2  0
  4 27  1  0
 28 27  1  0
 28 29  1  0
 29 30  1  0
 29 31  1  0
 30 32  1  0
 31 33  1  0
 31 34  1  0
 34 32  1  0
 32 35  1  0
 34 36  1  0
 37 35  1  0
 38 35  1  0
 39 37  2  0
 37 40  1  0
 41 38  2  0
 42 39  1  0
 40 43  2  0
 40 41  1  0
 44 42  2  0
 44 43  1  0
 43 45  1  0
  6 46  1  6
  7 47  1  0
  7 48  1  0
  8 49  1  0
  8 50  1  0
  9 51  1  0
  9 52  1  0
 10 53  1  0
 10 54  1  0
 11 55  1  0
 11 56  1  0
 12 57  1  0
 16 58  1  0
 16 59  1  0
 18 60  1  0
 20 61  1  0
 21 62  1  0
 23 63  1  0
 28 64  1  0
 28 65  1  0
 29 66  1  0
 31 67  1  0
 32 68  1  0
 33 69  1  0
 34 70  1  0
 36 71  1  0
 38 72  1  0
 42 73  1  0
 45 74  1  0
 45 75  1  0
M  CHG  3   5  -1  22   1  24  -1
M  END
>  <EmbedRMS>  (151) 
0.0736707771362

$$$$

     RDKit          3D

 75 78  0  0  0  0  0  0  0  0999 V2000
    9.4309   42.9413   34.3438 C   0  0  0  0  0  0  0  0  0  0  0  0
   10.4883   43.0413   35.0293 O   0  0  0  0  0  0  0  0  0  0  0  0
    8.8561   41.7129   34.0288 O   0  0  0  0  0  0  0  0  0  0  0  0
    9.4945   40.2162   34.4678 P   0  0  0  0  0  0  0  0  0  0  0  0
    9.7312   40.1740   36.1289 O   0  0  0  0  0  0  0  0  0  0  0  0
    8.7478   44.1361   33.7721 C   0  0  1  0  0  0  0  0  0  0  0  0
    9.3028   45.3670   34.3389 N   0  0  0  0  0  0  0  0  0  0  0  0
    8.8890   44.0518   32.2309 C   0  0  0  0  0  0  0  0  0  0  0  0
    8.2017   45.1721   31.4435 C   0  0  0  0  0  0  0  0  0  0  0  0
    6.6644   45.1050   31.4848 C   0  0  0  0  0  0  0  0  0  0  0  0
    6.0276   46.3247   30.8115 C   0  0  0  0  0  0  0  0  0  0  0  0
    6.5114   47.5620   31.4232 N   0  0  0  0  0  0  0  0  0  0  0  0
    7.2462   48.5437   30.6822 C   0  0  0  0  0  0  0  0  0  0  0  0
    7.6230   49.7671   31.2537 O   0  0  0  0  0  0  0  0  0  0  0  0
    7.5881   48.3080   29.4941 O   0  0  0  0  0  0  0  0  0  0  0  0
    7.3138   50.1711   32.5875 C   0  0  0  0  0  0  0  0  0  0  0  0
    5.8351   50.4537   32.7382 C   0  0  0  0  0  0  0  0  0  0  0  0
    5.2053   51.2564   31.7696 C   0  0  0  0  0  0  0  0  0  0  0  0
    5.0603   49.9131   33.7970 C   0  0  0  0  0  0  0  0  0  0  0  0
    3.8284   51.4798   31.8151 C   0  0  0  0  0  0  0  0  0  0  0  0
    3.6718   50.1325   33.8149 C   0  0  0  0  0  0  0  0  0  0  0  0
    5.6624   49.1685   34.8670 N   0  0  0  0  0  0  0  0  0  0  0  0
    3.0613   50.9099   32.8297 C   0  0  0  0  0  0  0  0  0  0  0  0
    6.7538   49.6795   35.5309 O   0  0  0  0  0  0  0  0  0  0  0  0
    5.0734   48.1780   35.3470 O   0  0  0  0  0  0  0  0  0  0  0  0
    8.5374   39.1401   34.0124 O   0  0  0  0  0  0  0  0  0  0  0  0
   10.9799   40.0880   33.6828 O   0  0  0  0  0  0  0  0  0  0  0  0
   10.8002   40.0907   32.2831 C   0  0  0  0  0  0  0  0  0  0  0  0
   11.5958   38.9271   31.6964 C   0  0  0  0  0  0  0  0  0  0  0  0
   12.9239   38.9409   32.1767 O   0  0  0  0  0  0  0  0  0  0  0  0
   11.0062   37.5720   32.0794 C   0  0  0  0  0  0  0  0  0  0  0  0
   13.3506   37.5906   32.2614 C   0  0  0  0  0  0  0  0  0  0  0  0
    9.9064   37.1793   31.2946 O   0  0  0  0  0  0  0  0  0  0  0  0
   12.1919   36.6672   31.9004 C   0  0  0  0  0  0  0  0  0  0  0  0
   13.8017   37.2948   33.6193 N   0  0  0  0  0  0  0  0  0  0  0  0
   12.3133   36.2788   30.5561 O   0  0  0  0  0  0  0  0  0  0  0  0
   14.7927   36.4717   33.9861 C   0  0  0  0  0  0  0  0  0  0  0  0
   13.2746   37.7284   34.7941 C   0  0  0  0  0  0  0  0  0  0  0  0
   15.6240   35.7576   33.1859 N   0  0  0  0  0  0  0  0  0  0  0  0
   14.8728   36.4406   35.3330 C   0  0  0  0  0  0  0  0  0  0  0  0
   13.9209   37.2258   35.8808 N   0  0  0  0  0  0  0  0  0  0  0  0
   16.5874   34.9920   33.7802 C   0  0  0  0  0  0  0  0  0  0  0  0
   15.8579   35.6716   35.9443 C   0  0  0  0  0  0  0  0  0  0  0  0
   16.7028   34.9584   35.1439 N   0  0  0  0  0  0  0  0  0  0  0  0
   16.0103   35.6383   37.3563 N   0  0  0  0  0  0  0  0  0  0  0  0
    7.6757   44.0634   34.0544 H   0  0  0  0  0  0  0  0  0  0  0  0
   10.2131   45.5900   33.8736 H   0  0  0  0  0  0  0  0  0  0  0  0
    8.6444   46.1559   34.1451 H   0  0  0  0  0  0  0  0  0  0  0  0
    9.9707   44.0641   31.9683 H   0  0  0  0  0  0  0  0  0  0  0  0
    8.4827   43.0818   31.8666 H   0  0  0  0  0  0  0  0  0  0  0  0
    8.5702   46.1485   31.8194 H   0  0  0  0  0  0  0  0  0  0  0  0
    8.5225   45.0976   30.3813 H   0  0  0  0  0  0  0  0  0  0  0  0
    6.3120   45.0724   32.5367 H   0  0  0  0  0  0  0  0  0  0  0  0
    6.3166   44.1803   30.9754 H   0  0  0  0  0  0  0  0  0  0  0  0
    6.2435   46.2936   29.7221 H   0  0  0  0  0  0  0  0  0  0  0  0
    4.9244   46.2719   30.9315 H   0  0  0  0  0  0  0  0  0  0  0  0
    6.3065   47.7080   32.4349 H   0  0  0  0  0  0  0  0  0  0  0  0
    7.6858   49.3988   33.2896 H   0  0  0  0  0  0  0  0  0  0  0  0
    7.8685   51.1079   32.8035 H   0  0  0  0  0  0  0  0  0  0  0  0
    5.7809   51.6946   30.9634 H   0  0  0  0  0  0  0  0  0  0  0  0
    3.3542   52.0898   31.0570 H   0  0  0  0  0  0  0  0  0  0  0  0
    3.0641   49.7207   34.6109 H   0  0  0  0  0  0  0  0  0  0  0  0
    1.9929   51.0807   32.8603 H   0  0  0  0  0  0  0  0  0  0  0  0
   11.2114   41.0421   31.8829 H   0  0  0  0  0  0  0  0  0  0  0  0
    9.7454   40.0168   31.9263 H   0  0  0  0  0  0  0  0  0  0  0  0
   11.6245   39.0449   30.5889 H   0  0  0  0  0  0  0  0  0  0  0  0
   10.7050   37.5581   33.1500 H   0  0  0  0  0  0  0  0  0  0  0  0
   14.1984   37.4426   31.5553 H   0  0  0  0  0  0  0  0  0  0  0  0
   10.0893   37.4057   30.3459 H   0  0  0  0  0  0  0  0  0  0  0  0
   12.1337   35.7754   32.5703 H   0  0  0  0  0  0  0  0  0  0  0  0
   11.7933   35.4394   30.4514 H   0  0  0  0  0  0  0  0  0  0  0  0
   12.4314   38.3973   34.8699 H   0  0  0  0  0  0  0  0  0  0  0  0
   17.2669   34.4142   33.1691 H   0  0  0  0  0  0  0  0  0  0  0  0
   15.3759   36.1865   37.9790 H   0  0  0  0  0  0  0  0  0  0  0  0
   16.7638   35.0599   37.7896 H   0  0  0  0  0  0  0  0  0  0  0  0
  1  2  2  0
  1  3  1  0
  3  4  1  0
  4  5  1  0
  6  1  1  0
  7  6  1  0
  6  8  1  0
  8  9  1  0
  9 10  1  0
 10 11  1  0
 11 12  1  0
 12 13  1  0
 13 14  1  0
 13 15  2  0
 14 16  1  0
 16 17  1  0
 17 18  2  0
 19 17  1  0
 18 20  1  0
 21 19  2  0
 19 22  1  0
 20 23  2  0
 23 21  1  0
 22 24  1  0
 22 25  2  0
  4 26  2  0
  4 27  1  0
 28 27  1  0
 28 29  1  0
 29 30  1  0
 29 31  1  0
 30 32  1  0
 31 33  1  0
 31 34  1  0
 34 32  1  0
 32 35  1  0
 34 36  1  0
 37 35  1  0
 38 35  1  0
 39 37  2  0
 37 40  1  0
 41 38  2  0
 42 39  1  0
 40 43  2  0
 40 41  1  0
 44 42  2  0
 44 43  1  0
 43 45  1  0
  6 46  1  6
  7 47  1  0
  7 48  1  0
  8 49  1  0
  8 50  1  0
  9 51  1  0
  9 52  1  0
 10 53  1  0
 10 54  1  0
 11 55  1  0
 11 56  1  0
 12 57  1  0
 16 58  1  0
 16 59  1  0
 18 60  1  0
 20 61  1  0
 21 62  1  0
 23 63  1  0
 28 64  1  0
 28 65  1  0
 29 66  1  0
 31 67  1  0
 32 68  1  0
 33 69  1  0
 34 70  1  0
 36 71  1  0
 38 72  1  0
 42 73  1  0
 45 74  1  0
 45 75  1  0
M  CHG  3   5  -1  22   1  24  -1
M  END
>  <EmbedRMS>  (152) 
0.0738112904044

$$$$

     RDKit          3D

 75 78  0  0  0  0  0  0  0  0999 V2000
    9.4333   42.9365   34.3462 C   0  0  0  0  0  0  0  0  0  0  0  0
   10.4907   43.0330   35.0319 O   0  0  0  0  0  0  0  0  0  0  0  0
    8.8563   41.7104   34.0296 O   0  0  0  0  0  0  0  0  0  0  0  0
    9.4945   40.2141   34.4680 P   0  0  0  0  0  0  0  0  0  0  0  0
    9.7308   40.1726   36.1291 O   0  0  0  0  0  0  0  0  0  0  0  0
    8.7506   44.1348   33.7741 C   0  0  1  0  0  0  0  0  0  0  0  0
    9.2963   45.3821   34.3133 N   0  0  0  0  0  0  0  0  0  0  0  0
    8.8894   44.0527   32.2358 C   0  0  0  0  0  0  0  0  0  0  0  0
    8.2029   45.1822   31.4614 C   0  0  0  0  0  0  0  0  0  0  0  0
    6.6655   45.1044   31.4854 C   0  0  0  0  0  0  0  0  0  0  0  0
    6.0273   46.3226   30.8106 C   0  0  0  0  0  0  0  0  0  0  0  0
    6.5070   47.5638   31.4182 N   0  0  0  0  0  0  0  0  0  0  0  0
    7.2428   48.5397   30.6833 C   0  0  0  0  0  0  0  0  0  0  0  0
    7.5892   49.7420   31.3050 O   0  0  0  0  0  0  0  0  0  0  0  0
    7.5929   48.3121   29.4935 O   0  0  0  0  0  0  0  0  0  0  0  0
    8.3152   50.7716   30.6403 C   0  0  0  0  0  0  0  0  0  0  0  0
    8.5035   51.9443   31.5701 C   0  0  0  0  0  0  0  0  0  0  0  0
    9.8126   52.3772   31.8532 C   0  0  0  0  0  0  0  0  0  0  0  0
    7.4072   52.5953   32.1988 C   0  0  0  0  0  0  0  0  0  0  0  0
   10.0400   53.4248   32.7463 C   0  0  0  0  0  0  0  0  0  0  0  0
    7.6613   53.6394   33.1076 C   0  0  0  0  0  0  0  0  0  0  0  0
    6.0442   52.2039   31.9494 N   0  0  0  0  0  0  0  0  0  0  0  0
    8.9670   54.0520   33.3750 C   0  0  0  0  0  0  0  0  0  0  0  0
    5.6274   51.8725   30.6814 O   0  0  0  0  0  0  0  0  0  0  0  0
    5.1876   52.3147   32.8508 O   0  0  0  0  0  0  0  0  0  0  0  0
    8.5373   39.1386   34.0124 O   0  0  0  0  0  0  0  0  0  0  0  0
   10.9805   40.0880   33.6837 O   0  0  0  0  0  0  0  0  0  0  0  0
   10.8026   40.0900   32.2839 C   0  0  0  0  0  0  0  0  0  0  0  0
   11.5889   38.9174   31.7008 C   0  0  0  0  0  0  0  0  0  0  0  0
   12.9220   38.9373   32.1692 O   0  0  0  0  0  0  0  0  0  0  0  0
   11.0028   37.5682   32.0980 C   0  0  0  0  0  0  0  0  0  0  0  0
   13.3496   37.5885   32.2601 C   0  0  0  0  0  0  0  0  0  0  0  0
    9.9344   37.1823   31.2755 O   0  0  0  0  0  0  0  0  0  0  0  0
   12.1891   36.6677   31.9049 C   0  0  0  0  0  0  0  0  0  0  0  0
   13.8025   37.2965   33.6186 N   0  0  0  0  0  0  0  0  0  0  0  0
   12.2990   36.2867   30.5568 O   0  0  0  0  0  0  0  0  0  0  0  0
   14.7929   36.4725   33.9858 C   0  0  0  0  0  0  0  0  0  0  0  0
   13.2749   37.7295   34.7935 C   0  0  0  0  0  0  0  0  0  0  0  0
   15.6240   35.7579   33.1858 N   0  0  0  0  0  0  0  0  0  0  0  0
   14.8727   36.4411   35.3327 C   0  0  0  0  0  0  0  0  0  0  0  0
   13.9208   37.2263   35.8803 N   0  0  0  0  0  0  0  0  0  0  0  0
   16.5871   34.9920   33.7801 C   0  0  0  0  0  0  0  0  0  0  0  0
   15.8576   35.6718   35.9441 C   0  0  0  0  0  0  0  0  0  0  0  0
   16.7024   34.9584   35.1438 N   0  0  0  0  0  0  0  0  0  0  0  0
   16.0099   35.6384   37.3562 N   0  0  0  0  0  0  0  0  0  0  0  0
    7.6770   44.0706   34.0504 H   0  0  0  0  0  0  0  0  0  0  0  0
    9.1828   45.3821   35.3535 H   0  0  0  0  0  0  0  0  0  0  0  0
   10.3192   45.4406   34.1000 H   0  0  0  0  0  0  0  0  0  0  0  0
    9.9713   44.0681   31.9740 H   0  0  0  0  0  0  0  0  0  0  0  0
    8.4817   43.0851   31.8669 H   0  0  0  0  0  0  0  0  0  0  0  0
    8.5555   46.1509   31.8740 H   0  0  0  0  0  0  0  0  0  0  0  0
    8.5385   45.1359   30.4022 H   0  0  0  0  0  0  0  0  0  0  0  0
    6.3020   45.0639   32.5332 H   0  0  0  0  0  0  0  0  0  0  0  0
    6.3298   44.1800   30.9674 H   0  0  0  0  0  0  0  0  0  0  0  0
    6.2466   46.2898   29.7218 H   0  0  0  0  0  0  0  0  0  0  0  0
    4.9238   46.2675   30.9267 H   0  0  0  0  0  0  0  0  0  0  0  0
    6.2825   47.7531   32.4210 H   0  0  0  0  0  0  0  0  0  0  0  0
    9.2954   50.3636   30.3088 H   0  0  0  0  0  0  0  0  0  0  0  0
    7.7724   51.0996   29.7292 H   0  0  0  0  0  0  0  0  0  0  0  0
   10.6650   51.8981   31.3876 H   0  0  0  0  0  0  0  0  0  0  0  0
   11.0520   53.7465   32.9559 H   0  0  0  0  0  0  0  0  0  0  0  0
    6.8420   54.1469   33.6011 H   0  0  0  0  0  0  0  0  0  0  0  0
    9.1465   54.8618   34.0706 H   0  0  0  0  0  0  0  0  0  0  0  0
   11.2259   41.0356   31.8830 H   0  0  0  0  0  0  0  0  0  0  0  0
    9.7477   40.0331   31.9256 H   0  0  0  0  0  0  0  0  0  0  0  0
   11.5975   39.0149   30.5905 H   0  0  0  0  0  0  0  0  0  0  0  0
   10.7022   37.5455   33.1719 H   0  0  0  0  0  0  0  0  0  0  0  0
   14.1957   37.4366   31.5528 H   0  0  0  0  0  0  0  0  0  0  0  0
    9.1339   37.6658   31.6068 H   0  0  0  0  0  0  0  0  0  0  0  0
   12.1380   35.7717   32.5697 H   0  0  0  0  0  0  0  0  0  0  0  0
   11.7707   35.4529   30.4497 H   0  0  0  0  0  0  0  0  0  0  0  0
   12.4316   38.3982   34.8694 H   0  0  0  0  0  0  0  0  0  0  0  0
   17.2665   34.4139   33.1692 H   0  0  0  0  0  0  0  0  0  0  0  0
   16.7633   35.0598   37.7896 H   0  0  0  0  0  0  0  0  0  0  0  0
   15.3756   36.1868   37.9788 H   0  0  0  0  0  0  0  0  0  0  0  0
  1  2  2  0
  1  3  1  0
  3  4  1  0
  4  5  1  0
  6  1  1  0
  7  6  1  0
  6  8  1  0
  8  9  1  0
  9 10  1  0
 10 11  1  0
 11 12  1  0
 12 13  1  0
 13 14  1  0
 13 15  2  0
 14 16  1  0
 16 17  1  0
 17 18  2  0
 19 17  1  0
 18 20  1  0
 21 19  2  0
 19 22  1  0
 20 23  2  0
 23 21  1  0
 22 24  1  0
 22 25  2  0
  4 26  2  0
  4 27  1  0
 28 27  1  0
 28 29  1  0
 29 30  1  0
 29 31  1  0
 30 32  1  0
 31 33  1  0
 31 34  1  0
 34 32  1  0
 32 35  1  0
 34 36  1  0
 37 35  1  0
 38 35  1  0
 39 37  2  0
 37 40  1  0
 41 38  2  0
 42 39  1  0
 40 43  2  0
 40 41  1  0
 44 42  2  0
 44 43  1  0
 43 45  1  0
  6 46  1  6
  7 47  1  0
  7 48  1  0
  8 49  1  0
  8 50  1  0
  9 51  1  0
  9 52  1  0
 10 53  1  0
 10 54  1  0
 11 55  1  0
 11 56  1  0
 12 57  1  0
 16 58  1  0
 16 59  1  0
 18 60  1  0
 20 61  1  0
 21 62  1  0
 23 63  1  0
 28 64  1  0
 28 65  1  0
 29 66  1  0
 31 67  1  0
 32 68  1  0
 33 69  1  0
 34 70  1  0
 36 71  1  0
 38 72  1  0
 42 73  1  0
 45 74  1  0
 45 75  1  0
M  CHG  3   5  -1  22   1  24  -1
M  END
>  <EmbedRMS>  (153) 
0.0741900265682

$$$$

     RDKit          3D

 75 78  0  0  0  0  0  0  0  0999 V2000
    9.4303   42.9395   34.3427 C   0  0  0  0  0  0  0  0  0  0  0  0
   10.4914   43.0381   35.0230 O   0  0  0  0  0  0  0  0  0  0  0  0
    8.8551   41.7116   34.0278 O   0  0  0  0  0  0  0  0  0  0  0  0
    9.4941   40.2154   34.4673 P   0  0  0  0  0  0  0  0  0  0  0  0
    9.7309   40.1740   36.1285 O   0  0  0  0  0  0  0  0  0  0  0  0
    8.7413   44.1378   33.7782 C   0  0  1  0  0  0  0  0  0  0  0  0
    9.3002   45.3720   34.3329 N   0  0  0  0  0  0  0  0  0  0  0  0
    8.8970   44.0614   32.2395 C   0  0  0  0  0  0  0  0  0  0  0  0
    8.2029   45.1720   31.4411 C   0  0  0  0  0  0  0  0  0  0  0  0
    6.6653   45.1076   31.4910 C   0  0  0  0  0  0  0  0  0  0  0  0
    6.0250   46.3220   30.8108 C   0  0  0  0  0  0  0  0  0  0  0  0
    6.5005   47.5656   31.4166 N   0  0  0  0  0  0  0  0  0  0  0  0
    7.2578   48.5300   30.6889 C   0  0  0  0  0  0  0  0  0  0  0  0
    7.6722   49.6990   31.3353 O   0  0  0  0  0  0  0  0  0  0  0  0
    7.5882   48.3107   29.4920 O   0  0  0  0  0  0  0  0  0  0  0  0
    8.5825   50.6307   30.7538 C   0  0  0  0  0  0  0  0  0  0  0  0
    9.9569   50.0158   30.6124 C   0  0  0  0  0  0  0  0  0  0  0  0
   10.5497   49.9826   29.3366 C   0  0  0  0  0  0  0  0  0  0  0  0
   10.6369   49.4185   31.7089 C   0  0  0  0  0  0  0  0  0  0  0  0
   11.7831   49.3612   29.1393 C   0  0  0  0  0  0  0  0  0  0  0  0
   11.8722   48.7831   31.4830 C   0  0  0  0  0  0  0  0  0  0  0  0
   10.0891   49.4265   33.0405 N   0  0  0  0  0  0  0  0  0  0  0  0
   12.4407   48.7584   30.2091 C   0  0  0  0  0  0  0  0  0  0  0  0
    9.4350   50.5346   33.5256 O   0  0  0  0  0  0  0  0  0  0  0  0
   10.3447   48.4913   33.8272 O   0  0  0  0  0  0  0  0  0  0  0  0
    8.5373   39.1390   34.0123 O   0  0  0  0  0  0  0  0  0  0  0  0
   10.9795   40.0876   33.6824 O   0  0  0  0  0  0  0  0  0  0  0  0
   10.7997   40.0900   32.2827 C   0  0  0  0  0  0  0  0  0  0  0  0
   11.5968   38.9274   31.6962 C   0  0  0  0  0  0  0  0  0  0  0  0
   12.9242   38.9426   32.1785 O   0  0  0  0  0  0  0  0  0  0  0  0
   11.0086   37.5713   32.0780 C   0  0  0  0  0  0  0  0  0  0  0  0
   13.3528   37.5929   32.2623 C   0  0  0  0  0  0  0  0  0  0  0  0
    9.9098   37.1771   31.2926 O   0  0  0  0  0  0  0  0  0  0  0  0
   12.1943   36.6683   31.8995 C   0  0  0  0  0  0  0  0  0  0  0  0
   13.8019   37.2950   33.6199 N   0  0  0  0  0  0  0  0  0  0  0  0
   12.3027   36.2773   30.5559 O   0  0  0  0  0  0  0  0  0  0  0  0
   14.7926   36.4715   33.9865 C   0  0  0  0  0  0  0  0  0  0  0  0
   13.2749   37.7287   34.7946 C   0  0  0  0  0  0  0  0  0  0  0  0
   15.6239   35.7577   33.1860 N   0  0  0  0  0  0  0  0  0  0  0  0
   14.8727   36.4403   35.3332 C   0  0  0  0  0  0  0  0  0  0  0  0
   13.9210   37.2257   35.8811 N   0  0  0  0  0  0  0  0  0  0  0  0
   16.5873   34.9921   33.7802 C   0  0  0  0  0  0  0  0  0  0  0  0
   15.8579   35.6714   35.9444 C   0  0  0  0  0  0  0  0  0  0  0  0
   16.7028   34.9583   35.1439 N   0  0  0  0  0  0  0  0  0  0  0  0
   16.0104   35.6382   37.3564 N   0  0  0  0  0  0  0  0  0  0  0  0
    7.6668   44.0643   34.0537 H   0  0  0  0  0  0  0  0  0  0  0  0
    8.6748   46.1647   34.0633 H   0  0  0  0  0  0  0  0  0  0  0  0
    9.2361   45.3255   35.3764 H   0  0  0  0  0  0  0  0  0  0  0  0
    9.9818   44.0944   31.9917 H   0  0  0  0  0  0  0  0  0  0  0  0
    8.5102   43.0862   31.8676 H   0  0  0  0  0  0  0  0  0  0  0  0
    8.5757   46.1546   31.7952 H   0  0  0  0  0  0  0  0  0  0  0  0
    8.5169   45.0814   30.3781 H   0  0  0  0  0  0  0  0  0  0  0  0
    6.3178   45.0852   32.5446 H   0  0  0  0  0  0  0  0  0  0  0  0
    6.3143   44.1785   30.9920 H   0  0  0  0  0  0  0  0  0  0  0  0
    4.9216   46.2647   30.9258 H   0  0  0  0  0  0  0  0  0  0  0  0
    6.2460   46.2868   29.7224 H   0  0  0  0  0  0  0  0  0  0  0  0
    6.2820   47.7521   32.4212 H   0  0  0  0  0  0  0  0  0  0  0  0
    8.1808   50.9710   29.7741 H   0  0  0  0  0  0  0  0  0  0  0  0
    8.6454   51.5321   31.3965 H   0  0  0  0  0  0  0  0  0  0  0  0
   10.0501   50.4281   28.4851 H   0  0  0  0  0  0  0  0  0  0  0  0
   12.2261   49.3399   28.1519 H   0  0  0  0  0  0  0  0  0  0  0  0
   12.4056   48.3162   32.3014 H   0  0  0  0  0  0  0  0  0  0  0  0
   13.3949   48.2722   30.0521 H   0  0  0  0  0  0  0  0  0  0  0  0
   11.2096   41.0419   31.8824 H   0  0  0  0  0  0  0  0  0  0  0  0
    9.7450   40.0145   31.9260 H   0  0  0  0  0  0  0  0  0  0  0  0
   11.6266   39.0455   30.5888 H   0  0  0  0  0  0  0  0  0  0  0  0
   10.7064   37.5575   33.1485 H   0  0  0  0  0  0  0  0  0  0  0  0
   14.2021   37.4484   31.5574 H   0  0  0  0  0  0  0  0  0  0  0  0
   10.0952   37.3991   30.3433 H   0  0  0  0  0  0  0  0  0  0  0  0
   12.1163   35.7745   32.5634 H   0  0  0  0  0  0  0  0  0  0  0  0
   12.9614   35.5349   30.5312 H   0  0  0  0  0  0  0  0  0  0  0  0
   12.4321   38.3982   34.8705 H   0  0  0  0  0  0  0  0  0  0  0  0
   17.2669   34.4144   33.1690 H   0  0  0  0  0  0  0  0  0  0  0  0
   16.7641   35.0599   37.7896 H   0  0  0  0  0  0  0  0  0  0  0  0
   15.3761   36.1862   37.9792 H   0  0  0  0  0  0  0  0  0  0  0  0
  1  2  2  0
  1  3  1  0
  3  4  1  0
  4  5  1  0
  6  1  1  0
  7  6  1  0
  6  8  1  0
  8  9  1  0
  9 10  1  0
 10 11  1  0
 11 12  1  0
 12 13  1  0
 13 14  1  0
 13 15  2  0
 14 16  1  0
 16 17  1  0
 17 18  2  0
 19 17  1  0
 18 20  1  0
 21 19  2  0
 19 22  1  0
 20 23  2  0
 23 21  1  0
 22 24  1  0
 22 25  2  0
  4 26  2  0
  4 27  1  0
 28 27  1  0
 28 29  1  0
 29 30  1  0
 29 31  1  0
 30 32  1  0
 31 33  1  0
 31 34  1  0
 34 32  1  0
 32 35  1  0
 34 36  1  0
 37 35  1  0
 38 35  1  0
 39 37  2  0
 37 40  1  0
 41 38  2  0
 42 39  1  0
 40 43  2  0
 40 41  1  0
 44 42  2  0
 44 43  1  0
 43 45  1  0
  6 46  1  6
  7 47  1  0
  7 48  1  0
  8 49  1  0
  8 50  1  0
  9 51  1  0
  9 52  1  0
 10 53  1  0
 10 54  1  0
 11 55  1  0
 11 56  1  0
 12 57  1  0
 16 58  1  0
 16 59  1  0
 18 60  1  0
 20 61  1  0
 21 62  1  0
 23 63  1  0
 28 64  1  0
 28 65  1  0
 29 66  1  0
 31 67  1  0
 32 68  1  0
 33 69  1  0
 34 70  1  0
 36 71  1  0
 38 72  1  0
 42 73  1  0
 45 74  1  0
 45 75  1  0
M  CHG  3   5  -1  22   1  24  -1
M  END
>  <EmbedRMS>  (154) 
0.0743338320548

$$$$

     RDKit          3D

 75 78  0  0  0  0  0  0  0  0999 V2000
    9.4332   42.9367   34.3461 C   0  0  0  0  0  0  0  0  0  0  0  0
   10.4907   43.0331   35.0317 O   0  0  0  0  0  0  0  0  0  0  0  0
    8.8559   41.7105   34.0299 O   0  0  0  0  0  0  0  0  0  0  0  0
    9.4944   40.2142   34.4677 P   0  0  0  0  0  0  0  0  0  0  0  0
    9.7317   40.1724   36.1287 O   0  0  0  0  0  0  0  0  0  0  0  0
    8.7506   44.1352   33.7741 C   0  0  1  0  0  0  0  0  0  0  0  0
    9.2964   45.3824   34.3133 N   0  0  0  0  0  0  0  0  0  0  0  0
    8.8892   44.0533   32.2358 C   0  0  0  0  0  0  0  0  0  0  0  0
    8.2026   45.1831   31.4617 C   0  0  0  0  0  0  0  0  0  0  0  0
    6.6651   45.1047   31.4852 C   0  0  0  0  0  0  0  0  0  0  0  0
    6.0260   46.3222   30.8094 C   0  0  0  0  0  0  0  0  0  0  0  0
    6.5037   47.5640   31.4171 N   0  0  0  0  0  0  0  0  0  0  0  0
    7.2498   48.5353   30.6865 C   0  0  0  0  0  0  0  0  0  0  0  0
    7.6295   49.7201   31.3218 O   0  0  0  0  0  0  0  0  0  0  0  0
    7.5910   48.3129   29.4932 O   0  0  0  0  0  0  0  0  0  0  0  0
    8.4252   50.7141   30.6851 C   0  0  0  0  0  0  0  0  0  0  0  0
    8.7226   51.8212   31.6629 C   0  0  0  0  0  0  0  0  0  0  0  0
    7.9708   53.0077   31.5821 C   0  0  0  0  0  0  0  0  0  0  0  0
    9.7496   51.7142   32.6411 C   0  0  0  0  0  0  0  0  0  0  0  0
    8.2355   54.0785   32.4363 C   0  0  0  0  0  0  0  0  0  0  0  0
   10.0087   52.8126   33.4809 C   0  0  0  0  0  0  0  0  0  0  0  0
   10.5496   50.5255   32.7878 N   0  0  0  0  0  0  0  0  0  0  0  0
    9.2553   53.9829   33.3806 C   0  0  0  0  0  0  0  0  0  0  0  0
   11.8362   50.6192   33.2670 O   0  0  0  0  0  0  0  0  0  0  0  0
   10.0467   49.3926   32.6441 O   0  0  0  0  0  0  0  0  0  0  0  0
    8.5372   39.1384   34.0122 O   0  0  0  0  0  0  0  0  0  0  0  0
   10.9795   40.0889   33.6815 O   0  0  0  0  0  0  0  0  0  0  0  0
   10.7982   40.0848   32.2819 C   0  0  0  0  0  0  0  0  0  0  0  0
   11.5886   38.9142   31.7009 C   0  0  0  0  0  0  0  0  0  0  0  0
   12.9214   38.9367   32.1698 O   0  0  0  0  0  0  0  0  0  0  0  0
   11.0047   37.5660   32.0990 C   0  0  0  0  0  0  0  0  0  0  0  0
   13.3511   37.5885   32.2601 C   0  0  0  0  0  0  0  0  0  0  0  0
    9.9296   37.1961   31.2780 O   0  0  0  0  0  0  0  0  0  0  0  0
   12.1923   36.6659   31.9047 C   0  0  0  0  0  0  0  0  0  0  0  0
   13.8033   37.2966   33.6188 N   0  0  0  0  0  0  0  0  0  0  0  0
   12.3007   36.2864   30.5561 O   0  0  0  0  0  0  0  0  0  0  0  0
   14.7933   36.4724   33.9860 C   0  0  0  0  0  0  0  0  0  0  0  0
   13.2753   37.7296   34.7935 C   0  0  0  0  0  0  0  0  0  0  0  0
   15.6243   35.7579   33.1860 N   0  0  0  0  0  0  0  0  0  0  0  0
   14.8728   36.4410   35.3328 C   0  0  0  0  0  0  0  0  0  0  0  0
   13.9209   37.2263   35.8804 N   0  0  0  0  0  0  0  0  0  0  0  0
   16.5873   34.9919   33.7803 C   0  0  0  0  0  0  0  0  0  0  0  0
   15.8577   35.6717   35.9443 C   0  0  0  0  0  0  0  0  0  0  0  0
   16.7025   34.9583   35.1440 N   0  0  0  0  0  0  0  0  0  0  0  0
   16.0100   35.6384   37.3563 N   0  0  0  0  0  0  0  0  0  0  0  0
    7.6770   44.0711   34.0503 H   0  0  0  0  0  0  0  0  0  0  0  0
   10.3191   45.4415   34.0992 H   0  0  0  0  0  0  0  0  0  0  0  0
    9.1834   45.3822   35.3535 H   0  0  0  0  0  0  0  0  0  0  0  0
    8.4817   43.0857   31.8666 H   0  0  0  0  0  0  0  0  0  0  0  0
    9.9710   44.0689   31.9739 H   0  0  0  0  0  0  0  0  0  0  0  0
    8.5544   46.1518   31.8751 H   0  0  0  0  0  0  0  0  0  0  0  0
    8.5386   45.1378   30.4026 H   0  0  0  0  0  0  0  0  0  0  0  0
    6.3014   45.0646   32.5329 H   0  0  0  0  0  0  0  0  0  0  0  0
    6.3300   44.1798   30.9677 H   0  0  0  0  0  0  0  0  0  0  0  0
    4.9225   46.2659   30.9245 H   0  0  0  0  0  0  0  0  0  0  0  0
    6.2465   46.2895   29.7208 H   0  0  0  0  0  0  0  0  0  0  0  0
    6.2817   47.7511   32.4209 H   0  0  0  0  0  0  0  0  0  0  0  0
    7.8741   51.1070   29.8023 H   0  0  0  0  0  0  0  0  0  0  0  0
    9.3734   50.2732   30.3083 H   0  0  0  0  0  0  0  0  0  0  0  0
    7.1782   53.1080   30.8506 H   0  0  0  0  0  0  0  0  0  0  0  0
    7.6512   54.9866   32.3624 H   0  0  0  0  0  0  0  0  0  0  0  0
   10.7885   52.7575   34.2299 H   0  0  0  0  0  0  0  0  0  0  0  0
    9.4610   54.8166   34.0396 H   0  0  0  0  0  0  0  0  0  0  0  0
    9.7427   40.0140   31.9266 H   0  0  0  0  0  0  0  0  0  0  0  0
   11.2131   41.0320   31.8757 H   0  0  0  0  0  0  0  0  0  0  0  0
   11.5980   39.0108   30.5904 H   0  0  0  0  0  0  0  0  0  0  0  0
   10.7009   37.5602   33.1721 H   0  0  0  0  0  0  0  0  0  0  0  0
   14.1977   37.4380   31.5532 H   0  0  0  0  0  0  0  0  0  0  0  0
    9.5180   36.3961   31.6977 H   0  0  0  0  0  0  0  0  0  0  0  0
   12.1419   35.7697   32.5692 H   0  0  0  0  0  0  0  0  0  0  0  0
   11.7730   35.4523   30.4488 H   0  0  0  0  0  0  0  0  0  0  0  0
   12.4321   38.3984   34.8692 H   0  0  0  0  0  0  0  0  0  0  0  0
   17.2667   34.4138   33.1694 H   0  0  0  0  0  0  0  0  0  0  0  0
   15.3757   36.1867   37.9790 H   0  0  0  0  0  0  0  0  0  0  0  0
   16.7634   35.0598   37.7897 H   0  0  0  0  0  0  0  0  0  0  0  0
  1  2  2  0
  1  3  1  0
  3  4  1  0
  4  5  1  0
  6  1  1  0
  7  6  1  0
  6  8  1  0
  8  9  1  0
  9 10  1  0
 10 11  1  0
 11 12  1  0
 12 13  1  0
 13 14  1  0
 13 15  2  0
 14 16  1  0
 16 17  1  0
 17 18  2  0
 19 17  1  0
 18 20  1  0
 21 19  2  0
 19 22  1  0
 20 23  2  0
 23 21  1  0
 22 24  1  0
 22 25  2  0
  4 26  2  0
  4 27  1  0
 28 27  1  0
 28 29  1  0
 29 30  1  0
 29 31  1  0
 30 32  1  0
 31 33  1  0
 31 34  1  0
 34 32  1  0
 32 35  1  0
 34 36  1  0
 37 35  1  0
 38 35  1  0
 39 37  2  0
 37 40  1  0
 41 38  2  0
 42 39  1  0
 40 43  2  0
 40 41  1  0
 44 42  2  0
 44 43  1  0
 43 45  1  0
  6 46  1  6
  7 47  1  0
  7 48  1  0
  8 49  1  0
  8 50  1  0
  9 51  1  0
  9 52  1  0
 10 53  1  0
 10 54  1  0
 11 55  1  0
 11 56  1  0
 12 57  1  0
 16 58  1  0
 16 59  1  0
 18 60  1  0
 20 61  1  0
 21 62  1  0
 23 63  1  0
 28 64  1  0
 28 65  1  0
 29 66  1  0
 31 67  1  0
 32 68  1  0
 33 69  1  0
 34 70  1  0
 36 71  1  0
 38 72  1  0
 42 73  1  0
 45 74  1  0
 45 75  1  0
M  CHG  3   5  -1  22   1  24  -1
M  END
>  <EmbedRMS>  (155) 
0.0745611185483

$$$$

     RDKit          3D

 75 78  0  0  0  0  0  0  0  0999 V2000
    9.4333   42.9368   34.3460 C   0  0  0  0  0  0  0  0  0  0  0  0
   10.4907   43.0332   35.0318 O   0  0  0  0  0  0  0  0  0  0  0  0
    8.8563   41.7106   34.0294 O   0  0  0  0  0  0  0  0  0  0  0  0
    9.4942   40.2141   34.4678 P   0  0  0  0  0  0  0  0  0  0  0  0
    9.7310   40.1725   36.1289 O   0  0  0  0  0  0  0  0  0  0  0  0
    8.7507   44.1353   33.7741 C   0  0  1  0  0  0  0  0  0  0  0  0
    9.2964   45.3826   34.3133 N   0  0  0  0  0  0  0  0  0  0  0  0
    8.8892   44.0535   32.2358 C   0  0  0  0  0  0  0  0  0  0  0  0
    8.2024   45.1834   31.4619 C   0  0  0  0  0  0  0  0  0  0  0  0
    6.6649   45.1047   31.4850 C   0  0  0  0  0  0  0  0  0  0  0  0
    6.0256   46.3219   30.8088 C   0  0  0  0  0  0  0  0  0  0  0  0
    6.5026   47.5638   31.4167 N   0  0  0  0  0  0  0  0  0  0  0  0
    7.2539   48.5327   30.6884 C   0  0  0  0  0  0  0  0  0  0  0  0
    7.6520   49.7069   31.3316 O   0  0  0  0  0  0  0  0  0  0  0  0
    7.5889   48.3143   29.4926 O   0  0  0  0  0  0  0  0  0  0  0  0
    8.4642   50.6937   30.7034 C   0  0  0  0  0  0  0  0  0  0  0  0
    8.8340   51.7578   31.7064 C   0  0  0  0  0  0  0  0  0  0  0  0
    8.4713   53.0912   31.4394 C   0  0  0  0  0  0  0  0  0  0  0  0
    9.4982   51.4504   32.9269 C   0  0  0  0  0  0  0  0  0  0  0  0
    8.7466   54.1029   32.3599 C   0  0  0  0  0  0  0  0  0  0  0  0
    9.7509   52.4846   33.8461 C   0  0  0  0  0  0  0  0  0  0  0  0
    9.9001   50.1094   33.2658 N   0  0  0  0  0  0  0  0  0  0  0  0
    9.3816   53.7998   33.5621 C   0  0  0  0  0  0  0  0  0  0  0  0
    9.9627   49.7245   34.5855 O   0  0  0  0  0  0  0  0  0  0  0  0
   10.3455   49.3342   32.3953 O   0  0  0  0  0  0  0  0  0  0  0  0
    8.5370   39.1384   34.0122 O   0  0  0  0  0  0  0  0  0  0  0  0
   10.9795   40.0869   33.6827 O   0  0  0  0  0  0  0  0  0  0  0  0
   10.7997   40.0898   32.2830 C   0  0  0  0  0  0  0  0  0  0  0  0
   11.5968   38.9274   31.6962 C   0  0  0  0  0  0  0  0  0  0  0  0
   12.9242   38.9425   32.1784 O   0  0  0  0  0  0  0  0  0  0  0  0
   11.0086   37.5713   32.0780 C   0  0  0  0  0  0  0  0  0  0  0  0
   13.3528   37.5929   32.2623 C   0  0  0  0  0  0  0  0  0  0  0  0
    9.9098   37.1770   31.2925 O   0  0  0  0  0  0  0  0  0  0  0  0
   12.1943   36.6683   31.8995 C   0  0  0  0  0  0  0  0  0  0  0  0
   13.8019   37.2950   33.6199 N   0  0  0  0  0  0  0  0  0  0  0  0
   12.3027   36.2773   30.5558 O   0  0  0  0  0  0  0  0  0  0  0  0
   14.7926   36.4715   33.9865 C   0  0  0  0  0  0  0  0  0  0  0  0
   13.2749   37.7286   34.7946 C   0  0  0  0  0  0  0  0  0  0  0  0
   15.6239   35.7577   33.1860 N   0  0  0  0  0  0  0  0  0  0  0  0
   14.8727   36.4403   35.3332 C   0  0  0  0  0  0  0  0  0  0  0  0
   13.9210   37.2257   35.8811 N   0  0  0  0  0  0  0  0  0  0  0  0
   16.5873   34.9921   33.7802 C   0  0  0  0  0  0  0  0  0  0  0  0
   15.8579   35.6714   35.9444 C   0  0  0  0  0  0  0  0  0  0  0  0
   16.7028   34.9583   35.1439 N   0  0  0  0  0  0  0  0  0  0  0  0
   16.0104   35.6381   37.3564 N   0  0  0  0  0  0  0  0  0  0  0  0
    7.6771   44.0712   34.0503 H   0  0  0  0  0  0  0  0  0  0  0  0
    9.1835   45.3825   35.3535 H   0  0  0  0  0  0  0  0  0  0  0  0
   10.3190   45.4420   34.0991 H   0  0  0  0  0  0  0  0  0  0  0  0
    9.9710   44.0693   31.9738 H   0  0  0  0  0  0  0  0  0  0  0  0
    8.4817   43.0859   31.8666 H   0  0  0  0  0  0  0  0  0  0  0  0
    8.5387   45.1385   30.4028 H   0  0  0  0  0  0  0  0  0  0  0  0
    8.5540   46.1521   31.8756 H   0  0  0  0  0  0  0  0  0  0  0  0
    6.3302   44.1796   30.9675 H   0  0  0  0  0  0  0  0  0  0  0  0
    6.3010   45.0645   32.5326 H   0  0  0  0  0  0  0  0  0  0  0  0
    6.2467   46.2893   29.7203 H   0  0  0  0  0  0  0  0  0  0  0  0
    4.9221   46.2653   30.9233 H   0  0  0  0  0  0  0  0  0  0  0  0
    6.2820   47.7497   32.4209 H   0  0  0  0  0  0  0  0  0  0  0  0
    9.3880   50.2324   30.2947 H   0  0  0  0  0  0  0  0  0  0  0  0
    7.9046   51.1256   29.8449 H   0  0  0  0  0  0  0  0  0  0  0  0
    7.9651   53.3514   30.5179 H   0  0  0  0  0  0  0  0  0  0  0  0
    8.4609   55.1241   32.1426 H   0  0  0  0  0  0  0  0  0  0  0  0
   10.2511   52.2743   34.7829 H   0  0  0  0  0  0  0  0  0  0  0  0
    9.5901   54.5861   34.2760 H   0  0  0  0  0  0  0  0  0  0  0  0
    9.7449   40.0145   31.9263 H   0  0  0  0  0  0  0  0  0  0  0  0
   11.2096   41.0418   31.8829 H   0  0  0  0  0  0  0  0  0  0  0  0
   11.6265   39.0456   30.5888 H   0  0  0  0  0  0  0  0  0  0  0  0
   10.7064   37.5574   33.1484 H   0  0  0  0  0  0  0  0  0  0  0  0
   14.2021   37.4484   31.5573 H   0  0  0  0  0  0  0  0  0  0  0  0
   10.0952   37.3990   30.3433 H   0  0  0  0  0  0  0  0  0  0  0  0
   12.1163   35.7745   32.5633 H   0  0  0  0  0  0  0  0  0  0  0  0
   12.9615   35.5349   30.5312 H   0  0  0  0  0  0  0  0  0  0  0  0
   12.4321   38.3982   34.8705 H   0  0  0  0  0  0  0  0  0  0  0  0
   17.2669   34.4143   33.1690 H   0  0  0  0  0  0  0  0  0  0  0  0
   16.7641   35.0598   37.7896 H   0  0  0  0  0  0  0  0  0  0  0  0
   15.3761   36.1862   37.9792 H   0  0  0  0  0  0  0  0  0  0  0  0
  1  2  2  0
  1  3  1  0
  3  4  1  0
  4  5  1  0
  6  1  1  0
  7  6  1  0
  6  8  1  0
  8  9  1  0
  9 10  1  0
 10 11  1  0
 11 12  1  0
 12 13  1  0
 13 14  1  0
 13 15  2  0
 14 16  1  0
 16 17  1  0
 17 18  2  0
 19 17  1  0
 18 20  1  0
 21 19  2  0
 19 22  1  0
 20 23  2  0
 23 21  1  0
 22 24  1  0
 22 25  2  0
  4 26  2  0
  4 27  1  0
 28 27  1  0
 28 29  1  0
 29 30  1  0
 29 31  1  0
 30 32  1  0
 31 33  1  0
 31 34  1  0
 34 32  1  0
 32 35  1  0
 34 36  1  0
 37 35  1  0
 38 35  1  0
 39 37  2  0
 37 40  1  0
 41 38  2  0
 42 39  1  0
 40 43  2  0
 40 41  1  0
 44 42  2  0
 44 43  1  0
 43 45  1  0
  6 46  1  6
  7 47  1  0
  7 48  1  0
  8 49  1  0
  8 50  1  0
  9 51  1  0
  9 52  1  0
 10 53  1  0
 10 54  1  0
 11 55  1  0
 11 56  1  0
 12 57  1  0
 16 58  1  0
 16 59  1  0
 18 60  1  0
 20 61  1  0
 21 62  1  0
 23 63  1  0
 28 64  1  0
 28 65  1  0
 29 66  1  0
 31 67  1  0
 32 68  1  0
 33 69  1  0
 34 70  1  0
 36 71  1  0
 38 72  1  0
 42 73  1  0
 45 74  1  0
 45 75  1  0
M  CHG  3   5  -1  22   1  24  -1
M  END
>  <EmbedRMS>  (156) 
0.0748592908848

$$$$

     RDKit          3D

 75 78  0  0  0  0  0  0  0  0999 V2000
    9.4333   42.9364   34.3461 C   0  0  0  0  0  0  0  0  0  0  0  0
   10.4907   43.0329   35.0319 O   0  0  0  0  0  0  0  0  0  0  0  0
    8.8563   41.7103   34.0295 O   0  0  0  0  0  0  0  0  0  0  0  0
    9.4943   40.2139   34.4679 P   0  0  0  0  0  0  0  0  0  0  0  0
    9.7310   40.1724   36.1290 O   0  0  0  0  0  0  0  0  0  0  0  0
    8.7506   44.1348   33.7741 C   0  0  1  0  0  0  0  0  0  0  0  0
    9.2963   45.3820   34.3133 N   0  0  0  0  0  0  0  0  0  0  0  0
    8.8893   44.0528   32.2358 C   0  0  0  0  0  0  0  0  0  0  0  0
    8.2028   45.1824   31.4615 C   0  0  0  0  0  0  0  0  0  0  0  0
    6.6653   45.1046   31.4855 C   0  0  0  0  0  0  0  0  0  0  0  0
    6.0270   46.3226   30.8105 C   0  0  0  0  0  0  0  0  0  0  0  0
    6.5063   47.5640   31.4180 N   0  0  0  0  0  0  0  0  0  0  0  0
    7.2436   48.5392   30.6835 C   0  0  0  0  0  0  0  0  0  0  0  0
    7.5927   49.7404   31.3060 O   0  0  0  0  0  0  0  0  0  0  0  0
    7.5934   48.3117   29.4937 O   0  0  0  0  0  0  0  0  0  0  0  0
    8.3387   50.7591   30.6483 C   0  0  0  0  0  0  0  0  0  0  0  0
    8.5379   51.9204   31.5868 C   0  0  0  0  0  0  0  0  0  0  0  0
    9.7482   52.0077   32.2985 C   0  0  0  0  0  0  0  0  0  0  0  0
    7.5586   52.9358   31.7538 C   0  0  0  0  0  0  0  0  0  0  0  0
   10.0005   53.0880   33.1448 C   0  0  0  0  0  0  0  0  0  0  0  0
    7.8406   54.0244   32.6002 C   0  0  0  0  0  0  0  0  0  0  0  0
    6.2907   52.8886   31.0735 N   0  0  0  0  0  0  0  0  0  0  0  0
    9.0509   54.0971   33.2911 C   0  0  0  0  0  0  0  0  0  0  0  0
    5.6142   51.6996   30.9304 O   0  0  0  0  0  0  0  0  0  0  0  0
    5.7130   53.9481   30.7533 O   0  0  0  0  0  0  0  0  0  0  0  0
    8.5372   39.1382   34.0121 O   0  0  0  0  0  0  0  0  0  0  0  0
   10.9798   40.0870   33.6829 O   0  0  0  0  0  0  0  0  0  0  0  0
   10.8002   40.0905   32.2832 C   0  0  0  0  0  0  0  0  0  0  0  0
   11.5958   38.9271   31.6963 C   0  0  0  0  0  0  0  0  0  0  0  0
   12.9239   38.9409   32.1766 O   0  0  0  0  0  0  0  0  0  0  0  0
   11.0062   37.5719   32.0793 C   0  0  0  0  0  0  0  0  0  0  0  0
   13.3507   37.5905   32.2614 C   0  0  0  0  0  0  0  0  0  0  0  0
    9.9064   37.1792   31.2946 O   0  0  0  0  0  0  0  0  0  0  0  0
   12.1920   36.6671   31.9003 C   0  0  0  0  0  0  0  0  0  0  0  0
   13.8017   37.2948   33.6193 N   0  0  0  0  0  0  0  0  0  0  0  0
   12.3134   36.2788   30.5560 O   0  0  0  0  0  0  0  0  0  0  0  0
   14.7927   36.4716   33.9862 C   0  0  0  0  0  0  0  0  0  0  0  0
   13.2746   37.7284   34.7941 C   0  0  0  0  0  0  0  0  0  0  0  0
   15.6240   35.7576   33.1859 N   0  0  0  0  0  0  0  0  0  0  0  0
   14.8728   36.4406   35.3330 C   0  0  0  0  0  0  0  0  0  0  0  0
   13.9209   37.2258   35.8808 N   0  0  0  0  0  0  0  0  0  0  0  0
   16.5874   34.9920   33.7802 C   0  0  0  0  0  0  0  0  0  0  0  0
   15.8579   35.6716   35.9443 C   0  0  0  0  0  0  0  0  0  0  0  0
   16.7028   34.9584   35.1439 N   0  0  0  0  0  0  0  0  0  0  0  0
   16.0103   35.6383   37.3563 N   0  0  0  0  0  0  0  0  0  0  0  0
    7.6771   44.0706   34.0504 H   0  0  0  0  0  0  0  0  0  0  0  0
   10.3192   45.4407   34.1000 H   0  0  0  0  0  0  0  0  0  0  0  0
    9.1827   45.3820   35.3535 H   0  0  0  0  0  0  0  0  0  0  0  0
    8.4817   43.0851   31.8668 H   0  0  0  0  0  0  0  0  0  0  0  0
    9.9711   44.0682   31.9739 H   0  0  0  0  0  0  0  0  0  0  0  0
    8.5384   45.1364   30.4023 H   0  0  0  0  0  0  0  0  0  0  0  0
    8.5552   46.1510   31.8743 H   0  0  0  0  0  0  0  0  0  0  0  0
    6.3020   45.0643   32.5334 H   0  0  0  0  0  0  0  0  0  0  0  0
    6.3297   44.1800   30.9678 H   0  0  0  0  0  0  0  0  0  0  0  0
    4.9235   46.2673   30.9265 H   0  0  0  0  0  0  0  0  0  0  0  0
    6.2464   46.2898   29.7217 H   0  0  0  0  0  0  0  0  0  0  0  0
    6.2818   47.7532   32.4208 H   0  0  0  0  0  0  0  0  0  0  0  0
    7.8146   51.0919   29.7265 H   0  0  0  0  0  0  0  0  0  0  0  0
    9.3209   50.3440   30.3316 H   0  0  0  0  0  0  0  0  0  0  0  0
   10.5042   51.2390   32.1934 H   0  0  0  0  0  0  0  0  0  0  0  0
   10.9371   53.1451   33.6844 H   0  0  0  0  0  0  0  0  0  0  0  0
    7.1117   54.8128   32.7395 H   0  0  0  0  0  0  0  0  0  0  0  0
    9.2506   54.9359   33.9455 H   0  0  0  0  0  0  0  0  0  0  0  0
    9.7455   40.0168   31.9263 H   0  0  0  0  0  0  0  0  0  0  0  0
   11.2116   41.0420   31.8834 H   0  0  0  0  0  0  0  0  0  0  0  0
   11.6245   39.0449   30.5888 H   0  0  0  0  0  0  0  0  0  0  0  0
   10.7051   37.5579   33.1499 H   0  0  0  0  0  0  0  0  0  0  0  0
   14.1985   37.4426   31.5553 H   0  0  0  0  0  0  0  0  0  0  0  0
   10.0893   37.4056   30.3459 H   0  0  0  0  0  0  0  0  0  0  0  0
   12.1337   35.7754   32.5703 H   0  0  0  0  0  0  0  0  0  0  0  0
   11.7934   35.4394   30.4513 H   0  0  0  0  0  0  0  0  0  0  0  0
   12.4314   38.3972   34.8700 H   0  0  0  0  0  0  0  0  0  0  0  0
   17.2669   34.4142   33.1691 H   0  0  0  0  0  0  0  0  0  0  0  0
   16.7638   35.0599   37.7896 H   0  0  0  0  0  0  0  0  0  0  0  0
   15.3759   36.1864   37.9790 H   0  0  0  0  0  0  0  0  0  0  0  0
  1  2  2  0
  1  3  1  0
  3  4  1  0
  4  5  1  0
  6  1  1  0
  7  6  1  0
  6  8  1  0
  8  9  1  0
  9 10  1  0
 10 11  1  0
 11 12  1  0
 12 13  1  0
 13 14  1  0
 13 15  2  0
 14 16  1  0
 16 17  1  0
 17 18  2  0
 19 17  1  0
 18 20  1  0
 21 19  2  0
 19 22  1  0
 20 23  2  0
 23 21  1  0
 22 24  1  0
 22 25  2  0
  4 26  2  0
  4 27  1  0
 28 27  1  0
 28 29  1  0
 29 30  1  0
 29 31  1  0
 30 32  1  0
 31 33  1  0
 31 34  1  0
 34 32  1  0
 32 35  1  0
 34 36  1  0
 37 35  1  0
 38 35  1  0
 39 37  2  0
 37 40  1  0
 41 38  2  0
 42 39  1  0
 40 43  2  0
 40 41  1  0
 44 42  2  0
 44 43  1  0
 43 45  1  0
  6 46  1  6
  7 47  1  0
  7 48  1  0
  8 49  1  0
  8 50  1  0
  9 51  1  0
  9 52  1  0
 10 53  1  0
 10 54  1  0
 11 55  1  0
 11 56  1  0
 12 57  1  0
 16 58  1  0
 16 59  1  0
 18 60  1  0
 20 61  1  0
 21 62  1  0
 23 63  1  0
 28 64  1  0
 28 65  1  0
 29 66  1  0
 31 67  1  0
 32 68  1  0
 33 69  1  0
 34 70  1  0
 36 71  1  0
 38 72  1  0
 42 73  1  0
 45 74  1  0
 45 75  1  0
M  CHG  3   5  -1  22   1  24  -1
M  END
>  <EmbedRMS>  (157) 
0.0747895686301

$$$$

     RDKit          3D

 75 78  0  0  0  0  0  0  0  0999 V2000
    9.4335   42.9373   34.3456 C   0  0  0  0  0  0  0  0  0  0  0  0
   10.4909   43.0336   35.0314 O   0  0  0  0  0  0  0  0  0  0  0  0
    8.8560   41.7110   34.0299 O   0  0  0  0  0  0  0  0  0  0  0  0
    9.4930   40.2145   34.4702 P   0  0  0  0  0  0  0  0  0  0  0  0
    9.7292   40.1731   36.1311 O   0  0  0  0  0  0  0  0  0  0  0  0
    8.7511   44.1361   33.7736 C   0  0  1  0  0  0  0  0  0  0  0  0
    9.2970   45.3832   34.3130 N   0  0  0  0  0  0  0  0  0  0  0  0
    8.8895   44.0553   32.2352 C   0  0  0  0  0  0  0  0  0  0  0  0
    8.2022   45.1858   31.4620 C   0  0  0  0  0  0  0  0  0  0  0  0
    6.6645   45.1062   31.4851 C   0  0  0  0  0  0  0  0  0  0  0  0
    6.0230   46.3215   30.8068 C   0  0  0  0  0  0  0  0  0  0  0  0
    6.4942   47.5657   31.4144 N   0  0  0  0  0  0  0  0  0  0  0  0
    7.2644   48.5250   30.6936 C   0  0  0  0  0  0  0  0  0  0  0  0
    7.7089   49.6739   31.3551 O   0  0  0  0  0  0  0  0  0  0  0  0
    7.5887   48.3115   29.4945 O   0  0  0  0  0  0  0  0  0  0  0  0
    8.6983   50.5537   30.8235 C   0  0  0  0  0  0  0  0  0  0  0  0
   10.0391   49.8576   30.7441 C   0  0  0  0  0  0  0  0  0  0  0  0
   10.5392   49.2530   31.9123 C   0  0  0  0  0  0  0  0  0  0  0  0
   10.8319   49.8451   29.5670 C   0  0  0  0  0  0  0  0  0  0  0  0
   11.7923   48.6391   31.9181 C   0  0  0  0  0  0  0  0  0  0  0  0
   12.1004   49.2401   29.5983 C   0  0  0  0  0  0  0  0  0  0  0  0
   10.3788   50.4411   28.3427 N   0  0  0  0  0  0  0  0  0  0  0  0
   12.5733   48.6358   30.7640 C   0  0  0  0  0  0  0  0  0  0  0  0
    9.1956   50.0299   27.7751 O   0  0  0  0  0  0  0  0  0  0  0  0
   11.1644   51.1322   27.6621 O   0  0  0  0  0  0  0  0  0  0  0  0
    8.5365   39.1386   34.0135 O   0  0  0  0  0  0  0  0  0  0  0  0
   10.9787   40.0867   33.6873 O   0  0  0  0  0  0  0  0  0  0  0  0
   10.7993   40.0945   32.2885 C   0  0  0  0  0  0  0  0  0  0  0  0
   11.5957   38.9351   31.6994 C   0  0  0  0  0  0  0  0  0  0  0  0
   12.9257   38.9478   32.1798 O   0  0  0  0  0  0  0  0  0  0  0  0
   11.0070   37.5757   32.0732 C   0  0  0  0  0  0  0  0  0  0  0  0
   13.3571   37.5979   32.2612 C   0  0  0  0  0  0  0  0  0  0  0  0
    9.9093   37.1807   31.2875 O   0  0  0  0  0  0  0  0  0  0  0  0
   12.1967   36.6764   31.8894 C   0  0  0  0  0  0  0  0  0  0  0  0
   13.8018   37.2956   33.6197 N   0  0  0  0  0  0  0  0  0  0  0  0
   12.3049   36.2360   30.5555 O   0  0  0  0  0  0  0  0  0  0  0  0
   14.7922   36.4716   33.9864 C   0  0  0  0  0  0  0  0  0  0  0  0
   13.2747   37.7291   34.7944 C   0  0  0  0  0  0  0  0  0  0  0  0
   15.6240   35.7581   33.1861 N   0  0  0  0  0  0  0  0  0  0  0  0
   14.8721   36.4401   35.3331 C   0  0  0  0  0  0  0  0  0  0  0  0
   13.9206   37.2257   35.8810 N   0  0  0  0  0  0  0  0  0  0  0  0
   16.5873   34.9924   33.7802 C   0  0  0  0  0  0  0  0  0  0  0  0
   15.8576   35.6714   35.9444 C   0  0  0  0  0  0  0  0  0  0  0  0
   16.7026   34.9585   35.1439 N   0  0  0  0  0  0  0  0  0  0  0  0
   16.0102   35.6382   37.3564 N   0  0  0  0  0  0  0  0  0  0  0  0
    7.6775   44.0722   34.0498 H   0  0  0  0  0  0  0  0  0  0  0  0
    9.1866   45.3820   35.3535 H   0  0  0  0  0  0  0  0  0  0  0  0
   10.3191   45.4439   34.0962 H   0  0  0  0  0  0  0  0  0  0  0  0
    9.9713   44.0718   31.9732 H   0  0  0  0  0  0  0  0  0  0  0  0
    8.4825   43.0877   31.8655 H   0  0  0  0  0  0  0  0  0  0  0  0
    8.5530   46.1547   31.8760 H   0  0  0  0  0  0  0  0  0  0  0  0
    8.5386   45.1419   30.4029 H   0  0  0  0  0  0  0  0  0  0  0  0
    6.3307   44.1798   30.9693 H   0  0  0  0  0  0  0  0  0  0  0  0
    6.3008   45.0672   32.5329 H   0  0  0  0  0  0  0  0  0  0  0  0
    6.2465   46.2886   29.7188 H   0  0  0  0  0  0  0  0  0  0  0  0
    4.9194   46.2616   30.9185 H   0  0  0  0  0  0  0  0  0  0  0  0
    6.2727   47.7507   32.4186 H   0  0  0  0  0  0  0  0  0  0  0  0
    8.3536   50.9631   29.8546 H   0  0  0  0  0  0  0  0  0  0  0  0
    8.7985   51.4174   31.5139 H   0  0  0  0  0  0  0  0  0  0  0  0
    9.9556   49.2602   32.8250 H   0  0  0  0  0  0  0  0  0  0  0  0
   12.1616   48.1724   32.8222 H   0  0  0  0  0  0  0  0  0  0  0  0
   12.7180   49.2234   28.7089 H   0  0  0  0  0  0  0  0  0  0  0  0
   13.5475   48.1643   30.7720 H   0  0  0  0  0  0  0  0  0  0  0  0
    9.7449   40.0201   31.9303 H   0  0  0  0  0  0  0  0  0  0  0  0
   11.2095   41.0480   31.8921 H   0  0  0  0  0  0  0  0  0  0  0  0
   11.6207   39.0685   30.5942 H   0  0  0  0  0  0  0  0  0  0  0  0
   10.7059   37.5563   33.1438 H   0  0  0  0  0  0  0  0  0  0  0  0
   14.2095   37.4543   31.5601 H   0  0  0  0  0  0  0  0  0  0  0  0
   10.0864   37.4210   30.3413 H   0  0  0  0  0  0  0  0  0  0  0  0
   12.1276   35.7872   32.5549 H   0  0  0  0  0  0  0  0  0  0  0  0
   12.5031   37.0109   29.9672 H   0  0  0  0  0  0  0  0  0  0  0  0
   12.4328   38.3996   34.8703 H   0  0  0  0  0  0  0  0  0  0  0  0
   17.2670   34.4149   33.1691 H   0  0  0  0  0  0  0  0  0  0  0  0
   15.3758   36.1862   37.9791 H   0  0  0  0  0  0  0  0  0  0  0  0
   16.7640   35.0601   37.7896 H   0  0  0  0  0  0  0  0  0  0  0  0
  1  2  2  0
  1  3  1  0
  3  4  1  0
  4  5  1  0
  6  1  1  0
  7  6  1  0
  6  8  1  0
  8  9  1  0
  9 10  1  0
 10 11  1  0
 11 12  1  0
 12 13  1  0
 13 14  1  0
 13 15  2  0
 14 16  1  0
 16 17  1  0
 17 18  2  0
 19 17  1  0
 18 20  1  0
 21 19  2  0
 19 22  1  0
 20 23  2  0
 23 21  1  0
 22 24  1  0
 22 25  2  0
  4 26  2  0
  4 27  1  0
 28 27  1  0
 28 29  1  0
 29 30  1  0
 29 31  1  0
 30 32  1  0
 31 33  1  0
 31 34  1  0
 34 32  1  0
 32 35  1  0
 34 36  1  0
 37 35  1  0
 38 35  1  0
 39 37  2  0
 37 40  1  0
 41 38  2  0
 42 39  1  0
 40 43  2  0
 40 41  1  0
 44 42  2  0
 44 43  1  0
 43 45  1  0
  6 46  1  6
  7 47  1  0
  7 48  1  0
  8 49  1  0
  8 50  1  0
  9 51  1  0
  9 52  1  0
 10 53  1  0
 10 54  1  0
 11 55  1  0
 11 56  1  0
 12 57  1  0
 16 58  1  0
 16 59  1  0
 18 60  1  0
 20 61  1  0
 21 62  1  0
 23 63  1  0
 28 64  1  0
 28 65  1  0
 29 66  1  0
 31 67  1  0
 32 68  1  0
 33 69  1  0
 34 70  1  0
 36 71  1  0
 38 72  1  0
 42 73  1  0
 45 74  1  0
 45 75  1  0
M  CHG  3   5  -1  22   1  24  -1
M  END
>  <EmbedRMS>  (158) 
0.0769115023383

$$$$

     RDKit          3D

 75 78  0  0  0  0  0  0  0  0999 V2000
    9.4335   42.9371   34.3456 C   0  0  0  0  0  0  0  0  0  0  0  0
   10.4908   43.0334   35.0316 O   0  0  0  0  0  0  0  0  0  0  0  0
    8.8563   41.7109   34.0292 O   0  0  0  0  0  0  0  0  0  0  0  0
    9.4943   40.2145   34.4678 P   0  0  0  0  0  0  0  0  0  0  0  0
    9.7308   40.1729   36.1290 O   0  0  0  0  0  0  0  0  0  0  0  0
    8.7509   44.1357   33.7737 C   0  0  1  0  0  0  0  0  0  0  0  0
    9.2966   45.3829   34.3132 N   0  0  0  0  0  0  0  0  0  0  0  0
    8.8895   44.0547   32.2353 C   0  0  0  0  0  0  0  0  0  0  0  0
    8.2024   45.1849   31.4618 C   0  0  0  0  0  0  0  0  0  0  0  0
    6.6648   45.1057   31.4852 C   0  0  0  0  0  0  0  0  0  0  0  0
    6.0242   46.3218   30.8077 C   0  0  0  0  0  0  0  0  0  0  0  0
    6.4977   47.5651   31.4154 N   0  0  0  0  0  0  0  0  0  0  0  0
    7.2593   48.5288   30.6912 C   0  0  0  0  0  0  0  0  0  0  0  0
    7.6736   49.6953   31.3418 O   0  0  0  0  0  0  0  0  0  0  0  0
    7.5891   48.3119   29.4939 O   0  0  0  0  0  0  0  0  0  0  0  0
    8.6268   50.6048   30.7958 C   0  0  0  0  0  0  0  0  0  0  0  0
   10.0056   49.9865   30.7902 C   0  0  0  0  0  0  0  0  0  0  0  0
   10.5300   49.5274   29.5676 C   0  0  0  0  0  0  0  0  0  0  0  0
   10.7958   49.8804   31.9673 C   0  0  0  0  0  0  0  0  0  0  0  0
   11.8066   48.9686   29.5035 C   0  0  0  0  0  0  0  0  0  0  0  0
   12.0862   49.3256   31.8759 C   0  0  0  0  0  0  0  0  0  0  0  0
   10.3295   50.3515   33.2459 N   0  0  0  0  0  0  0  0  0  0  0  0
   12.5835   48.8687   30.6551 C   0  0  0  0  0  0  0  0  0  0  0  0
    9.0250   50.1615   33.6362 O   0  0  0  0  0  0  0  0  0  0  0  0
   11.1436   50.7966   34.0814 O   0  0  0  0  0  0  0  0  0  0  0  0
    8.5370   39.1389   34.0124 O   0  0  0  0  0  0  0  0  0  0  0  0
   10.9802   40.0879   33.6835 O   0  0  0  0  0  0  0  0  0  0  0  0
   10.8020   40.0894   32.2836 C   0  0  0  0  0  0  0  0  0  0  0  0
   11.5900   38.9178   31.7006 C   0  0  0  0  0  0  0  0  0  0  0  0
   12.9224   38.9390   32.1711 O   0  0  0  0  0  0  0  0  0  0  0  0
   11.0052   37.5676   32.0966 C   0  0  0  0  0  0  0  0  0  0  0  0
   13.3518   37.5909   32.2610 C   0  0  0  0  0  0  0  0  0  0  0  0
    9.9381   37.1795   31.2733 O   0  0  0  0  0  0  0  0  0  0  0  0
   12.1912   36.6689   31.9042 C   0  0  0  0  0  0  0  0  0  0  0  0
   13.8027   37.2968   33.6192 N   0  0  0  0  0  0  0  0  0  0  0  0
   12.2877   36.2853   30.5567 O   0  0  0  0  0  0  0  0  0  0  0  0
   14.7928   36.4724   33.9861 C   0  0  0  0  0  0  0  0  0  0  0  0
   13.2751   37.7297   34.7941 C   0  0  0  0  0  0  0  0  0  0  0  0
   15.6239   35.7581   33.1859 N   0  0  0  0  0  0  0  0  0  0  0  0
   14.8726   36.4408   35.3329 C   0  0  0  0  0  0  0  0  0  0  0  0
   13.9209   37.2262   35.8807 N   0  0  0  0  0  0  0  0  0  0  0  0
   16.5870   34.9921   33.7801 C   0  0  0  0  0  0  0  0  0  0  0  0
   15.8576   35.6716   35.9442 C   0  0  0  0  0  0  0  0  0  0  0  0
   16.7024   34.9584   35.1438 N   0  0  0  0  0  0  0  0  0  0  0  0
   16.0101   35.6383   37.3563 N   0  0  0  0  0  0  0  0  0  0  0  0
    7.6773   44.0717   34.0498 H   0  0  0  0  0  0  0  0  0  0  0  0
   10.3191   45.4428   34.0982 H   0  0  0  0  0  0  0  0  0  0  0  0
    9.1845   45.3822   35.3535 H   0  0  0  0  0  0  0  0  0  0  0  0
    8.4824   43.0871   31.8657 H   0  0  0  0  0  0  0  0  0  0  0  0
    9.9713   44.0710   31.9735 H   0  0  0  0  0  0  0  0  0  0  0  0
    8.5387   45.1406   30.4027 H   0  0  0  0  0  0  0  0  0  0  0  0
    8.5536   46.1538   31.8755 H   0  0  0  0  0  0  0  0  0  0  0  0
    6.3012   45.0664   32.5330 H   0  0  0  0  0  0  0  0  0  0  0  0
    6.3306   44.1798   30.9688 H   0  0  0  0  0  0  0  0  0  0  0  0
    4.9206   46.2631   30.9206 H   0  0  0  0  0  0  0  0  0  0  0  0
    6.2467   46.2889   29.7196 H   0  0  0  0  0  0  0  0  0  0  0  0
    6.2754   47.7512   32.4193 H   0  0  0  0  0  0  0  0  0  0  0  0
    8.3099   50.9009   29.7715 H   0  0  0  0  0  0  0  0  0  0  0  0
    8.6377   51.5350   31.4017 H   0  0  0  0  0  0  0  0  0  0  0  0
    9.9488   49.6022   28.6568 H   0  0  0  0  0  0  0  0  0  0  0  0
   12.1958   48.6163   28.5569 H   0  0  0  0  0  0  0  0  0  0  0  0
   12.7068   49.2351   32.7585 H   0  0  0  0  0  0  0  0  0  0  0  0
   13.5749   48.4375   30.6022 H   0  0  0  0  0  0  0  0  0  0  0  0
    9.7472   40.0310   31.9255 H   0  0  0  0  0  0  0  0  0  0  0  0
   11.2240   41.0357   31.8826 H   0  0  0  0  0  0  0  0  0  0  0  0
   11.5999   39.0159   30.5904 H   0  0  0  0  0  0  0  0  0  0  0  0
   10.7034   37.5450   33.1703 H   0  0  0  0  0  0  0  0  0  0  0  0
   14.1993   37.4424   31.5548 H   0  0  0  0  0  0  0  0  0  0  0  0
    9.1370   37.6635   31.6024 H   0  0  0  0  0  0  0  0  0  0  0  0
   12.1204   35.7712   32.5636 H   0  0  0  0  0  0  0  0  0  0  0  0
   12.9457   35.5426   30.5221 H   0  0  0  0  0  0  0  0  0  0  0  0
   12.4321   38.3988   34.8700 H   0  0  0  0  0  0  0  0  0  0  0  0
   17.2664   34.4142   33.1690 H   0  0  0  0  0  0  0  0  0  0  0  0
   16.7636   35.0598   37.7895 H   0  0  0  0  0  0  0  0  0  0  0  0
   15.3759   36.1865   37.9790 H   0  0  0  0  0  0  0  0  0  0  0  0
  1  2  2  0
  1  3  1  0
  3  4  1  0
  4  5  1  0
  6  1  1  0
  7  6  1  0
  6  8  1  0
  8  9  1  0
  9 10  1  0
 10 11  1  0
 11 12  1  0
 12 13  1  0
 13 14  1  0
 13 15  2  0
 14 16  1  0
 16 17  1  0
 17 18  2  0
 19 17  1  0
 18 20  1  0
 21 19  2  0
 19 22  1  0
 20 23  2  0
 23 21  1  0
 22 24  1  0
 22 25  2  0
  4 26  2  0
  4 27  1  0
 28 27  1  0
 28 29  1  0
 29 30  1  0
 29 31  1  0
 30 32  1  0
 31 33  1  0
 31 34  1  0
 34 32  1  0
 32 35  1  0
 34 36  1  0
 37 35  1  0
 38 35  1  0
 39 37  2  0
 37 40  1  0
 41 38  2  0
 42 39  1  0
 40 43  2  0
 40 41  1  0
 44 42  2  0
 44 43  1  0
 43 45  1  0
  6 46  1  6
  7 47  1  0
  7 48  1  0
  8 49  1  0
  8 50  1  0
  9 51  1  0
  9 52  1  0
 10 53  1  0
 10 54  1  0
 11 55  1  0
 11 56  1  0
 12 57  1  0
 16 58  1  0
 16 59  1  0
 18 60  1  0
 20 61  1  0
 21 62  1  0
 23 63  1  0
 28 64  1  0
 28 65  1  0
 29 66  1  0
 31 67  1  0
 32 68  1  0
 33 69  1  0
 34 70  1  0
 36 71  1  0
 38 72  1  0
 42 73  1  0
 45 74  1  0
 45 75  1  0
M  CHG  3   5  -1  22   1  24  -1
M  END
>  <EmbedRMS>  (159) 
0.0746097654057

$$$$

     RDKit          3D

 75 78  0  0  0  0  0  0  0  0999 V2000
    9.4331   42.9368   34.3464 C   0  0  0  0  0  0  0  0  0  0  0  0
   10.4908   43.0332   35.0318 O   0  0  0  0  0  0  0  0  0  0  0  0
    8.8555   41.7106   34.0309 O   0  0  0  0  0  0  0  0  0  0  0  0
    9.4930   40.2144   34.4706 P   0  0  0  0  0  0  0  0  0  0  0  0
    9.7296   40.1728   36.1314 O   0  0  0  0  0  0  0  0  0  0  0  0
    8.7507   44.1352   33.7741 C   0  0  1  0  0  0  0  0  0  0  0  0
    9.2964   45.3824   34.3132 N   0  0  0  0  0  0  0  0  0  0  0  0
    8.8893   44.0532   32.2358 C   0  0  0  0  0  0  0  0  0  0  0  0
    8.2026   45.1830   31.4617 C   0  0  0  0  0  0  0  0  0  0  0  0
    6.6651   45.1047   31.4852 C   0  0  0  0  0  0  0  0  0  0  0  0
    6.0261   46.3222   30.8094 C   0  0  0  0  0  0  0  0  0  0  0  0
    6.5037   47.5640   31.4172 N   0  0  0  0  0  0  0  0  0  0  0  0
    7.2498   48.5353   30.6865 C   0  0  0  0  0  0  0  0  0  0  0  0
    7.6295   49.7201   31.3218 O   0  0  0  0  0  0  0  0  0  0  0  0
    7.5910   48.3129   29.4932 O   0  0  0  0  0  0  0  0  0  0  0  0
    8.4249   50.7143   30.6849 C   0  0  0  0  0  0  0  0  0  0  0  0
    8.7225   51.8213   31.6627 C   0  0  0  0  0  0  0  0  0  0  0  0
    7.9706   53.0078   31.5821 C   0  0  0  0  0  0  0  0  0  0  0  0
    9.7495   51.7142   32.6409 C   0  0  0  0  0  0  0  0  0  0  0  0
    8.2354   54.0785   32.4364 C   0  0  0  0  0  0  0  0  0  0  0  0
   10.0087   52.8125   33.4808 C   0  0  0  0  0  0  0  0  0  0  0  0
   10.5496   50.5255   32.7874 N   0  0  0  0  0  0  0  0  0  0  0  0
    9.2552   53.9828   33.3806 C   0  0  0  0  0  0  0  0  0  0  0  0
   11.8363   50.6193   33.2664 O   0  0  0  0  0  0  0  0  0  0  0  0
   10.0468   49.3926   32.6435 O   0  0  0  0  0  0  0  0  0  0  0  0
    8.5366   39.1383   34.0139 O   0  0  0  0  0  0  0  0  0  0  0  0
   10.9785   40.0883   33.6869 O   0  0  0  0  0  0  0  0  0  0  0  0
   10.7973   40.0895   32.2883 C   0  0  0  0  0  0  0  0  0  0  0  0
   11.5882   38.9234   31.7043 C   0  0  0  0  0  0  0  0  0  0  0  0
   12.9230   38.9440   32.1728 O   0  0  0  0  0  0  0  0  0  0  0  0
   11.0048   37.5703   32.0916 C   0  0  0  0  0  0  0  0  0  0  0  0
   13.3570   37.5960   32.2595 C   0  0  0  0  0  0  0  0  0  0  0  0
    9.9332   37.1986   31.2676 O   0  0  0  0  0  0  0  0  0  0  0  0
   12.1965   36.6751   31.8949 C   0  0  0  0  0  0  0  0  0  0  0  0
   13.8037   37.2979   33.6187 N   0  0  0  0  0  0  0  0  0  0  0  0
   12.2934   36.2389   30.5581 O   0  0  0  0  0  0  0  0  0  0  0  0
   14.7929   36.4726   33.9860 C   0  0  0  0  0  0  0  0  0  0  0  0
   13.2755   37.7304   34.7934 C   0  0  0  0  0  0  0  0  0  0  0  0
   15.6244   35.7585   33.1859 N   0  0  0  0  0  0  0  0  0  0  0  0
   14.8722   36.4406   35.3328 C   0  0  0  0  0  0  0  0  0  0  0  0
   13.9205   37.2262   35.8803 N   0  0  0  0  0  0  0  0  0  0  0  0
   16.5872   34.9923   33.7802 C   0  0  0  0  0  0  0  0  0  0  0  0
   15.8573   35.6715   35.9442 C   0  0  0  0  0  0  0  0  0  0  0  0
   16.7023   34.9584   35.1439 N   0  0  0  0  0  0  0  0  0  0  0  0
   16.0098   35.6384   37.3563 N   0  0  0  0  0  0  0  0  0  0  0  0
    7.6770   44.0712   34.0503 H   0  0  0  0  0  0  0  0  0  0  0  0
    9.1834   45.3824   35.3535 H   0  0  0  0  0  0  0  0  0  0  0  0
   10.3191   45.4415   34.0992 H   0  0  0  0  0  0  0  0  0  0  0  0
    8.4817   43.0856   31.8668 H   0  0  0  0  0  0  0  0  0  0  0  0
    9.9711   44.0688   31.9739 H   0  0  0  0  0  0  0  0  0  0  0  0
    8.5386   45.1376   30.4026 H   0  0  0  0  0  0  0  0  0  0  0  0
    8.5545   46.1518   31.8750 H   0  0  0  0  0  0  0  0  0  0  0  0
    6.3015   45.0646   32.5330 H   0  0  0  0  0  0  0  0  0  0  0  0
    6.3300   44.1797   30.9678 H   0  0  0  0  0  0  0  0  0  0  0  0
    4.9226   46.2659   30.9245 H   0  0  0  0  0  0  0  0  0  0  0  0
    6.2466   46.2894   29.7208 H   0  0  0  0  0  0  0  0  0  0  0  0
    6.2817   47.7511   32.4209 H   0  0  0  0  0  0  0  0  0  0  0  0
    7.8737   51.1072   29.8023 H   0  0  0  0  0  0  0  0  0  0  0  0
    9.3731   50.2734   30.3080 H   0  0  0  0  0  0  0  0  0  0  0  0
    7.1780   53.1081   30.8506 H   0  0  0  0  0  0  0  0  0  0  0  0
    7.6510   54.9866   32.3626 H   0  0  0  0  0  0  0  0  0  0  0  0
   10.7884   52.7574   34.2297 H   0  0  0  0  0  0  0  0  0  0  0  0
    9.4609   54.8164   34.0398 H   0  0  0  0  0  0  0  0  0  0  0  0
    9.7422   40.0186   31.9315 H   0  0  0  0  0  0  0  0  0  0  0  0
   11.2113   41.0390   31.8862 H   0  0  0  0  0  0  0  0  0  0  0  0
   11.5932   39.0396   30.5966 H   0  0  0  0  0  0  0  0  0  0  0  0
   10.6986   37.5585   33.1640 H   0  0  0  0  0  0  0  0  0  0  0  0
   14.2072   37.4492   31.5564 H   0  0  0  0  0  0  0  0  0  0  0  0
    9.5321   36.3881   31.6771 H   0  0  0  0  0  0  0  0  0  0  0  0
   12.1344   35.7838   32.5583 H   0  0  0  0  0  0  0  0  0  0  0  0
   12.4642   37.0179   29.9674 H   0  0  0  0  0  0  0  0  0  0  0  0
   12.4333   38.4005   34.8692 H   0  0  0  0  0  0  0  0  0  0  0  0
   17.2668   34.4144   33.1692 H   0  0  0  0  0  0  0  0  0  0  0  0
   16.7634   35.0600   37.7896 H   0  0  0  0  0  0  0  0  0  0  0  0
   15.3755   36.1866   37.9789 H   0  0  0  0  0  0  0  0  0  0  0  0
  1  2  2  0
  1  3  1  0
  3  4  1  0
  4  5  1  0
  6  1  1  0
  7  6  1  0
  6  8  1  0
  8  9  1  0
  9 10  1  0
 10 11  1  0
 11 12  1  0
 12 13  1  0
 13 14  1  0
 13 15  2  0
 14 16  1  0
 16 17  1  0
 17 18  2  0
 19 17  1  0
 18 20  1  0
 21 19  2  0
 19 22  1  0
 20 23  2  0
 23 21  1  0
 22 24  1  0
 22 25  2  0
  4 26  2  0
  4 27  1  0
 28 27  1  0
 28 29  1  0
 29 30  1  0
 29 31  1  0
 30 32  1  0
 31 33  1  0
 31 34  1  0
 34 32  1  0
 32 35  1  0
 34 36  1  0
 37 35  1  0
 38 35  1  0
 39 37  2  0
 37 40  1  0
 41 38  2  0
 42 39  1  0
 40 43  2  0
 40 41  1  0
 44 42  2  0
 44 43  1  0
 43 45  1  0
  6 46  1  6
  7 47  1  0
  7 48  1  0
  8 49  1  0
  8 50  1  0
  9 51  1  0
  9 52  1  0
 10 53  1  0
 10 54  1  0
 11 55  1  0
 11 56  1  0
 12 57  1  0
 16 58  1  0
 16 59  1  0
 18 60  1  0
 20 61  1  0
 21 62  1  0
 23 63  1  0
 28 64  1  0
 28 65  1  0
 29 66  1  0
 31 67  1  0
 32 68  1  0
 33 69  1  0
 34 70  1  0
 36 71  1  0
 38 72  1  0
 42 73  1  0
 45 74  1  0
 45 75  1  0
M  CHG  3   5  -1  22   1  24  -1
M  END
>  <EmbedRMS>  (160) 
0.076036663449

$$$$

     RDKit          3D

 75 78  0  0  0  0  0  0  0  0999 V2000
    9.4332   42.9365   34.3463 C   0  0  0  0  0  0  0  0  0  0  0  0
   10.4907   43.0331   35.0319 O   0  0  0  0  0  0  0  0  0  0  0  0
    8.8559   41.7104   34.0304 O   0  0  0  0  0  0  0  0  0  0  0  0
    9.4931   40.2141   34.4703 P   0  0  0  0  0  0  0  0  0  0  0  0
    9.7293   40.1727   36.1313 O   0  0  0  0  0  0  0  0  0  0  0  0
    8.7506   44.1349   33.7741 C   0  0  1  0  0  0  0  0  0  0  0  0
    9.2963   45.3821   34.3133 N   0  0  0  0  0  0  0  0  0  0  0  0
    8.8893   44.0528   32.2359 C   0  0  0  0  0  0  0  0  0  0  0  0
    8.2028   45.1824   31.4615 C   0  0  0  0  0  0  0  0  0  0  0  0
    6.6653   45.1046   31.4855 C   0  0  0  0  0  0  0  0  0  0  0  0
    6.0268   46.3225   30.8103 C   0  0  0  0  0  0  0  0  0  0  0  0
    6.5059   47.5640   31.4179 N   0  0  0  0  0  0  0  0  0  0  0  0
    7.2450   48.5384   30.6842 C   0  0  0  0  0  0  0  0  0  0  0  0
    7.6018   49.7358   31.3098 O   0  0  0  0  0  0  0  0  0  0  0  0
    7.5928   48.3121   29.4935 O   0  0  0  0  0  0  0  0  0  0  0  0
    8.3596   50.7508   30.6571 C   0  0  0  0  0  0  0  0  0  0  0  0
    8.6369   51.8770   31.6235 C   0  0  0  0  0  0  0  0  0  0  0  0
    9.1891   51.5551   32.8771 C   0  0  0  0  0  0  0  0  0  0  0  0
    8.3357   53.2336   31.3299 C   0  0  0  0  0  0  0  0  0  0  0  0
    9.3947   52.5434   33.8408 C   0  0  0  0  0  0  0  0  0  0  0  0
    8.5299   54.2109   32.3209 C   0  0  0  0  0  0  0  0  0  0  0  0
    7.8648   53.6445   30.0374 N   0  0  0  0  0  0  0  0  0  0  0  0
    9.0555   53.8671   33.5671 C   0  0  0  0  0  0  0  0  0  0  0  0
    6.9293   54.6485   29.9395 O   0  0  0  0  0  0  0  0  0  0  0  0
    8.4736   53.2868   29.0080 O   0  0  0  0  0  0  0  0  0  0  0  0
    8.5366   39.1382   34.0136 O   0  0  0  0  0  0  0  0  0  0  0  0
   10.9788   40.0866   33.6873 O   0  0  0  0  0  0  0  0  0  0  0  0
   10.7993   40.0944   32.2886 C   0  0  0  0  0  0  0  0  0  0  0  0
   11.5957   38.9351   31.6994 C   0  0  0  0  0  0  0  0  0  0  0  0
   12.9257   38.9477   32.1798 O   0  0  0  0  0  0  0  0  0  0  0  0
   11.0070   37.5757   32.0732 C   0  0  0  0  0  0  0  0  0  0  0  0
   13.3571   37.5979   32.2612 C   0  0  0  0  0  0  0  0  0  0  0  0
    9.9093   37.1807   31.2875 O   0  0  0  0  0  0  0  0  0  0  0  0
   12.1968   36.6763   31.8894 C   0  0  0  0  0  0  0  0  0  0  0  0
   13.8018   37.2956   33.6197 N   0  0  0  0  0  0  0  0  0  0  0  0
   12.3049   36.2360   30.5555 O   0  0  0  0  0  0  0  0  0  0  0  0
   14.7922   36.4716   33.9864 C   0  0  0  0  0  0  0  0  0  0  0  0
   13.2747   37.7291   34.7944 C   0  0  0  0  0  0  0  0  0  0  0  0
   15.6240   35.7581   33.1861 N   0  0  0  0  0  0  0  0  0  0  0  0
   14.8721   36.4402   35.3331 C   0  0  0  0  0  0  0  0  0  0  0  0
   13.9206   37.2257   35.8810 N   0  0  0  0  0  0  0  0  0  0  0  0
   16.5873   34.9924   33.7802 C   0  0  0  0  0  0  0  0  0  0  0  0
   15.8576   35.6714   35.9444 C   0  0  0  0  0  0  0  0  0  0  0  0
   16.7026   34.9585   35.1439 N   0  0  0  0  0  0  0  0  0  0  0  0
   16.0102   35.6383   37.3564 N   0  0  0  0  0  0  0  0  0  0  0  0
    7.6770   44.0707   34.0504 H   0  0  0  0  0  0  0  0  0  0  0  0
   10.3192   45.4408   34.0999 H   0  0  0  0  0  0  0  0  0  0  0  0
    9.1827   45.3822   35.3535 H   0  0  0  0  0  0  0  0  0  0  0  0
    8.4816   43.0851   31.8669 H   0  0  0  0  0  0  0  0  0  0  0  0
    9.9711   44.0682   31.9740 H   0  0  0  0  0  0  0  0  0  0  0  0
    8.5385   45.1365   30.4023 H   0  0  0  0  0  0  0  0  0  0  0  0
    8.5551   46.1511   31.8744 H   0  0  0  0  0  0  0  0  0  0  0  0
    6.3019   45.0643   32.5333 H   0  0  0  0  0  0  0  0  0  0  0  0
    6.3297   44.1799   30.9678 H   0  0  0  0  0  0  0  0  0  0  0  0
    6.2465   46.2897   29.7215 H   0  0  0  0  0  0  0  0  0  0  0  0
    4.9234   46.2671   30.9262 H   0  0  0  0  0  0  0  0  0  0  0  0
    6.2826   47.7524   32.4210 H   0  0  0  0  0  0  0  0  0  0  0  0
    9.3294   50.3278   30.3162 H   0  0  0  0  0  0  0  0  0  0  0  0
    7.7903   51.0899   29.7692 H   0  0  0  0  0  0  0  0  0  0  0  0
    9.4443   50.5296   33.1156 H   0  0  0  0  0  0  0  0  0  0  0  0
    9.8105   52.2803   34.8049 H   0  0  0  0  0  0  0  0  0  0  0  0
    8.2991   55.2489   32.1166 H   0  0  0  0  0  0  0  0  0  0  0  0
    9.2115   54.6312   34.3178 H   0  0  0  0  0  0  0  0  0  0  0  0
   11.2094   41.0479   31.8922 H   0  0  0  0  0  0  0  0  0  0  0  0
    9.7448   40.0200   31.9304 H   0  0  0  0  0  0  0  0  0  0  0  0
   11.6206   39.0685   30.5942 H   0  0  0  0  0  0  0  0  0  0  0  0
   10.7059   37.5563   33.1438 H   0  0  0  0  0  0  0  0  0  0  0  0
   14.2095   37.4543   31.5601 H   0  0  0  0  0  0  0  0  0  0  0  0
   10.0865   37.4209   30.3413 H   0  0  0  0  0  0  0  0  0  0  0  0
   12.1276   35.7872   32.5549 H   0  0  0  0  0  0  0  0  0  0  0  0
   12.5031   37.0109   29.9672 H   0  0  0  0  0  0  0  0  0  0  0  0
   12.4328   38.3996   34.8703 H   0  0  0  0  0  0  0  0  0  0  0  0
   17.2670   34.4149   33.1691 H   0  0  0  0  0  0  0  0  0  0  0  0
   16.7640   35.0601   37.7896 H   0  0  0  0  0  0  0  0  0  0  0  0
   15.3758   36.1862   37.9792 H   0  0  0  0  0  0  0  0  0  0  0  0
  1  2  2  0
  1  3  1  0
  3  4  1  0
  4  5  1  0
  6  1  1  0
  7  6  1  0
  6  8  1  0
  8  9  1  0
  9 10  1  0
 10 11  1  0
 11 12  1  0
 12 13  1  0
 13 14  1  0
 13 15  2  0
 14 16  1  0
 16 17  1  0
 17 18  2  0
 19 17  1  0
 18 20  1  0
 21 19  2  0
 19 22  1  0
 20 23  2  0
 23 21  1  0
 22 24  1  0
 22 25  2  0
  4 26  2  0
  4 27  1  0
 28 27  1  0
 28 29  1  0
 29 30  1  0
 29 31  1  0
 30 32  1  0
 31 33  1  0
 31 34  1  0
 34 32  1  0
 32 35  1  0
 34 36  1  0
 37 35  1  0
 38 35  1  0
 39 37  2  0
 37 40  1  0
 41 38  2  0
 42 39  1  0
 40 43  2  0
 40 41  1  0
 44 42  2  0
 44 43  1  0
 43 45  1  0
  6 46  1  6
  7 47  1  0
  7 48  1  0
  8 49  1  0
  8 50  1  0
  9 51  1  0
  9 52  1  0
 10 53  1  0
 10 54  1  0
 11 55  1  0
 11 56  1  0
 12 57  1  0
 16 58  1  0
 16 59  1  0
 18 60  1  0
 20 61  1  0
 21 62  1  0
 23 63  1  0
 28 64  1  0
 28 65  1  0
 29 66  1  0
 31 67  1  0
 32 68  1  0
 33 69  1  0
 34 70  1  0
 36 71  1  0
 38 72  1  0
 42 73  1  0
 45 74  1  0
 45 75  1  0
M  CHG  3   5  -1  22   1  24  -1
M  END
>  <EmbedRMS>  (161) 
0.0762017726334

$$$$

     RDKit          3D

 75 78  0  0  0  0  0  0  0  0999 V2000
    9.4333   42.9364   34.3461 C   0  0  0  0  0  0  0  0  0  0  0  0
   10.4907   43.0329   35.0319 O   0  0  0  0  0  0  0  0  0  0  0  0
    8.8563   41.7103   34.0295 O   0  0  0  0  0  0  0  0  0  0  0  0
    9.4943   40.2139   34.4679 P   0  0  0  0  0  0  0  0  0  0  0  0
    9.7310   40.1724   36.1290 O   0  0  0  0  0  0  0  0  0  0  0  0
    8.7506   44.1348   33.7741 C   0  0  1  0  0  0  0  0  0  0  0  0
    9.2963   45.3820   34.3133 N   0  0  0  0  0  0  0  0  0  0  0  0
    8.8893   44.0527   32.2358 C   0  0  0  0  0  0  0  0  0  0  0  0
    8.2028   45.1823   31.4615 C   0  0  0  0  0  0  0  0  0  0  0  0
    6.6653   45.1046   31.4855 C   0  0  0  0  0  0  0  0  0  0  0  0
    6.0270   46.3226   30.8105 C   0  0  0  0  0  0  0  0  0  0  0  0
    6.5064   47.5639   31.4180 N   0  0  0  0  0  0  0  0  0  0  0  0
    7.2434   48.5393   30.6834 C   0  0  0  0  0  0  0  0  0  0  0  0
    7.5913   49.7409   31.3057 O   0  0  0  0  0  0  0  0  0  0  0  0
    7.5935   48.3118   29.4937 O   0  0  0  0  0  0  0  0  0  0  0  0
    8.3324   50.7632   30.6466 C   0  0  0  0  0  0  0  0  0  0  0  0
    8.5082   51.9418   31.5716 C   0  0  0  0  0  0  0  0  0  0  0  0
    9.8136   52.3694   31.8787 C   0  0  0  0  0  0  0  0  0  0  0  0
    7.4027   52.6032   32.1730 C   0  0  0  0  0  0  0  0  0  0  0  0
   10.0285   53.4220   32.7690 C   0  0  0  0  0  0  0  0  0  0  0  0
    7.6440   53.6525   33.0794 C   0  0  0  0  0  0  0  0  0  0  0  0
    6.0429   52.2176   31.8982 N   0  0  0  0  0  0  0  0  0  0  0  0
    8.9462   54.0598   33.3709 C   0  0  0  0  0  0  0  0  0  0  0  0
    5.6509   51.8773   30.6247 O   0  0  0  0  0  0  0  0  0  0  0  0
    5.1679   52.3418   32.7802 O   0  0  0  0  0  0  0  0  0  0  0  0
    8.5372   39.1382   34.0121 O   0  0  0  0  0  0  0  0  0  0  0  0
   10.9798   40.0870   33.6829 O   0  0  0  0  0  0  0  0  0  0  0  0
   10.8002   40.0905   32.2833 C   0  0  0  0  0  0  0  0  0  0  0  0
   11.5958   38.9271   31.6963 C   0  0  0  0  0  0  0  0  0  0  0  0
   12.9239   38.9409   32.1766 O   0  0  0  0  0  0  0  0  0  0  0  0
   11.0062   37.5719   32.0793 C   0  0  0  0  0  0  0  0  0  0  0  0
   13.3507   37.5905   32.2614 C   0  0  0  0  0  0  0  0  0  0  0  0
    9.9064   37.1792   31.2946 O   0  0  0  0  0  0  0  0  0  0  0  0
   12.1920   36.6671   31.9003 C   0  0  0  0  0  0  0  0  0  0  0  0
   13.8017   37.2948   33.6193 N   0  0  0  0  0  0  0  0  0  0  0  0
   12.3134   36.2787   30.5560 O   0  0  0  0  0  0  0  0  0  0  0  0
   14.7927   36.4716   33.9861 C   0  0  0  0  0  0  0  0  0  0  0  0
   13.2746   37.7284   34.7941 C   0  0  0  0  0  0  0  0  0  0  0  0
   15.6240   35.7576   33.1859 N   0  0  0  0  0  0  0  0  0  0  0  0
   14.8728   36.4406   35.3330 C   0  0  0  0  0  0  0  0  0  0  0  0
   13.9209   37.2258   35.8807 N   0  0  0  0  0  0  0  0  0  0  0  0
   16.5874   34.9920   33.7802 C   0  0  0  0  0  0  0  0  0  0  0  0
   15.8579   35.6716   35.9443 C   0  0  0  0  0  0  0  0  0  0  0  0
   16.7028   34.9584   35.1439 N   0  0  0  0  0  0  0  0  0  0  0  0
   16.0103   35.6383   37.3563 N   0  0  0  0  0  0  0  0  0  0  0  0
    7.6770   44.0706   34.0504 H   0  0  0  0  0  0  0  0  0  0  0  0
   10.3192   45.4406   34.1000 H   0  0  0  0  0  0  0  0  0  0  0  0
    9.1827   45.3820   35.3535 H   0  0  0  0  0  0  0  0  0  0  0  0
    8.4817   43.0851   31.8668 H   0  0  0  0  0  0  0  0  0  0  0  0
    9.9711   44.0682   31.9739 H   0  0  0  0  0  0  0  0  0  0  0  0
    8.5552   46.1510   31.8742 H   0  0  0  0  0  0  0  0  0  0  0  0
    8.5384   45.1363   30.4022 H   0  0  0  0  0  0  0  0  0  0  0  0
    6.3020   45.0643   32.5334 H   0  0  0  0  0  0  0  0  0  0  0  0
    6.3296   44.1799   30.9678 H   0  0  0  0  0  0  0  0  0  0  0  0
    4.9236   46.2674   30.9265 H   0  0  0  0  0  0  0  0  0  0  0  0
    6.2465   46.2898   29.7217 H   0  0  0  0  0  0  0  0  0  0  0  0
    6.2816   47.7534   32.4207 H   0  0  0  0  0  0  0  0  0  0  0  0
    7.8078   51.0868   29.7234 H   0  0  0  0  0  0  0  0  0  0  0  0
    9.3169   50.3493   30.3357 H   0  0  0  0  0  0  0  0  0  0  0  0
   10.6728   51.8821   31.4342 H   0  0  0  0  0  0  0  0  0  0  0  0
   11.0377   53.7397   32.9973 H   0  0  0  0  0  0  0  0  0  0  0  0
    6.8177   54.1681   33.5523 H   0  0  0  0  0  0  0  0  0  0  0  0
    9.1160   54.8734   34.0643 H   0  0  0  0  0  0  0  0  0  0  0  0
   11.2116   41.0420   31.8834 H   0  0  0  0  0  0  0  0  0  0  0  0
    9.7455   40.0168   31.9263 H   0  0  0  0  0  0  0  0  0  0  0  0
   11.6245   39.0449   30.5888 H   0  0  0  0  0  0  0  0  0  0  0  0
   10.7050   37.5579   33.1499 H   0  0  0  0  0  0  0  0  0  0  0  0
   14.1985   37.4426   31.5553 H   0  0  0  0  0  0  0  0  0  0  0  0
   10.0893   37.4056   30.3459 H   0  0  0  0  0  0  0  0  0  0  0  0
   12.1337   35.7754   32.5703 H   0  0  0  0  0  0  0  0  0  0  0  0
   11.7934   35.4394   30.4513 H   0  0  0  0  0  0  0  0  0  0  0  0
   12.4314   38.3972   34.8700 H   0  0  0  0  0  0  0  0  0  0  0  0
   17.2669   34.4142   33.1692 H   0  0  0  0  0  0  0  0  0  0  0  0
   15.3759   36.1864   37.9790 H   0  0  0  0  0  0  0  0  0  0  0  0
   16.7638   35.0599   37.7896 H   0  0  0  0  0  0  0  0  0  0  0  0
  1  2  2  0
  1  3  1  0
  3  4  1  0
  4  5  1  0
  6  1  1  0
  7  6  1  0
  6  8  1  0
  8  9  1  0
  9 10  1  0
 10 11  1  0
 11 12  1  0
 12 13  1  0
 13 14  1  0
 13 15  2  0
 14 16  1  0
 16 17  1  0
 17 18  2  0
 19 17  1  0
 18 20  1  0
 21 19  2  0
 19 22  1  0
 20 23  2  0
 23 21  1  0
 22 24  1  0
 22 25  2  0
  4 26  2  0
  4 27  1  0
 28 27  1  0
 28 29  1  0
 29 30  1  0
 29 31  1  0
 30 32  1  0
 31 33  1  0
 31 34  1  0
 34 32  1  0
 32 35  1  0
 34 36  1  0
 37 35  1  0
 38 35  1  0
 39 37  2  0
 37 40  1  0
 41 38  2  0
 42 39  1  0
 40 43  2  0
 40 41  1  0
 44 42  2  0
 44 43  1  0
 43 45  1  0
  6 46  1  6
  7 47  1  0
  7 48  1  0
  8 49  1  0
  8 50  1  0
  9 51  1  0
  9 52  1  0
 10 53  1  0
 10 54  1  0
 11 55  1  0
 11 56  1  0
 12 57  1  0
 16 58  1  0
 16 59  1  0
 18 60  1  0
 20 61  1  0
 21 62  1  0
 23 63  1  0
 28 64  1  0
 28 65  1  0
 29 66  1  0
 31 67  1  0
 32 68  1  0
 33 69  1  0
 34 70  1  0
 36 71  1  0
 38 72  1  0
 42 73  1  0
 45 74  1  0
 45 75  1  0
M  CHG  3   5  -1  22   1  24  -1
M  END
>  <EmbedRMS>  (162) 
0.0747849615283

$$$$

     RDKit          3D

 75 78  0  0  0  0  0  0  0  0999 V2000
    9.4308   42.9414   34.3440 C   0  0  0  0  0  0  0  0  0  0  0  0
   10.4883   43.0412   35.0293 O   0  0  0  0  0  0  0  0  0  0  0  0
    8.8557   41.7130   34.0292 O   0  0  0  0  0  0  0  0  0  0  0  0
    9.4946   40.2164   34.4676 P   0  0  0  0  0  0  0  0  0  0  0  0
    9.7319   40.1740   36.1286 O   0  0  0  0  0  0  0  0  0  0  0  0
    8.7478   44.1363   33.7723 C   0  0  1  0  0  0  0  0  0  0  0  0
    9.3031   45.3670   34.3390 N   0  0  0  0  0  0  0  0  0  0  0  0
    8.8889   44.0520   32.2311 C   0  0  0  0  0  0  0  0  0  0  0  0
    8.2016   45.1724   31.4439 C   0  0  0  0  0  0  0  0  0  0  0  0
    6.6643   45.1057   31.4858 C   0  0  0  0  0  0  0  0  0  0  0  0
    6.0283   46.3240   30.8096 C   0  0  0  0  0  0  0  0  0  0  0  0
    6.5091   47.5624   31.4214 N   0  0  0  0  0  0  0  0  0  0  0  0
    7.2518   48.5405   30.6850 C   0  0  0  0  0  0  0  0  0  0  0  0
    7.6487   49.7536   31.2642 O   0  0  0  0  0  0  0  0  0  0  0  0
    7.5841   48.3103   29.4931 O   0  0  0  0  0  0  0  0  0  0  0  0
    7.4198   50.1285   32.6233 C   0  0  0  0  0  0  0  0  0  0  0  0
    5.9528   50.3914   32.8911 C   0  0  0  0  0  0  0  0  0  0  0  0
    5.2151   51.1132   31.9334 C   0  0  0  0  0  0  0  0  0  0  0  0
    5.3272   50.0368   34.1166 C   0  0  0  0  0  0  0  0  0  0  0  0
    3.8801   51.4480   32.1638 C   0  0  0  0  0  0  0  0  0  0  0  0
    3.9881   50.3993   34.3369 C   0  0  0  0  0  0  0  0  0  0  0  0
    6.0329   49.3518   35.1617 N   0  0  0  0  0  0  0  0  0  0  0  0
    3.2673   51.0911   33.3632 C   0  0  0  0  0  0  0  0  0  0  0  0
    5.8911   49.7756   36.4627 O   0  0  0  0  0  0  0  0  0  0  0  0
    6.5362   48.2304   34.9473 O   0  0  0  0  0  0  0  0  0  0  0  0
    8.5375   39.1401   34.0125 O   0  0  0  0  0  0  0  0  0  0  0  0
   10.9796   40.0898   33.6814 O   0  0  0  0  0  0  0  0  0  0  0  0
   10.7982   40.0850   32.2818 C   0  0  0  0  0  0  0  0  0  0  0  0
   11.5886   38.9143   31.7009 C   0  0  0  0  0  0  0  0  0  0  0  0
   12.9213   38.9368   32.1699 O   0  0  0  0  0  0  0  0  0  0  0  0
   11.0047   37.5661   32.0991 C   0  0  0  0  0  0  0  0  0  0  0  0
   13.3510   37.5885   32.2602 C   0  0  0  0  0  0  0  0  0  0  0  0
    9.9296   37.1962   31.2780 O   0  0  0  0  0  0  0  0  0  0  0  0
   12.1923   36.6659   31.9047 C   0  0  0  0  0  0  0  0  0  0  0  0
   13.8033   37.2967   33.6188 N   0  0  0  0  0  0  0  0  0  0  0  0
   12.3006   36.2865   30.5562 O   0  0  0  0  0  0  0  0  0  0  0  0
   14.7933   36.4724   33.9860 C   0  0  0  0  0  0  0  0  0  0  0  0
   13.2753   37.7296   34.7935 C   0  0  0  0  0  0  0  0  0  0  0  0
   15.6243   35.7579   33.1860 N   0  0  0  0  0  0  0  0  0  0  0  0
   14.8728   36.4410   35.3328 C   0  0  0  0  0  0  0  0  0  0  0  0
   13.9209   37.2263   35.8804 N   0  0  0  0  0  0  0  0  0  0  0  0
   16.5873   34.9919   33.7803 C   0  0  0  0  0  0  0  0  0  0  0  0
   15.8577   35.6717   35.9443 C   0  0  0  0  0  0  0  0  0  0  0  0
   16.7025   34.9583   35.1440 N   0  0  0  0  0  0  0  0  0  0  0  0
   16.0100   35.6384   37.3563 N   0  0  0  0  0  0  0  0  0  0  0  0
    7.6757   44.0639   34.0546 H   0  0  0  0  0  0  0  0  0  0  0  0
    8.6457   46.1563   34.1438 H   0  0  0  0  0  0  0  0  0  0  0  0
   10.2141   45.5891   33.8745 H   0  0  0  0  0  0  0  0  0  0  0  0
    8.4826   43.0820   31.8669 H   0  0  0  0  0  0  0  0  0  0  0  0
    9.9706   44.0643   31.9685 H   0  0  0  0  0  0  0  0  0  0  0  0
    8.5702   46.1488   31.8196 H   0  0  0  0  0  0  0  0  0  0  0  0
    8.5220   45.0976   30.3816 H   0  0  0  0  0  0  0  0  0  0  0  0
    6.3162   44.1799   30.9784 H   0  0  0  0  0  0  0  0  0  0  0  0
    6.3121   45.0757   32.5378 H   0  0  0  0  0  0  0  0  0  0  0  0
    6.2480   46.2918   29.7210 H   0  0  0  0  0  0  0  0  0  0  0  0
    4.9247   46.2704   30.9256 H   0  0  0  0  0  0  0  0  0  0  0  0
    6.2855   47.7183   32.4265 H   0  0  0  0  0  0  0  0  0  0  0  0
    7.8619   49.3655   33.2915 H   0  0  0  0  0  0  0  0  0  0  0  0
    7.9703   51.0735   32.8124 H   0  0  0  0  0  0  0  0  0  0  0  0
    5.6771   51.4255   31.0049 H   0  0  0  0  0  0  0  0  0  0  0  0
    3.3230   51.9961   31.4149 H   0  0  0  0  0  0  0  0  0  0  0  0
    3.4992   50.1365   35.2667 H   0  0  0  0  0  0  0  0  0  0  0  0
    2.2339   51.3583   33.5428 H   0  0  0  0  0  0  0  0  0  0  0  0
   11.2129   41.0321   31.8751 H   0  0  0  0  0  0  0  0  0  0  0  0
    9.7426   40.0141   31.9266 H   0  0  0  0  0  0  0  0  0  0  0  0
   11.5980   39.0108   30.5905 H   0  0  0  0  0  0  0  0  0  0  0  0
   10.7008   37.5603   33.1721 H   0  0  0  0  0  0  0  0  0  0  0  0
   14.1976   37.4380   31.5532 H   0  0  0  0  0  0  0  0  0  0  0  0
    9.5180   36.3962   31.6978 H   0  0  0  0  0  0  0  0  0  0  0  0
   12.1418   35.7698   32.5692 H   0  0  0  0  0  0  0  0  0  0  0  0
   11.7729   35.4524   30.4489 H   0  0  0  0  0  0  0  0  0  0  0  0
   12.4321   38.3985   34.8692 H   0  0  0  0  0  0  0  0  0  0  0  0
   17.2667   34.4138   33.1694 H   0  0  0  0  0  0  0  0  0  0  0  0
   15.3757   36.1867   37.9790 H   0  0  0  0  0  0  0  0  0  0  0  0
   16.7634   35.0598   37.7897 H   0  0  0  0  0  0  0  0  0  0  0  0
  1  2  2  0
  1  3  1  0
  3  4  1  0
  4  5  1  0
  6  1  1  0
  7  6  1  0
  6  8  1  0
  8  9  1  0
  9 10  1  0
 10 11  1  0
 11 12  1  0
 12 13  1  0
 13 14  1  0
 13 15  2  0
 14 16  1  0
 16 17  1  0
 17 18  2  0
 19 17  1  0
 18 20  1  0
 21 19  2  0
 19 22  1  0
 20 23  2  0
 23 21  1  0
 22 24  1  0
 22 25  2  0
  4 26  2  0
  4 27  1  0
 28 27  1  0
 28 29  1  0
 29 30  1  0
 29 31  1  0
 30 32  1  0
 31 33  1  0
 31 34  1  0
 34 32  1  0
 32 35  1  0
 34 36  1  0
 37 35  1  0
 38 35  1  0
 39 37  2  0
 37 40  1  0
 41 38  2  0
 42 39  1  0
 40 43  2  0
 40 41  1  0
 44 42  2  0
 44 43  1  0
 43 45  1  0
  6 46  1  6
  7 47  1  0
  7 48  1  0
  8 49  1  0
  8 50  1  0
  9 51  1  0
  9 52  1  0
 10 53  1  0
 10 54  1  0
 11 55  1  0
 11 56  1  0
 12 57  1  0
 16 58  1  0
 16 59  1  0
 18 60  1  0
 20 61  1  0
 21 62  1  0
 23 63  1  0
 28 64  1  0
 28 65  1  0
 29 66  1  0
 31 67  1  0
 32 68  1  0
 33 69  1  0
 34 70  1  0
 36 71  1  0
 38 72  1  0
 42 73  1  0
 45 74  1  0
 45 75  1  0
M  CHG  3   5  -1  22   1  24  -1
M  END
>  <EmbedRMS>  (163) 
0.0736001377069

$$$$

     RDKit          3D

 75 78  0  0  0  0  0  0  0  0999 V2000
    9.4313   42.9410   34.3437 C   0  0  0  0  0  0  0  0  0  0  0  0
   10.4885   43.0409   35.0294 O   0  0  0  0  0  0  0  0  0  0  0  0
    8.8562   41.7127   34.0287 O   0  0  0  0  0  0  0  0  0  0  0  0
    9.4945   40.2160   34.4678 P   0  0  0  0  0  0  0  0  0  0  0  0
    9.7312   40.1739   36.1288 O   0  0  0  0  0  0  0  0  0  0  0  0
    8.7484   44.1359   33.7721 C   0  0  1  0  0  0  0  0  0  0  0  0
    9.3039   45.3664   34.3388 N   0  0  0  0  0  0  0  0  0  0  0  0
    8.8892   44.0518   32.2308 C   0  0  0  0  0  0  0  0  0  0  0  0
    8.2015   45.1721   31.4436 C   0  0  0  0  0  0  0  0  0  0  0  0
    6.6642   45.1066   31.4887 C   0  0  0  0  0  0  0  0  0  0  0  0
    6.0268   46.3236   30.8121 C   0  0  0  0  0  0  0  0  0  0  0  0
    6.5081   47.5646   31.4188 N   0  0  0  0  0  0  0  0  0  0  0  0
    7.2426   48.5405   30.6827 C   0  0  0  0  0  0  0  0  0  0  0  0
    7.5791   49.7507   31.3014 O   0  0  0  0  0  0  0  0  0  0  0  0
    7.5937   48.3106   29.4937 O   0  0  0  0  0  0  0  0  0  0  0  0
    8.3289   50.7818   30.6566 C   0  0  0  0  0  0  0  0  0  0  0  0
    7.4679   51.7156   29.8244 C   0  0  0  0  0  0  0  0  0  0  0  0
    6.0889   51.4642   29.6530 C   0  0  0  0  0  0  0  0  0  0  0  0
    8.0239   52.8930   29.2510 C   0  0  0  0  0  0  0  0  0  0  0  0
    5.2853   52.3446   28.9280 C   0  0  0  0  0  0  0  0  0  0  0  0
    7.1900   53.7728   28.5367 C   0  0  0  0  0  0  0  0  0  0  0  0
    9.4148   53.2304   29.4070 N   0  0  0  0  0  0  0  0  0  0  0  0
    5.8339   53.4963   28.3718 C   0  0  0  0  0  0  0  0  0  0  0  0
   10.3910   52.2712   29.2729 O   0  0  0  0  0  0  0  0  0  0  0  0
    9.7603   54.4270   29.4938 O   0  0  0  0  0  0  0  0  0  0  0  0
    8.5374   39.1400   34.0124 O   0  0  0  0  0  0  0  0  0  0  0  0
   10.9799   40.0879   33.6828 O   0  0  0  0  0  0  0  0  0  0  0  0
   10.8002   40.0907   32.2831 C   0  0  0  0  0  0  0  0  0  0  0  0
   11.5958   38.9271   31.6964 C   0  0  0  0  0  0  0  0  0  0  0  0
   12.9239   38.9409   32.1767 O   0  0  0  0  0  0  0  0  0  0  0  0
   11.0062   37.5719   32.0794 C   0  0  0  0  0  0  0  0  0  0  0  0
   13.3506   37.5905   32.2614 C   0  0  0  0  0  0  0  0  0  0  0  0
    9.9064   37.1793   31.2946 O   0  0  0  0  0  0  0  0  0  0  0  0
   12.1920   36.6672   31.9003 C   0  0  0  0  0  0  0  0  0  0  0  0
   13.8017   37.2948   33.6193 N   0  0  0  0  0  0  0  0  0  0  0  0
   12.3133   36.2788   30.5561 O   0  0  0  0  0  0  0  0  0  0  0  0
   14.7927   36.4716   33.9862 C   0  0  0  0  0  0  0  0  0  0  0  0
   13.2746   37.7284   34.7941 C   0  0  0  0  0  0  0  0  0  0  0  0
   15.6240   35.7576   33.1859 N   0  0  0  0  0  0  0  0  0  0  0  0
   14.8728   36.4406   35.3330 C   0  0  0  0  0  0  0  0  0  0  0  0
   13.9209   37.2258   35.8808 N   0  0  0  0  0  0  0  0  0  0  0  0
   16.5874   34.9920   33.7802 C   0  0  0  0  0  0  0  0  0  0  0  0
   15.8579   35.6716   35.9443 C   0  0  0  0  0  0  0  0  0  0  0  0
   16.7028   34.9584   35.1439 N   0  0  0  0  0  0  0  0  0  0  0  0
   16.0103   35.6383   37.3563 N   0  0  0  0  0  0  0  0  0  0  0  0
    7.6764   44.0633   34.0548 H   0  0  0  0  0  0  0  0  0  0  0  0
    8.6468   46.1558   34.1431 H   0  0  0  0  0  0  0  0  0  0  0  0
   10.2152   45.5878   33.8748 H   0  0  0  0  0  0  0  0  0  0  0  0
    8.4830   43.0818   31.8666 H   0  0  0  0  0  0  0  0  0  0  0  0
    9.9708   44.0642   31.9679 H   0  0  0  0  0  0  0  0  0  0  0  0
    8.5714   46.1487   31.8174 H   0  0  0  0  0  0  0  0  0  0  0  0
    8.5198   45.0959   30.3807 H   0  0  0  0  0  0  0  0  0  0  0  0
    6.3142   45.0785   32.5414 H   0  0  0  0  0  0  0  0  0  0  0  0
    6.3147   44.1801   30.9837 H   0  0  0  0  0  0  0  0  0  0  0  0
    4.9234   46.2699   30.9297 H   0  0  0  0  0  0  0  0  0  0  0  0
    6.2451   46.2896   29.7231 H   0  0  0  0  0  0  0  0  0  0  0  0
    6.2838   47.7548   32.4215 H   0  0  0  0  0  0  0  0  0  0  0  0
    9.1193   50.3223   30.0268 H   0  0  0  0  0  0  0  0  0  0  0  0
    8.8263   51.3799   31.4490 H   0  0  0  0  0  0  0  0  0  0  0  0
    5.6152   50.5951   30.0861 H   0  0  0  0  0  0  0  0  0  0  0  0
    4.2302   52.1363   28.8046 H   0  0  0  0  0  0  0  0  0  0  0  0
    7.5966   54.6738   28.0948 H   0  0  0  0  0  0  0  0  0  0  0  0
    5.2062   54.1793   27.8139 H   0  0  0  0  0  0  0  0  0  0  0  0
    9.7454   40.0168   31.9263 H   0  0  0  0  0  0  0  0  0  0  0  0
   11.2114   41.0421   31.8829 H   0  0  0  0  0  0  0  0  0  0  0  0
   11.6245   39.0449   30.5889 H   0  0  0  0  0  0  0  0  0  0  0  0
   10.7050   37.5581   33.1500 H   0  0  0  0  0  0  0  0  0  0  0  0
   14.1984   37.4426   31.5553 H   0  0  0  0  0  0  0  0  0  0  0  0
   10.0893   37.4057   30.3459 H   0  0  0  0  0  0  0  0  0  0  0  0
   12.1337   35.7754   32.5703 H   0  0  0  0  0  0  0  0  0  0  0  0
   11.7934   35.4394   30.4514 H   0  0  0  0  0  0  0  0  0  0  0  0
   12.4314   38.3973   34.8699 H   0  0  0  0  0  0  0  0  0  0  0  0
   17.2669   34.4141   33.1692 H   0  0  0  0  0  0  0  0  0  0  0  0
   16.7638   35.0599   37.7896 H   0  0  0  0  0  0  0  0  0  0  0  0
   15.3759   36.1864   37.9790 H   0  0  0  0  0  0  0  0  0  0  0  0
  1  2  2  0
  1  3  1  0
  3  4  1  0
  4  5  1  0
  6  1  1  0
  7  6  1  0
  6  8  1  0
  8  9  1  0
  9 10  1  0
 10 11  1  0
 11 12  1  0
 12 13  1  0
 13 14  1  0
 13 15  2  0
 14 16  1  0
 16 17  1  0
 17 18  2  0
 19 17  1  0
 18 20  1  0
 21 19  2  0
 19 22  1  0
 20 23  2  0
 23 21  1  0
 22 24  1  0
 22 25  2  0
  4 26  2  0
  4 27  1  0
 28 27  1  0
 28 29  1  0
 29 30  1  0
 29 31  1  0
 30 32  1  0
 31 33  1  0
 31 34  1  0
 34 32  1  0
 32 35  1  0
 34 36  1  0
 37 35  1  0
 38 35  1  0
 39 37  2  0
 37 40  1  0
 41 38  2  0
 42 39  1  0
 40 43  2  0
 40 41  1  0
 44 42  2  0
 44 43  1  0
 43 45  1  0
  6 46  1  6
  7 47  1  0
  7 48  1  0
  8 49  1  0
  8 50  1  0
  9 51  1  0
  9 52  1  0
 10 53  1  0
 10 54  1  0
 11 55  1  0
 11 56  1  0
 12 57  1  0
 16 58  1  0
 16 59  1  0
 18 60  1  0
 20 61  1  0
 21 62  1  0
 23 63  1  0
 28 64  1  0
 28 65  1  0
 29 66  1  0
 31 67  1  0
 32 68  1  0
 33 69  1  0
 34 70  1  0
 36 71  1  0
 38 72  1  0
 42 73  1  0
 45 74  1  0
 45 75  1  0
M  CHG  3   5  -1  22   1  24  -1
M  END
>  <EmbedRMS>  (164) 
0.0739394041686

$$$$

     RDKit          3D

 75 78  0  0  0  0  0  0  0  0999 V2000
    9.4312   42.9407   34.3435 C   0  0  0  0  0  0  0  0  0  0  0  0
   10.4885   43.0415   35.0290 O   0  0  0  0  0  0  0  0  0  0  0  0
    8.8561   41.7124   34.0296 O   0  0  0  0  0  0  0  0  0  0  0  0
    9.4935   40.2159   34.4704 P   0  0  0  0  0  0  0  0  0  0  0  0
    9.7296   40.1742   36.1313 O   0  0  0  0  0  0  0  0  0  0  0  0
    8.7475   44.1343   33.7713 C   0  0  1  0  0  0  0  0  0  0  0  0
    9.2988   45.3653   34.3386 N   0  0  0  0  0  0  0  0  0  0  0  0
    8.8901   44.0521   32.2303 C   0  0  0  0  0  0  0  0  0  0  0  0
    8.2028   45.1735   31.4443 C   0  0  0  0  0  0  0  0  0  0  0  0
    6.6657   45.1069   31.4878 C   0  0  0  0  0  0  0  0  0  0  0  0
    6.0285   46.3258   30.8142 C   0  0  0  0  0  0  0  0  0  0  0  0
    6.5123   47.5648   31.4236 N   0  0  0  0  0  0  0  0  0  0  0  0
    7.2399   48.5469   30.6776 C   0  0  0  0  0  0  0  0  0  0  0  0
    7.5868   49.7860   31.2319 O   0  0  0  0  0  0  0  0  0  0  0  0
    7.5917   48.3032   29.4941 O   0  0  0  0  0  0  0  0  0  0  0  0
    7.2944   50.1984   32.5671 C   0  0  0  0  0  0  0  0  0  0  0  0
    8.1767   49.4908   33.5746 C   0  0  0  0  0  0  0  0  0  0  0  0
    9.5369   49.3028   33.2612 C   0  0  0  0  0  0  0  0  0  0  0  0
    7.7185   49.1481   34.8749 C   0  0  0  0  0  0  0  0  0  0  0  0
   10.4202   48.7697   34.2009 C   0  0  0  0  0  0  0  0  0  0  0  0
    8.6278   48.6325   35.8135 C   0  0  0  0  0  0  0  0  0  0  0  0
    6.3561   49.3480   35.2781 N   0  0  0  0  0  0  0  0  0  0  0  0
    9.9678   48.4401   35.4766 C   0  0  0  0  0  0  0  0  0  0  0  0
    6.0883   49.8791   36.5185 O   0  0  0  0  0  0  0  0  0  0  0  0
    5.4302   48.7983   34.6477 O   0  0  0  0  0  0  0  0  0  0  0  0
    8.5370   39.1397   34.0140 O   0  0  0  0  0  0  0  0  0  0  0  0
   10.9791   40.0873   33.6873 O   0  0  0  0  0  0  0  0  0  0  0  0
   10.7993   40.0946   32.2885 C   0  0  0  0  0  0  0  0  0  0  0  0
   11.5957   38.9352   31.6994 C   0  0  0  0  0  0  0  0  0  0  0  0
   12.9257   38.9478   32.1798 O   0  0  0  0  0  0  0  0  0  0  0  0
   11.0070   37.5758   32.0732 C   0  0  0  0  0  0  0  0  0  0  0  0
   13.3571   37.5980   32.2612 C   0  0  0  0  0  0  0  0  0  0  0  0
    9.9093   37.1808   31.2875 O   0  0  0  0  0  0  0  0  0  0  0  0
   12.1967   36.6764   31.8894 C   0  0  0  0  0  0  0  0  0  0  0  0
   13.8018   37.2956   33.6197 N   0  0  0  0  0  0  0  0  0  0  0  0
   12.3048   36.2360   30.5555 O   0  0  0  0  0  0  0  0  0  0  0  0
   14.7922   36.4716   33.9864 C   0  0  0  0  0  0  0  0  0  0  0  0
   13.2747   37.7291   34.7944 C   0  0  0  0  0  0  0  0  0  0  0  0
   15.6239   35.7581   33.1861 N   0  0  0  0  0  0  0  0  0  0  0  0
   14.8721   36.4402   35.3331 C   0  0  0  0  0  0  0  0  0  0  0  0
   13.9206   37.2257   35.8810 N   0  0  0  0  0  0  0  0  0  0  0  0
   16.5873   34.9924   33.7802 C   0  0  0  0  0  0  0  0  0  0  0  0
   15.8576   35.6714   35.9444 C   0  0  0  0  0  0  0  0  0  0  0  0
   16.7026   34.9585   35.1439 N   0  0  0  0  0  0  0  0  0  0  0  0
   16.0102   35.6382   37.3564 N   0  0  0  0  0  0  0  0  0  0  0  0
    7.6752   44.0594   34.0524 H   0  0  0  0  0  0  0  0  0  0  0  0
   10.2090   45.5913   33.8744 H   0  0  0  0  0  0  0  0  0  0  0  0
    8.6368   46.1492   34.1392 H   0  0  0  0  0  0  0  0  0  0  0  0
    8.4847   43.0822   31.8645 H   0  0  0  0  0  0  0  0  0  0  0  0
    9.9720   44.0656   31.9687 H   0  0  0  0  0  0  0  0  0  0  0  0
    8.5223   45.0993   30.3817 H   0  0  0  0  0  0  0  0  0  0  0  0
    8.5722   46.1499   31.8201 H   0  0  0  0  0  0  0  0  0  0  0  0
    6.3169   44.1816   30.9801 H   0  0  0  0  0  0  0  0  0  0  0  0
    6.3148   45.0761   32.5402 H   0  0  0  0  0  0  0  0  0  0  0  0
    6.2432   46.2929   29.7246 H   0  0  0  0  0  0  0  0  0  0  0  0
    4.9254   46.2726   30.9349 H   0  0  0  0  0  0  0  0  0  0  0  0
    6.3004   47.7214   32.4318 H   0  0  0  0  0  0  0  0  0  0  0  0
    6.2118   50.0784   32.7619 H   0  0  0  0  0  0  0  0  0  0  0  0
    7.5094   51.2848   32.6410 H   0  0  0  0  0  0  0  0  0  0  0  0
    9.9220   49.5855   32.2894 H   0  0  0  0  0  0  0  0  0  0  0  0
   11.4615   48.6256   33.9433 H   0  0  0  0  0  0  0  0  0  0  0  0
    8.2924   48.3695   36.8089 H   0  0  0  0  0  0  0  0  0  0  0  0
   10.6562   48.0335   36.2060 H   0  0  0  0  0  0  0  0  0  0  0  0
   11.2093   41.0481   31.8917 H   0  0  0  0  0  0  0  0  0  0  0  0
    9.7448   40.0201   31.9306 H   0  0  0  0  0  0  0  0  0  0  0  0
   11.6207   39.0685   30.5942 H   0  0  0  0  0  0  0  0  0  0  0  0
   10.7059   37.5564   33.1439 H   0  0  0  0  0  0  0  0  0  0  0  0
   14.2095   37.4543   31.5601 H   0  0  0  0  0  0  0  0  0  0  0  0
   10.0864   37.4210   30.3414 H   0  0  0  0  0  0  0  0  0  0  0  0
   12.1275   35.7872   32.5550 H   0  0  0  0  0  0  0  0  0  0  0  0
   12.5030   37.0109   29.9673 H   0  0  0  0  0  0  0  0  0  0  0  0
   12.4328   38.3996   34.8703 H   0  0  0  0  0  0  0  0  0  0  0  0
   17.2670   34.4149   33.1690 H   0  0  0  0  0  0  0  0  0  0  0  0
   16.7640   35.0601   37.7896 H   0  0  0  0  0  0  0  0  0  0  0  0
   15.3758   36.1862   37.9791 H   0  0  0  0  0  0  0  0  0  0  0  0
  1  2  2  0
  1  3  1  0
  3  4  1  0
  4  5  1  0
  6  1  1  0
  7  6  1  0
  6  8  1  0
  8  9  1  0
  9 10  1  0
 10 11  1  0
 11 12  1  0
 12 13  1  0
 13 14  1  0
 13 15  2  0
 14 16  1  0
 16 17  1  0
 17 18  2  0
 19 17  1  0
 18 20  1  0
 21 19  2  0
 19 22  1  0
 20 23  2  0
 23 21  1  0
 22 24  1  0
 22 25  2  0
  4 26  2  0
  4 27  1  0
 28 27  1  0
 28 29  1  0
 29 30  1  0
 29 31  1  0
 30 32  1  0
 31 33  1  0
 31 34  1  0
 34 32  1  0
 32 35  1  0
 34 36  1  0
 37 35  1  0
 38 35  1  0
 39 37  2  0
 37 40  1  0
 41 38  2  0
 42 39  1  0
 40 43  2  0
 40 41  1  0
 44 42  2  0
 44 43  1  0
 43 45  1  0
  6 46  1  6
  7 47  1  0
  7 48  1  0
  8 49  1  0
  8 50  1  0
  9 51  1  0
  9 52  1  0
 10 53  1  0
 10 54  1  0
 11 55  1  0
 11 56  1  0
 12 57  1  0
 16 58  1  0
 16 59  1  0
 18 60  1  0
 20 61  1  0
 21 62  1  0
 23 63  1  0
 28 64  1  0
 28 65  1  0
 29 66  1  0
 31 67  1  0
 32 68  1  0
 33 69  1  0
 34 70  1  0
 36 71  1  0
 38 72  1  0
 42 73  1  0
 45 74  1  0
 45 75  1  0
M  CHG  3   5  -1  22   1  24  -1
M  END
>  <EmbedRMS>  (165) 
0.0751518735269

$$$$

     RDKit          3D

 75 78  0  0  0  0  0  0  0  0999 V2000
    9.4333   42.9365   34.3462 C   0  0  0  0  0  0  0  0  0  0  0  0
   10.4907   43.0330   35.0319 O   0  0  0  0  0  0  0  0  0  0  0  0
    8.8563   41.7104   34.0296 O   0  0  0  0  0  0  0  0  0  0  0  0
    9.4945   40.2142   34.4680 P   0  0  0  0  0  0  0  0  0  0  0  0
    9.7309   40.1726   36.1291 O   0  0  0  0  0  0  0  0  0  0  0  0
    8.7506   44.1348   33.7741 C   0  0  1  0  0  0  0  0  0  0  0  0
    9.2963   45.3820   34.3133 N   0  0  0  0  0  0  0  0  0  0  0  0
    8.8893   44.0527   32.2358 C   0  0  0  0  0  0  0  0  0  0  0  0
    8.2029   45.1822   31.4614 C   0  0  0  0  0  0  0  0  0  0  0  0
    6.6654   45.1046   31.4854 C   0  0  0  0  0  0  0  0  0  0  0  0
    6.0273   46.3228   30.8107 C   0  0  0  0  0  0  0  0  0  0  0  0
    6.5072   47.5639   31.4183 N   0  0  0  0  0  0  0  0  0  0  0  0
    7.2414   48.5405   30.6827 C   0  0  0  0  0  0  0  0  0  0  0  0
    7.5824   49.7469   31.3033 O   0  0  0  0  0  0  0  0  0  0  0  0
    7.5943   48.3108   29.4942 O   0  0  0  0  0  0  0  0  0  0  0  0
    8.2875   50.7957   30.6412 C   0  0  0  0  0  0  0  0  0  0  0  0
    7.4203   51.4415   29.5843 C   0  0  0  0  0  0  0  0  0  0  0  0
    7.8830   51.4598   28.2555 C   0  0  0  0  0  0  0  0  0  0  0  0
    6.1393   51.9846   29.8804 C   0  0  0  0  0  0  0  0  0  0  0  0
    7.0955   51.9908   27.2335 C   0  0  0  0  0  0  0  0  0  0  0  0
    5.3569   52.5002   28.8316 C   0  0  0  0  0  0  0  0  0  0  0  0
    5.6050   52.0040   31.2173 N   0  0  0  0  0  0  0  0  0  0  0  0
    5.8336   52.5062   27.5203 C   0  0  0  0  0  0  0  0  0  0  0  0
    4.2441   51.9484   31.4133 O   0  0  0  0  0  0  0  0  0  0  0  0
    6.3418   52.2329   32.1978 O   0  0  0  0  0  0  0  0  0  0  0  0
    8.5372   39.1386   34.0125 O   0  0  0  0  0  0  0  0  0  0  0  0
   10.9804   40.0880   33.6837 O   0  0  0  0  0  0  0  0  0  0  0  0
   10.8025   40.0899   32.2839 C   0  0  0  0  0  0  0  0  0  0  0  0
   11.5888   38.9174   31.7007 C   0  0  0  0  0  0  0  0  0  0  0  0
   12.9219   38.9373   32.1692 O   0  0  0  0  0  0  0  0  0  0  0  0
   11.0028   37.5682   32.0980 C   0  0  0  0  0  0  0  0  0  0  0  0
   13.3496   37.5885   32.2601 C   0  0  0  0  0  0  0  0  0  0  0  0
    9.9343   37.1822   31.2756 O   0  0  0  0  0  0  0  0  0  0  0  0
   12.1891   36.6677   31.9049 C   0  0  0  0  0  0  0  0  0  0  0  0
   13.8025   37.2965   33.6186 N   0  0  0  0  0  0  0  0  0  0  0  0
   12.2991   36.2867   30.5567 O   0  0  0  0  0  0  0  0  0  0  0  0
   14.7929   36.4725   33.9858 C   0  0  0  0  0  0  0  0  0  0  0  0
   13.2749   37.7294   34.7935 C   0  0  0  0  0  0  0  0  0  0  0  0
   15.6240   35.7580   33.1858 N   0  0  0  0  0  0  0  0  0  0  0  0
   14.8727   36.4411   35.3327 C   0  0  0  0  0  0  0  0  0  0  0  0
   13.9208   37.2263   35.8803 N   0  0  0  0  0  0  0  0  0  0  0  0
   16.5871   34.9921   33.7801 C   0  0  0  0  0  0  0  0  0  0  0  0
   15.8576   35.6718   35.9441 C   0  0  0  0  0  0  0  0  0  0  0  0
   16.7024   34.9584   35.1438 N   0  0  0  0  0  0  0  0  0  0  0  0
   16.0099   35.6384   37.3562 N   0  0  0  0  0  0  0  0  0  0  0  0
    7.6770   44.0706   34.0504 H   0  0  0  0  0  0  0  0  0  0  0  0
   10.3192   45.4406   34.1000 H   0  0  0  0  0  0  0  0  0  0  0  0
    9.1827   45.3821   35.3534 H   0  0  0  0  0  0  0  0  0  0  0  0
    8.4816   43.0850   31.8668 H   0  0  0  0  0  0  0  0  0  0  0  0
    9.9711   44.0680   31.9739 H   0  0  0  0  0  0  0  0  0  0  0  0
    8.5554   46.1509   31.8740 H   0  0  0  0  0  0  0  0  0  0  0  0
    8.5385   45.1361   30.4021 H   0  0  0  0  0  0  0  0  0  0  0  0
    6.3020   45.0641   32.5332 H   0  0  0  0  0  0  0  0  0  0  0  0
    6.3296   44.1801   30.9675 H   0  0  0  0  0  0  0  0  0  0  0  0
    6.2464   46.2901   29.7218 H   0  0  0  0  0  0  0  0  0  0  0  0
    4.9238   46.2680   30.9271 H   0  0  0  0  0  0  0  0  0  0  0  0
    6.2818   47.7538   32.4207 H   0  0  0  0  0  0  0  0  0  0  0  0
    9.2283   50.3880   30.2099 H   0  0  0  0  0  0  0  0  0  0  0  0
    8.5915   51.5593   31.3858 H   0  0  0  0  0  0  0  0  0  0  0  0
    8.8540   51.0510   28.0043 H   0  0  0  0  0  0  0  0  0  0  0  0
    7.4625   51.9961   26.2152 H   0  0  0  0  0  0  0  0  0  0  0  0
    4.3770   52.9147   29.0320 H   0  0  0  0  0  0  0  0  0  0  0  0
    5.2230   52.9136   26.7248 H   0  0  0  0  0  0  0  0  0  0  0  0
   11.2258   41.0357   31.8830 H   0  0  0  0  0  0  0  0  0  0  0  0
    9.7476   40.0331   31.9256 H   0  0  0  0  0  0  0  0  0  0  0  0
   11.5974   39.0148   30.5904 H   0  0  0  0  0  0  0  0  0  0  0  0
   10.7024   37.5455   33.1719 H   0  0  0  0  0  0  0  0  0  0  0  0
   14.1957   37.4366   31.5528 H   0  0  0  0  0  0  0  0  0  0  0  0
    9.1340   37.6658   31.6069 H   0  0  0  0  0  0  0  0  0  0  0  0
   12.1381   35.7717   32.5697 H   0  0  0  0  0  0  0  0  0  0  0  0
   11.7707   35.4530   30.4496 H   0  0  0  0  0  0  0  0  0  0  0  0
   12.4314   38.3980   34.8694 H   0  0  0  0  0  0  0  0  0  0  0  0
   17.2665   34.4140   33.1691 H   0  0  0  0  0  0  0  0  0  0  0  0
   15.3757   36.1868   37.9789 H   0  0  0  0  0  0  0  0  0  0  0  0
   16.7633   35.0598   37.7895 H   0  0  0  0  0  0  0  0  0  0  0  0
  1  2  2  0
  1  3  1  0
  3  4  1  0
  4  5  1  0
  6  1  1  0
  7  6  1  0
  6  8  1  0
  8  9  1  0
  9 10  1  0
 10 11  1  0
 11 12  1  0
 12 13  1  0
 13 14  1  0
 13 15  2  0
 14 16  1  0
 16 17  1  0
 17 18  2  0
 19 17  1  0
 18 20  1  0
 21 19  2  0
 19 22  1  0
 20 23  2  0
 23 21  1  0
 22 24  1  0
 22 25  2  0
  4 26  2  0
  4 27  1  0
 28 27  1  0
 28 29  1  0
 29 30  1  0
 29 31  1  0
 30 32  1  0
 31 33  1  0
 31 34  1  0
 34 32  1  0
 32 35  1  0
 34 36  1  0
 37 35  1  0
 38 35  1  0
 39 37  2  0
 37 40  1  0
 41 38  2  0
 42 39  1  0
 40 43  2  0
 40 41  1  0
 44 42  2  0
 44 43  1  0
 43 45  1  0
  6 46  1  6
  7 47  1  0
  7 48  1  0
  8 49  1  0
  8 50  1  0
  9 51  1  0
  9 52  1  0
 10 53  1  0
 10 54  1  0
 11 55  1  0
 11 56  1  0
 12 57  1  0
 16 58  1  0
 16 59  1  0
 18 60  1  0
 20 61  1  0
 21 62  1  0
 23 63  1  0
 28 64  1  0
 28 65  1  0
 29 66  1  0
 31 67  1  0
 32 68  1  0
 33 69  1  0
 34 70  1  0
 36 71  1  0
 38 72  1  0
 42 73  1  0
 45 74  1  0
 45 75  1  0
M  CHG  3   5  -1  22   1  24  -1
M  END
>  <EmbedRMS>  (166) 
0.0741553698812

$$$$

     RDKit          3D

 75 78  0  0  0  0  0  0  0  0999 V2000
    9.4298   42.9392   34.3435 C   0  0  0  0  0  0  0  0  0  0  0  0
   10.4911   43.0386   35.0233 O   0  0  0  0  0  0  0  0  0  0  0  0
    8.8544   41.7112   34.0297 O   0  0  0  0  0  0  0  0  0  0  0  0
    9.4931   40.2155   34.4703 P   0  0  0  0  0  0  0  0  0  0  0  0
    9.7297   40.1740   36.1312 O   0  0  0  0  0  0  0  0  0  0  0  0
    8.7403   44.1362   33.7779 C   0  0  1  0  0  0  0  0  0  0  0  0
    9.2975   45.3707   34.3316 N   0  0  0  0  0  0  0  0  0  0  0  0
    8.8969   44.0591   32.2396 C   0  0  0  0  0  0  0  0  0  0  0  0
    8.2040   45.1696   31.4406 C   0  0  0  0  0  0  0  0  0  0  0  0
    6.6666   45.1064   31.4899 C   0  0  0  0  0  0  0  0  0  0  0  0
    6.0296   46.3243   30.8141 C   0  0  0  0  0  0  0  0  0  0  0  0
    6.5120   47.5641   31.4233 N   0  0  0  0  0  0  0  0  0  0  0  0
    7.2396   48.5466   30.6780 C   0  0  0  0  0  0  0  0  0  0  0  0
    7.5862   49.7854   31.2333 O   0  0  0  0  0  0  0  0  0  0  0  0
    7.5917   48.3035   29.4944 O   0  0  0  0  0  0  0  0  0  0  0  0
    7.2917   50.1977   32.5682 C   0  0  0  0  0  0  0  0  0  0  0  0
    8.1712   49.4884   33.5769 C   0  0  0  0  0  0  0  0  0  0  0  0
    9.5328   49.3037   33.2678 C   0  0  0  0  0  0  0  0  0  0  0  0
    7.7086   49.1395   34.8741 C   0  0  0  0  0  0  0  0  0  0  0  0
   10.4134   48.7678   34.2085 C   0  0  0  0  0  0  0  0  0  0  0  0
    8.6151   48.6206   35.8136 C   0  0  0  0  0  0  0  0  0  0  0  0
    6.3449   49.3377   35.2739 N   0  0  0  0  0  0  0  0  0  0  0  0
    9.9567   48.4320   35.4810 C   0  0  0  0  0  0  0  0  0  0  0  0
    6.0734   49.8641   36.5155 O   0  0  0  0  0  0  0  0  0  0  0  0
    5.4209   48.7906   34.6386 O   0  0  0  0  0  0  0  0  0  0  0  0
    8.5371   39.1388   34.0142 O   0  0  0  0  0  0  0  0  0  0  0  0
   10.9786   40.0890   33.6867 O   0  0  0  0  0  0  0  0  0  0  0  0
   10.7973   40.0897   32.2881 C   0  0  0  0  0  0  0  0  0  0  0  0
   11.5882   38.9235   31.7043 C   0  0  0  0  0  0  0  0  0  0  0  0
   12.9230   38.9440   32.1728 O   0  0  0  0  0  0  0  0  0  0  0  0
   11.0048   37.5704   32.0916 C   0  0  0  0  0  0  0  0  0  0  0  0
   13.3570   37.5961   32.2595 C   0  0  0  0  0  0  0  0  0  0  0  0
    9.9332   37.1987   31.2676 O   0  0  0  0  0  0  0  0  0  0  0  0
   12.1965   36.6751   31.8950 C   0  0  0  0  0  0  0  0  0  0  0  0
   13.8037   37.2979   33.6187 N   0  0  0  0  0  0  0  0  0  0  0  0
   12.2934   36.2389   30.5582 O   0  0  0  0  0  0  0  0  0  0  0  0
   14.7929   36.4726   33.9860 C   0  0  0  0  0  0  0  0  0  0  0  0
   13.2755   37.7304   34.7934 C   0  0  0  0  0  0  0  0  0  0  0  0
   15.6244   35.7585   33.1859 N   0  0  0  0  0  0  0  0  0  0  0  0
   14.8722   36.4406   35.3328 C   0  0  0  0  0  0  0  0  0  0  0  0
   13.9205   37.2263   35.8803 N   0  0  0  0  0  0  0  0  0  0  0  0
   16.5872   34.9923   33.7802 C   0  0  0  0  0  0  0  0  0  0  0  0
   15.8573   35.6715   35.9442 C   0  0  0  0  0  0  0  0  0  0  0  0
   16.7023   34.9584   35.1439 N   0  0  0  0  0  0  0  0  0  0  0  0
   16.0098   35.6384   37.3563 N   0  0  0  0  0  0  0  0  0  0  0  0
    7.6656   44.0621   34.0530 H   0  0  0  0  0  0  0  0  0  0  0  0
    8.6723   46.1608   34.0549 H   0  0  0  0  0  0  0  0  0  0  0  0
    9.2268   45.3280   35.3749 H   0  0  0  0  0  0  0  0  0  0  0  0
    8.5095   43.0840   31.8679 H   0  0  0  0  0  0  0  0  0  0  0  0
    9.9818   44.0912   31.9924 H   0  0  0  0  0  0  0  0  0  0  0  0
    8.5779   46.1522   31.7939 H   0  0  0  0  0  0  0  0  0  0  0  0
    8.5180   45.0779   30.3777 H   0  0  0  0  0  0  0  0  0  0  0  0
    6.3188   45.0812   32.5433 H   0  0  0  0  0  0  0  0  0  0  0  0
    6.3144   44.1795   30.9875 H   0  0  0  0  0  0  0  0  0  0  0  0
    6.2458   46.2907   29.7248 H   0  0  0  0  0  0  0  0  0  0  0  0
    4.9264   46.2707   30.9335 H   0  0  0  0  0  0  0  0  0  0  0  0
    6.2992   47.7206   32.4312 H   0  0  0  0  0  0  0  0  0  0  0  0
    6.2086   50.0792   32.7609 H   0  0  0  0  0  0  0  0  0  0  0  0
    7.5082   51.2837   32.6429 H   0  0  0  0  0  0  0  0  0  0  0  0
    9.9210   49.5911   32.2986 H   0  0  0  0  0  0  0  0  0  0  0  0
   11.4560   48.6267   33.9544 H   0  0  0  0  0  0  0  0  0  0  0  0
    8.2764   48.3525   36.8065 H   0  0  0  0  0  0  0  0  0  0  0  0
   10.6429   48.0231   36.2114 H   0  0  0  0  0  0  0  0  0  0  0  0
   11.2112   41.0391   31.8857 H   0  0  0  0  0  0  0  0  0  0  0  0
    9.7422   40.0187   31.9313 H   0  0  0  0  0  0  0  0  0  0  0  0
   11.5932   39.0395   30.5966 H   0  0  0  0  0  0  0  0  0  0  0  0
   10.6986   37.5586   33.1640 H   0  0  0  0  0  0  0  0  0  0  0  0
   14.2072   37.4493   31.5564 H   0  0  0  0  0  0  0  0  0  0  0  0
    9.5321   36.3882   31.6772 H   0  0  0  0  0  0  0  0  0  0  0  0
   12.1344   35.7838   32.5583 H   0  0  0  0  0  0  0  0  0  0  0  0
   12.4642   37.0179   29.9675 H   0  0  0  0  0  0  0  0  0  0  0  0
   12.4333   38.4006   34.8692 H   0  0  0  0  0  0  0  0  0  0  0  0
   17.2668   34.4144   33.1692 H   0  0  0  0  0  0  0  0  0  0  0  0
   15.3755   36.1866   37.9790 H   0  0  0  0  0  0  0  0  0  0  0  0
   16.7634   35.0600   37.7896 H   0  0  0  0  0  0  0  0  0  0  0  0
  1  2  2  0
  1  3  1  0
  3  4  1  0
  4  5  1  0
  6  1  1  0
  7  6  1  0
  6  8  1  0
  8  9  1  0
  9 10  1  0
 10 11  1  0
 11 12  1  0
 12 13  1  0
 13 14  1  0
 13 15  2  0
 14 16  1  0
 16 17  1  0
 17 18  2  0
 19 17  1  0
 18 20  1  0
 21 19  2  0
 19 22  1  0
 20 23  2  0
 23 21  1  0
 22 24  1  0
 22 25  2  0
  4 26  2  0
  4 27  1  0
 28 27  1  0
 28 29  1  0
 29 30  1  0
 29 31  1  0
 30 32  1  0
 31 33  1  0
 31 34  1  0
 34 32  1  0
 32 35  1  0
 34 36  1  0
 37 35  1  0
 38 35  1  0
 39 37  2  0
 37 40  1  0
 41 38  2  0
 42 39  1  0
 40 43  2  0
 40 41  1  0
 44 42  2  0
 44 43  1  0
 43 45  1  0
  6 46  1  6
  7 47  1  0
  7 48  1  0
  8 49  1  0
  8 50  1  0
  9 51  1  0
  9 52  1  0
 10 53  1  0
 10 54  1  0
 11 55  1  0
 11 56  1  0
 12 57  1  0
 16 58  1  0
 16 59  1  0
 18 60  1  0
 20 61  1  0
 21 62  1  0
 23 63  1  0
 28 64  1  0
 28 65  1  0
 29 66  1  0
 31 67  1  0
 32 68  1  0
 33 69  1  0
 34 70  1  0
 36 71  1  0
 38 72  1  0
 42 73  1  0
 45 74  1  0
 45 75  1  0
M  CHG  3   5  -1  22   1  24  -1
M  END
>  <EmbedRMS>  (167) 
0.0750209969019

$$$$

     RDKit          3D

 75 78  0  0  0  0  0  0  0  0999 V2000
    9.4331   42.9365   34.3462 C   0  0  0  0  0  0  0  0  0  0  0  0
   10.4907   43.0329   35.0318 O   0  0  0  0  0  0  0  0  0  0  0  0
    8.8558   41.7104   34.0299 O   0  0  0  0  0  0  0  0  0  0  0  0
    9.4944   40.2141   34.4677 P   0  0  0  0  0  0  0  0  0  0  0  0
    9.7317   40.1723   36.1287 O   0  0  0  0  0  0  0  0  0  0  0  0
    8.7506   44.1348   33.7741 C   0  0  1  0  0  0  0  0  0  0  0  0
    9.2963   45.3820   34.3133 N   0  0  0  0  0  0  0  0  0  0  0  0
    8.8893   44.0527   32.2358 C   0  0  0  0  0  0  0  0  0  0  0  0
    8.2028   45.1823   31.4615 C   0  0  0  0  0  0  0  0  0  0  0  0
    6.6653   45.1046   31.4855 C   0  0  0  0  0  0  0  0  0  0  0  0
    6.0270   46.3226   30.8105 C   0  0  0  0  0  0  0  0  0  0  0  0
    6.5064   47.5639   31.4180 N   0  0  0  0  0  0  0  0  0  0  0  0
    7.2433   48.5393   30.6834 C   0  0  0  0  0  0  0  0  0  0  0  0
    7.5911   49.7409   31.3056 O   0  0  0  0  0  0  0  0  0  0  0  0
    7.5935   48.3118   29.4937 O   0  0  0  0  0  0  0  0  0  0  0  0
    8.3319   50.7635   30.6465 C   0  0  0  0  0  0  0  0  0  0  0  0
    8.5075   51.9421   31.5715 C   0  0  0  0  0  0  0  0  0  0  0  0
    9.8129   52.3701   31.8783 C   0  0  0  0  0  0  0  0  0  0  0  0
    7.4020   52.6031   32.1731 C   0  0  0  0  0  0  0  0  0  0  0  0
   10.0276   53.4227   32.7687 C   0  0  0  0  0  0  0  0  0  0  0  0
    7.6431   53.6524   33.0796 C   0  0  0  0  0  0  0  0  0  0  0  0
    6.0422   52.2171   31.8986 N   0  0  0  0  0  0  0  0  0  0  0  0
    8.9452   54.0601   33.3708 C   0  0  0  0  0  0  0  0  0  0  0  0
    5.6501   51.8770   30.6251 O   0  0  0  0  0  0  0  0  0  0  0  0
    5.1673   52.3409   32.7807 O   0  0  0  0  0  0  0  0  0  0  0  0
    8.5373   39.1382   34.0122 O   0  0  0  0  0  0  0  0  0  0  0  0
   10.9795   40.0889   33.6815 O   0  0  0  0  0  0  0  0  0  0  0  0
   10.7982   40.0848   32.2819 C   0  0  0  0  0  0  0  0  0  0  0  0
   11.5886   38.9142   31.7009 C   0  0  0  0  0  0  0  0  0  0  0  0
   12.9214   38.9367   32.1698 O   0  0  0  0  0  0  0  0  0  0  0  0
   11.0047   37.5660   32.0990 C   0  0  0  0  0  0  0  0  0  0  0  0
   13.3511   37.5885   32.2601 C   0  0  0  0  0  0  0  0  0  0  0  0
    9.9296   37.1961   31.2780 O   0  0  0  0  0  0  0  0  0  0  0  0
   12.1923   36.6658   31.9047 C   0  0  0  0  0  0  0  0  0  0  0  0
   13.8033   37.2966   33.6188 N   0  0  0  0  0  0  0  0  0  0  0  0
   12.3007   36.2864   30.5561 O   0  0  0  0  0  0  0  0  0  0  0  0
   14.7933   36.4724   33.9860 C   0  0  0  0  0  0  0  0  0  0  0  0
   13.2753   37.7296   34.7935 C   0  0  0  0  0  0  0  0  0  0  0  0
   15.6243   35.7579   33.1860 N   0  0  0  0  0  0  0  0  0  0  0  0
   14.8728   36.4410   35.3328 C   0  0  0  0  0  0  0  0  0  0  0  0
   13.9209   37.2263   35.8804 N   0  0  0  0  0  0  0  0  0  0  0  0
   16.5873   34.9919   33.7803 C   0  0  0  0  0  0  0  0  0  0  0  0
   15.8577   35.6716   35.9443 C   0  0  0  0  0  0  0  0  0  0  0  0
   16.7025   34.9583   35.1440 N   0  0  0  0  0  0  0  0  0  0  0  0
   16.0100   35.6384   37.3563 N   0  0  0  0  0  0  0  0  0  0  0  0
    7.6770   44.0707   34.0504 H   0  0  0  0  0  0  0  0  0  0  0  0
   10.3192   45.4406   34.1000 H   0  0  0  0  0  0  0  0  0  0  0  0
    9.1827   45.3820   35.3535 H   0  0  0  0  0  0  0  0  0  0  0  0
    9.9711   44.0681   31.9740 H   0  0  0  0  0  0  0  0  0  0  0  0
    8.4816   43.0851   31.8668 H   0  0  0  0  0  0  0  0  0  0  0  0
    8.5552   46.1510   31.8742 H   0  0  0  0  0  0  0  0  0  0  0  0
    8.5384   45.1363   30.4022 H   0  0  0  0  0  0  0  0  0  0  0  0
    6.3296   44.1799   30.9678 H   0  0  0  0  0  0  0  0  0  0  0  0
    6.3020   45.0643   32.5333 H   0  0  0  0  0  0  0  0  0  0  0  0
    6.2465   46.2898   29.7217 H   0  0  0  0  0  0  0  0  0  0  0  0
    4.9236   46.2674   30.9265 H   0  0  0  0  0  0  0  0  0  0  0  0
    6.2816   47.7534   32.4207 H   0  0  0  0  0  0  0  0  0  0  0  0
    7.8071   51.0869   29.7233 H   0  0  0  0  0  0  0  0  0  0  0  0
    9.3164   50.3498   30.3355 H   0  0  0  0  0  0  0  0  0  0  0  0
   10.6721   51.8831   31.4337 H   0  0  0  0  0  0  0  0  0  0  0  0
   11.0368   53.7407   32.9968 H   0  0  0  0  0  0  0  0  0  0  0  0
    6.8167   54.1678   33.5526 H   0  0  0  0  0  0  0  0  0  0  0  0
    9.1149   54.8738   34.0642 H   0  0  0  0  0  0  0  0  0  0  0  0
   11.2131   41.0320   31.8757 H   0  0  0  0  0  0  0  0  0  0  0  0
    9.7427   40.0140   31.9266 H   0  0  0  0  0  0  0  0  0  0  0  0
   11.5980   39.0108   30.5904 H   0  0  0  0  0  0  0  0  0  0  0  0
   10.7009   37.5602   33.1721 H   0  0  0  0  0  0  0  0  0  0  0  0
   14.1977   37.4380   31.5532 H   0  0  0  0  0  0  0  0  0  0  0  0
    9.5181   36.3960   31.6977 H   0  0  0  0  0  0  0  0  0  0  0  0
   12.1419   35.7697   32.5692 H   0  0  0  0  0  0  0  0  0  0  0  0
   11.7730   35.4523   30.4488 H   0  0  0  0  0  0  0  0  0  0  0  0
   12.4321   38.3984   34.8692 H   0  0  0  0  0  0  0  0  0  0  0  0
   17.2667   34.4138   33.1694 H   0  0  0  0  0  0  0  0  0  0  0  0
   15.3757   36.1867   37.9790 H   0  0  0  0  0  0  0  0  0  0  0  0
   16.7634   35.0598   37.7897 H   0  0  0  0  0  0  0  0  0  0  0  0
  1  2  2  0
  1  3  1  0
  3  4  1  0
  4  5  1  0
  6  1  1  0
  7  6  1  0
  6  8  1  0
  8  9  1  0
  9 10  1  0
 10 11  1  0
 11 12  1  0
 12 13  1  0
 13 14  1  0
 13 15  2  0
 14 16  1  0
 16 17  1  0
 17 18  2  0
 19 17  1  0
 18 20  1  0
 21 19  2  0
 19 22  1  0
 20 23  2  0
 23 21  1  0
 22 24  1  0
 22 25  2  0
  4 26  2  0
  4 27  1  0
 28 27  1  0
 28 29  1  0
 29 30  1  0
 29 31  1  0
 30 32  1  0
 31 33  1  0
 31 34  1  0
 34 32  1  0
 32 35  1  0
 34 36  1  0
 37 35  1  0
 38 35  1  0
 39 37  2  0
 37 40  1  0
 41 38  2  0
 42 39  1  0
 40 43  2  0
 40 41  1  0
 44 42  2  0
 44 43  1  0
 43 45  1  0
  6 46  1  6
  7 47  1  0
  7 48  1  0
  8 49  1  0
  8 50  1  0
  9 51  1  0
  9 52  1  0
 10 53  1  0
 10 54  1  0
 11 55  1  0
 11 56  1  0
 12 57  1  0
 16 58  1  0
 16 59  1  0
 18 60  1  0
 20 61  1  0
 21 62  1  0
 23 63  1  0
 28 64  1  0
 28 65  1  0
 29 66  1  0
 31 67  1  0
 32 68  1  0
 33 69  1  0
 34 70  1  0
 36 71  1  0
 38 72  1  0
 42 73  1  0
 45 74  1  0
 45 75  1  0
M  CHG  3   5  -1  22   1  24  -1
M  END
>  <EmbedRMS>  (168) 
0.0743970418072

$$$$

     RDKit          3D

 75 78  0  0  0  0  0  0  0  0999 V2000
    9.4336   42.9374   34.3456 C   0  0  0  0  0  0  0  0  0  0  0  0
   10.4909   43.0338   35.0314 O   0  0  0  0  0  0  0  0  0  0  0  0
    8.8560   41.7112   34.0301 O   0  0  0  0  0  0  0  0  0  0  0  0
    9.4930   40.2148   34.4707 P   0  0  0  0  0  0  0  0  0  0  0  0
    9.7287   40.1734   36.1316 O   0  0  0  0  0  0  0  0  0  0  0  0
    8.7512   44.1362   33.7736 C   0  0  1  0  0  0  0  0  0  0  0  0
    9.2971   45.3833   34.3129 N   0  0  0  0  0  0  0  0  0  0  0  0
    8.8895   44.0554   32.2352 C   0  0  0  0  0  0  0  0  0  0  0  0
    8.2021   45.1860   31.4620 C   0  0  0  0  0  0  0  0  0  0  0  0
    6.6644   45.1063   31.4851 C   0  0  0  0  0  0  0  0  0  0  0  0
    6.0227   46.3214   30.8065 C   0  0  0  0  0  0  0  0  0  0  0  0
    6.4933   47.5658   31.4141 N   0  0  0  0  0  0  0  0  0  0  0  0
    7.2658   48.5240   30.6943 C   0  0  0  0  0  0  0  0  0  0  0  0
    7.7171   49.6686   31.3585 O   0  0  0  0  0  0  0  0  0  0  0  0
    7.5884   48.3117   29.4946 O   0  0  0  0  0  0  0  0  0  0  0  0
    8.7229   50.5349   30.8355 C   0  0  0  0  0  0  0  0  0  0  0  0
   10.0546   49.8202   30.7689 C   0  0  0  0  0  0  0  0  0  0  0  0
   10.5345   49.2077   31.9415 C   0  0  0  0  0  0  0  0  0  0  0  0
   10.8584   49.7964   29.5994 C   0  0  0  0  0  0  0  0  0  0  0  0
   11.7782   48.5750   31.9589 C   0  0  0  0  0  0  0  0  0  0  0  0
   12.1174   49.1726   29.6425 C   0  0  0  0  0  0  0  0  0  0  0  0
   10.4257   50.3992   28.3712 N   0  0  0  0  0  0  0  0  0  0  0  0
   12.5700   48.5607   30.8122 C   0  0  0  0  0  0  0  0  0  0  0  0
    9.2426   50.0045   27.7915 O   0  0  0  0  0  0  0  0  0  0  0  0
   11.2276   51.0796   27.6987 O   0  0  0  0  0  0  0  0  0  0  0  0
    8.5365   39.1390   34.0140 O   0  0  0  0  0  0  0  0  0  0  0  0
   10.9794   40.0875   33.6889 O   0  0  0  0  0  0  0  0  0  0  0  0
   10.8018   40.0948   32.2901 C   0  0  0  0  0  0  0  0  0  0  0  0
   11.5885   38.9266   31.7041 C   0  0  0  0  0  0  0  0  0  0  0  0
   12.9237   38.9445   32.1721 O   0  0  0  0  0  0  0  0  0  0  0  0
   11.0029   37.5726   32.0908 C   0  0  0  0  0  0  0  0  0  0  0  0
   13.3555   37.5960   32.2595 C   0  0  0  0  0  0  0  0  0  0  0  0
    9.9380   37.1846   31.2656 O   0  0  0  0  0  0  0  0  0  0  0  0
   12.1932   36.6769   31.8952 C   0  0  0  0  0  0  0  0  0  0  0  0
   13.8028   37.2977   33.6186 N   0  0  0  0  0  0  0  0  0  0  0  0
   12.2918   36.2396   30.5587 O   0  0  0  0  0  0  0  0  0  0  0  0
   14.7926   36.4727   33.9858 C   0  0  0  0  0  0  0  0  0  0  0  0
   13.2750   37.7302   34.7935 C   0  0  0  0  0  0  0  0  0  0  0  0
   15.6241   35.7586   33.1857 N   0  0  0  0  0  0  0  0  0  0  0  0
   14.8721   36.4408   35.3326 C   0  0  0  0  0  0  0  0  0  0  0  0
   13.9204   37.2263   35.8802 N   0  0  0  0  0  0  0  0  0  0  0  0
   16.5870   34.9924   33.7800 C   0  0  0  0  0  0  0  0  0  0  0  0
   15.8572   35.6717   35.9441 C   0  0  0  0  0  0  0  0  0  0  0  0
   16.7022   34.9585   35.1437 N   0  0  0  0  0  0  0  0  0  0  0  0
   16.0097   35.6384   37.3561 N   0  0  0  0  0  0  0  0  0  0  0  0
    7.6776   44.0724   34.0498 H   0  0  0  0  0  0  0  0  0  0  0  0
    9.1870   45.3821   35.3534 H   0  0  0  0  0  0  0  0  0  0  0  0
   10.3191   45.4443   34.0958 H   0  0  0  0  0  0  0  0  0  0  0  0
    9.9713   44.0720   31.9732 H   0  0  0  0  0  0  0  0  0  0  0  0
    8.4825   43.0878   31.8655 H   0  0  0  0  0  0  0  0  0  0  0  0
    8.5386   45.1422   30.4030 H   0  0  0  0  0  0  0  0  0  0  0  0
    8.5528   46.1549   31.8761 H   0  0  0  0  0  0  0  0  0  0  0  0
    6.3308   44.1798   30.9695 H   0  0  0  0  0  0  0  0  0  0  0  0
    6.3007   45.0675   32.5329 H   0  0  0  0  0  0  0  0  0  0  0  0
    6.2465   46.2885   29.7186 H   0  0  0  0  0  0  0  0  0  0  0  0
    4.9191   46.2612   30.9179 H   0  0  0  0  0  0  0  0  0  0  0  0
    6.2720   47.7505   32.4184 H   0  0  0  0  0  0  0  0  0  0  0  0
    8.8285   51.3975   31.5264 H   0  0  0  0  0  0  0  0  0  0  0  0
    8.3927   50.9481   29.8632 H   0  0  0  0  0  0  0  0  0  0  0  0
    9.9423   49.2229   32.8485 H   0  0  0  0  0  0  0  0  0  0  0  0
   12.1316   48.1021   32.8661 H   0  0  0  0  0  0  0  0  0  0  0  0
   12.7431   49.1471   28.7590 H   0  0  0  0  0  0  0  0  0  0  0  0
   13.5369   48.0746   30.8293 H   0  0  0  0  0  0  0  0  0  0  0  0
   11.2242   41.0427   31.8934 H   0  0  0  0  0  0  0  0  0  0  0  0
    9.7473   40.0379   31.9303 H   0  0  0  0  0  0  0  0  0  0  0  0
   11.5927   39.0434   30.5965 H   0  0  0  0  0  0  0  0  0  0  0  0
   10.7003   37.5442   33.1640 H   0  0  0  0  0  0  0  0  0  0  0  0
   14.2052   37.4477   31.5560 H   0  0  0  0  0  0  0  0  0  0  0  0
    9.1374   37.6722   31.5905 H   0  0  0  0  0  0  0  0  0  0  0  0
   12.1305   35.7856   32.5585 H   0  0  0  0  0  0  0  0  0  0  0  0
   12.4606   37.0186   29.9674 H   0  0  0  0  0  0  0  0  0  0  0  0
   12.4327   38.4001   34.8694 H   0  0  0  0  0  0  0  0  0  0  0  0
   17.2666   34.4146   33.1690 H   0  0  0  0  0  0  0  0  0  0  0  0
   16.7634   35.0601   37.7894 H   0  0  0  0  0  0  0  0  0  0  0  0
   15.3754   36.1866   37.9788 H   0  0  0  0  0  0  0  0  0  0  0  0
  1  2  2  0
  1  3  1  0
  3  4  1  0
  4  5  1  0
  6  1  1  0
  7  6  1  0
  6  8  1  0
  8  9  1  0
  9 10  1  0
 10 11  1  0
 11 12  1  0
 12 13  1  0
 13 14  1  0
 13 15  2  0
 14 16  1  0
 16 17  1  0
 17 18  2  0
 19 17  1  0
 18 20  1  0
 21 19  2  0
 19 22  1  0
 20 23  2  0
 23 21  1  0
 22 24  1  0
 22 25  2  0
  4 26  2  0
  4 27  1  0
 28 27  1  0
 28 29  1  0
 29 30  1  0
 29 31  1  0
 30 32  1  0
 31 33  1  0
 31 34  1  0
 34 32  1  0
 32 35  1  0
 34 36  1  0
 37 35  1  0
 38 35  1  0
 39 37  2  0
 37 40  1  0
 41 38  2  0
 42 39  1  0
 40 43  2  0
 40 41  1  0
 44 42  2  0
 44 43  1  0
 43 45  1  0
  6 46  1  6
  7 47  1  0
  7 48  1  0
  8 49  1  0
  8 50  1  0
  9 51  1  0
  9 52  1  0
 10 53  1  0
 10 54  1  0
 11 55  1  0
 11 56  1  0
 12 57  1  0
 16 58  1  0
 16 59  1  0
 18 60  1  0
 20 61  1  0
 21 62  1  0
 23 63  1  0
 28 64  1  0
 28 65  1  0
 29 66  1  0
 31 67  1  0
 32 68  1  0
 33 69  1  0
 34 70  1  0
 36 71  1  0
 38 72  1  0
 42 73  1  0
 45 74  1  0
 45 75  1  0
M  CHG  3   5  -1  22   1  24  -1
M  END
>  <EmbedRMS>  (169) 
0.0765150638032

$$$$

     RDKit          3D

 75 78  0  0  0  0  0  0  0  0999 V2000
    9.4331   42.9365   34.3461 C   0  0  0  0  0  0  0  0  0  0  0  0
   10.4906   43.0331   35.0318 O   0  0  0  0  0  0  0  0  0  0  0  0
    8.8562   41.7103   34.0295 O   0  0  0  0  0  0  0  0  0  0  0  0
    9.4943   40.2140   34.4679 P   0  0  0  0  0  0  0  0  0  0  0  0
    9.7310   40.1724   36.1290 O   0  0  0  0  0  0  0  0  0  0  0  0
    8.7504   44.1348   33.7739 C   0  0  1  0  0  0  0  0  0  0  0  0
    9.2960   45.3821   34.3131 N   0  0  0  0  0  0  0  0  0  0  0  0
    8.8892   44.0526   32.2357 C   0  0  0  0  0  0  0  0  0  0  0  0
    8.2032   45.1823   31.4610 C   0  0  0  0  0  0  0  0  0  0  0  0
    6.6657   45.1033   31.4817 C   0  0  0  0  0  0  0  0  0  0  0  0
    6.0276   46.3245   30.8114 C   0  0  0  0  0  0  0  0  0  0  0  0
    6.5105   47.5625   31.4230 N   0  0  0  0  0  0  0  0  0  0  0  0
    7.2374   48.5473   30.6790 C   0  0  0  0  0  0  0  0  0  0  0  0
    7.5833   49.7854   31.2376 O   0  0  0  0  0  0  0  0  0  0  0  0
    7.5951   48.3041   29.4971 O   0  0  0  0  0  0  0  0  0  0  0  0
    7.1778   50.2418   32.5278 C   0  0  0  0  0  0  0  0  0  0  0  0
    5.6890   50.5043   32.5702 C   0  0  0  0  0  0  0  0  0  0  0  0
    4.9253   49.8886   33.5792 C   0  0  0  0  0  0  0  0  0  0  0  0
    5.0357   51.3211   31.6081 C   0  0  0  0  0  0  0  0  0  0  0  0
    3.5403   50.0501   33.6243 C   0  0  0  0  0  0  0  0  0  0  0  0
    3.6362   51.4578   31.6635 C   0  0  0  0  0  0  0  0  0  0  0  0
    5.7634   52.0026   30.5701 N   0  0  0  0  0  0  0  0  0  0  0  0
    2.8963   50.8282   32.6649 C   0  0  0  0  0  0  0  0  0  0  0  0
    6.9712   52.6034   30.8382 O   0  0  0  0  0  0  0  0  0  0  0  0
    5.2309   52.1979   29.4579 O   0  0  0  0  0  0  0  0  0  0  0  0
    8.5372   39.1382   34.0121 O   0  0  0  0  0  0  0  0  0  0  0  0
   10.9798   40.0871   33.6829 O   0  0  0  0  0  0  0  0  0  0  0  0
   10.8002   40.0905   32.2832 C   0  0  0  0  0  0  0  0  0  0  0  0
   11.5958   38.9271   31.6963 C   0  0  0  0  0  0  0  0  0  0  0  0
   12.9239   38.9409   32.1766 O   0  0  0  0  0  0  0  0  0  0  0  0
   11.0062   37.5719   32.0793 C   0  0  0  0  0  0  0  0  0  0  0  0
   13.3507   37.5905   32.2614 C   0  0  0  0  0  0  0  0  0  0  0  0
    9.9064   37.1792   31.2946 O   0  0  0  0  0  0  0  0  0  0  0  0
   12.1920   36.6671   31.9003 C   0  0  0  0  0  0  0  0  0  0  0  0
   13.8017   37.2948   33.6193 N   0  0  0  0  0  0  0  0  0  0  0  0
   12.3133   36.2788   30.5560 O   0  0  0  0  0  0  0  0  0  0  0  0
   14.7927   36.4716   33.9861 C   0  0  0  0  0  0  0  0  0  0  0  0
   13.2746   37.7284   34.7941 C   0  0  0  0  0  0  0  0  0  0  0  0
   15.6240   35.7576   33.1859 N   0  0  0  0  0  0  0  0  0  0  0  0
   14.8728   36.4406   35.3330 C   0  0  0  0  0  0  0  0  0  0  0  0
   13.9209   37.2258   35.8808 N   0  0  0  0  0  0  0  0  0  0  0  0
   16.5874   34.9920   33.7802 C   0  0  0  0  0  0  0  0  0  0  0  0
   15.8579   35.6716   35.9443 C   0  0  0  0  0  0  0  0  0  0  0  0
   16.7028   34.9584   35.1439 N   0  0  0  0  0  0  0  0  0  0  0  0
   16.0103   35.6383   37.3563 N   0  0  0  0  0  0  0  0  0  0  0  0
    7.6767   44.0708   34.0501 H   0  0  0  0  0  0  0  0  0  0  0  0
   10.3189   45.4407   34.1001 H   0  0  0  0  0  0  0  0  0  0  0  0
    9.1820   45.3824   35.3532 H   0  0  0  0  0  0  0  0  0  0  0  0
    8.4814   43.0850   31.8667 H   0  0  0  0  0  0  0  0  0  0  0  0
    9.9711   44.0677   31.9740 H   0  0  0  0  0  0  0  0  0  0  0  0
    8.5409   45.1376   30.4024 H   0  0  0  0  0  0  0  0  0  0  0  0
    8.5545   46.1507   31.8754 H   0  0  0  0  0  0  0  0  0  0  0  0
    6.3005   45.0574   32.5287 H   0  0  0  0  0  0  0  0  0  0  0  0
    6.3316   44.1809   30.9590 H   0  0  0  0  0  0  0  0  0  0  0  0
    6.2423   46.2948   29.7217 H   0  0  0  0  0  0  0  0  0  0  0  0
    4.9245   46.2705   30.9319 H   0  0  0  0  0  0  0  0  0  0  0  0
    6.3117   47.7071   32.4362 H   0  0  0  0  0  0  0  0  0  0  0  0
    7.4969   49.5083   33.2997 H   0  0  0  0  0  0  0  0  0  0  0  0
    7.7151   51.1836   32.7605 H   0  0  0  0  0  0  0  0  0  0  0  0
    5.4011   49.2687   34.3291 H   0  0  0  0  0  0  0  0  0  0  0  0
    2.9644   49.5654   34.4021 H   0  0  0  0  0  0  0  0  0  0  0  0
    3.1170   52.0697   30.9367 H   0  0  0  0  0  0  0  0  0  0  0  0
    1.8212   50.9488   32.6999 H   0  0  0  0  0  0  0  0  0  0  0  0
    9.7454   40.0168   31.9263 H   0  0  0  0  0  0  0  0  0  0  0  0
   11.2116   41.0420   31.8834 H   0  0  0  0  0  0  0  0  0  0  0  0
   11.6245   39.0449   30.5888 H   0  0  0  0  0  0  0  0  0  0  0  0
   10.7050   37.5580   33.1500 H   0  0  0  0  0  0  0  0  0  0  0  0
   14.1985   37.4426   31.5553 H   0  0  0  0  0  0  0  0  0  0  0  0
   10.0893   37.4057   30.3459 H   0  0  0  0  0  0  0  0  0  0  0  0
   12.1337   35.7754   32.5703 H   0  0  0  0  0  0  0  0  0  0  0  0
   11.7934   35.4394   30.4513 H   0  0  0  0  0  0  0  0  0  0  0  0
   12.4314   38.3973   34.8700 H   0  0  0  0  0  0  0  0  0  0  0  0
   17.2669   34.4142   33.1691 H   0  0  0  0  0  0  0  0  0  0  0  0
   16.7638   35.0599   37.7896 H   0  0  0  0  0  0  0  0  0  0  0  0
   15.3759   36.1865   37.9790 H   0  0  0  0  0  0  0  0  0  0  0  0
  1  2  2  0
  1  3  1  0
  3  4  1  0
  4  5  1  0
  6  1  1  0
  7  6  1  0
  6  8  1  0
  8  9  1  0
  9 10  1  0
 10 11  1  0
 11 12  1  0
 12 13  1  0
 13 14  1  0
 13 15  2  0
 14 16  1  0
 16 17  1  0
 17 18  2  0
 19 17  1  0
 18 20  1  0
 21 19  2  0
 19 22  1  0
 20 23  2  0
 23 21  1  0
 22 24  1  0
 22 25  2  0
  4 26  2  0
  4 27  1  0
 28 27  1  0
 28 29  1  0
 29 30  1  0
 29 31  1  0
 30 32  1  0
 31 33  1  0
 31 34  1  0
 34 32  1  0
 32 35  1  0
 34 36  1  0
 37 35  1  0
 38 35  1  0
 39 37  2  0
 37 40  1  0
 41 38  2  0
 42 39  1  0
 40 43  2  0
 40 41  1  0
 44 42  2  0
 44 43  1  0
 43 45  1  0
  6 46  1  6
  7 47  1  0
  7 48  1  0
  8 49  1  0
  8 50  1  0
  9 51  1  0
  9 52  1  0
 10 53  1  0
 10 54  1  0
 11 55  1  0
 11 56  1  0
 12 57  1  0
 16 58  1  0
 16 59  1  0
 18 60  1  0
 20 61  1  0
 21 62  1  0
 23 63  1  0
 28 64  1  0
 28 65  1  0
 29 66  1  0
 31 67  1  0
 32 68  1  0
 33 69  1  0
 34 70  1  0
 36 71  1  0
 38 72  1  0
 42 73  1  0
 45 74  1  0
 45 75  1  0
M  CHG  3   5  -1  22   1  24  -1
M  END
>  <EmbedRMS>  (170) 
0.0745450840203

$$$$

     RDKit          3D

 75 78  0  0  0  0  0  0  0  0999 V2000
    9.4313   42.9412   34.3437 C   0  0  0  0  0  0  0  0  0  0  0  0
   10.4886   43.0410   35.0294 O   0  0  0  0  0  0  0  0  0  0  0  0
    8.8562   41.7129   34.0288 O   0  0  0  0  0  0  0  0  0  0  0  0
    9.4947   40.2163   34.4679 P   0  0  0  0  0  0  0  0  0  0  0  0
    9.7310   40.1742   36.1290 O   0  0  0  0  0  0  0  0  0  0  0  0
    8.7484   44.1361   33.7721 C   0  0  1  0  0  0  0  0  0  0  0  0
    9.3039   45.3666   34.3388 N   0  0  0  0  0  0  0  0  0  0  0  0
    8.8892   44.0520   32.2309 C   0  0  0  0  0  0  0  0  0  0  0  0
    8.2014   45.1723   31.4437 C   0  0  0  0  0  0  0  0  0  0  0  0
    6.6641   45.1065   31.4887 C   0  0  0  0  0  0  0  0  0  0  0  0
    6.0263   46.3233   30.8118 C   0  0  0  0  0  0  0  0  0  0  0  0
    6.5070   47.5645   31.4185 N   0  0  0  0  0  0  0  0  0  0  0  0
    7.2455   48.5387   30.6839 C   0  0  0  0  0  0  0  0  0  0  0  0
    7.6029   49.7361   31.3089 O   0  0  0  0  0  0  0  0  0  0  0  0
    7.5925   48.3118   29.4931 O   0  0  0  0  0  0  0  0  0  0  0  0
    8.3608   50.7506   30.6554 C   0  0  0  0  0  0  0  0  0  0  0  0
    8.6369   51.8781   31.6201 C   0  0  0  0  0  0  0  0  0  0  0  0
    9.1861   51.5598   32.8758 C   0  0  0  0  0  0  0  0  0  0  0  0
    8.3358   53.2326   31.3214 C   0  0  0  0  0  0  0  0  0  0  0  0
    9.3905   52.5512   33.8367 C   0  0  0  0  0  0  0  0  0  0  0  0
    8.5303   54.2143   32.3092 C   0  0  0  0  0  0  0  0  0  0  0  0
    7.8722   53.6336   30.0231 N   0  0  0  0  0  0  0  0  0  0  0  0
    9.0532   53.8744   33.5577 C   0  0  0  0  0  0  0  0  0  0  0  0
    8.5562   53.2353   28.8976 O   0  0  0  0  0  0  0  0  0  0  0  0
    7.0085   54.5288   29.9182 O   0  0  0  0  0  0  0  0  0  0  0  0
    8.5375   39.1404   34.0127 O   0  0  0  0  0  0  0  0  0  0  0  0
   10.9805   40.0889   33.6836 O   0  0  0  0  0  0  0  0  0  0  0  0
   10.8025   40.0902   32.2837 C   0  0  0  0  0  0  0  0  0  0  0  0
   11.5888   38.9175   31.7008 C   0  0  0  0  0  0  0  0  0  0  0  0
   12.9219   38.9373   32.1692 O   0  0  0  0  0  0  0  0  0  0  0  0
   11.0028   37.5683   32.0981 C   0  0  0  0  0  0  0  0  0  0  0  0
   13.3496   37.5886   32.2601 C   0  0  0  0  0  0  0  0  0  0  0  0
    9.9343   37.1823   31.2757 O   0  0  0  0  0  0  0  0  0  0  0  0
   12.1891   36.6677   31.9050 C   0  0  0  0  0  0  0  0  0  0  0  0
   13.8025   37.2965   33.6186 N   0  0  0  0  0  0  0  0  0  0  0  0
   12.2990   36.2868   30.5568 O   0  0  0  0  0  0  0  0  0  0  0  0
   14.7929   36.4725   33.9858 C   0  0  0  0  0  0  0  0  0  0  0  0
   13.2749   37.7294   34.7935 C   0  0  0  0  0  0  0  0  0  0  0  0
   15.6240   35.7580   33.1858 N   0  0  0  0  0  0  0  0  0  0  0  0
   14.8727   36.4411   35.3327 C   0  0  0  0  0  0  0  0  0  0  0  0
   13.9208   37.2263   35.8803 N   0  0  0  0  0  0  0  0  0  0  0  0
   16.5871   34.9921   33.7801 C   0  0  0  0  0  0  0  0  0  0  0  0
   15.8576   35.6718   35.9441 C   0  0  0  0  0  0  0  0  0  0  0  0
   16.7024   34.9584   35.1438 N   0  0  0  0  0  0  0  0  0  0  0  0
   16.0099   35.6384   37.3562 N   0  0  0  0  0  0  0  0  0  0  0  0
    7.6764   44.0635   34.0548 H   0  0  0  0  0  0  0  0  0  0  0  0
    8.6469   46.1560   34.1432 H   0  0  0  0  0  0  0  0  0  0  0  0
   10.2152   45.5881   33.8747 H   0  0  0  0  0  0  0  0  0  0  0  0
    9.9708   44.0645   31.9679 H   0  0  0  0  0  0  0  0  0  0  0  0
    8.4831   43.0819   31.8666 H   0  0  0  0  0  0  0  0  0  0  0  0
    8.5711   46.1489   31.8177 H   0  0  0  0  0  0  0  0  0  0  0  0
    8.5198   45.0963   30.3808 H   0  0  0  0  0  0  0  0  0  0  0  0
    6.3148   44.1799   30.9838 H   0  0  0  0  0  0  0  0  0  0  0  0
    6.3140   45.0785   32.5413 H   0  0  0  0  0  0  0  0  0  0  0  0
    4.9230   46.2691   30.9292 H   0  0  0  0  0  0  0  0  0  0  0  0
    6.2449   46.2893   29.7229 H   0  0  0  0  0  0  0  0  0  0  0  0
    6.2856   47.7530   32.4221 H   0  0  0  0  0  0  0  0  0  0  0  0
    7.7914   51.0898   29.7675 H   0  0  0  0  0  0  0  0  0  0  0  0
    9.3308   50.3275   30.3153 H   0  0  0  0  0  0  0  0  0  0  0  0
    9.4404   50.5349   33.1180 H   0  0  0  0  0  0  0  0  0  0  0  0
    9.8042   52.2912   34.8025 H   0  0  0  0  0  0  0  0  0  0  0  0
    8.3013   55.2518   32.1003 H   0  0  0  0  0  0  0  0  0  0  0  0
    9.2088   54.6410   34.3058 H   0  0  0  0  0  0  0  0  0  0  0  0
   11.2257   41.0358   31.8825 H   0  0  0  0  0  0  0  0  0  0  0  0
    9.7476   40.0332   31.9256 H   0  0  0  0  0  0  0  0  0  0  0  0
   11.5975   39.0148   30.5905 H   0  0  0  0  0  0  0  0  0  0  0  0
   10.7023   37.5457   33.1720 H   0  0  0  0  0  0  0  0  0  0  0  0
   14.1957   37.4366   31.5528 H   0  0  0  0  0  0  0  0  0  0  0  0
    9.1339   37.6658   31.6070 H   0  0  0  0  0  0  0  0  0  0  0  0
   12.1380   35.7717   32.5698 H   0  0  0  0  0  0  0  0  0  0  0  0
   11.7707   35.4530   30.4496 H   0  0  0  0  0  0  0  0  0  0  0  0
   12.4314   38.3980   34.8694 H   0  0  0  0  0  0  0  0  0  0  0  0
   17.2665   34.4140   33.1691 H   0  0  0  0  0  0  0  0  0  0  0  0
   15.3757   36.1867   37.9789 H   0  0  0  0  0  0  0  0  0  0  0  0
   16.7633   35.0598   37.7895 H   0  0  0  0  0  0  0  0  0  0  0  0
  1  2  2  0
  1  3  1  0
  3  4  1  0
  4  5  1  0
  6  1  1  0
  7  6  1  0
  6  8  1  0
  8  9  1  0
  9 10  1  0
 10 11  1  0
 11 12  1  0
 12 13  1  0
 13 14  1  0
 13 15  2  0
 14 16  1  0
 16 17  1  0
 17 18  2  0
 19 17  1  0
 18 20  1  0
 21 19  2  0
 19 22  1  0
 20 23  2  0
 23 21  1  0
 22 24  1  0
 22 25  2  0
  4 26  2  0
  4 27  1  0
 28 27  1  0
 28 29  1  0
 29 30  1  0
 29 31  1  0
 30 32  1  0
 31 33  1  0
 31 34  1  0
 34 32  1  0
 32 35  1  0
 34 36  1  0
 37 35  1  0
 38 35  1  0
 39 37  2  0
 37 40  1  0
 41 38  2  0
 42 39  1  0
 40 43  2  0
 40 41  1  0
 44 42  2  0
 44 43  1  0
 43 45  1  0
  6 46  1  6
  7 47  1  0
  7 48  1  0
  8 49  1  0
  8 50  1  0
  9 51  1  0
  9 52  1  0
 10 53  1  0
 10 54  1  0
 11 55  1  0
 11 56  1  0
 12 57  1  0
 16 58  1  0
 16 59  1  0
 18 60  1  0
 20 61  1  0
 21 62  1  0
 23 63  1  0
 28 64  1  0
 28 65  1  0
 29 66  1  0
 31 67  1  0
 32 68  1  0
 33 69  1  0
 34 70  1  0
 36 71  1  0
 38 72  1  0
 42 73  1  0
 45 74  1  0
 45 75  1  0
M  CHG  3   5  -1  22   1  24  -1
M  END
>  <EmbedRMS>  (171) 
0.0734196807603

$$$$

     RDKit          3D

 75 78  0  0  0  0  0  0  0  0999 V2000
    9.4331   42.9365   34.3461 C   0  0  0  0  0  0  0  0  0  0  0  0
   10.4905   43.0330   35.0318 O   0  0  0  0  0  0  0  0  0  0  0  0
    8.8562   41.7103   34.0295 O   0  0  0  0  0  0  0  0  0  0  0  0
    9.4942   40.2139   34.4678 P   0  0  0  0  0  0  0  0  0  0  0  0
    9.7311   40.1724   36.1289 O   0  0  0  0  0  0  0  0  0  0  0  0
    8.7504   44.1348   33.7739 C   0  0  1  0  0  0  0  0  0  0  0  0
    9.2960   45.3821   34.3131 N   0  0  0  0  0  0  0  0  0  0  0  0
    8.8892   44.0526   32.2356 C   0  0  0  0  0  0  0  0  0  0  0  0
    8.2032   45.1823   31.4611 C   0  0  0  0  0  0  0  0  0  0  0  0
    6.6657   45.1033   31.4817 C   0  0  0  0  0  0  0  0  0  0  0  0
    6.0276   46.3245   30.8114 C   0  0  0  0  0  0  0  0  0  0  0  0
    6.5105   47.5625   31.4230 N   0  0  0  0  0  0  0  0  0  0  0  0
    7.2374   48.5474   30.6790 C   0  0  0  0  0  0  0  0  0  0  0  0
    7.5834   49.7854   31.2375 O   0  0  0  0  0  0  0  0  0  0  0  0
    7.5951   48.3041   29.4970 O   0  0  0  0  0  0  0  0  0  0  0  0
    7.1782   50.2417   32.5278 C   0  0  0  0  0  0  0  0  0  0  0  0
    5.6893   50.5042   32.5707 C   0  0  0  0  0  0  0  0  0  0  0  0
    4.9261   49.8884   33.5800 C   0  0  0  0  0  0  0  0  0  0  0  0
    5.0357   51.3209   31.6089 C   0  0  0  0  0  0  0  0  0  0  0  0
    3.5410   50.0499   33.6256 C   0  0  0  0  0  0  0  0  0  0  0  0
    3.6363   51.4575   31.6647 C   0  0  0  0  0  0  0  0  0  0  0  0
    5.7630   52.0023   30.5706 N   0  0  0  0  0  0  0  0  0  0  0  0
    2.8967   50.8279   32.6664 C   0  0  0  0  0  0  0  0  0  0  0  0
    6.9709   52.6032   30.8383 O   0  0  0  0  0  0  0  0  0  0  0  0
    5.2301   52.1977   29.4585 O   0  0  0  0  0  0  0  0  0  0  0  0
    8.5370   39.1382   34.0122 O   0  0  0  0  0  0  0  0  0  0  0  0
   10.9795   40.0869   33.6827 O   0  0  0  0  0  0  0  0  0  0  0  0
   10.7996   40.0898   32.2830 C   0  0  0  0  0  0  0  0  0  0  0  0
   11.5968   38.9273   31.6962 C   0  0  0  0  0  0  0  0  0  0  0  0
   12.9242   38.9425   32.1784 O   0  0  0  0  0  0  0  0  0  0  0  0
   11.0086   37.5713   32.0780 C   0  0  0  0  0  0  0  0  0  0  0  0
   13.3528   37.5929   32.2623 C   0  0  0  0  0  0  0  0  0  0  0  0
    9.9098   37.1770   31.2925 O   0  0  0  0  0  0  0  0  0  0  0  0
   12.1943   36.6683   31.8995 C   0  0  0  0  0  0  0  0  0  0  0  0
   13.8019   37.2950   33.6199 N   0  0  0  0  0  0  0  0  0  0  0  0
   12.3027   36.2773   30.5558 O   0  0  0  0  0  0  0  0  0  0  0  0
   14.7926   36.4715   33.9865 C   0  0  0  0  0  0  0  0  0  0  0  0
   13.2749   37.7286   34.7946 C   0  0  0  0  0  0  0  0  0  0  0  0
   15.6239   35.7577   33.1860 N   0  0  0  0  0  0  0  0  0  0  0  0
   14.8727   36.4403   35.3332 C   0  0  0  0  0  0  0  0  0  0  0  0
   13.9210   37.2257   35.8811 N   0  0  0  0  0  0  0  0  0  0  0  0
   16.5873   34.9921   33.7802 C   0  0  0  0  0  0  0  0  0  0  0  0
   15.8579   35.6714   35.9444 C   0  0  0  0  0  0  0  0  0  0  0  0
   16.7028   34.9583   35.1439 N   0  0  0  0  0  0  0  0  0  0  0  0
   16.0104   35.6381   37.3564 N   0  0  0  0  0  0  0  0  0  0  0  0
    7.6767   44.0708   34.0500 H   0  0  0  0  0  0  0  0  0  0  0  0
    9.1820   45.3824   35.3533 H   0  0  0  0  0  0  0  0  0  0  0  0
   10.3189   45.4407   34.1001 H   0  0  0  0  0  0  0  0  0  0  0  0
    9.9711   44.0677   31.9740 H   0  0  0  0  0  0  0  0  0  0  0  0
    8.4814   43.0850   31.8667 H   0  0  0  0  0  0  0  0  0  0  0  0
    8.5408   45.1377   30.4024 H   0  0  0  0  0  0  0  0  0  0  0  0
    8.5545   46.1507   31.8754 H   0  0  0  0  0  0  0  0  0  0  0  0
    6.3316   44.1809   30.9590 H   0  0  0  0  0  0  0  0  0  0  0  0
    6.3005   45.0574   32.5287 H   0  0  0  0  0  0  0  0  0  0  0  0
    4.9245   46.2705   30.9320 H   0  0  0  0  0  0  0  0  0  0  0  0
    6.2422   46.2948   29.7217 H   0  0  0  0  0  0  0  0  0  0  0  0
    6.3118   47.7072   32.4363 H   0  0  0  0  0  0  0  0  0  0  0  0
    7.4976   49.5082   33.2997 H   0  0  0  0  0  0  0  0  0  0  0  0
    7.7155   51.1836   32.7604 H   0  0  0  0  0  0  0  0  0  0  0  0
    5.4022   49.2686   34.3298 H   0  0  0  0  0  0  0  0  0  0  0  0
    2.9655   49.5651   34.4036 H   0  0  0  0  0  0  0  0  0  0  0  0
    3.1167   52.0693   30.9381 H   0  0  0  0  0  0  0  0  0  0  0  0
    1.8216   50.9483   32.7017 H   0  0  0  0  0  0  0  0  0  0  0  0
    9.7449   40.0145   31.9263 H   0  0  0  0  0  0  0  0  0  0  0  0
   11.2096   41.0418   31.8829 H   0  0  0  0  0  0  0  0  0  0  0  0
   11.6265   39.0456   30.5888 H   0  0  0  0  0  0  0  0  0  0  0  0
   10.7064   37.5574   33.1484 H   0  0  0  0  0  0  0  0  0  0  0  0
   14.2021   37.4484   31.5573 H   0  0  0  0  0  0  0  0  0  0  0  0
   10.0952   37.3990   30.3433 H   0  0  0  0  0  0  0  0  0  0  0  0
   12.1163   35.7745   32.5633 H   0  0  0  0  0  0  0  0  0  0  0  0
   12.9615   35.5349   30.5312 H   0  0  0  0  0  0  0  0  0  0  0  0
   12.4322   38.3982   34.8705 H   0  0  0  0  0  0  0  0  0  0  0  0
   17.2669   34.4143   33.1690 H   0  0  0  0  0  0  0  0  0  0  0  0
   16.7641   35.0598   37.7896 H   0  0  0  0  0  0  0  0  0  0  0  0
   15.3761   36.1862   37.9792 H   0  0  0  0  0  0  0  0  0  0  0  0
  1  2  2  0
  1  3  1  0
  3  4  1  0
  4  5  1  0
  6  1  1  0
  7  6  1  0
  6  8  1  0
  8  9  1  0
  9 10  1  0
 10 11  1  0
 11 12  1  0
 12 13  1  0
 13 14  1  0
 13 15  2  0
 14 16  1  0
 16 17  1  0
 17 18  2  0
 19 17  1  0
 18 20  1  0
 21 19  2  0
 19 22  1  0
 20 23  2  0
 23 21  1  0
 22 24  1  0
 22 25  2  0
  4 26  2  0
  4 27  1  0
 28 27  1  0
 28 29  1  0
 29 30  1  0
 29 31  1  0
 30 32  1  0
 31 33  1  0
 31 34  1  0
 34 32  1  0
 32 35  1  0
 34 36  1  0
 37 35  1  0
 38 35  1  0
 39 37  2  0
 37 40  1  0
 41 38  2  0
 42 39  1  0
 40 43  2  0
 40 41  1  0
 44 42  2  0
 44 43  1  0
 43 45  1  0
  6 46  1  6
  7 47  1  0
  7 48  1  0
  8 49  1  0
  8 50  1  0
  9 51  1  0
  9 52  1  0
 10 53  1  0
 10 54  1  0
 11 55  1  0
 11 56  1  0
 12 57  1  0
 16 58  1  0
 16 59  1  0
 18 60  1  0
 20 61  1  0
 21 62  1  0
 23 63  1  0
 28 64  1  0
 28 65  1  0
 29 66  1  0
 31 67  1  0
 32 68  1  0
 33 69  1  0
 34 70  1  0
 36 71  1  0
 38 72  1  0
 42 73  1  0
 45 74  1  0
 45 75  1  0
M  CHG  3   5  -1  22   1  24  -1
M  END
>  <EmbedRMS>  (172) 
0.0743534690399

$$$$

     RDKit          3D

 75 78  0  0  0  0  0  0  0  0999 V2000
    9.4329   42.9369   34.3464 C   0  0  0  0  0  0  0  0  0  0  0  0
   10.4905   43.0335   35.0320 O   0  0  0  0  0  0  0  0  0  0  0  0
    8.8562   41.7106   34.0297 O   0  0  0  0  0  0  0  0  0  0  0  0
    9.4945   40.2143   34.4680 P   0  0  0  0  0  0  0  0  0  0  0  0
    9.7309   40.1727   36.1291 O   0  0  0  0  0  0  0  0  0  0  0  0
    8.7500   44.1351   33.7743 C   0  0  1  0  0  0  0  0  0  0  0  0
    9.2953   45.3827   34.3134 N   0  0  0  0  0  0  0  0  0  0  0  0
    8.8890   44.0528   32.2362 C   0  0  0  0  0  0  0  0  0  0  0  0
    8.2030   45.1826   31.4619 C   0  0  0  0  0  0  0  0  0  0  0  0
    6.6654   45.1037   31.4826 C   0  0  0  0  0  0  0  0  0  0  0  0
    6.0290   46.3230   30.8076 C   0  0  0  0  0  0  0  0  0  0  0  0
    6.5079   47.5617   31.4205 N   0  0  0  0  0  0  0  0  0  0  0  0
    7.2540   48.5389   30.6864 C   0  0  0  0  0  0  0  0  0  0  0  0
    7.6611   49.7465   31.2702 O   0  0  0  0  0  0  0  0  0  0  0  0
    7.5818   48.3121   29.4925 O   0  0  0  0  0  0  0  0  0  0  0  0
    7.4708   50.1018   32.6405 C   0  0  0  0  0  0  0  0  0  0  0  0
    6.0132   50.3609   32.9556 C   0  0  0  0  0  0  0  0  0  0  0  0
    5.2421   51.0871   32.0283 C   0  0  0  0  0  0  0  0  0  0  0  0
    5.4307   49.9947   34.1977 C   0  0  0  0  0  0  0  0  0  0  0  0
    3.9137   51.4137   32.3048 C   0  0  0  0  0  0  0  0  0  0  0  0
    4.0967   50.3468   34.4643 C   0  0  0  0  0  0  0  0  0  0  0  0
    6.1777   49.3024   35.2089 N   0  0  0  0  0  0  0  0  0  0  0  0
    3.3415   51.0432   33.5202 C   0  0  0  0  0  0  0  0  0  0  0  0
    6.7035   48.0588   34.9471 O   0  0  0  0  0  0  0  0  0  0  0  0
    6.1270   49.6966   36.3921 O   0  0  0  0  0  0  0  0  0  0  0  0
    8.5372   39.1388   34.0125 O   0  0  0  0  0  0  0  0  0  0  0  0
   10.9804   40.0881   33.6837 O   0  0  0  0  0  0  0  0  0  0  0  0
   10.8025   40.0900   32.2839 C   0  0  0  0  0  0  0  0  0  0  0  0
   11.5888   38.9174   31.7007 C   0  0  0  0  0  0  0  0  0  0  0  0
   12.9219   38.9373   32.1692 O   0  0  0  0  0  0  0  0  0  0  0  0
   11.0028   37.5682   32.0980 C   0  0  0  0  0  0  0  0  0  0  0  0
   13.3496   37.5885   32.2601 C   0  0  0  0  0  0  0  0  0  0  0  0
    9.9343   37.1822   31.2756 O   0  0  0  0  0  0  0  0  0  0  0  0
   12.1891   36.6677   31.9049 C   0  0  0  0  0  0  0  0  0  0  0  0
   13.8025   37.2965   33.6186 N   0  0  0  0  0  0  0  0  0  0  0  0
   12.2991   36.2867   30.5567 O   0  0  0  0  0  0  0  0  0  0  0  0
   14.7929   36.4725   33.9858 C   0  0  0  0  0  0  0  0  0  0  0  0
   13.2749   37.7294   34.7935 C   0  0  0  0  0  0  0  0  0  0  0  0
   15.6240   35.7580   33.1858 N   0  0  0  0  0  0  0  0  0  0  0  0
   14.8727   36.4411   35.3327 C   0  0  0  0  0  0  0  0  0  0  0  0
   13.9208   37.2263   35.8803 N   0  0  0  0  0  0  0  0  0  0  0  0
   16.5871   34.9921   33.7801 C   0  0  0  0  0  0  0  0  0  0  0  0
   15.8576   35.6718   35.9441 C   0  0  0  0  0  0  0  0  0  0  0  0
   16.7024   34.9584   35.1438 N   0  0  0  0  0  0  0  0  0  0  0  0
   16.0099   35.6384   37.3562 N   0  0  0  0  0  0  0  0  0  0  0  0
    7.6763   44.0710   34.0502 H   0  0  0  0  0  0  0  0  0  0  0  0
    9.1791   45.3841   35.3533 H   0  0  0  0  0  0  0  0  0  0  0  0
   10.3185   45.4409   34.1021 H   0  0  0  0  0  0  0  0  0  0  0  0
    9.9709   44.0682   31.9746 H   0  0  0  0  0  0  0  0  0  0  0  0
    8.4813   43.0853   31.8670 H   0  0  0  0  0  0  0  0  0  0  0  0
    8.5408   45.1383   30.4033 H   0  0  0  0  0  0  0  0  0  0  0  0
    8.5539   46.1510   31.8768 H   0  0  0  0  0  0  0  0  0  0  0  0
    6.3312   44.1798   30.9626 H   0  0  0  0  0  0  0  0  0  0  0  0
    6.2999   45.0619   32.5297 H   0  0  0  0  0  0  0  0  0  0  0  0
    6.2506   46.2918   29.7193 H   0  0  0  0  0  0  0  0  0  0  0  0
    4.9253   46.2681   30.9213 H   0  0  0  0  0  0  0  0  0  0  0  0
    6.2789   47.7184   32.4241 H   0  0  0  0  0  0  0  0  0  0  0  0
    8.0278   51.0433   32.8284 H   0  0  0  0  0  0  0  0  0  0  0  0
    7.9286   49.3276   33.2851 H   0  0  0  0  0  0  0  0  0  0  0  0
    5.6724   51.4085   31.0878 H   0  0  0  0  0  0  0  0  0  0  0  0
    3.3301   51.9652   31.5790 H   0  0  0  0  0  0  0  0  0  0  0  0
    3.6398   50.0733   35.4072 H   0  0  0  0  0  0  0  0  0  0  0  0
    2.3131   51.3033   33.7352 H   0  0  0  0  0  0  0  0  0  0  0  0
    9.7476   40.0331   31.9256 H   0  0  0  0  0  0  0  0  0  0  0  0
   11.2258   41.0357   31.8829 H   0  0  0  0  0  0  0  0  0  0  0  0
   11.5974   39.0148   30.5905 H   0  0  0  0  0  0  0  0  0  0  0  0
   10.7023   37.5455   33.1719 H   0  0  0  0  0  0  0  0  0  0  0  0
   14.1957   37.4366   31.5528 H   0  0  0  0  0  0  0  0  0  0  0  0
    9.1339   37.6658   31.6069 H   0  0  0  0  0  0  0  0  0  0  0  0
   12.1381   35.7717   32.5697 H   0  0  0  0  0  0  0  0  0  0  0  0
   11.7707   35.4530   30.4496 H   0  0  0  0  0  0  0  0  0  0  0  0
   12.4314   38.3980   34.8694 H   0  0  0  0  0  0  0  0  0  0  0  0
   17.2665   34.4140   33.1691 H   0  0  0  0  0  0  0  0  0  0  0  0
   16.7633   35.0599   37.7895 H   0  0  0  0  0  0  0  0  0  0  0  0
   15.3757   36.1868   37.9789 H   0  0  0  0  0  0  0  0  0  0  0  0
  1  2  2  0
  1  3  1  0
  3  4  1  0
  4  5  1  0
  6  1  1  0
  7  6  1  0
  6  8  1  0
  8  9  1  0
  9 10  1  0
 10 11  1  0
 11 12  1  0
 12 13  1  0
 13 14  1  0
 13 15  2  0
 14 16  1  0
 16 17  1  0
 17 18  2  0
 19 17  1  0
 18 20  1  0
 21 19  2  0
 19 22  1  0
 20 23  2  0
 23 21  1  0
 22 24  1  0
 22 25  2  0
  4 26  2  0
  4 27  1  0
 28 27  1  0
 28 29  1  0
 29 30  1  0
 29 31  1  0
 30 32  1  0
 31 33  1  0
 31 34  1  0
 34 32  1  0
 32 35  1  0
 34 36  1  0
 37 35  1  0
 38 35  1  0
 39 37  2  0
 37 40  1  0
 41 38  2  0
 42 39  1  0
 40 43  2  0
 40 41  1  0
 44 42  2  0
 44 43  1  0
 43 45  1  0
  6 46  1  6
  7 47  1  0
  7 48  1  0
  8 49  1  0
  8 50  1  0
  9 51  1  0
  9 52  1  0
 10 53  1  0
 10 54  1  0
 11 55  1  0
 11 56  1  0
 12 57  1  0
 16 58  1  0
 16 59  1  0
 18 60  1  0
 20 61  1  0
 21 62  1  0
 23 63  1  0
 28 64  1  0
 28 65  1  0
 29 66  1  0
 31 67  1  0
 32 68  1  0
 33 69  1  0
 34 70  1  0
 36 71  1  0
 38 72  1  0
 42 73  1  0
 45 74  1  0
 45 75  1  0
M  CHG  3   5  -1  22   1  24  -1
M  END
>  <EmbedRMS>  (173) 
0.0742984410033

$$$$

     RDKit          3D

 75 78  0  0  0  0  0  0  0  0999 V2000
    9.4333   42.9364   34.3461 C   0  0  0  0  0  0  0  0  0  0  0  0
   10.4907   43.0329   35.0319 O   0  0  0  0  0  0  0  0  0  0  0  0
    8.8563   41.7102   34.0295 O   0  0  0  0  0  0  0  0  0  0  0  0
    9.4943   40.2139   34.4679 P   0  0  0  0  0  0  0  0  0  0  0  0
    9.7310   40.1724   36.1290 O   0  0  0  0  0  0  0  0  0  0  0  0
    8.7506   44.1347   33.7741 C   0  0  1  0  0  0  0  0  0  0  0  0
    9.2963   45.3819   34.3133 N   0  0  0  0  0  0  0  0  0  0  0  0
    8.8893   44.0527   32.2358 C   0  0  0  0  0  0  0  0  0  0  0  0
    8.2029   45.1822   31.4614 C   0  0  0  0  0  0  0  0  0  0  0  0
    6.6654   45.1046   31.4854 C   0  0  0  0  0  0  0  0  0  0  0  0
    6.0272   46.3228   30.8107 C   0  0  0  0  0  0  0  0  0  0  0  0
    6.5071   47.5639   31.4183 N   0  0  0  0  0  0  0  0  0  0  0  0
    7.2415   48.5404   30.6827 C   0  0  0  0  0  0  0  0  0  0  0  0
    7.5832   49.7466   31.3035 O   0  0  0  0  0  0  0  0  0  0  0  0
    7.5943   48.3108   29.4942 O   0  0  0  0  0  0  0  0  0  0  0  0
    8.2905   50.7943   30.6422 C   0  0  0  0  0  0  0  0  0  0  0  0
    7.4260   51.4407   29.5835 C   0  0  0  0  0  0  0  0  0  0  0  0
    7.8912   51.4580   28.2555 C   0  0  0  0  0  0  0  0  0  0  0  0
    6.1451   51.9854   29.8770 C   0  0  0  0  0  0  0  0  0  0  0  0
    7.1062   51.9895   27.2319 C   0  0  0  0  0  0  0  0  0  0  0  0
    5.3653   52.5016   28.8265 C   0  0  0  0  0  0  0  0  0  0  0  0
    5.6084   52.0059   31.2128 N   0  0  0  0  0  0  0  0  0  0  0  0
    5.8444   52.5065   27.5161 C   0  0  0  0  0  0  0  0  0  0  0  0
    4.2470   51.9522   31.4064 O   0  0  0  0  0  0  0  0  0  0  0  0
    6.3436   52.2342   32.1947 O   0  0  0  0  0  0  0  0  0  0  0  0
    8.5372   39.1382   34.0121 O   0  0  0  0  0  0  0  0  0  0  0  0
   10.9798   40.0870   33.6829 O   0  0  0  0  0  0  0  0  0  0  0  0
   10.8002   40.0905   32.2832 C   0  0  0  0  0  0  0  0  0  0  0  0
   11.5958   38.9271   31.6963 C   0  0  0  0  0  0  0  0  0  0  0  0
   12.9239   38.9409   32.1766 O   0  0  0  0  0  0  0  0  0  0  0  0
   11.0062   37.5719   32.0793 C   0  0  0  0  0  0  0  0  0  0  0  0
   13.3507   37.5905   32.2614 C   0  0  0  0  0  0  0  0  0  0  0  0
    9.9064   37.1792   31.2946 O   0  0  0  0  0  0  0  0  0  0  0  0
   12.1920   36.6671   31.9003 C   0  0  0  0  0  0  0  0  0  0  0  0
   13.8017   37.2948   33.6193 N   0  0  0  0  0  0  0  0  0  0  0  0
   12.3134   36.2787   30.5560 O   0  0  0  0  0  0  0  0  0  0  0  0
   14.7927   36.4716   33.9862 C   0  0  0  0  0  0  0  0  0  0  0  0
   13.2746   37.7284   34.7941 C   0  0  0  0  0  0  0  0  0  0  0  0
   15.6240   35.7576   33.1859 N   0  0  0  0  0  0  0  0  0  0  0  0
   14.8728   36.4406   35.3330 C   0  0  0  0  0  0  0  0  0  0  0  0
   13.9209   37.2258   35.8808 N   0  0  0  0  0  0  0  0  0  0  0  0
   16.5874   34.9920   33.7802 C   0  0  0  0  0  0  0  0  0  0  0  0
   15.8579   35.6716   35.9443 C   0  0  0  0  0  0  0  0  0  0  0  0
   16.7028   34.9584   35.1439 N   0  0  0  0  0  0  0  0  0  0  0  0
   16.0103   35.6383   37.3563 N   0  0  0  0  0  0  0  0  0  0  0  0
    7.6770   44.0706   34.0504 H   0  0  0  0  0  0  0  0  0  0  0  0
   10.3192   45.4406   34.1000 H   0  0  0  0  0  0  0  0  0  0  0  0
    9.1827   45.3819   35.3535 H   0  0  0  0  0  0  0  0  0  0  0  0
    8.4816   43.0850   31.8668 H   0  0  0  0  0  0  0  0  0  0  0  0
    9.9711   44.0680   31.9739 H   0  0  0  0  0  0  0  0  0  0  0  0
    8.5385   45.1362   30.4021 H   0  0  0  0  0  0  0  0  0  0  0  0
    8.5554   46.1509   31.8741 H   0  0  0  0  0  0  0  0  0  0  0  0
    6.3020   45.0641   32.5333 H   0  0  0  0  0  0  0  0  0  0  0  0
    6.3296   44.1801   30.9675 H   0  0  0  0  0  0  0  0  0  0  0  0
    4.9238   46.2679   30.9271 H   0  0  0  0  0  0  0  0  0  0  0  0
    6.2463   46.2901   29.7219 H   0  0  0  0  0  0  0  0  0  0  0  0
    6.2817   47.7539   32.4207 H   0  0  0  0  0  0  0  0  0  0  0  0
    8.5941   51.5579   31.3870 H   0  0  0  0  0  0  0  0  0  0  0  0
    9.2316   50.3854   30.2127 H   0  0  0  0  0  0  0  0  0  0  0  0
    8.8622   51.0480   28.0062 H   0  0  0  0  0  0  0  0  0  0  0  0
    7.4751   51.9939   26.2143 H   0  0  0  0  0  0  0  0  0  0  0  0
    4.3855   52.9173   29.0249 H   0  0  0  0  0  0  0  0  0  0  0  0
    5.2358   52.9143   26.7193 H   0  0  0  0  0  0  0  0  0  0  0  0
    9.7455   40.0168   31.9263 H   0  0  0  0  0  0  0  0  0  0  0  0
   11.2116   41.0420   31.8834 H   0  0  0  0  0  0  0  0  0  0  0  0
   11.6245   39.0449   30.5888 H   0  0  0  0  0  0  0  0  0  0  0  0
   10.7051   37.5579   33.1500 H   0  0  0  0  0  0  0  0  0  0  0  0
   14.1985   37.4426   31.5553 H   0  0  0  0  0  0  0  0  0  0  0  0
   10.0893   37.4057   30.3459 H   0  0  0  0  0  0  0  0  0  0  0  0
   12.1337   35.7754   32.5703 H   0  0  0  0  0  0  0  0  0  0  0  0
   11.7934   35.4394   30.4513 H   0  0  0  0  0  0  0  0  0  0  0  0
   12.4314   38.3972   34.8700 H   0  0  0  0  0  0  0  0  0  0  0  0
   17.2669   34.4142   33.1691 H   0  0  0  0  0  0  0  0  0  0  0  0
   16.7638   35.0599   37.7896 H   0  0  0  0  0  0  0  0  0  0  0  0
   15.3759   36.1864   37.9790 H   0  0  0  0  0  0  0  0  0  0  0  0
  1  2  2  0
  1  3  1  0
  3  4  1  0
  4  5  1  0
  6  1  1  0
  7  6  1  0
  6  8  1  0
  8  9  1  0
  9 10  1  0
 10 11  1  0
 11 12  1  0
 12 13  1  0
 13 14  1  0
 13 15  2  0
 14 16  1  0
 16 17  1  0
 17 18  2  0
 19 17  1  0
 18 20  1  0
 21 19  2  0
 19 22  1  0
 20 23  2  0
 23 21  1  0
 22 24  1  0
 22 25  2  0
  4 26  2  0
  4 27  1  0
 28 27  1  0
 28 29  1  0
 29 30  1  0
 29 31  1  0
 30 32  1  0
 31 33  1  0
 31 34  1  0
 34 32  1  0
 32 35  1  0
 34 36  1  0
 37 35  1  0
 38 35  1  0
 39 37  2  0
 37 40  1  0
 41 38  2  0
 42 39  1  0
 40 43  2  0
 40 41  1  0
 44 42  2  0
 44 43  1  0
 43 45  1  0
  6 46  1  6
  7 47  1  0
  7 48  1  0
  8 49  1  0
  8 50  1  0
  9 51  1  0
  9 52  1  0
 10 53  1  0
 10 54  1  0
 11 55  1  0
 11 56  1  0
 12 57  1  0
 16 58  1  0
 16 59  1  0
 18 60  1  0
 20 61  1  0
 21 62  1  0
 23 63  1  0
 28 64  1  0
 28 65  1  0
 29 66  1  0
 31 67  1  0
 32 68  1  0
 33 69  1  0
 34 70  1  0
 36 71  1  0
 38 72  1  0
 42 73  1  0
 45 74  1  0
 45 75  1  0
M  CHG  3   5  -1  22   1  24  -1
M  END
>  <EmbedRMS>  (174) 
0.0747377916501

$$$$

     RDKit          3D

 75 78  0  0  0  0  0  0  0  0999 V2000
    9.4309   42.9413   34.3438 C   0  0  0  0  0  0  0  0  0  0  0  0
   10.4883   43.0413   35.0293 O   0  0  0  0  0  0  0  0  0  0  0  0
    8.8561   41.7129   34.0288 O   0  0  0  0  0  0  0  0  0  0  0  0
    9.4944   40.2162   34.4677 P   0  0  0  0  0  0  0  0  0  0  0  0
    9.7313   40.1740   36.1288 O   0  0  0  0  0  0  0  0  0  0  0  0
    8.7478   44.1361   33.7721 C   0  0  1  0  0  0  0  0  0  0  0  0
    9.3028   45.3670   34.3389 N   0  0  0  0  0  0  0  0  0  0  0  0
    8.8890   44.0518   32.2309 C   0  0  0  0  0  0  0  0  0  0  0  0
    8.2017   45.1721   31.4435 C   0  0  0  0  0  0  0  0  0  0  0  0
    6.6644   45.1050   31.4848 C   0  0  0  0  0  0  0  0  0  0  0  0
    6.0276   46.3247   30.8116 C   0  0  0  0  0  0  0  0  0  0  0  0
    6.5115   47.5620   31.4232 N   0  0  0  0  0  0  0  0  0  0  0  0
    7.2460   48.5438   30.6822 C   0  0  0  0  0  0  0  0  0  0  0  0
    7.6225   49.7674   31.2536 O   0  0  0  0  0  0  0  0  0  0  0  0
    7.5881   48.3080   29.4941 O   0  0  0  0  0  0  0  0  0  0  0  0
    7.3133   50.1712   32.5874 C   0  0  0  0  0  0  0  0  0  0  0  0
    5.8345   50.4528   32.7386 C   0  0  0  0  0  0  0  0  0  0  0  0
    5.2036   51.2545   31.7699 C   0  0  0  0  0  0  0  0  0  0  0  0
    5.0606   49.9121   33.7980 C   0  0  0  0  0  0  0  0  0  0  0  0
    3.8266   51.4768   31.8158 C   0  0  0  0  0  0  0  0  0  0  0  0
    3.6719   50.1303   33.8163 C   0  0  0  0  0  0  0  0  0  0  0  0
    5.6637   49.1685   34.8681 N   0  0  0  0  0  0  0  0  0  0  0  0
    3.0604   50.9068   32.8310 C   0  0  0  0  0  0  0  0  0  0  0  0
    6.7551   49.6805   35.5311 O   0  0  0  0  0  0  0  0  0  0  0  0
    5.0757   48.1778   35.3488 O   0  0  0  0  0  0  0  0  0  0  0  0
    8.5373   39.1401   34.0125 O   0  0  0  0  0  0  0  0  0  0  0  0
   10.9796   40.0878   33.6826 O   0  0  0  0  0  0  0  0  0  0  0  0
   10.7996   40.0901   32.2829 C   0  0  0  0  0  0  0  0  0  0  0  0
   11.5968   38.9274   31.6963 C   0  0  0  0  0  0  0  0  0  0  0  0
   12.9242   38.9426   32.1785 O   0  0  0  0  0  0  0  0  0  0  0  0
   11.0085   37.5714   32.0781 C   0  0  0  0  0  0  0  0  0  0  0  0
   13.3528   37.5929   32.2623 C   0  0  0  0  0  0  0  0  0  0  0  0
    9.9098   37.1771   31.2926 O   0  0  0  0  0  0  0  0  0  0  0  0
   12.1942   36.6683   31.8995 C   0  0  0  0  0  0  0  0  0  0  0  0
   13.8019   37.2950   33.6199 N   0  0  0  0  0  0  0  0  0  0  0  0
   12.3026   36.2773   30.5559 O   0  0  0  0  0  0  0  0  0  0  0  0
   14.7926   36.4715   33.9865 C   0  0  0  0  0  0  0  0  0  0  0  0
   13.2749   37.7286   34.7946 C   0  0  0  0  0  0  0  0  0  0  0  0
   15.6239   35.7577   33.1860 N   0  0  0  0  0  0  0  0  0  0  0  0
   14.8727   36.4403   35.3332 C   0  0  0  0  0  0  0  0  0  0  0  0
   13.9210   37.2257   35.8812 N   0  0  0  0  0  0  0  0  0  0  0  0
   16.5873   34.9921   33.7802 C   0  0  0  0  0  0  0  0  0  0  0  0
   15.8579   35.6714   35.9444 C   0  0  0  0  0  0  0  0  0  0  0  0
   16.7028   34.9583   35.1439 N   0  0  0  0  0  0  0  0  0  0  0  0
   16.0104   35.6381   37.3564 N   0  0  0  0  0  0  0  0  0  0  0  0
    7.6757   44.0635   34.0544 H   0  0  0  0  0  0  0  0  0  0  0  0
    8.6444   46.1559   34.1451 H   0  0  0  0  0  0  0  0  0  0  0  0
   10.2131   45.5900   33.8736 H   0  0  0  0  0  0  0  0  0  0  0  0
    9.9707   44.0641   31.9683 H   0  0  0  0  0  0  0  0  0  0  0  0
    8.4827   43.0818   31.8666 H   0  0  0  0  0  0  0  0  0  0  0  0
    8.5225   45.0976   30.3812 H   0  0  0  0  0  0  0  0  0  0  0  0
    8.5702   46.1485   31.8194 H   0  0  0  0  0  0  0  0  0  0  0  0
    6.3120   45.0723   32.5367 H   0  0  0  0  0  0  0  0  0  0  0  0
    6.3167   44.1802   30.9754 H   0  0  0  0  0  0  0  0  0  0  0  0
    4.9244   46.2719   30.9316 H   0  0  0  0  0  0  0  0  0  0  0  0
    6.2435   46.2936   29.7221 H   0  0  0  0  0  0  0  0  0  0  0  0
    6.3067   47.7080   32.4350 H   0  0  0  0  0  0  0  0  0  0  0  0
    7.8674   51.1085   32.8032 H   0  0  0  0  0  0  0  0  0  0  0  0
    7.6861   49.3992   33.2894 H   0  0  0  0  0  0  0  0  0  0  0  0
    5.7785   51.6928   30.9632 H   0  0  0  0  0  0  0  0  0  0  0  0
    3.3516   52.0861   31.0577 H   0  0  0  0  0  0  0  0  0  0  0  0
    3.0649   49.7184   34.6128 H   0  0  0  0  0  0  0  0  0  0  0  0
    1.9919   51.0767   32.8619 H   0  0  0  0  0  0  0  0  0  0  0  0
   11.2094   41.0419   31.8824 H   0  0  0  0  0  0  0  0  0  0  0  0
    9.7449   40.0145   31.9264 H   0  0  0  0  0  0  0  0  0  0  0  0
   11.6265   39.0456   30.5889 H   0  0  0  0  0  0  0  0  0  0  0  0
   10.7064   37.5575   33.1485 H   0  0  0  0  0  0  0  0  0  0  0  0
   14.2021   37.4484   31.5574 H   0  0  0  0  0  0  0  0  0  0  0  0
   10.0952   37.3991   30.3433 H   0  0  0  0  0  0  0  0  0  0  0  0
   12.1162   35.7745   32.5634 H   0  0  0  0  0  0  0  0  0  0  0  0
   12.9614   35.5349   30.5312 H   0  0  0  0  0  0  0  0  0  0  0  0
   12.4321   38.3982   34.8705 H   0  0  0  0  0  0  0  0  0  0  0  0
   17.2669   34.4144   33.1690 H   0  0  0  0  0  0  0  0  0  0  0  0
   16.7641   35.0599   37.7896 H   0  0  0  0  0  0  0  0  0  0  0  0
   15.3761   36.1862   37.9792 H   0  0  0  0  0  0  0  0  0  0  0  0
  1  2  2  0
  1  3  1  0
  3  4  1  0
  4  5  1  0
  6  1  1  0
  7  6  1  0
  6  8  1  0
  8  9  1  0
  9 10  1  0
 10 11  1  0
 11 12  1  0
 12 13  1  0
 13 14  1  0
 13 15  2  0
 14 16  1  0
 16 17  1  0
 17 18  2  0
 19 17  1  0
 18 20  1  0
 21 19  2  0
 19 22  1  0
 20 23  2  0
 23 21  1  0
 22 24  1  0
 22 25  2  0
  4 26  2  0
  4 27  1  0
 28 27  1  0
 28 29  1  0
 29 30  1  0
 29 31  1  0
 30 32  1  0
 31 33  1  0
 31 34  1  0
 34 32  1  0
 32 35  1  0
 34 36  1  0
 37 35  1  0
 38 35  1  0
 39 37  2  0
 37 40  1  0
 41 38  2  0
 42 39  1  0
 40 43  2  0
 40 41  1  0
 44 42  2  0
 44 43  1  0
 43 45  1  0
  6 46  1  6
  7 47  1  0
  7 48  1  0
  8 49  1  0
  8 50  1  0
  9 51  1  0
  9 52  1  0
 10 53  1  0
 10 54  1  0
 11 55  1  0
 11 56  1  0
 12 57  1  0
 16 58  1  0
 16 59  1  0
 18 60  1  0
 20 61  1  0
 21 62  1  0
 23 63  1  0
 28 64  1  0
 28 65  1  0
 29 66  1  0
 31 67  1  0
 32 68  1  0
 33 69  1  0
 34 70  1  0
 36 71  1  0
 38 72  1  0
 42 73  1  0
 45 74  1  0
 45 75  1  0
M  CHG  3   5  -1  22   1  24  -1
M  END
>  <EmbedRMS>  (175) 
0.0736149276126

$$$$

     RDKit          3D

 75 78  0  0  0  0  0  0  0  0999 V2000
    9.4333   42.9369   34.3460 C   0  0  0  0  0  0  0  0  0  0  0  0
   10.4908   43.0333   35.0318 O   0  0  0  0  0  0  0  0  0  0  0  0
    8.8563   41.7107   34.0295 O   0  0  0  0  0  0  0  0  0  0  0  0
    9.4945   40.2144   34.4679 P   0  0  0  0  0  0  0  0  0  0  0  0
    9.7308   40.1727   36.1291 O   0  0  0  0  0  0  0  0  0  0  0  0
    8.7507   44.1354   33.7741 C   0  0  1  0  0  0  0  0  0  0  0  0
    9.2963   45.3827   34.3133 N   0  0  0  0  0  0  0  0  0  0  0  0
    8.8892   44.0536   32.2358 C   0  0  0  0  0  0  0  0  0  0  0  0
    8.2024   45.1835   31.4619 C   0  0  0  0  0  0  0  0  0  0  0  0
    6.6649   45.1047   31.4850 C   0  0  0  0  0  0  0  0  0  0  0  0
    6.0256   46.3219   30.8088 C   0  0  0  0  0  0  0  0  0  0  0  0
    6.5025   47.5638   31.4166 N   0  0  0  0  0  0  0  0  0  0  0  0
    7.2541   48.5326   30.6885 C   0  0  0  0  0  0  0  0  0  0  0  0
    7.6532   49.7061   31.3321 O   0  0  0  0  0  0  0  0  0  0  0  0
    7.5889   48.3143   29.4926 O   0  0  0  0  0  0  0  0  0  0  0  0
    8.4678   50.6916   30.7049 C   0  0  0  0  0  0  0  0  0  0  0  0
    8.8407   51.7542   31.7079 C   0  0  0  0  0  0  0  0  0  0  0  0
    8.5033   53.0922   31.4311 C   0  0  0  0  0  0  0  0  0  0  0  0
    9.4832   51.4408   32.9370 C   0  0  0  0  0  0  0  0  0  0  0  0
    8.7834   54.1031   32.3511 C   0  0  0  0  0  0  0  0  0  0  0  0
    9.7421   52.4746   33.8561 C   0  0  0  0  0  0  0  0  0  0  0  0
    9.8571   50.0927   33.2795 N   0  0  0  0  0  0  0  0  0  0  0  0
    9.3981   53.7945   33.5625 C   0  0  0  0  0  0  0  0  0  0  0  0
   10.3869   49.2462   32.3339 O   0  0  0  0  0  0  0  0  0  0  0  0
    9.8503   49.7264   34.4731 O   0  0  0  0  0  0  0  0  0  0  0  0
    8.5372   39.1388   34.0124 O   0  0  0  0  0  0  0  0  0  0  0  0
   10.9804   40.0881   33.6837 O   0  0  0  0  0  0  0  0  0  0  0  0
   10.8025   40.0900   32.2839 C   0  0  0  0  0  0  0  0  0  0  0  0
   11.5888   38.9174   31.7007 C   0  0  0  0  0  0  0  0  0  0  0  0
   12.9219   38.9373   32.1692 O   0  0  0  0  0  0  0  0  0  0  0  0
   11.0028   37.5682   32.0980 C   0  0  0  0  0  0  0  0  0  0  0  0
   13.3496   37.5885   32.2601 C   0  0  0  0  0  0  0  0  0  0  0  0
    9.9343   37.1822   31.2756 O   0  0  0  0  0  0  0  0  0  0  0  0
   12.1891   36.6677   31.9049 C   0  0  0  0  0  0  0  0  0  0  0  0
   13.8025   37.2965   33.6186 N   0  0  0  0  0  0  0  0  0  0  0  0
   12.2991   36.2867   30.5567 O   0  0  0  0  0  0  0  0  0  0  0  0
   14.7929   36.4725   33.9858 C   0  0  0  0  0  0  0  0  0  0  0  0
   13.2749   37.7294   34.7935 C   0  0  0  0  0  0  0  0  0  0  0  0
   15.6240   35.7580   33.1858 N   0  0  0  0  0  0  0  0  0  0  0  0
   14.8727   36.4411   35.3327 C   0  0  0  0  0  0  0  0  0  0  0  0
   13.9208   37.2263   35.8803 N   0  0  0  0  0  0  0  0  0  0  0  0
   16.5871   34.9921   33.7801 C   0  0  0  0  0  0  0  0  0  0  0  0
   15.8576   35.6718   35.9441 C   0  0  0  0  0  0  0  0  0  0  0  0
   16.7024   34.9584   35.1438 N   0  0  0  0  0  0  0  0  0  0  0  0
   16.0099   35.6384   37.3562 N   0  0  0  0  0  0  0  0  0  0  0  0
    7.6771   44.0713   34.0503 H   0  0  0  0  0  0  0  0  0  0  0  0
   10.3190   45.4421   34.0990 H   0  0  0  0  0  0  0  0  0  0  0  0
    9.1835   45.3826   35.3535 H   0  0  0  0  0  0  0  0  0  0  0  0
    9.9710   44.0693   31.9738 H   0  0  0  0  0  0  0  0  0  0  0  0
    8.4817   43.0860   31.8666 H   0  0  0  0  0  0  0  0  0  0  0  0
    8.5387   45.1385   30.4028 H   0  0  0  0  0  0  0  0  0  0  0  0
    8.5539   46.1522   31.8756 H   0  0  0  0  0  0  0  0  0  0  0  0
    6.3302   44.1796   30.9675 H   0  0  0  0  0  0  0  0  0  0  0  0
    6.3010   45.0646   32.5326 H   0  0  0  0  0  0  0  0  0  0  0  0
    4.9220   46.2653   30.9233 H   0  0  0  0  0  0  0  0  0  0  0  0
    6.2466   46.2893   29.7203 H   0  0  0  0  0  0  0  0  0  0  0  0
    6.2820   47.7497   32.4209 H   0  0  0  0  0  0  0  0  0  0  0  0
    7.9095   51.1255   29.8466 H   0  0  0  0  0  0  0  0  0  0  0  0
    9.3905   50.2286   30.2961 H   0  0  0  0  0  0  0  0  0  0  0  0
    8.0136   53.3566   30.5019 H   0  0  0  0  0  0  0  0  0  0  0  0
    8.5173   55.1279   32.1262 H   0  0  0  0  0  0  0  0  0  0  0  0
   10.2267   52.2589   34.8001 H   0  0  0  0  0  0  0  0  0  0  0  0
    9.6105   54.5802   34.2761 H   0  0  0  0  0  0  0  0  0  0  0  0
   11.2258   41.0357   31.8830 H   0  0  0  0  0  0  0  0  0  0  0  0
    9.7476   40.0332   31.9256 H   0  0  0  0  0  0  0  0  0  0  0  0
   11.5974   39.0148   30.5904 H   0  0  0  0  0  0  0  0  0  0  0  0
   10.7023   37.5455   33.1719 H   0  0  0  0  0  0  0  0  0  0  0  0
   14.1957   37.4366   31.5528 H   0  0  0  0  0  0  0  0  0  0  0  0
    9.1340   37.6658   31.6069 H   0  0  0  0  0  0  0  0  0  0  0  0
   12.1381   35.7717   32.5697 H   0  0  0  0  0  0  0  0  0  0  0  0
   11.7707   35.4530   30.4496 H   0  0  0  0  0  0  0  0  0  0  0  0
   12.4314   38.3980   34.8694 H   0  0  0  0  0  0  0  0  0  0  0  0
   17.2665   34.4140   33.1691 H   0  0  0  0  0  0  0  0  0  0  0  0
   15.3757   36.1868   37.9789 H   0  0  0  0  0  0  0  0  0  0  0  0
   16.7633   35.0598   37.7895 H   0  0  0  0  0  0  0  0  0  0  0  0
  1  2  2  0
  1  3  1  0
  3  4  1  0
  4  5  1  0
  6  1  1  0
  7  6  1  0
  6  8  1  0
  8  9  1  0
  9 10  1  0
 10 11  1  0
 11 12  1  0
 12 13  1  0
 13 14  1  0
 13 15  2  0
 14 16  1  0
 16 17  1  0
 17 18  2  0
 19 17  1  0
 18 20  1  0
 21 19  2  0
 19 22  1  0
 20 23  2  0
 23 21  1  0
 22 24  1  0
 22 25  2  0
  4 26  2  0
  4 27  1  0
 28 27  1  0
 28 29  1  0
 29 30  1  0
 29 31  1  0
 30 32  1  0
 31 33  1  0
 31 34  1  0
 34 32  1  0
 32 35  1  0
 34 36  1  0
 37 35  1  0
 38 35  1  0
 39 37  2  0
 37 40  1  0
 41 38  2  0
 42 39  1  0
 40 43  2  0
 40 41  1  0
 44 42  2  0
 44 43  1  0
 43 45  1  0
  6 46  1  6
  7 47  1  0
  7 48  1  0
  8 49  1  0
  8 50  1  0
  9 51  1  0
  9 52  1  0
 10 53  1  0
 10 54  1  0
 11 55  1  0
 11 56  1  0
 12 57  1  0
 16 58  1  0
 16 59  1  0
 18 60  1  0
 20 61  1  0
 21 62  1  0
 23 63  1  0
 28 64  1  0
 28 65  1  0
 29 66  1  0
 31 67  1  0
 32 68  1  0
 33 69  1  0
 34 70  1  0
 36 71  1  0
 38 72  1  0
 42 73  1  0
 45 74  1  0
 45 75  1  0
M  CHG  3   5  -1  22   1  24  -1
M  END
>  <EmbedRMS>  (176) 
0.0744806870689

$$$$

     RDKit          3D

 75 78  0  0  0  0  0  0  0  0999 V2000
    9.4312   42.9417   34.3437 C   0  0  0  0  0  0  0  0  0  0  0  0
   10.4885   43.0414   35.0293 O   0  0  0  0  0  0  0  0  0  0  0  0
    8.8562   41.7133   34.0287 O   0  0  0  0  0  0  0  0  0  0  0  0
    9.4946   40.2166   34.4678 P   0  0  0  0  0  0  0  0  0  0  0  0
    9.7310   40.1744   36.1289 O   0  0  0  0  0  0  0  0  0  0  0  0
    8.7483   44.1369   33.7722 C   0  0  1  0  0  0  0  0  0  0  0  0
    9.3039   45.3675   34.3388 N   0  0  0  0  0  0  0  0  0  0  0  0
    8.8890   44.0530   32.2310 C   0  0  0  0  0  0  0  0  0  0  0  0
    8.2012   45.1737   31.4443 C   0  0  0  0  0  0  0  0  0  0  0  0
    6.6639   45.1066   31.4864 C   0  0  0  0  0  0  0  0  0  0  0  0
    6.0269   46.3229   30.8071 C   0  0  0  0  0  0  0  0  0  0  0  0
    6.5007   47.5639   31.4197 N   0  0  0  0  0  0  0  0  0  0  0  0
    7.2636   48.5327   30.6901 C   0  0  0  0  0  0  0  0  0  0  0  0
    7.7124   49.7137   31.2924 O   0  0  0  0  0  0  0  0  0  0  0  0
    7.5814   48.3123   29.4923 O   0  0  0  0  0  0  0  0  0  0  0  0
    7.4783   50.0493   32.6562 C   0  0  0  0  0  0  0  0  0  0  0  0
    8.1903   51.3353   32.9829 C   0  0  0  0  0  0  0  0  0  0  0  0
    7.4617   52.5375   32.9344 C   0  0  0  0  0  0  0  0  0  0  0  0
    9.5594   51.3665   33.3613 C   0  0  0  0  0  0  0  0  0  0  0  0
    8.0642   53.7494   33.2737 C   0  0  0  0  0  0  0  0  0  0  0  0
   10.1424   52.5978   33.7145 C   0  0  0  0  0  0  0  0  0  0  0  0
   10.3638   50.1730   33.4053 N   0  0  0  0  0  0  0  0  0  0  0  0
    9.4003   53.7789   33.6680 C   0  0  0  0  0  0  0  0  0  0  0  0
   10.2376   49.2037   32.4375 O   0  0  0  0  0  0  0  0  0  0  0  0
   11.2979   50.0786   34.2283 O   0  0  0  0  0  0  0  0  0  0  0  0
    8.5374   39.1407   34.0127 O   0  0  0  0  0  0  0  0  0  0  0  0
   10.9805   40.0890   33.6836 O   0  0  0  0  0  0  0  0  0  0  0  0
   10.8025   40.0902   32.2837 C   0  0  0  0  0  0  0  0  0  0  0  0
   11.5888   38.9175   31.7008 C   0  0  0  0  0  0  0  0  0  0  0  0
   12.9219   38.9374   32.1692 O   0  0  0  0  0  0  0  0  0  0  0  0
   11.0028   37.5683   32.0981 C   0  0  0  0  0  0  0  0  0  0  0  0
   13.3496   37.5886   32.2601 C   0  0  0  0  0  0  0  0  0  0  0  0
    9.9343   37.1823   31.2757 O   0  0  0  0  0  0  0  0  0  0  0  0
   12.1891   36.6677   31.9050 C   0  0  0  0  0  0  0  0  0  0  0  0
   13.8025   37.2965   33.6187 N   0  0  0  0  0  0  0  0  0  0  0  0
   12.2990   36.2868   30.5568 O   0  0  0  0  0  0  0  0  0  0  0  0
   14.7929   36.4725   33.9858 C   0  0  0  0  0  0  0  0  0  0  0  0
   13.2749   37.7294   34.7936 C   0  0  0  0  0  0  0  0  0  0  0  0
   15.6240   35.7580   33.1858 N   0  0  0  0  0  0  0  0  0  0  0  0
   14.8727   36.4411   35.3327 C   0  0  0  0  0  0  0  0  0  0  0  0
   13.9208   37.2263   35.8803 N   0  0  0  0  0  0  0  0  0  0  0  0
   16.5871   34.9921   33.7801 C   0  0  0  0  0  0  0  0  0  0  0  0
   15.8576   35.6718   35.9441 C   0  0  0  0  0  0  0  0  0  0  0  0
   16.7024   34.9584   35.1438 N   0  0  0  0  0  0  0  0  0  0  0  0
   16.0099   35.6384   37.3562 N   0  0  0  0  0  0  0  0  0  0  0  0
    7.6762   44.0646   34.0546 H   0  0  0  0  0  0  0  0  0  0  0  0
   10.2148   45.5897   33.8740 H   0  0  0  0  0  0  0  0  0  0  0  0
    8.6467   46.1571   34.1440 H   0  0  0  0  0  0  0  0  0  0  0  0
    9.9705   44.0656   31.9680 H   0  0  0  0  0  0  0  0  0  0  0  0
    8.4827   43.0830   31.8665 H   0  0  0  0  0  0  0  0  0  0  0  0
    8.5216   45.0995   30.3820 H   0  0  0  0  0  0  0  0  0  0  0  0
    8.5690   46.1504   31.8203 H   0  0  0  0  0  0  0  0  0  0  0  0
    6.3117   45.0784   32.5385 H   0  0  0  0  0  0  0  0  0  0  0  0
    6.3165   44.1795   30.9809 H   0  0  0  0  0  0  0  0  0  0  0  0
    4.9229   46.2656   30.9169 H   0  0  0  0  0  0  0  0  0  0  0  0
    6.2522   46.2902   29.7196 H   0  0  0  0  0  0  0  0  0  0  0  0
    6.2559   47.7303   32.4204 H   0  0  0  0  0  0  0  0  0  0  0  0
    7.8350   49.2382   33.3269 H   0  0  0  0  0  0  0  0  0  0  0  0
    6.3839   50.1587   32.8221 H   0  0  0  0  0  0  0  0  0  0  0  0
    6.4195   52.5367   32.6391 H   0  0  0  0  0  0  0  0  0  0  0  0
    7.4919   54.6674   33.2354 H   0  0  0  0  0  0  0  0  0  0  0  0
   11.1826   52.6460   34.0110 H   0  0  0  0  0  0  0  0  0  0  0  0
    9.8643   54.7199   33.9341 H   0  0  0  0  0  0  0  0  0  0  0  0
    9.7476   40.0332   31.9255 H   0  0  0  0  0  0  0  0  0  0  0  0
   11.2257   41.0358   31.8824 H   0  0  0  0  0  0  0  0  0  0  0  0
   11.5975   39.0148   30.5905 H   0  0  0  0  0  0  0  0  0  0  0  0
   10.7023   37.5457   33.1720 H   0  0  0  0  0  0  0  0  0  0  0  0
   14.1957   37.4366   31.5528 H   0  0  0  0  0  0  0  0  0  0  0  0
    9.1339   37.6659   31.6070 H   0  0  0  0  0  0  0  0  0  0  0  0
   12.1380   35.7718   32.5698 H   0  0  0  0  0  0  0  0  0  0  0  0
   11.7706   35.4530   30.4497 H   0  0  0  0  0  0  0  0  0  0  0  0
   12.4314   38.3981   34.8694 H   0  0  0  0  0  0  0  0  0  0  0  0
   17.2665   34.4140   33.1691 H   0  0  0  0  0  0  0  0  0  0  0  0
   16.7633   35.0598   37.7895 H   0  0  0  0  0  0  0  0  0  0  0  0
   15.3757   36.1867   37.9789 H   0  0  0  0  0  0  0  0  0  0  0  0
  1  2  2  0
  1  3  1  0
  3  4  1  0
  4  5  1  0
  6  1  1  0
  7  6  1  0
  6  8  1  0
  8  9  1  0
  9 10  1  0
 10 11  1  0
 11 12  1  0
 12 13  1  0
 13 14  1  0
 13 15  2  0
 14 16  1  0
 16 17  1  0
 17 18  2  0
 19 17  1  0
 18 20  1  0
 21 19  2  0
 19 22  1  0
 20 23  2  0
 23 21  1  0
 22 24  1  0
 22 25  2  0
  4 26  2  0
  4 27  1  0
 28 27  1  0
 28 29  1  0
 29 30  1  0
 29 31  1  0
 30 32  1  0
 31 33  1  0
 31 34  1  0
 34 32  1  0
 32 35  1  0
 34 36  1  0
 37 35  1  0
 38 35  1  0
 39 37  2  0
 37 40  1  0
 41 38  2  0
 42 39  1  0
 40 43  2  0
 40 41  1  0
 44 42  2  0
 44 43  1  0
 43 45  1  0
  6 46  1  6
  7 47  1  0
  7 48  1  0
  8 49  1  0
  8 50  1  0
  9 51  1  0
  9 52  1  0
 10 53  1  0
 10 54  1  0
 11 55  1  0
 11 56  1  0
 12 57  1  0
 16 58  1  0
 16 59  1  0
 18 60  1  0
 20 61  1  0
 21 62  1  0
 23 63  1  0
 28 64  1  0
 28 65  1  0
 29 66  1  0
 31 67  1  0
 32 68  1  0
 33 69  1  0
 34 70  1  0
 36 71  1  0
 38 72  1  0
 42 73  1  0
 45 74  1  0
 45 75  1  0
M  CHG  3   5  -1  22   1  24  -1
M  END
>  <EmbedRMS>  (177) 
0.0739106669969

$$$$

     RDKit          3D

 75 78  0  0  0  0  0  0  0  0999 V2000
    9.4335   42.9370   34.3456 C   0  0  0  0  0  0  0  0  0  0  0  0
   10.4908   43.0333   35.0315 O   0  0  0  0  0  0  0  0  0  0  0  0
    8.8563   41.7108   34.0291 O   0  0  0  0  0  0  0  0  0  0  0  0
    9.4942   40.2142   34.4677 P   0  0  0  0  0  0  0  0  0  0  0  0
    9.7310   40.1727   36.1288 O   0  0  0  0  0  0  0  0  0  0  0  0
    8.7509   44.1357   33.7737 C   0  0  1  0  0  0  0  0  0  0  0  0
    9.2966   45.3829   34.3132 N   0  0  0  0  0  0  0  0  0  0  0  0
    8.8895   44.0547   32.2353 C   0  0  0  0  0  0  0  0  0  0  0  0
    8.2024   45.1850   31.4618 C   0  0  0  0  0  0  0  0  0  0  0  0
    6.6647   45.1058   31.4852 C   0  0  0  0  0  0  0  0  0  0  0  0
    6.0241   46.3217   30.8076 C   0  0  0  0  0  0  0  0  0  0  0  0
    6.4973   47.5652   31.4153 N   0  0  0  0  0  0  0  0  0  0  0  0
    7.2602   48.5282   30.6916 C   0  0  0  0  0  0  0  0  0  0  0  0
    7.6784   49.6925   31.3436 O   0  0  0  0  0  0  0  0  0  0  0  0
    7.5888   48.3120   29.4938 O   0  0  0  0  0  0  0  0  0  0  0  0
    8.6384   50.5967   30.8010 C   0  0  0  0  0  0  0  0  0  0  0  0
   10.0132   49.9693   30.7968 C   0  0  0  0  0  0  0  0  0  0  0  0
   10.5369   49.5092   29.5743 C   0  0  0  0  0  0  0  0  0  0  0  0
   10.8001   49.8548   31.9753 C   0  0  0  0  0  0  0  0  0  0  0  0
   11.8095   48.9413   29.5116 C   0  0  0  0  0  0  0  0  0  0  0  0
   12.0866   49.2909   31.8854 C   0  0  0  0  0  0  0  0  0  0  0  0
   10.3346   50.3264   33.2540 N   0  0  0  0  0  0  0  0  0  0  0  0
   12.5832   48.8331   30.6646 C   0  0  0  0  0  0  0  0  0  0  0  0
    9.0279   50.1449   33.6413 O   0  0  0  0  0  0  0  0  0  0  0  0
   11.1501   50.7638   34.0922 O   0  0  0  0  0  0  0  0  0  0  0  0
    8.5369   39.1385   34.0122 O   0  0  0  0  0  0  0  0  0  0  0  0
   10.9795   40.0869   33.6827 O   0  0  0  0  0  0  0  0  0  0  0  0
   10.7997   40.0899   32.2830 C   0  0  0  0  0  0  0  0  0  0  0  0
   11.5968   38.9274   31.6962 C   0  0  0  0  0  0  0  0  0  0  0  0
   12.9242   38.9425   32.1784 O   0  0  0  0  0  0  0  0  0  0  0  0
   11.0086   37.5713   32.0780 C   0  0  0  0  0  0  0  0  0  0  0  0
   13.3528   37.5929   32.2623 C   0  0  0  0  0  0  0  0  0  0  0  0
    9.9098   37.1770   31.2925 O   0  0  0  0  0  0  0  0  0  0  0  0
   12.1943   36.6683   31.8995 C   0  0  0  0  0  0  0  0  0  0  0  0
   13.8019   37.2950   33.6199 N   0  0  0  0  0  0  0  0  0  0  0  0
   12.3027   36.2773   30.5558 O   0  0  0  0  0  0  0  0  0  0  0  0
   14.7926   36.4715   33.9865 C   0  0  0  0  0  0  0  0  0  0  0  0
   13.2749   37.7286   34.7946 C   0  0  0  0  0  0  0  0  0  0  0  0
   15.6239   35.7577   33.1860 N   0  0  0  0  0  0  0  0  0  0  0  0
   14.8727   36.4403   35.3332 C   0  0  0  0  0  0  0  0  0  0  0  0
   13.9210   37.2257   35.8812 N   0  0  0  0  0  0  0  0  0  0  0  0
   16.5873   34.9921   33.7802 C   0  0  0  0  0  0  0  0  0  0  0  0
   15.8579   35.6714   35.9444 C   0  0  0  0  0  0  0  0  0  0  0  0
   16.7028   34.9583   35.1439 N   0  0  0  0  0  0  0  0  0  0  0  0
   16.0104   35.6381   37.3564 N   0  0  0  0  0  0  0  0  0  0  0  0
    7.6773   44.0716   34.0499 H   0  0  0  0  0  0  0  0  0  0  0  0
   10.3191   45.4427   34.0982 H   0  0  0  0  0  0  0  0  0  0  0  0
    9.1846   45.3822   35.3535 H   0  0  0  0  0  0  0  0  0  0  0  0
    9.9713   44.0710   31.9734 H   0  0  0  0  0  0  0  0  0  0  0  0
    8.4823   43.0872   31.8657 H   0  0  0  0  0  0  0  0  0  0  0  0
    8.5535   46.1539   31.8756 H   0  0  0  0  0  0  0  0  0  0  0  0
    8.5387   45.1407   30.4027 H   0  0  0  0  0  0  0  0  0  0  0  0
    6.3011   45.0665   32.5329 H   0  0  0  0  0  0  0  0  0  0  0  0
    6.3306   44.1798   30.9688 H   0  0  0  0  0  0  0  0  0  0  0  0
    6.2467   46.2889   29.7195 H   0  0  0  0  0  0  0  0  0  0  0  0
    4.9205   46.2630   30.9203 H   0  0  0  0  0  0  0  0  0  0  0  0
    6.2753   47.7511   32.4193 H   0  0  0  0  0  0  0  0  0  0  0  0
    8.6544   51.5258   31.4085 H   0  0  0  0  0  0  0  0  0  0  0  0
    8.3253   50.8965   29.7766 H   0  0  0  0  0  0  0  0  0  0  0  0
    9.9582   49.5902   28.6624 H   0  0  0  0  0  0  0  0  0  0  0  0
   12.1982   48.5883   28.5651 H   0  0  0  0  0  0  0  0  0  0  0  0
   12.7046   49.1938   32.7691 H   0  0  0  0  0  0  0  0  0  0  0  0
   13.5715   48.3948   30.6129 H   0  0  0  0  0  0  0  0  0  0  0  0
   11.2097   41.0419   31.8829 H   0  0  0  0  0  0  0  0  0  0  0  0
    9.7450   40.0145   31.9262 H   0  0  0  0  0  0  0  0  0  0  0  0
   11.6265   39.0456   30.5888 H   0  0  0  0  0  0  0  0  0  0  0  0
   10.7064   37.5574   33.1484 H   0  0  0  0  0  0  0  0  0  0  0  0
   14.2021   37.4484   31.5574 H   0  0  0  0  0  0  0  0  0  0  0  0
   10.0952   37.3990   30.3433 H   0  0  0  0  0  0  0  0  0  0  0  0
   12.1163   35.7745   32.5633 H   0  0  0  0  0  0  0  0  0  0  0  0
   12.9614   35.5349   30.5311 H   0  0  0  0  0  0  0  0  0  0  0  0
   12.4321   38.3982   34.8705 H   0  0  0  0  0  0  0  0  0  0  0  0
   17.2669   34.4143   33.1690 H   0  0  0  0  0  0  0  0  0  0  0  0
   16.7641   35.0598   37.7896 H   0  0  0  0  0  0  0  0  0  0  0  0
   15.3761   36.1862   37.9792 H   0  0  0  0  0  0  0  0  0  0  0  0
  1  2  2  0
  1  3  1  0
  3  4  1  0
  4  5  1  0
  6  1  1  0
  7  6  1  0
  6  8  1  0
  8  9  1  0
  9 10  1  0
 10 11  1  0
 11 12  1  0
 12 13  1  0
 13 14  1  0
 13 15  2  0
 14 16  1  0
 16 17  1  0
 17 18  2  0
 19 17  1  0
 18 20  1  0
 21 19  2  0
 19 22  1  0
 20 23  2  0
 23 21  1  0
 22 24  1  0
 22 25  2  0
  4 26  2  0
  4 27  1  0
 28 27  1  0
 28 29  1  0
 29 30  1  0
 29 31  1  0
 30 32  1  0
 31 33  1  0
 31 34  1  0
 34 32  1  0
 32 35  1  0
 34 36  1  0
 37 35  1  0
 38 35  1  0
 39 37  2  0
 37 40  1  0
 41 38  2  0
 42 39  1  0
 40 43  2  0
 40 41  1  0
 44 42  2  0
 44 43  1  0
 43 45  1  0
  6 46  1  6
  7 47  1  0
  7 48  1  0
  8 49  1  0
  8 50  1  0
  9 51  1  0
  9 52  1  0
 10 53  1  0
 10 54  1  0
 11 55  1  0
 11 56  1  0
 12 57  1  0
 16 58  1  0
 16 59  1  0
 18 60  1  0
 20 61  1  0
 21 62  1  0
 23 63  1  0
 28 64  1  0
 28 65  1  0
 29 66  1  0
 31 67  1  0
 32 68  1  0
 33 69  1  0
 34 70  1  0
 36 71  1  0
 38 72  1  0
 42 73  1  0
 45 74  1  0
 45 75  1  0
M  CHG  3   5  -1  22   1  24  -1
M  END
>  <EmbedRMS>  (178) 
0.0751506086514

$$$$

     RDKit          3D

 75 78  0  0  0  0  0  0  0  0999 V2000
    9.4331   42.9364   34.3462 C   0  0  0  0  0  0  0  0  0  0  0  0
   10.4907   43.0329   35.0317 O   0  0  0  0  0  0  0  0  0  0  0  0
    8.8558   41.7103   34.0299 O   0  0  0  0  0  0  0  0  0  0  0  0
    9.4943   40.2141   34.4677 P   0  0  0  0  0  0  0  0  0  0  0  0
    9.7317   40.1723   36.1287 O   0  0  0  0  0  0  0  0  0  0  0  0
    8.7506   44.1348   33.7741 C   0  0  1  0  0  0  0  0  0  0  0  0
    9.2963   45.3820   34.3133 N   0  0  0  0  0  0  0  0  0  0  0  0
    8.8893   44.0527   32.2358 C   0  0  0  0  0  0  0  0  0  0  0  0
    8.2029   45.1822   31.4614 C   0  0  0  0  0  0  0  0  0  0  0  0
    6.6654   45.1046   31.4854 C   0  0  0  0  0  0  0  0  0  0  0  0
    6.0272   46.3228   30.8107 C   0  0  0  0  0  0  0  0  0  0  0  0
    6.5071   47.5639   31.4183 N   0  0  0  0  0  0  0  0  0  0  0  0
    7.2416   48.5403   30.6828 C   0  0  0  0  0  0  0  0  0  0  0  0
    7.5835   49.7464   31.3037 O   0  0  0  0  0  0  0  0  0  0  0  0
    7.5942   48.3109   29.4942 O   0  0  0  0  0  0  0  0  0  0  0  0
    8.2900   50.7944   30.6420 C   0  0  0  0  0  0  0  0  0  0  0  0
    7.4257   51.4406   29.5835 C   0  0  0  0  0  0  0  0  0  0  0  0
    7.8996   51.4777   28.2590 C   0  0  0  0  0  0  0  0  0  0  0  0
    6.1369   51.9646   29.8738 C   0  0  0  0  0  0  0  0  0  0  0  0
    7.1150   52.0104   27.2356 C   0  0  0  0  0  0  0  0  0  0  0  0
    5.3569   52.4833   28.8235 C   0  0  0  0  0  0  0  0  0  0  0  0
    5.5972   51.9616   31.2084 N   0  0  0  0  0  0  0  0  0  0  0  0
    5.8448   52.5086   27.5166 C   0  0  0  0  0  0  0  0  0  0  0  0
    6.3936   52.2575   32.2899 O   0  0  0  0  0  0  0  0  0  0  0  0
    4.3665   51.8475   31.3848 O   0  0  0  0  0  0  0  0  0  0  0  0
    8.5371   39.1382   34.0123 O   0  0  0  0  0  0  0  0  0  0  0  0
   10.9793   40.0887   33.6814 O   0  0  0  0  0  0  0  0  0  0  0  0
   10.7977   40.0842   32.2818 C   0  0  0  0  0  0  0  0  0  0  0  0
   11.5897   38.9146   31.7008 C   0  0  0  0  0  0  0  0  0  0  0  0
   12.9218   38.9385   32.1717 O   0  0  0  0  0  0  0  0  0  0  0  0
   11.0071   37.5654   32.0975 C   0  0  0  0  0  0  0  0  0  0  0  0
   13.3533   37.5909   32.2610 C   0  0  0  0  0  0  0  0  0  0  0  0
    9.9333   37.1934   31.2754 O   0  0  0  0  0  0  0  0  0  0  0  0
   12.1945   36.6671   31.9040 C   0  0  0  0  0  0  0  0  0  0  0  0
   13.8036   37.2970   33.6193 N   0  0  0  0  0  0  0  0  0  0  0  0
   12.2893   36.2849   30.5562 O   0  0  0  0  0  0  0  0  0  0  0  0
   14.7931   36.4723   33.9863 C   0  0  0  0  0  0  0  0  0  0  0  0
   13.2756   37.7298   34.7940 C   0  0  0  0  0  0  0  0  0  0  0  0
   15.6242   35.7580   33.1861 N   0  0  0  0  0  0  0  0  0  0  0  0
   14.8727   36.4407   35.3331 C   0  0  0  0  0  0  0  0  0  0  0  0
   13.9210   37.2262   35.8808 N   0  0  0  0  0  0  0  0  0  0  0  0
   16.5872   34.9920   33.7803 C   0  0  0  0  0  0  0  0  0  0  0  0
   15.8577   35.6715   35.9444 C   0  0  0  0  0  0  0  0  0  0  0  0
   16.7025   34.9582   35.1440 N   0  0  0  0  0  0  0  0  0  0  0  0
   16.0101   35.6382   37.3564 N   0  0  0  0  0  0  0  0  0  0  0  0
    7.6770   44.0707   34.0503 H   0  0  0  0  0  0  0  0  0  0  0  0
    9.1827   45.3820   35.3535 H   0  0  0  0  0  0  0  0  0  0  0  0
   10.3192   45.4405   34.1000 H   0  0  0  0  0  0  0  0  0  0  0  0
    9.9711   44.0680   31.9739 H   0  0  0  0  0  0  0  0  0  0  0  0
    8.4816   43.0850   31.8668 H   0  0  0  0  0  0  0  0  0  0  0  0
    8.5385   45.1361   30.4021 H   0  0  0  0  0  0  0  0  0  0  0  0
    8.5554   46.1509   31.8740 H   0  0  0  0  0  0  0  0  0  0  0  0
    6.3296   44.1801   30.9674 H   0  0  0  0  0  0  0  0  0  0  0  0
    6.3020   45.0641   32.5332 H   0  0  0  0  0  0  0  0  0  0  0  0
    4.9238   46.2679   30.9270 H   0  0  0  0  0  0  0  0  0  0  0  0
    6.2464   46.2901   29.7218 H   0  0  0  0  0  0  0  0  0  0  0  0
    6.2816   47.7539   32.4207 H   0  0  0  0  0  0  0  0  0  0  0  0
    9.2312   50.3861   30.2123 H   0  0  0  0  0  0  0  0  0  0  0  0
    8.5934   51.5582   31.3863 H   0  0  0  0  0  0  0  0  0  0  0  0
    8.8776   51.0830   28.0124 H   0  0  0  0  0  0  0  0  0  0  0  0
    7.4908   52.0305   26.2208 H   0  0  0  0  0  0  0  0  0  0  0  0
    4.3705   52.8839   29.0206 H   0  0  0  0  0  0  0  0  0  0  0  0
    5.2365   52.9174   26.7200 H   0  0  0  0  0  0  0  0  0  0  0  0
   11.2111   41.0320   31.8754 H   0  0  0  0  0  0  0  0  0  0  0  0
    9.7422   40.0117   31.9267 H   0  0  0  0  0  0  0  0  0  0  0  0
   11.6005   39.0119   30.5904 H   0  0  0  0  0  0  0  0  0  0  0  0
   10.7015   37.5592   33.1701 H   0  0  0  0  0  0  0  0  0  0  0  0
   14.2012   37.4438   31.5552 H   0  0  0  0  0  0  0  0  0  0  0  0
    9.5289   36.3869   31.6895 H   0  0  0  0  0  0  0  0  0  0  0  0
   12.1244   35.7693   32.5633 H   0  0  0  0  0  0  0  0  0  0  0  0
   12.9478   35.5427   30.5201 H   0  0  0  0  0  0  0  0  0  0  0  0
   12.4328   38.3993   34.8697 H   0  0  0  0  0  0  0  0  0  0  0  0
   17.2667   34.4140   33.1692 H   0  0  0  0  0  0  0  0  0  0  0  0
   16.7636   35.0598   37.7897 H   0  0  0  0  0  0  0  0  0  0  0  0
   15.3759   36.1865   37.9791 H   0  0  0  0  0  0  0  0  0  0  0  0
  1  2  2  0
  1  3  1  0
  3  4  1  0
  4  5  1  0
  6  1  1  0
  7  6  1  0
  6  8  1  0
  8  9  1  0
  9 10  1  0
 10 11  1  0
 11 12  1  0
 12 13  1  0
 13 14  1  0
 13 15  2  0
 14 16  1  0
 16 17  1  0
 17 18  2  0
 19 17  1  0
 18 20  1  0
 21 19  2  0
 19 22  1  0
 20 23  2  0
 23 21  1  0
 22 24  1  0
 22 25  2  0
  4 26  2  0
  4 27  1  0
 28 27  1  0
 28 29  1  0
 29 30  1  0
 29 31  1  0
 30 32  1  0
 31 33  1  0
 31 34  1  0
 34 32  1  0
 32 35  1  0
 34 36  1  0
 37 35  1  0
 38 35  1  0
 39 37  2  0
 37 40  1  0
 41 38  2  0
 42 39  1  0
 40 43  2  0
 40 41  1  0
 44 42  2  0
 44 43  1  0
 43 45  1  0
  6 46  1  6
  7 47  1  0
  7 48  1  0
  8 49  1  0
  8 50  1  0
  9 51  1  0
  9 52  1  0
 10 53  1  0
 10 54  1  0
 11 55  1  0
 11 56  1  0
 12 57  1  0
 16 58  1  0
 16 59  1  0
 18 60  1  0
 20 61  1  0
 21 62  1  0
 23 63  1  0
 28 64  1  0
 28 65  1  0
 29 66  1  0
 31 67  1  0
 32 68  1  0
 33 69  1  0
 34 70  1  0
 36 71  1  0
 38 72  1  0
 42 73  1  0
 45 74  1  0
 45 75  1  0
M  CHG  3   5  -1  22   1  24  -1
M  END
>  <EmbedRMS>  (179) 
0.0742083591006

$$$$

     RDKit          3D

 75 78  0  0  0  0  0  0  0  0999 V2000
    9.4298   42.9397   34.3435 C   0  0  0  0  0  0  0  0  0  0  0  0
   10.4911   43.0384   35.0235 O   0  0  0  0  0  0  0  0  0  0  0  0
    8.8549   41.7117   34.0284 O   0  0  0  0  0  0  0  0  0  0  0  0
    9.4943   40.2157   34.4676 P   0  0  0  0  0  0  0  0  0  0  0  0
    9.7308   40.1741   36.1287 O   0  0  0  0  0  0  0  0  0  0  0  0
    8.7407   44.1379   33.7786 C   0  0  1  0  0  0  0  0  0  0  0  0
    9.3005   45.3724   34.3325 N   0  0  0  0  0  0  0  0  0  0  0  0
    8.8961   44.0591   32.2400 C   0  0  0  0  0  0  0  0  0  0  0  0
    8.2030   45.1685   31.4399 C   0  0  0  0  0  0  0  0  0  0  0  0
    6.6654   45.1047   31.4872 C   0  0  0  0  0  0  0  0  0  0  0  0
    6.0287   46.3235   30.8118 C   0  0  0  0  0  0  0  0  0  0  0  0
    6.5114   47.5615   31.4230 N   0  0  0  0  0  0  0  0  0  0  0  0
    7.2457   48.5436   30.6821 C   0  0  0  0  0  0  0  0  0  0  0  0
    7.6218   49.7672   31.2535 O   0  0  0  0  0  0  0  0  0  0  0  0
    7.5880   48.3080   29.4940 O   0  0  0  0  0  0  0  0  0  0  0  0
    7.3133   50.1705   32.5877 C   0  0  0  0  0  0  0  0  0  0  0  0
    5.8345   50.4521   32.7397 C   0  0  0  0  0  0  0  0  0  0  0  0
    5.2034   51.2546   31.7720 C   0  0  0  0  0  0  0  0  0  0  0  0
    5.0610   49.9105   33.7990 C   0  0  0  0  0  0  0  0  0  0  0  0
    3.8263   51.4771   31.8187 C   0  0  0  0  0  0  0  0  0  0  0  0
    3.6724   50.1289   33.8182 C   0  0  0  0  0  0  0  0  0  0  0  0
    5.6645   49.1658   34.8681 N   0  0  0  0  0  0  0  0  0  0  0  0
    3.0605   50.9062   32.8338 C   0  0  0  0  0  0  0  0  0  0  0  0
    6.7561   49.6773   35.5314 O   0  0  0  0  0  0  0  0  0  0  0  0
    5.0768   48.1745   35.3480 O   0  0  0  0  0  0  0  0  0  0  0  0
    8.5375   39.1394   34.0126 O   0  0  0  0  0  0  0  0  0  0  0  0
   10.9804   40.0889   33.6834 O   0  0  0  0  0  0  0  0  0  0  0  0
   10.8024   40.0901   32.2836 C   0  0  0  0  0  0  0  0  0  0  0  0
   11.5888   38.9174   31.7007 C   0  0  0  0  0  0  0  0  0  0  0  0
   12.9219   38.9373   32.1692 O   0  0  0  0  0  0  0  0  0  0  0  0
   11.0028   37.5682   32.0981 C   0  0  0  0  0  0  0  0  0  0  0  0
   13.3496   37.5886   32.2601 C   0  0  0  0  0  0  0  0  0  0  0  0
    9.9343   37.1823   31.2757 O   0  0  0  0  0  0  0  0  0  0  0  0
   12.1891   36.6677   31.9050 C   0  0  0  0  0  0  0  0  0  0  0  0
   13.8025   37.2965   33.6186 N   0  0  0  0  0  0  0  0  0  0  0  0
   12.2990   36.2867   30.5568 O   0  0  0  0  0  0  0  0  0  0  0  0
   14.7929   36.4725   33.9858 C   0  0  0  0  0  0  0  0  0  0  0  0
   13.2749   37.7295   34.7935 C   0  0  0  0  0  0  0  0  0  0  0  0
   15.6240   35.7580   33.1858 N   0  0  0  0  0  0  0  0  0  0  0  0
   14.8727   36.4411   35.3327 C   0  0  0  0  0  0  0  0  0  0  0  0
   13.9208   37.2263   35.8803 N   0  0  0  0  0  0  0  0  0  0  0  0
   16.5871   34.9921   33.7801 C   0  0  0  0  0  0  0  0  0  0  0  0
   15.8576   35.6718   35.9441 C   0  0  0  0  0  0  0  0  0  0  0  0
   16.7024   34.9584   35.1438 N   0  0  0  0  0  0  0  0  0  0  0  0
   16.0099   35.6384   37.3562 N   0  0  0  0  0  0  0  0  0  0  0  0
    7.6662   44.0652   34.0545 H   0  0  0  0  0  0  0  0  0  0  0  0
    9.2332   45.3276   35.3759 H   0  0  0  0  0  0  0  0  0  0  0  0
    8.6786   46.1670   34.0598 H   0  0  0  0  0  0  0  0  0  0  0  0
    9.9809   44.0904   31.9919 H   0  0  0  0  0  0  0  0  0  0  0  0
    8.5082   43.0838   31.8696 H   0  0  0  0  0  0  0  0  0  0  0  0
    8.5183   45.0768   30.3774 H   0  0  0  0  0  0  0  0  0  0  0  0
    8.5759   46.1509   31.7937 H   0  0  0  0  0  0  0  0  0  0  0  0
    6.3143   44.1784   30.9829 H   0  0  0  0  0  0  0  0  0  0  0  0
    6.3161   45.0774   32.5400 H   0  0  0  0  0  0  0  0  0  0  0  0
    6.2456   46.2915   29.7226 H   0  0  0  0  0  0  0  0  0  0  0  0
    4.9254   46.2703   30.9310 H   0  0  0  0  0  0  0  0  0  0  0  0
    6.3060   47.7078   32.4346 H   0  0  0  0  0  0  0  0  0  0  0  0
    7.6865   49.3983   33.2892 H   0  0  0  0  0  0  0  0  0  0  0  0
    7.8675   51.1078   32.8035 H   0  0  0  0  0  0  0  0  0  0  0  0
    5.7779   51.6935   30.9654 H   0  0  0  0  0  0  0  0  0  0  0  0
    3.3511   52.0869   31.0613 H   0  0  0  0  0  0  0  0  0  0  0  0
    3.0657   49.7163   34.6145 H   0  0  0  0  0  0  0  0  0  0  0  0
    1.9921   51.0763   32.8653 H   0  0  0  0  0  0  0  0  0  0  0  0
   11.2257   41.0357   31.8823 H   0  0  0  0  0  0  0  0  0  0  0  0
    9.7476   40.0332   31.9253 H   0  0  0  0  0  0  0  0  0  0  0  0
   11.5975   39.0147   30.5905 H   0  0  0  0  0  0  0  0  0  0  0  0
   10.7023   37.5456   33.1720 H   0  0  0  0  0  0  0  0  0  0  0  0
   14.1957   37.4366   31.5528 H   0  0  0  0  0  0  0  0  0  0  0  0
    9.1339   37.6658   31.6070 H   0  0  0  0  0  0  0  0  0  0  0  0
   12.1380   35.7717   32.5698 H   0  0  0  0  0  0  0  0  0  0  0  0
   11.7707   35.4530   30.4496 H   0  0  0  0  0  0  0  0  0  0  0  0
   12.4315   38.3981   34.8694 H   0  0  0  0  0  0  0  0  0  0  0  0
   17.2665   34.4140   33.1691 H   0  0  0  0  0  0  0  0  0  0  0  0
   16.7633   35.0598   37.7895 H   0  0  0  0  0  0  0  0  0  0  0  0
   15.3757   36.1868   37.9789 H   0  0  0  0  0  0  0  0  0  0  0  0
  1  2  2  0
  1  3  1  0
  3  4  1  0
  4  5  1  0
  6  1  1  0
  7  6  1  0
  6  8  1  0
  8  9  1  0
  9 10  1  0
 10 11  1  0
 11 12  1  0
 12 13  1  0
 13 14  1  0
 13 15  2  0
 14 16  1  0
 16 17  1  0
 17 18  2  0
 19 17  1  0
 18 20  1  0
 21 19  2  0
 19 22  1  0
 20 23  2  0
 23 21  1  0
 22 24  1  0
 22 25  2  0
  4 26  2  0
  4 27  1  0
 28 27  1  0
 28 29  1  0
 29 30  1  0
 29 31  1  0
 30 32  1  0
 31 33  1  0
 31 34  1  0
 34 32  1  0
 32 35  1  0
 34 36  1  0
 37 35  1  0
 38 35  1  0
 39 37  2  0
 37 40  1  0
 41 38  2  0
 42 39  1  0
 40 43  2  0
 40 41  1  0
 44 42  2  0
 44 43  1  0
 43 45  1  0
  6 46  1  6
  7 47  1  0
  7 48  1  0
  8 49  1  0
  8 50  1  0
  9 51  1  0
  9 52  1  0
 10 53  1  0
 10 54  1  0
 11 55  1  0
 11 56  1  0
 12 57  1  0
 16 58  1  0
 16 59  1  0
 18 60  1  0
 20 61  1  0
 21 62  1  0
 23 63  1  0
 28 64  1  0
 28 65  1  0
 29 66  1  0
 31 67  1  0
 32 68  1  0
 33 69  1  0
 34 70  1  0
 36 71  1  0
 38 72  1  0
 42 73  1  0
 45 74  1  0
 45 75  1  0
M  CHG  3   5  -1  22   1  24  -1
M  END
>  <EmbedRMS>  (180) 
0.0733745483633

$$$$

     RDKit          3D

 75 78  0  0  0  0  0  0  0  0999 V2000
    9.4312   42.9412   34.3440 C   0  0  0  0  0  0  0  0  0  0  0  0
   10.4886   43.0411   35.0294 O   0  0  0  0  0  0  0  0  0  0  0  0
    8.8558   41.7129   34.0298 O   0  0  0  0  0  0  0  0  0  0  0  0
    9.4933   40.2164   34.4707 P   0  0  0  0  0  0  0  0  0  0  0  0
    9.7290   40.1745   36.1317 O   0  0  0  0  0  0  0  0  0  0  0  0
    8.7484   44.1360   33.7722 C   0  0  1  0  0  0  0  0  0  0  0  0
    9.3039   45.3666   34.3388 N   0  0  0  0  0  0  0  0  0  0  0  0
    8.8892   44.0518   32.2309 C   0  0  0  0  0  0  0  0  0  0  0  0
    8.2014   45.1721   31.4436 C   0  0  0  0  0  0  0  0  0  0  0  0
    6.6642   45.1065   31.4888 C   0  0  0  0  0  0  0  0  0  0  0  0
    6.0265   46.3234   30.8120 C   0  0  0  0  0  0  0  0  0  0  0  0
    6.5075   47.5645   31.4187 N   0  0  0  0  0  0  0  0  0  0  0  0
    7.2444   48.5393   30.6834 C   0  0  0  0  0  0  0  0  0  0  0  0
    7.5952   49.7401   31.3057 O   0  0  0  0  0  0  0  0  0  0  0  0
    7.5930   48.3115   29.4933 O   0  0  0  0  0  0  0  0  0  0  0  0
    8.3419   50.7581   30.6475 C   0  0  0  0  0  0  0  0  0  0  0  0
    8.5398   51.9217   31.5843 C   0  0  0  0  0  0  0  0  0  0  0  0
    9.7720   52.0421   32.2527 C   0  0  0  0  0  0  0  0  0  0  0  0
    7.5368   52.9081   31.7928 C   0  0  0  0  0  0  0  0  0  0  0  0
   10.0219   53.1244   33.0969 C   0  0  0  0  0  0  0  0  0  0  0  0
    7.8172   53.9987   32.6358 C   0  0  0  0  0  0  0  0  0  0  0  0
    6.2480   52.8386   31.1542 N   0  0  0  0  0  0  0  0  0  0  0  0
    9.0485   54.1032   33.2842 C   0  0  0  0  0  0  0  0  0  0  0  0
    5.5537   53.9951   30.8819 O   0  0  0  0  0  0  0  0  0  0  0  0
    5.6727   51.7435   30.9906 O   0  0  0  0  0  0  0  0  0  0  0  0
    8.5369   39.1403   34.0143 O   0  0  0  0  0  0  0  0  0  0  0  0
   10.9795   40.0883   33.6889 O   0  0  0  0  0  0  0  0  0  0  0  0
   10.8017   40.0949   32.2901 C   0  0  0  0  0  0  0  0  0  0  0  0
   11.5885   38.9267   31.7042 C   0  0  0  0  0  0  0  0  0  0  0  0
   12.9237   38.9445   32.1722 O   0  0  0  0  0  0  0  0  0  0  0  0
   11.0029   37.5726   32.0908 C   0  0  0  0  0  0  0  0  0  0  0  0
   13.3555   37.5960   32.2595 C   0  0  0  0  0  0  0  0  0  0  0  0
    9.9379   37.1847   31.2657 O   0  0  0  0  0  0  0  0  0  0  0  0
   12.1931   36.6769   31.8952 C   0  0  0  0  0  0  0  0  0  0  0  0
   13.8028   37.2977   33.6186 N   0  0  0  0  0  0  0  0  0  0  0  0
   12.2918   36.2396   30.5587 O   0  0  0  0  0  0  0  0  0  0  0  0
   14.7926   36.4727   33.9858 C   0  0  0  0  0  0  0  0  0  0  0  0
   13.2750   37.7302   34.7935 C   0  0  0  0  0  0  0  0  0  0  0  0
   15.6241   35.7586   33.1857 N   0  0  0  0  0  0  0  0  0  0  0  0
   14.8721   36.4408   35.3326 C   0  0  0  0  0  0  0  0  0  0  0  0
   13.9204   37.2263   35.8802 N   0  0  0  0  0  0  0  0  0  0  0  0
   16.5870   34.9925   33.7800 C   0  0  0  0  0  0  0  0  0  0  0  0
   15.8572   35.6717   35.9441 C   0  0  0  0  0  0  0  0  0  0  0  0
   16.7022   34.9586   35.1437 N   0  0  0  0  0  0  0  0  0  0  0  0
   16.0097   35.6384   37.3561 N   0  0  0  0  0  0  0  0  0  0  0  0
    7.6764   44.0635   34.0548 H   0  0  0  0  0  0  0  0  0  0  0  0
   10.2152   45.5880   33.8747 H   0  0  0  0  0  0  0  0  0  0  0  0
    8.6468   46.1559   34.1431 H   0  0  0  0  0  0  0  0  0  0  0  0
    9.9708   44.0643   31.9680 H   0  0  0  0  0  0  0  0  0  0  0  0
    8.4831   43.0817   31.8668 H   0  0  0  0  0  0  0  0  0  0  0  0
    8.5713   46.1487   31.8174 H   0  0  0  0  0  0  0  0  0  0  0  0
    8.5198   45.0958   30.3808 H   0  0  0  0  0  0  0  0  0  0  0  0
    6.3148   44.1799   30.9839 H   0  0  0  0  0  0  0  0  0  0  0  0
    6.3141   45.0785   32.5414 H   0  0  0  0  0  0  0  0  0  0  0  0
    4.9231   46.2693   30.9295 H   0  0  0  0  0  0  0  0  0  0  0  0
    6.2450   46.2894   29.7231 H   0  0  0  0  0  0  0  0  0  0  0  0
    6.2850   47.7537   32.4219 H   0  0  0  0  0  0  0  0  0  0  0  0
    7.8186   51.0912   29.7253 H   0  0  0  0  0  0  0  0  0  0  0  0
    9.3235   50.3405   30.3319 H   0  0  0  0  0  0  0  0  0  0  0  0
   10.5468   51.2975   32.1162 H   0  0  0  0  0  0  0  0  0  0  0  0
   10.9751   53.2065   33.6033 H   0  0  0  0  0  0  0  0  0  0  0  0
    7.0718   54.7651   32.8063 H   0  0  0  0  0  0  0  0  0  0  0  0
    9.2463   54.9438   33.9368 H   0  0  0  0  0  0  0  0  0  0  0  0
    9.7472   40.0379   31.9304 H   0  0  0  0  0  0  0  0  0  0  0  0
   11.2240   41.0428   31.8929 H   0  0  0  0  0  0  0  0  0  0  0  0
   11.5927   39.0434   30.5966 H   0  0  0  0  0  0  0  0  0  0  0  0
   10.7003   37.5444   33.1641 H   0  0  0  0  0  0  0  0  0  0  0  0
   14.2051   37.4477   31.5560 H   0  0  0  0  0  0  0  0  0  0  0  0
    9.1373   37.6722   31.5906 H   0  0  0  0  0  0  0  0  0  0  0  0
   12.1305   35.7856   32.5586 H   0  0  0  0  0  0  0  0  0  0  0  0
   12.4606   37.0186   29.9674 H   0  0  0  0  0  0  0  0  0  0  0  0
   12.4327   38.4001   34.8694 H   0  0  0  0  0  0  0  0  0  0  0  0
   17.2666   34.4146   33.1690 H   0  0  0  0  0  0  0  0  0  0  0  0
   15.3754   36.1866   37.9788 H   0  0  0  0  0  0  0  0  0  0  0  0
   16.7634   35.0601   37.7894 H   0  0  0  0  0  0  0  0  0  0  0  0
  1  2  2  0
  1  3  1  0
  3  4  1  0
  4  5  1  0
  6  1  1  0
  7  6  1  0
  6  8  1  0
  8  9  1  0
  9 10  1  0
 10 11  1  0
 11 12  1  0
 12 13  1  0
 13 14  1  0
 13 15  2  0
 14 16  1  0
 16 17  1  0
 17 18  2  0
 19 17  1  0
 18 20  1  0
 21 19  2  0
 19 22  1  0
 20 23  2  0
 23 21  1  0
 22 24  1  0
 22 25  2  0
  4 26  2  0
  4 27  1  0
 28 27  1  0
 28 29  1  0
 29 30  1  0
 29 31  1  0
 30 32  1  0
 31 33  1  0
 31 34  1  0
 34 32  1  0
 32 35  1  0
 34 36  1  0
 37 35  1  0
 38 35  1  0
 39 37  2  0
 37 40  1  0
 41 38  2  0
 42 39  1  0
 40 43  2  0
 40 41  1  0
 44 42  2  0
 44 43  1  0
 43 45  1  0
  6 46  1  6
  7 47  1  0
  7 48  1  0
  8 49  1  0
  8 50  1  0
  9 51  1  0
  9 52  1  0
 10 53  1  0
 10 54  1  0
 11 55  1  0
 11 56  1  0
 12 57  1  0
 16 58  1  0
 16 59  1  0
 18 60  1  0
 20 61  1  0
 21 62  1  0
 23 63  1  0
 28 64  1  0
 28 65  1  0
 29 66  1  0
 31 67  1  0
 32 68  1  0
 33 69  1  0
 34 70  1  0
 36 71  1  0
 38 72  1  0
 42 73  1  0
 45 74  1  0
 45 75  1  0
M  CHG  3   5  -1  22   1  24  -1
M  END
>  <EmbedRMS>  (181) 
0.0749038903385

$$$$

     RDKit          3D

 75 78  0  0  0  0  0  0  0  0999 V2000
    9.4333   42.9365   34.3461 C   0  0  0  0  0  0  0  0  0  0  0  0
   10.4907   43.0330   35.0319 O   0  0  0  0  0  0  0  0  0  0  0  0
    8.8563   41.7104   34.0296 O   0  0  0  0  0  0  0  0  0  0  0  0
    9.4945   40.2141   34.4680 P   0  0  0  0  0  0  0  0  0  0  0  0
    9.7308   40.1726   36.1291 O   0  0  0  0  0  0  0  0  0  0  0  0
    8.7506   44.1348   33.7741 C   0  0  1  0  0  0  0  0  0  0  0  0
    9.2963   45.3820   34.3133 N   0  0  0  0  0  0  0  0  0  0  0  0
    8.8893   44.0527   32.2358 C   0  0  0  0  0  0  0  0  0  0  0  0
    8.2029   45.1822   31.4614 C   0  0  0  0  0  0  0  0  0  0  0  0
    6.6654   45.1046   31.4854 C   0  0  0  0  0  0  0  0  0  0  0  0
    6.0272   46.3228   30.8107 C   0  0  0  0  0  0  0  0  0  0  0  0
    6.5072   47.5640   31.4182 N   0  0  0  0  0  0  0  0  0  0  0  0
    7.2415   48.5406   30.6827 C   0  0  0  0  0  0  0  0  0  0  0  0
    7.5871   49.7445   31.3059 O   0  0  0  0  0  0  0  0  0  0  0  0
    7.5942   48.3104   29.4945 O   0  0  0  0  0  0  0  0  0  0  0  0
    8.2812   50.8029   30.6478 C   0  0  0  0  0  0  0  0  0  0  0  0
    7.3787   51.5014   29.6571 C   0  0  0  0  0  0  0  0  0  0  0  0
    7.5792   51.2620   28.2848 C   0  0  0  0  0  0  0  0  0  0  0  0
    6.3684   52.4185   30.0613 C   0  0  0  0  0  0  0  0  0  0  0  0
    6.7996   51.9090   27.3261 C   0  0  0  0  0  0  0  0  0  0  0  0
    5.6045   53.0694   29.0752 C   0  0  0  0  0  0  0  0  0  0  0  0
    6.1211   52.7318   31.4455 N   0  0  0  0  0  0  0  0  0  0  0  0
    5.8153   52.8119   27.7203 C   0  0  0  0  0  0  0  0  0  0  0  0
    5.6108   53.9626   31.7896 O   0  0  0  0  0  0  0  0  0  0  0  0
    6.2156   51.8569   32.3298 O   0  0  0  0  0  0  0  0  0  0  0  0
    8.5372   39.1386   34.0125 O   0  0  0  0  0  0  0  0  0  0  0  0
   10.9804   40.0880   33.6837 O   0  0  0  0  0  0  0  0  0  0  0  0
   10.8025   40.0899   32.2839 C   0  0  0  0  0  0  0  0  0  0  0  0
   11.5888   38.9174   31.7007 C   0  0  0  0  0  0  0  0  0  0  0  0
   12.9219   38.9373   32.1692 O   0  0  0  0  0  0  0  0  0  0  0  0
   11.0028   37.5682   32.0980 C   0  0  0  0  0  0  0  0  0  0  0  0
   13.3496   37.5885   32.2601 C   0  0  0  0  0  0  0  0  0  0  0  0
    9.9343   37.1822   31.2756 O   0  0  0  0  0  0  0  0  0  0  0  0
   12.1891   36.6677   31.9049 C   0  0  0  0  0  0  0  0  0  0  0  0
   13.8025   37.2965   33.6186 N   0  0  0  0  0  0  0  0  0  0  0  0
   12.2991   36.2867   30.5567 O   0  0  0  0  0  0  0  0  0  0  0  0
   14.7929   36.4725   33.9858 C   0  0  0  0  0  0  0  0  0  0  0  0
   13.2749   37.7294   34.7935 C   0  0  0  0  0  0  0  0  0  0  0  0
   15.6240   35.7580   33.1858 N   0  0  0  0  0  0  0  0  0  0  0  0
   14.8727   36.4411   35.3327 C   0  0  0  0  0  0  0  0  0  0  0  0
   13.9208   37.2263   35.8803 N   0  0  0  0  0  0  0  0  0  0  0  0
   16.5871   34.9921   33.7801 C   0  0  0  0  0  0  0  0  0  0  0  0
   15.8576   35.6718   35.9441 C   0  0  0  0  0  0  0  0  0  0  0  0
   16.7024   34.9584   35.1438 N   0  0  0  0  0  0  0  0  0  0  0  0
   16.0099   35.6384   37.3562 N   0  0  0  0  0  0  0  0  0  0  0  0
    7.6770   44.0706   34.0504 H   0  0  0  0  0  0  0  0  0  0  0  0
   10.3191   45.4407   34.0999 H   0  0  0  0  0  0  0  0  0  0  0  0
    9.1827   45.3820   35.3534 H   0  0  0  0  0  0  0  0  0  0  0  0
    9.9711   44.0680   31.9739 H   0  0  0  0  0  0  0  0  0  0  0  0
    8.4816   43.0850   31.8668 H   0  0  0  0  0  0  0  0  0  0  0  0
    8.5385   45.1361   30.4021 H   0  0  0  0  0  0  0  0  0  0  0  0
    8.5554   46.1509   31.8740 H   0  0  0  0  0  0  0  0  0  0  0  0
    6.3021   45.0641   32.5332 H   0  0  0  0  0  0  0  0  0  0  0  0
    6.3296   44.1801   30.9675 H   0  0  0  0  0  0  0  0  0  0  0  0
    6.2462   46.2901   29.7218 H   0  0  0  0  0  0  0  0  0  0  0  0
    4.9238   46.2679   30.9272 H   0  0  0  0  0  0  0  0  0  0  0  0
    6.2826   47.7534   32.4209 H   0  0  0  0  0  0  0  0  0  0  0  0
    8.6400   51.5335   31.4027 H   0  0  0  0  0  0  0  0  0  0  0  0
    9.1903   50.3953   30.1529 H   0  0  0  0  0  0  0  0  0  0  0  0
    8.3458   50.5728   27.9526 H   0  0  0  0  0  0  0  0  0  0  0  0
    6.9633   51.7134   26.2741 H   0  0  0  0  0  0  0  0  0  0  0  0
    4.8311   53.7726   29.3569 H   0  0  0  0  0  0  0  0  0  0  0  0
    5.2142   53.3154   26.9742 H   0  0  0  0  0  0  0  0  0  0  0  0
    9.7476   40.0331   31.9256 H   0  0  0  0  0  0  0  0  0  0  0  0
   11.2258   41.0357   31.8830 H   0  0  0  0  0  0  0  0  0  0  0  0
   11.5974   39.0148   30.5904 H   0  0  0  0  0  0  0  0  0  0  0  0
   10.7023   37.5455   33.1719 H   0  0  0  0  0  0  0  0  0  0  0  0
   14.1957   37.4366   31.5528 H   0  0  0  0  0  0  0  0  0  0  0  0
    9.1339   37.6658   31.6069 H   0  0  0  0  0  0  0  0  0  0  0  0
   12.1381   35.7717   32.5697 H   0  0  0  0  0  0  0  0  0  0  0  0
   11.7707   35.4530   30.4496 H   0  0  0  0  0  0  0  0  0  0  0  0
   12.4314   38.3980   34.8694 H   0  0  0  0  0  0  0  0  0  0  0  0
   17.2665   34.4140   33.1691 H   0  0  0  0  0  0  0  0  0  0  0  0
   16.7634   35.0598   37.7895 H   0  0  0  0  0  0  0  0  0  0  0  0
   15.3757   36.1868   37.9789 H   0  0  0  0  0  0  0  0  0  0  0  0
  1  2  2  0
  1  3  1  0
  3  4  1  0
  4  5  1  0
  6  1  1  0
  7  6  1  0
  6  8  1  0
  8  9  1  0
  9 10  1  0
 10 11  1  0
 11 12  1  0
 12 13  1  0
 13 14  1  0
 13 15  2  0
 14 16  1  0
 16 17  1  0
 17 18  2  0
 19 17  1  0
 18 20  1  0
 21 19  2  0
 19 22  1  0
 20 23  2  0
 23 21  1  0
 22 24  1  0
 22 25  2  0
  4 26  2  0
  4 27  1  0
 28 27  1  0
 28 29  1  0
 29 30  1  0
 29 31  1  0
 30 32  1  0
 31 33  1  0
 31 34  1  0
 34 32  1  0
 32 35  1  0
 34 36  1  0
 37 35  1  0
 38 35  1  0
 39 37  2  0
 37 40  1  0
 41 38  2  0
 42 39  1  0
 40 43  2  0
 40 41  1  0
 44 42  2  0
 44 43  1  0
 43 45  1  0
  6 46  1  6
  7 47  1  0
  7 48  1  0
  8 49  1  0
  8 50  1  0
  9 51  1  0
  9 52  1  0
 10 53  1  0
 10 54  1  0
 11 55  1  0
 11 56  1  0
 12 57  1  0
 16 58  1  0
 16 59  1  0
 18 60  1  0
 20 61  1  0
 21 62  1  0
 23 63  1  0
 28 64  1  0
 28 65  1  0
 29 66  1  0
 31 67  1  0
 32 68  1  0
 33 69  1  0
 34 70  1  0
 36 71  1  0
 38 72  1  0
 42 73  1  0
 45 74  1  0
 45 75  1  0
M  CHG  3   5  -1  22   1  24  -1
M  END
>  <EmbedRMS>  (182) 
0.0741546861734

$$$$

     RDKit          3D

 75 78  0  0  0  0  0  0  0  0999 V2000
    9.4331   42.9365   34.3460 C   0  0  0  0  0  0  0  0  0  0  0  0
   10.4905   43.0331   35.0318 O   0  0  0  0  0  0  0  0  0  0  0  0
    8.8562   41.7103   34.0295 O   0  0  0  0  0  0  0  0  0  0  0  0
    9.4943   40.2139   34.4678 P   0  0  0  0  0  0  0  0  0  0  0  0
    9.7310   40.1724   36.1289 O   0  0  0  0  0  0  0  0  0  0  0  0
    8.7505   44.1348   33.7737 C   0  0  1  0  0  0  0  0  0  0  0  0
    9.2961   45.3821   34.3128 N   0  0  0  0  0  0  0  0  0  0  0  0
    8.8893   44.0524   32.2353 C   0  0  0  0  0  0  0  0  0  0  0  0
    8.2034   45.1820   31.4602 C   0  0  0  0  0  0  0  0  0  0  0  0
    6.6659   45.1026   31.4802 C   0  0  0  0  0  0  0  0  0  0  0  0
    6.0261   46.3258   30.8144 C   0  0  0  0  0  0  0  0  0  0  0  0
    6.5142   47.5627   31.4244 N   0  0  0  0  0  0  0  0  0  0  0  0
    7.2274   48.5520   30.6748 C   0  0  0  0  0  0  0  0  0  0  0  0
    7.5467   49.8029   31.2197 O   0  0  0  0  0  0  0  0  0  0  0  0
    7.6024   48.2994   29.5002 O   0  0  0  0  0  0  0  0  0  0  0  0
    6.9824   50.3550   32.4093 C   0  0  0  0  0  0  0  0  0  0  0  0
    5.5314   50.7250   32.1986 C   0  0  0  0  0  0  0  0  0  0  0  0
    4.5397   49.9505   32.8303 C   0  0  0  0  0  0  0  0  0  0  0  0
    5.1401   51.8613   31.4369 C   0  0  0  0  0  0  0  0  0  0  0  0
    3.1884   50.2664   32.6899 C   0  0  0  0  0  0  0  0  0  0  0  0
    3.7710   52.1671   31.3199 C   0  0  0  0  0  0  0  0  0  0  0  0
    6.1017   52.7400   30.8217 N   0  0  0  0  0  0  0  0  0  0  0  0
    2.8045   51.3705   31.9337 C   0  0  0  0  0  0  0  0  0  0  0  0
    7.2237   52.2421   30.2031 O   0  0  0  0  0  0  0  0  0  0  0  0
    5.8499   53.9578   30.7088 O   0  0  0  0  0  0  0  0  0  0  0  0
    8.5372   39.1382   34.0121 O   0  0  0  0  0  0  0  0  0  0  0  0
   10.9798   40.0871   33.6829 O   0  0  0  0  0  0  0  0  0  0  0  0
   10.8002   40.0905   32.2832 C   0  0  0  0  0  0  0  0  0  0  0  0
   11.5958   38.9270   31.6963 C   0  0  0  0  0  0  0  0  0  0  0  0
   12.9239   38.9409   32.1766 O   0  0  0  0  0  0  0  0  0  0  0  0
   11.0062   37.5719   32.0794 C   0  0  0  0  0  0  0  0  0  0  0  0
   13.3507   37.5905   32.2614 C   0  0  0  0  0  0  0  0  0  0  0  0
    9.9064   37.1792   31.2947 O   0  0  0  0  0  0  0  0  0  0  0  0
   12.1920   36.6672   31.9003 C   0  0  0  0  0  0  0  0  0  0  0  0
   13.8018   37.2948   33.6193 N   0  0  0  0  0  0  0  0  0  0  0  0
   12.3133   36.2788   30.5560 O   0  0  0  0  0  0  0  0  0  0  0  0
   14.7928   36.4717   33.9861 C   0  0  0  0  0  0  0  0  0  0  0  0
   13.2746   37.7284   34.7941 C   0  0  0  0  0  0  0  0  0  0  0  0
   15.6241   35.7576   33.1859 N   0  0  0  0  0  0  0  0  0  0  0  0
   14.8728   36.4406   35.3329 C   0  0  0  0  0  0  0  0  0  0  0  0
   13.9209   37.2258   35.8807 N   0  0  0  0  0  0  0  0  0  0  0  0
   16.5874   34.9920   33.7802 C   0  0  0  0  0  0  0  0  0  0  0  0
   15.8579   35.6716   35.9443 C   0  0  0  0  0  0  0  0  0  0  0  0
   16.7028   34.9584   35.1439 N   0  0  0  0  0  0  0  0  0  0  0  0
   16.0103   35.6383   37.3563 N   0  0  0  0  0  0  0  0  0  0  0  0
    7.6768   44.0708   34.0498 H   0  0  0  0  0  0  0  0  0  0  0  0
   10.3190   45.4406   34.0998 H   0  0  0  0  0  0  0  0  0  0  0  0
    9.1821   45.3823   35.3530 H   0  0  0  0  0  0  0  0  0  0  0  0
    9.9712   44.0673   31.9737 H   0  0  0  0  0  0  0  0  0  0  0  0
    8.4815   43.0847   31.8664 H   0  0  0  0  0  0  0  0  0  0  0  0
    8.5549   46.1502   31.8747 H   0  0  0  0  0  0  0  0  0  0  0  0
    8.5414   45.1375   30.4017 H   0  0  0  0  0  0  0  0  0  0  0  0
    6.3322   44.1817   30.9545 H   0  0  0  0  0  0  0  0  0  0  0  0
    6.3007   45.0526   32.5270 H   0  0  0  0  0  0  0  0  0  0  0  0
    6.2331   46.2976   29.7232 H   0  0  0  0  0  0  0  0  0  0  0  0
    4.9238   46.2732   30.9429 H   0  0  0  0  0  0  0  0  0  0  0  0
    6.3573   47.6900   32.4465 H   0  0  0  0  0  0  0  0  0  0  0  0
    7.1144   49.6485   33.2561 H   0  0  0  0  0  0  0  0  0  0  0  0
    7.5507   51.2672   32.6876 H   0  0  0  0  0  0  0  0  0  0  0  0
    4.8087   49.1033   33.4471 H   0  0  0  0  0  0  0  0  0  0  0  0
    2.4374   49.6579   33.1771 H   0  0  0  0  0  0  0  0  0  0  0  0
    3.4495   53.0256   30.7437 H   0  0  0  0  0  0  0  0  0  0  0  0
    1.7554   51.6162   31.8300 H   0  0  0  0  0  0  0  0  0  0  0  0
    9.7455   40.0168   31.9263 H   0  0  0  0  0  0  0  0  0  0  0  0
   11.2116   41.0420   31.8834 H   0  0  0  0  0  0  0  0  0  0  0  0
   11.6245   39.0449   30.5888 H   0  0  0  0  0  0  0  0  0  0  0  0
   10.7050   37.5580   33.1500 H   0  0  0  0  0  0  0  0  0  0  0  0
   14.1985   37.4426   31.5553 H   0  0  0  0  0  0  0  0  0  0  0  0
   10.0892   37.4056   30.3459 H   0  0  0  0  0  0  0  0  0  0  0  0
   12.1337   35.7754   32.5703 H   0  0  0  0  0  0  0  0  0  0  0  0
   11.7934   35.4394   30.4514 H   0  0  0  0  0  0  0  0  0  0  0  0
   12.4314   38.3973   34.8700 H   0  0  0  0  0  0  0  0  0  0  0  0
   17.2670   34.4142   33.1692 H   0  0  0  0  0  0  0  0  0  0  0  0
   15.3759   36.1864   37.9790 H   0  0  0  0  0  0  0  0  0  0  0  0
   16.7638   35.0599   37.7896 H   0  0  0  0  0  0  0  0  0  0  0  0
  1  2  2  0
  1  3  1  0
  3  4  1  0
  4  5  1  0
  6  1  1  0
  7  6  1  0
  6  8  1  0
  8  9  1  0
  9 10  1  0
 10 11  1  0
 11 12  1  0
 12 13  1  0
 13 14  1  0
 13 15  2  0
 14 16  1  0
 16 17  1  0
 17 18  2  0
 19 17  1  0
 18 20  1  0
 21 19  2  0
 19 22  1  0
 20 23  2  0
 23 21  1  0
 22 24  1  0
 22 25  2  0
  4 26  2  0
  4 27  1  0
 28 27  1  0
 28 29  1  0
 29 30  1  0
 29 31  1  0
 30 32  1  0
 31 33  1  0
 31 34  1  0
 34 32  1  0
 32 35  1  0
 34 36  1  0
 37 35  1  0
 38 35  1  0
 39 37  2  0
 37 40  1  0
 41 38  2  0
 42 39  1  0
 40 43  2  0
 40 41  1  0
 44 42  2  0
 44 43  1  0
 43 45  1  0
  6 46  1  6
  7 47  1  0
  7 48  1  0
  8 49  1  0
  8 50  1  0
  9 51  1  0
  9 52  1  0
 10 53  1  0
 10 54  1  0
 11 55  1  0
 11 56  1  0
 12 57  1  0
 16 58  1  0
 16 59  1  0
 18 60  1  0
 20 61  1  0
 21 62  1  0
 23 63  1  0
 28 64  1  0
 28 65  1  0
 29 66  1  0
 31 67  1  0
 32 68  1  0
 33 69  1  0
 34 70  1  0
 36 71  1  0
 38 72  1  0
 42 73  1  0
 45 74  1  0
 45 75  1  0
M  CHG  3   5  -1  22   1  24  -1
M  END
>  <EmbedRMS>  (183) 
0.0743701167544

$$$$

     RDKit          3D

 75 78  0  0  0  0  0  0  0  0999 V2000
    9.4331   42.9365   34.3462 C   0  0  0  0  0  0  0  0  0  0  0  0
   10.4907   43.0329   35.0318 O   0  0  0  0  0  0  0  0  0  0  0  0
    8.8558   41.7104   34.0299 O   0  0  0  0  0  0  0  0  0  0  0  0
    9.4943   40.2141   34.4677 P   0  0  0  0  0  0  0  0  0  0  0  0
    9.7317   40.1723   36.1287 O   0  0  0  0  0  0  0  0  0  0  0  0
    8.7506   44.1348   33.7741 C   0  0  1  0  0  0  0  0  0  0  0  0
    9.2963   45.3820   34.3133 N   0  0  0  0  0  0  0  0  0  0  0  0
    8.8893   44.0528   32.2358 C   0  0  0  0  0  0  0  0  0  0  0  0
    8.2028   45.1824   31.4615 C   0  0  0  0  0  0  0  0  0  0  0  0
    6.6653   45.1046   31.4855 C   0  0  0  0  0  0  0  0  0  0  0  0
    6.0270   46.3226   30.8104 C   0  0  0  0  0  0  0  0  0  0  0  0
    6.5062   47.5640   31.4180 N   0  0  0  0  0  0  0  0  0  0  0  0
    7.2437   48.5391   30.6836 C   0  0  0  0  0  0  0  0  0  0  0  0
    7.5936   49.7399   31.3065 O   0  0  0  0  0  0  0  0  0  0  0  0
    7.5934   48.3118   29.4937 O   0  0  0  0  0  0  0  0  0  0  0  0
    8.3405   50.7583   30.6493 C   0  0  0  0  0  0  0  0  0  0  0  0
    8.5415   51.9185   31.5887 C   0  0  0  0  0  0  0  0  0  0  0  0
    9.7519   52.0034   32.3006 C   0  0  0  0  0  0  0  0  0  0  0  0
    7.5637   52.9353   31.7566 C   0  0  0  0  0  0  0  0  0  0  0  0
   10.0058   53.0826   33.1477 C   0  0  0  0  0  0  0  0  0  0  0  0
    7.8474   54.0227   32.6039 C   0  0  0  0  0  0  0  0  0  0  0  0
    6.2957   52.8903   31.0764 N   0  0  0  0  0  0  0  0  0  0  0  0
    9.0578   54.0930   33.2949 C   0  0  0  0  0  0  0  0  0  0  0  0
    5.6174   51.7025   30.9327 O   0  0  0  0  0  0  0  0  0  0  0  0
    5.7196   53.9510   30.7570 O   0  0  0  0  0  0  0  0  0  0  0  0
    8.5371   39.1382   34.0123 O   0  0  0  0  0  0  0  0  0  0  0  0
   10.9793   40.0887   33.6814 O   0  0  0  0  0  0  0  0  0  0  0  0
   10.7977   40.0842   32.2817 C   0  0  0  0  0  0  0  0  0  0  0  0
   11.5897   38.9146   31.7008 C   0  0  0  0  0  0  0  0  0  0  0  0
   12.9218   38.9385   32.1717 O   0  0  0  0  0  0  0  0  0  0  0  0
   11.0071   37.5654   32.0975 C   0  0  0  0  0  0  0  0  0  0  0  0
   13.3533   37.5909   32.2610 C   0  0  0  0  0  0  0  0  0  0  0  0
    9.9333   37.1934   31.2754 O   0  0  0  0  0  0  0  0  0  0  0  0
   12.1945   36.6671   31.9040 C   0  0  0  0  0  0  0  0  0  0  0  0
   13.8036   37.2970   33.6193 N   0  0  0  0  0  0  0  0  0  0  0  0
   12.2893   36.2849   30.5562 O   0  0  0  0  0  0  0  0  0  0  0  0
   14.7931   36.4723   33.9863 C   0  0  0  0  0  0  0  0  0  0  0  0
   13.2756   37.7298   34.7940 C   0  0  0  0  0  0  0  0  0  0  0  0
   15.6242   35.7580   33.1861 N   0  0  0  0  0  0  0  0  0  0  0  0
   14.8727   36.4407   35.3331 C   0  0  0  0  0  0  0  0  0  0  0  0
   13.9210   37.2262   35.8808 N   0  0  0  0  0  0  0  0  0  0  0  0
   16.5872   34.9920   33.7803 C   0  0  0  0  0  0  0  0  0  0  0  0
   15.8577   35.6715   35.9444 C   0  0  0  0  0  0  0  0  0  0  0  0
   16.7025   34.9582   35.1440 N   0  0  0  0  0  0  0  0  0  0  0  0
   16.0101   35.6382   37.3564 N   0  0  0  0  0  0  0  0  0  0  0  0
    7.6770   44.0707   34.0504 H   0  0  0  0  0  0  0  0  0  0  0  0
    9.1827   45.3820   35.3535 H   0  0  0  0  0  0  0  0  0  0  0  0
   10.3192   45.4406   34.1000 H   0  0  0  0  0  0  0  0  0  0  0  0
    9.9711   44.0682   31.9740 H   0  0  0  0  0  0  0  0  0  0  0  0
    8.4816   43.0851   31.8668 H   0  0  0  0  0  0  0  0  0  0  0  0
    8.5385   45.1363   30.4023 H   0  0  0  0  0  0  0  0  0  0  0  0
    8.5552   46.1510   31.8742 H   0  0  0  0  0  0  0  0  0  0  0  0
    6.3019   45.0643   32.5333 H   0  0  0  0  0  0  0  0  0  0  0  0
    6.3296   44.1800   30.9678 H   0  0  0  0  0  0  0  0  0  0  0  0
    4.9235   46.2673   30.9264 H   0  0  0  0  0  0  0  0  0  0  0  0
    6.2465   46.2898   29.7217 H   0  0  0  0  0  0  0  0  0  0  0  0
    6.2817   47.7532   32.4208 H   0  0  0  0  0  0  0  0  0  0  0  0
    7.8163   51.0923   29.7280 H   0  0  0  0  0  0  0  0  0  0  0  0
    9.3221   50.3423   30.3318 H   0  0  0  0  0  0  0  0  0  0  0  0
   10.5067   51.2336   32.1948 H   0  0  0  0  0  0  0  0  0  0  0  0
   10.9424   53.1377   33.6875 H   0  0  0  0  0  0  0  0  0  0  0  0
    7.1196   54.8121   32.7438 H   0  0  0  0  0  0  0  0  0  0  0  0
    9.2587   54.9309   33.9500 H   0  0  0  0  0  0  0  0  0  0  0  0
   11.2111   41.0319   31.8754 H   0  0  0  0  0  0  0  0  0  0  0  0
    9.7422   40.0118   31.9267 H   0  0  0  0  0  0  0  0  0  0  0  0
   11.6004   39.0119   30.5904 H   0  0  0  0  0  0  0  0  0  0  0  0
   10.7015   37.5592   33.1701 H   0  0  0  0  0  0  0  0  0  0  0  0
   14.2012   37.4438   31.5552 H   0  0  0  0  0  0  0  0  0  0  0  0
    9.5289   36.3869   31.6895 H   0  0  0  0  0  0  0  0  0  0  0  0
   12.1244   35.7693   32.5633 H   0  0  0  0  0  0  0  0  0  0  0  0
   12.9478   35.5427   30.5201 H   0  0  0  0  0  0  0  0  0  0  0  0
   12.4328   38.3993   34.8697 H   0  0  0  0  0  0  0  0  0  0  0  0
   17.2667   34.4140   33.1692 H   0  0  0  0  0  0  0  0  0  0  0  0
   16.7637   35.0598   37.7897 H   0  0  0  0  0  0  0  0  0  0  0  0
   15.3759   36.1865   37.9791 H   0  0  0  0  0  0  0  0  0  0  0  0
  1  2  2  0
  1  3  1  0
  3  4  1  0
  4  5  1  0
  6  1  1  0
  7  6  1  0
  6  8  1  0
  8  9  1  0
  9 10  1  0
 10 11  1  0
 11 12  1  0
 12 13  1  0
 13 14  1  0
 13 15  2  0
 14 16  1  0
 16 17  1  0
 17 18  2  0
 19 17  1  0
 18 20  1  0
 21 19  2  0
 19 22  1  0
 20 23  2  0
 23 21  1  0
 22 24  1  0
 22 25  2  0
  4 26  2  0
  4 27  1  0
 28 27  1  0
 28 29  1  0
 29 30  1  0
 29 31  1  0
 30 32  1  0
 31 33  1  0
 31 34  1  0
 34 32  1  0
 32 35  1  0
 34 36  1  0
 37 35  1  0
 38 35  1  0
 39 37  2  0
 37 40  1  0
 41 38  2  0
 42 39  1  0
 40 43  2  0
 40 41  1  0
 44 42  2  0
 44 43  1  0
 43 45  1  0
  6 46  1  6
  7 47  1  0
  7 48  1  0
  8 49  1  0
  8 50  1  0
  9 51  1  0
  9 52  1  0
 10 53  1  0
 10 54  1  0
 11 55  1  0
 11 56  1  0
 12 57  1  0
 16 58  1  0
 16 59  1  0
 18 60  1  0
 20 61  1  0
 21 62  1  0
 23 63  1  0
 28 64  1  0
 28 65  1  0
 29 66  1  0
 31 67  1  0
 32 68  1  0
 33 69  1  0
 34 70  1  0
 36 71  1  0
 38 72  1  0
 42 73  1  0
 45 74  1  0
 45 75  1  0
M  CHG  3   5  -1  22   1  24  -1
M  END
>  <EmbedRMS>  (184) 
0.0742633890731

$$$$

     RDKit          3D

 75 78  0  0  0  0  0  0  0  0999 V2000
    9.4301   42.9394   34.3434 C   0  0  0  0  0  0  0  0  0  0  0  0
   10.4913   43.0380   35.0235 O   0  0  0  0  0  0  0  0  0  0  0  0
    8.8550   41.7116   34.0283 O   0  0  0  0  0  0  0  0  0  0  0  0
    9.4943   40.2156   34.4676 P   0  0  0  0  0  0  0  0  0  0  0  0
    9.7308   40.1740   36.1287 O   0  0  0  0  0  0  0  0  0  0  0  0
    8.7413   44.1376   33.7786 C   0  0  1  0  0  0  0  0  0  0  0  0
    9.3016   45.3717   34.3325 N   0  0  0  0  0  0  0  0  0  0  0  0
    8.8963   44.0592   32.2399 C   0  0  0  0  0  0  0  0  0  0  0  0
    8.2026   45.1686   31.4401 C   0  0  0  0  0  0  0  0  0  0  0  0
    6.6653   45.1062   31.4911 C   0  0  0  0  0  0  0  0  0  0  0  0
    6.0276   46.3222   30.8123 C   0  0  0  0  0  0  0  0  0  0  0  0
    6.5075   47.5640   31.4185 N   0  0  0  0  0  0  0  0  0  0  0  0
    7.2436   48.5393   30.6830 C   0  0  0  0  0  0  0  0  0  0  0  0
    7.5919   49.7410   31.3048 O   0  0  0  0  0  0  0  0  0  0  0  0
    7.5931   48.3114   29.4932 O   0  0  0  0  0  0  0  0  0  0  0  0
    8.3328   50.7631   30.6450 C   0  0  0  0  0  0  0  0  0  0  0  0
    8.5110   51.9405   31.5715 C   0  0  0  0  0  0  0  0  0  0  0  0
    9.8179   52.3511   31.8950 C   0  0  0  0  0  0  0  0  0  0  0  0
    7.4060   52.6181   32.1588 C   0  0  0  0  0  0  0  0  0  0  0  0
   10.0354   53.4013   32.7874 C   0  0  0  0  0  0  0  0  0  0  0  0
    7.6504   53.6635   33.0676 C   0  0  0  0  0  0  0  0  0  0  0  0
    6.0422   52.2547   31.8725 N   0  0  0  0  0  0  0  0  0  0  0  0
    8.9542   54.0535   33.3753 C   0  0  0  0  0  0  0  0  0  0  0  0
    5.0646   52.4587   32.8192 O   0  0  0  0  0  0  0  0  0  0  0  0
    5.6992   51.9068   30.7244 O   0  0  0  0  0  0  0  0  0  0  0  0
    8.5375   39.1393   34.0126 O   0  0  0  0  0  0  0  0  0  0  0  0
   10.9804   40.0888   33.6834 O   0  0  0  0  0  0  0  0  0  0  0  0
   10.8025   40.0901   32.2836 C   0  0  0  0  0  0  0  0  0  0  0  0
   11.5888   38.9174   31.7007 C   0  0  0  0  0  0  0  0  0  0  0  0
   12.9219   38.9373   32.1692 O   0  0  0  0  0  0  0  0  0  0  0  0
   11.0028   37.5682   32.0981 C   0  0  0  0  0  0  0  0  0  0  0  0
   13.3496   37.5885   32.2601 C   0  0  0  0  0  0  0  0  0  0  0  0
    9.9343   37.1823   31.2757 O   0  0  0  0  0  0  0  0  0  0  0  0
   12.1891   36.6677   31.9050 C   0  0  0  0  0  0  0  0  0  0  0  0
   13.8025   37.2965   33.6186 N   0  0  0  0  0  0  0  0  0  0  0  0
   12.2990   36.2867   30.5568 O   0  0  0  0  0  0  0  0  0  0  0  0
   14.7929   36.4725   33.9858 C   0  0  0  0  0  0  0  0  0  0  0  0
   13.2749   37.7294   34.7935 C   0  0  0  0  0  0  0  0  0  0  0  0
   15.6240   35.7580   33.1858 N   0  0  0  0  0  0  0  0  0  0  0  0
   14.8727   36.4411   35.3327 C   0  0  0  0  0  0  0  0  0  0  0  0
   13.9208   37.2263   35.8803 N   0  0  0  0  0  0  0  0  0  0  0  0
   16.5871   34.9921   33.7801 C   0  0  0  0  0  0  0  0  0  0  0  0
   15.8576   35.6718   35.9441 C   0  0  0  0  0  0  0  0  0  0  0  0
   16.7024   34.9584   35.1438 N   0  0  0  0  0  0  0  0  0  0  0  0
   16.0099   35.6384   37.3562 N   0  0  0  0  0  0  0  0  0  0  0  0
    7.6669   44.0651   34.0548 H   0  0  0  0  0  0  0  0  0  0  0  0
    8.6809   46.1667   34.0588 H   0  0  0  0  0  0  0  0  0  0  0  0
    9.2335   45.3273   35.3759 H   0  0  0  0  0  0  0  0  0  0  0  0
    9.9810   44.0906   31.9915 H   0  0  0  0  0  0  0  0  0  0  0  0
    8.5084   43.0838   31.8695 H   0  0  0  0  0  0  0  0  0  0  0  0
    8.5156   45.0754   30.3770 H   0  0  0  0  0  0  0  0  0  0  0  0
    8.5768   46.1512   31.7920 H   0  0  0  0  0  0  0  0  0  0  0  0
    6.3125   44.1781   30.9914 H   0  0  0  0  0  0  0  0  0  0  0  0
    6.3182   45.0836   32.5447 H   0  0  0  0  0  0  0  0  0  0  0  0
    6.2471   46.2873   29.7236 H   0  0  0  0  0  0  0  0  0  0  0  0
    4.9241   46.2678   30.9289 H   0  0  0  0  0  0  0  0  0  0  0  0
    6.2841   47.7538   32.4214 H   0  0  0  0  0  0  0  0  0  0  0  0
    7.8067   51.0877   29.7227 H   0  0  0  0  0  0  0  0  0  0  0  0
    9.3163   50.3484   30.3322 H   0  0  0  0  0  0  0  0  0  0  0  0
   10.6762   51.8520   31.4622 H   0  0  0  0  0  0  0  0  0  0  0  0
   11.0458   53.7057   33.0284 H   0  0  0  0  0  0  0  0  0  0  0  0
    6.8259   54.1912   33.5300 H   0  0  0  0  0  0  0  0  0  0  0  0
    9.1260   54.8652   34.0704 H   0  0  0  0  0  0  0  0  0  0  0  0
    9.7476   40.0332   31.9253 H   0  0  0  0  0  0  0  0  0  0  0  0
   11.2257   41.0357   31.8824 H   0  0  0  0  0  0  0  0  0  0  0  0
   11.5975   39.0147   30.5904 H   0  0  0  0  0  0  0  0  0  0  0  0
   10.7023   37.5456   33.1720 H   0  0  0  0  0  0  0  0  0  0  0  0
   14.1957   37.4366   31.5528 H   0  0  0  0  0  0  0  0  0  0  0  0
    9.1339   37.6658   31.6069 H   0  0  0  0  0  0  0  0  0  0  0  0
   12.1380   35.7717   32.5698 H   0  0  0  0  0  0  0  0  0  0  0  0
   11.7707   35.4530   30.4496 H   0  0  0  0  0  0  0  0  0  0  0  0
   12.4314   38.3980   34.8694 H   0  0  0  0  0  0  0  0  0  0  0  0
   17.2665   34.4140   33.1691 H   0  0  0  0  0  0  0  0  0  0  0  0
   16.7633   35.0598   37.7895 H   0  0  0  0  0  0  0  0  0  0  0  0
   15.3757   36.1868   37.9789 H   0  0  0  0  0  0  0  0  0  0  0  0
  1  2  2  0
  1  3  1  0
  3  4  1  0
  4  5  1  0
  6  1  1  0
  7  6  1  0
  6  8  1  0
  8  9  1  0
  9 10  1  0
 10 11  1  0
 11 12  1  0
 12 13  1  0
 13 14  1  0
 13 15  2  0
 14 16  1  0
 16 17  1  0
 17 18  2  0
 19 17  1  0
 18 20  1  0
 21 19  2  0
 19 22  1  0
 20 23  2  0
 23 21  1  0
 22 24  1  0
 22 25  2  0
  4 26  2  0
  4 27  1  0
 28 27  1  0
 28 29  1  0
 29 30  1  0
 29 31  1  0
 30 32  1  0
 31 33  1  0
 31 34  1  0
 34 32  1  0
 32 35  1  0
 34 36  1  0
 37 35  1  0
 38 35  1  0
 39 37  2  0
 37 40  1  0
 41 38  2  0
 42 39  1  0
 40 43  2  0
 40 41  1  0
 44 42  2  0
 44 43  1  0
 43 45  1  0
  6 46  1  6
  7 47  1  0
  7 48  1  0
  8 49  1  0
  8 50  1  0
  9 51  1  0
  9 52  1  0
 10 53  1  0
 10 54  1  0
 11 55  1  0
 11 56  1  0
 12 57  1  0
 16 58  1  0
 16 59  1  0
 18 60  1  0
 20 61  1  0
 21 62  1  0
 23 63  1  0
 28 64  1  0
 28 65  1  0
 29 66  1  0
 31 67  1  0
 32 68  1  0
 33 69  1  0
 34 70  1  0
 36 71  1  0
 38 72  1  0
 42 73  1  0
 45 74  1  0
 45 75  1  0
M  CHG  3   5  -1  22   1  24  -1
M  END
>  <EmbedRMS>  (185) 
0.0735364355749

$$$$

     RDKit          3D

 75 78  0  0  0  0  0  0  0  0999 V2000
    9.4333   42.9364   34.3461 C   0  0  0  0  0  0  0  0  0  0  0  0
   10.4907   43.0329   35.0318 O   0  0  0  0  0  0  0  0  0  0  0  0
    8.8562   41.7103   34.0295 O   0  0  0  0  0  0  0  0  0  0  0  0
    9.4942   40.2139   34.4678 P   0  0  0  0  0  0  0  0  0  0  0  0
    9.7311   40.1724   36.1289 O   0  0  0  0  0  0  0  0  0  0  0  0
    8.7506   44.1348   33.7741 C   0  0  1  0  0  0  0  0  0  0  0  0
    9.2963   45.3820   34.3134 N   0  0  0  0  0  0  0  0  0  0  0  0
    8.8893   44.0528   32.2358 C   0  0  0  0  0  0  0  0  0  0  0  0
    8.2028   45.1824   31.4615 C   0  0  0  0  0  0  0  0  0  0  0  0
    6.6653   45.1046   31.4855 C   0  0  0  0  0  0  0  0  0  0  0  0
    6.0270   46.3226   30.8105 C   0  0  0  0  0  0  0  0  0  0  0  0
    6.5063   47.5640   31.4180 N   0  0  0  0  0  0  0  0  0  0  0  0
    7.2436   48.5392   30.6835 C   0  0  0  0  0  0  0  0  0  0  0  0
    7.5928   49.7403   31.3062 O   0  0  0  0  0  0  0  0  0  0  0  0
    7.5934   48.3117   29.4937 O   0  0  0  0  0  0  0  0  0  0  0  0
    8.3392   50.7589   30.6487 C   0  0  0  0  0  0  0  0  0  0  0  0
    8.5382   51.9201   31.5873 C   0  0  0  0  0  0  0  0  0  0  0  0
    9.7480   52.0070   32.2998 C   0  0  0  0  0  0  0  0  0  0  0  0
    7.5592   52.9359   31.7536 C   0  0  0  0  0  0  0  0  0  0  0  0
   10.0001   53.0873   33.1463 C   0  0  0  0  0  0  0  0  0  0  0  0
    7.8410   54.0244   32.6001 C   0  0  0  0  0  0  0  0  0  0  0  0
    6.2917   52.8890   31.0725 N   0  0  0  0  0  0  0  0  0  0  0  0
    9.0508   54.0966   33.2920 C   0  0  0  0  0  0  0  0  0  0  0  0
    5.6149   51.7003   30.9291 O   0  0  0  0  0  0  0  0  0  0  0  0
    5.7146   53.9487   30.7518 O   0  0  0  0  0  0  0  0  0  0  0  0
    8.5370   39.1382   34.0122 O   0  0  0  0  0  0  0  0  0  0  0  0
   10.9795   40.0869   33.6827 O   0  0  0  0  0  0  0  0  0  0  0  0
   10.7997   40.0898   32.2830 C   0  0  0  0  0  0  0  0  0  0  0  0
   11.5968   38.9273   31.6962 C   0  0  0  0  0  0  0  0  0  0  0  0
   12.9242   38.9425   32.1784 O   0  0  0  0  0  0  0  0  0  0  0  0
   11.0086   37.5713   32.0780 C   0  0  0  0  0  0  0  0  0  0  0  0
   13.3528   37.5929   32.2623 C   0  0  0  0  0  0  0  0  0  0  0  0
    9.9098   37.1770   31.2925 O   0  0  0  0  0  0  0  0  0  0  0  0
   12.1943   36.6683   31.8995 C   0  0  0  0  0  0  0  0  0  0  0  0
   13.8019   37.2950   33.6199 N   0  0  0  0  0  0  0  0  0  0  0  0
   12.3027   36.2773   30.5558 O   0  0  0  0  0  0  0  0  0  0  0  0
   14.7926   36.4715   33.9864 C   0  0  0  0  0  0  0  0  0  0  0  0
   13.2749   37.7286   34.7946 C   0  0  0  0  0  0  0  0  0  0  0  0
   15.6239   35.7577   33.1860 N   0  0  0  0  0  0  0  0  0  0  0  0
   14.8727   36.4403   35.3332 C   0  0  0  0  0  0  0  0  0  0  0  0
   13.9210   37.2257   35.8811 N   0  0  0  0  0  0  0  0  0  0  0  0
   16.5873   34.9921   33.7802 C   0  0  0  0  0  0  0  0  0  0  0  0
   15.8579   35.6714   35.9444 C   0  0  0  0  0  0  0  0  0  0  0  0
   16.7028   34.9583   35.1439 N   0  0  0  0  0  0  0  0  0  0  0  0
   16.0104   35.6381   37.3564 N   0  0  0  0  0  0  0  0  0  0  0  0
    7.6771   44.0706   34.0504 H   0  0  0  0  0  0  0  0  0  0  0  0
   10.3192   45.4406   34.1000 H   0  0  0  0  0  0  0  0  0  0  0  0
    9.1827   45.3819   35.3535 H   0  0  0  0  0  0  0  0  0  0  0  0
    9.9711   44.0682   31.9739 H   0  0  0  0  0  0  0  0  0  0  0  0
    8.4817   43.0851   31.8668 H   0  0  0  0  0  0  0  0  0  0  0  0
    8.5552   46.1510   31.8743 H   0  0  0  0  0  0  0  0  0  0  0  0
    8.5385   45.1364   30.4023 H   0  0  0  0  0  0  0  0  0  0  0  0
    6.3020   45.0643   32.5333 H   0  0  0  0  0  0  0  0  0  0  0  0
    6.3296   44.1800   30.9678 H   0  0  0  0  0  0  0  0  0  0  0  0
    6.2465   46.2898   29.7217 H   0  0  0  0  0  0  0  0  0  0  0  0
    4.9235   46.2673   30.9265 H   0  0  0  0  0  0  0  0  0  0  0  0
    6.2817   47.7532   32.4208 H   0  0  0  0  0  0  0  0  0  0  0  0
    9.3216   50.3436   30.3324 H   0  0  0  0  0  0  0  0  0  0  0  0
    7.8156   51.0917   29.7267 H   0  0  0  0  0  0  0  0  0  0  0  0
   10.5038   51.2381   32.1953 H   0  0  0  0  0  0  0  0  0  0  0  0
   10.9363   53.1440   33.6866 H   0  0  0  0  0  0  0  0  0  0  0  0
    7.1122   54.8131   32.7389 H   0  0  0  0  0  0  0  0  0  0  0  0
    9.2503   54.9354   33.9464 H   0  0  0  0  0  0  0  0  0  0  0  0
   11.2096   41.0418   31.8830 H   0  0  0  0  0  0  0  0  0  0  0  0
    9.7449   40.0145   31.9263 H   0  0  0  0  0  0  0  0  0  0  0  0
   11.6265   39.0456   30.5888 H   0  0  0  0  0  0  0  0  0  0  0  0
   10.7064   37.5573   33.1484 H   0  0  0  0  0  0  0  0  0  0  0  0
   14.2021   37.4484   31.5574 H   0  0  0  0  0  0  0  0  0  0  0  0
   10.0952   37.3990   30.3433 H   0  0  0  0  0  0  0  0  0  0  0  0
   12.1163   35.7745   32.5633 H   0  0  0  0  0  0  0  0  0  0  0  0
   12.9615   35.5349   30.5312 H   0  0  0  0  0  0  0  0  0  0  0  0
   12.4321   38.3982   34.8705 H   0  0  0  0  0  0  0  0  0  0  0  0
   17.2669   34.4143   33.1690 H   0  0  0  0  0  0  0  0  0  0  0  0
   15.3761   36.1862   37.9792 H   0  0  0  0  0  0  0  0  0  0  0  0
   16.7641   35.0598   37.7896 H   0  0  0  0  0  0  0  0  0  0  0  0
  1  2  2  0
  1  3  1  0
  3  4  1  0
  4  5  1  0
  6  1  1  0
  7  6  1  0
  6  8  1  0
  8  9  1  0
  9 10  1  0
 10 11  1  0
 11 12  1  0
 12 13  1  0
 13 14  1  0
 13 15  2  0
 14 16  1  0
 16 17  1  0
 17 18  2  0
 19 17  1  0
 18 20  1  0
 21 19  2  0
 19 22  1  0
 20 23  2  0
 23 21  1  0
 22 24  1  0
 22 25  2  0
  4 26  2  0
  4 27  1  0
 28 27  1  0
 28 29  1  0
 29 30  1  0
 29 31  1  0
 30 32  1  0
 31 33  1  0
 31 34  1  0
 34 32  1  0
 32 35  1  0
 34 36  1  0
 37 35  1  0
 38 35  1  0
 39 37  2  0
 37 40  1  0
 41 38  2  0
 42 39  1  0
 40 43  2  0
 40 41  1  0
 44 42  2  0
 44 43  1  0
 43 45  1  0
  6 46  1  6
  7 47  1  0
  7 48  1  0
  8 49  1  0
  8 50  1  0
  9 51  1  0
  9 52  1  0
 10 53  1  0
 10 54  1  0
 11 55  1  0
 11 56  1  0
 12 57  1  0
 16 58  1  0
 16 59  1  0
 18 60  1  0
 20 61  1  0
 21 62  1  0
 23 63  1  0
 28 64  1  0
 28 65  1  0
 29 66  1  0
 31 67  1  0
 32 68  1  0
 33 69  1  0
 34 70  1  0
 36 71  1  0
 38 72  1  0
 42 73  1  0
 45 74  1  0
 45 75  1  0
M  CHG  3   5  -1  22   1  24  -1
M  END
>  <EmbedRMS>  (186) 
0.0746012408148

$$$$

     RDKit          3D

 75 78  0  0  0  0  0  0  0  0999 V2000
    9.4300   42.9390   34.3431 C   0  0  0  0  0  0  0  0  0  0  0  0
   10.4911   43.0384   35.0233 O   0  0  0  0  0  0  0  0  0  0  0  0
    8.8552   41.7111   34.0282 O   0  0  0  0  0  0  0  0  0  0  0  0
    9.4944   40.2151   34.4676 P   0  0  0  0  0  0  0  0  0  0  0  0
    9.7311   40.1737   36.1287 O   0  0  0  0  0  0  0  0  0  0  0  0
    8.7403   44.1361   33.7779 C   0  0  1  0  0  0  0  0  0  0  0  0
    9.2975   45.3706   34.3316 N   0  0  0  0  0  0  0  0  0  0  0  0
    8.8969   44.0591   32.2395 C   0  0  0  0  0  0  0  0  0  0  0  0
    8.2039   45.1697   31.4406 C   0  0  0  0  0  0  0  0  0  0  0  0
    6.6666   45.1065   31.4899 C   0  0  0  0  0  0  0  0  0  0  0  0
    6.0296   46.3244   30.8141 C   0  0  0  0  0  0  0  0  0  0  0  0
    6.5120   47.5641   31.4233 N   0  0  0  0  0  0  0  0  0  0  0  0
    7.2395   48.5466   30.6780 C   0  0  0  0  0  0  0  0  0  0  0  0
    7.5862   49.7854   31.2333 O   0  0  0  0  0  0  0  0  0  0  0  0
    7.5917   48.3036   29.4944 O   0  0  0  0  0  0  0  0  0  0  0  0
    7.2917   50.1976   32.5682 C   0  0  0  0  0  0  0  0  0  0  0  0
    8.1713   49.4883   33.5769 C   0  0  0  0  0  0  0  0  0  0  0  0
    9.5328   49.3036   33.2677 C   0  0  0  0  0  0  0  0  0  0  0  0
    7.7087   49.1394   34.8741 C   0  0  0  0  0  0  0  0  0  0  0  0
   10.4135   48.7676   34.2083 C   0  0  0  0  0  0  0  0  0  0  0  0
    8.6152   48.6204   35.8135 C   0  0  0  0  0  0  0  0  0  0  0  0
    6.3450   49.3376   35.2740 N   0  0  0  0  0  0  0  0  0  0  0  0
    9.9568   48.4317   35.4809 C   0  0  0  0  0  0  0  0  0  0  0  0
    6.0736   49.8640   36.5156 O   0  0  0  0  0  0  0  0  0  0  0  0
    5.4209   48.7905   34.6388 O   0  0  0  0  0  0  0  0  0  0  0  0
    8.5376   39.1388   34.0124 O   0  0  0  0  0  0  0  0  0  0  0  0
   10.9799   40.0877   33.6827 O   0  0  0  0  0  0  0  0  0  0  0  0
   10.8003   40.0907   32.2831 C   0  0  0  0  0  0  0  0  0  0  0  0
   11.5958   38.9271   31.6963 C   0  0  0  0  0  0  0  0  0  0  0  0
   12.9239   38.9409   32.1767 O   0  0  0  0  0  0  0  0  0  0  0  0
   11.0062   37.5719   32.0794 C   0  0  0  0  0  0  0  0  0  0  0  0
   13.3507   37.5905   32.2614 C   0  0  0  0  0  0  0  0  0  0  0  0
    9.9064   37.1793   31.2946 O   0  0  0  0  0  0  0  0  0  0  0  0
   12.1920   36.6672   31.9003 C   0  0  0  0  0  0  0  0  0  0  0  0
   13.8017   37.2948   33.6193 N   0  0  0  0  0  0  0  0  0  0  0  0
   12.3133   36.2788   30.5561 O   0  0  0  0  0  0  0  0  0  0  0  0
   14.7927   36.4717   33.9862 C   0  0  0  0  0  0  0  0  0  0  0  0
   13.2746   37.7284   34.7941 C   0  0  0  0  0  0  0  0  0  0  0  0
   15.6240   35.7576   33.1859 N   0  0  0  0  0  0  0  0  0  0  0  0
   14.8728   36.4406   35.3330 C   0  0  0  0  0  0  0  0  0  0  0  0
   13.9209   37.2258   35.8808 N   0  0  0  0  0  0  0  0  0  0  0  0
   16.5874   34.9920   33.7802 C   0  0  0  0  0  0  0  0  0  0  0  0
   15.8579   35.6716   35.9443 C   0  0  0  0  0  0  0  0  0  0  0  0
   16.7028   34.9584   35.1439 N   0  0  0  0  0  0  0  0  0  0  0  0
   16.0103   35.6383   37.3563 N   0  0  0  0  0  0  0  0  0  0  0  0
    7.6657   44.0618   34.0529 H   0  0  0  0  0  0  0  0  0  0  0  0
    9.2269   45.3278   35.3749 H   0  0  0  0  0  0  0  0  0  0  0  0
    8.6722   46.1606   34.0551 H   0  0  0  0  0  0  0  0  0  0  0  0
    8.5096   43.0841   31.8677 H   0  0  0  0  0  0  0  0  0  0  0  0
    9.9818   44.0914   31.9923 H   0  0  0  0  0  0  0  0  0  0  0  0
    8.5778   46.1522   31.7940 H   0  0  0  0  0  0  0  0  0  0  0  0
    8.5180   45.0781   30.3777 H   0  0  0  0  0  0  0  0  0  0  0  0
    6.3144   44.1796   30.9875 H   0  0  0  0  0  0  0  0  0  0  0  0
    6.3188   45.0812   32.5433 H   0  0  0  0  0  0  0  0  0  0  0  0
    4.9264   46.2707   30.9335 H   0  0  0  0  0  0  0  0  0  0  0  0
    6.2458   46.2907   29.7248 H   0  0  0  0  0  0  0  0  0  0  0  0
    6.2992   47.7206   32.4312 H   0  0  0  0  0  0  0  0  0  0  0  0
    6.2086   50.0791   32.7610 H   0  0  0  0  0  0  0  0  0  0  0  0
    7.5081   51.2837   32.6430 H   0  0  0  0  0  0  0  0  0  0  0  0
    9.9210   49.5910   32.2985 H   0  0  0  0  0  0  0  0  0  0  0  0
   11.4560   48.6264   33.9541 H   0  0  0  0  0  0  0  0  0  0  0  0
    8.2765   48.3523   36.8064 H   0  0  0  0  0  0  0  0  0  0  0  0
   10.6430   48.0227   36.2111 H   0  0  0  0  0  0  0  0  0  0  0  0
   11.2115   41.0420   31.8829 H   0  0  0  0  0  0  0  0  0  0  0  0
    9.7455   40.0168   31.9262 H   0  0  0  0  0  0  0  0  0  0  0  0
   11.6246   39.0449   30.5888 H   0  0  0  0  0  0  0  0  0  0  0  0
   10.7050   37.5581   33.1500 H   0  0  0  0  0  0  0  0  0  0  0  0
   14.1985   37.4426   31.5553 H   0  0  0  0  0  0  0  0  0  0  0  0
   10.0893   37.4057   30.3459 H   0  0  0  0  0  0  0  0  0  0  0  0
   12.1337   35.7754   32.5703 H   0  0  0  0  0  0  0  0  0  0  0  0
   11.7934   35.4394   30.4514 H   0  0  0  0  0  0  0  0  0  0  0  0
   12.4314   38.3973   34.8699 H   0  0  0  0  0  0  0  0  0  0  0  0
   17.2669   34.4142   33.1692 H   0  0  0  0  0  0  0  0  0  0  0  0
   15.3759   36.1865   37.9790 H   0  0  0  0  0  0  0  0  0  0  0  0
   16.7638   35.0599   37.7896 H   0  0  0  0  0  0  0  0  0  0  0  0
  1  2  2  0
  1  3  1  0
  3  4  1  0
  4  5  1  0
  6  1  1  0
  7  6  1  0
  6  8  1  0
  8  9  1  0
  9 10  1  0
 10 11  1  0
 11 12  1  0
 12 13  1  0
 13 14  1  0
 13 15  2  0
 14 16  1  0
 16 17  1  0
 17 18  2  0
 19 17  1  0
 18 20  1  0
 21 19  2  0
 19 22  1  0
 20 23  2  0
 23 21  1  0
 22 24  1  0
 22 25  2  0
  4 26  2  0
  4 27  1  0
 28 27  1  0
 28 29  1  0
 29 30  1  0
 29 31  1  0
 30 32  1  0
 31 33  1  0
 31 34  1  0
 34 32  1  0
 32 35  1  0
 34 36  1  0
 37 35  1  0
 38 35  1  0
 39 37  2  0
 37 40  1  0
 41 38  2  0
 42 39  1  0
 40 43  2  0
 40 41  1  0
 44 42  2  0
 44 43  1  0
 43 45  1  0
  6 46  1  6
  7 47  1  0
  7 48  1  0
  8 49  1  0
  8 50  1  0
  9 51  1  0
  9 52  1  0
 10 53  1  0
 10 54  1  0
 11 55  1  0
 11 56  1  0
 12 57  1  0
 16 58  1  0
 16 59  1  0
 18 60  1  0
 20 61  1  0
 21 62  1  0
 23 63  1  0
 28 64  1  0
 28 65  1  0
 29 66  1  0
 31 67  1  0
 32 68  1  0
 33 69  1  0
 34 70  1  0
 36 71  1  0
 38 72  1  0
 42 73  1  0
 45 74  1  0
 45 75  1  0
M  CHG  3   5  -1  22   1  24  -1
M  END
>  <EmbedRMS>  (187) 
0.0739171928562

$$$$

     RDKit          3D

 75 78  0  0  0  0  0  0  0  0999 V2000
    9.4335   42.9368   34.3454 C   0  0  0  0  0  0  0  0  0  0  0  0
   10.4907   43.0331   35.0315 O   0  0  0  0  0  0  0  0  0  0  0  0
    8.8563   41.7106   34.0290 O   0  0  0  0  0  0  0  0  0  0  0  0
    9.4942   40.2142   34.4677 P   0  0  0  0  0  0  0  0  0  0  0  0
    9.7309   40.1727   36.1288 O   0  0  0  0  0  0  0  0  0  0  0  0
    8.7509   44.1354   33.7737 C   0  0  1  0  0  0  0  0  0  0  0  0
    9.2967   45.3821   34.3135 N   0  0  0  0  0  0  0  0  0  0  0  0
    8.8899   44.0552   32.2353 C   0  0  0  0  0  0  0  0  0  0  0  0
    8.2028   45.1859   31.4625 C   0  0  0  0  0  0  0  0  0  0  0  0
    6.6652   45.1062   31.4856 C   0  0  0  0  0  0  0  0  0  0  0  0
    6.0240   46.3220   30.8083 C   0  0  0  0  0  0  0  0  0  0  0  0
    6.4972   47.5657   31.4155 N   0  0  0  0  0  0  0  0  0  0  0  0
    7.2575   48.5294   30.6899 C   0  0  0  0  0  0  0  0  0  0  0  0
    7.6734   49.6966   31.3383 O   0  0  0  0  0  0  0  0  0  0  0  0
    7.5905   48.3102   29.4936 O   0  0  0  0  0  0  0  0  0  0  0  0
    8.6254   50.6001   30.7801 C   0  0  0  0  0  0  0  0  0  0  0  0
    9.9896   49.9511   30.7060 C   0  0  0  0  0  0  0  0  0  0  0  0
   10.6237   49.8617   29.4531 C   0  0  0  0  0  0  0  0  0  0  0  0
   10.6176   49.3731   31.8444 C   0  0  0  0  0  0  0  0  0  0  0  0
   11.8460   49.2028   29.3182 C   0  0  0  0  0  0  0  0  0  0  0  0
   11.8409   48.6986   31.6808 C   0  0  0  0  0  0  0  0  0  0  0  0
   10.0308   49.4348   33.1579 N   0  0  0  0  0  0  0  0  0  0  0  0
   12.4507   48.6180   30.4285 C   0  0  0  0  0  0  0  0  0  0  0  0
   10.2933   48.4429   34.0746 O   0  0  0  0  0  0  0  0  0  0  0  0
    9.4206   50.4543   33.5389 O   0  0  0  0  0  0  0  0  0  0  0  0
    8.5371   39.1384   34.0121 O   0  0  0  0  0  0  0  0  0  0  0  0
   10.9797   40.0871   33.6829 O   0  0  0  0  0  0  0  0  0  0  0  0
   10.8003   40.0905   32.2832 C   0  0  0  0  0  0  0  0  0  0  0  0
   11.5958   38.9271   31.6963 C   0  0  0  0  0  0  0  0  0  0  0  0
   12.9239   38.9409   32.1766 O   0  0  0  0  0  0  0  0  0  0  0  0
   11.0062   37.5719   32.0793 C   0  0  0  0  0  0  0  0  0  0  0  0
   13.3507   37.5905   32.2614 C   0  0  0  0  0  0  0  0  0  0  0  0
    9.9064   37.1793   31.2946 O   0  0  0  0  0  0  0  0  0  0  0  0
   12.1920   36.6671   31.9003 C   0  0  0  0  0  0  0  0  0  0  0  0
   13.8017   37.2948   33.6193 N   0  0  0  0  0  0  0  0  0  0  0  0
   12.3134   36.2788   30.5560 O   0  0  0  0  0  0  0  0  0  0  0  0
   14.7927   36.4716   33.9861 C   0  0  0  0  0  0  0  0  0  0  0  0
   13.2746   37.7284   34.7941 C   0  0  0  0  0  0  0  0  0  0  0  0
   15.6240   35.7576   33.1859 N   0  0  0  0  0  0  0  0  0  0  0  0
   14.8728   36.4406   35.3330 C   0  0  0  0  0  0  0  0  0  0  0  0
   13.9209   37.2258   35.8807 N   0  0  0  0  0  0  0  0  0  0  0  0
   16.5874   34.9920   33.7802 C   0  0  0  0  0  0  0  0  0  0  0  0
   15.8579   35.6716   35.9443 C   0  0  0  0  0  0  0  0  0  0  0  0
   16.7028   34.9584   35.1439 N   0  0  0  0  0  0  0  0  0  0  0  0
   16.0103   35.6383   37.3563 N   0  0  0  0  0  0  0  0  0  0  0  0
    7.6773   44.0714   34.0497 H   0  0  0  0  0  0  0  0  0  0  0  0
    9.1840   45.3818   35.3538 H   0  0  0  0  0  0  0  0  0  0  0  0
   10.3194   45.4412   34.0991 H   0  0  0  0  0  0  0  0  0  0  0  0
    8.4831   43.0877   31.8651 H   0  0  0  0  0  0  0  0  0  0  0  0
    9.9718   44.0720   31.9737 H   0  0  0  0  0  0  0  0  0  0  0  0
    8.5538   46.1547   31.8769 H   0  0  0  0  0  0  0  0  0  0  0  0
    8.5393   45.1424   30.4034 H   0  0  0  0  0  0  0  0  0  0  0  0
    6.3313   44.1802   30.9691 H   0  0  0  0  0  0  0  0  0  0  0  0
    6.3015   45.0666   32.5334 H   0  0  0  0  0  0  0  0  0  0  0  0
    4.9205   46.2630   30.9217 H   0  0  0  0  0  0  0  0  0  0  0  0
    6.2458   46.2890   29.7200 H   0  0  0  0  0  0  0  0  0  0  0  0
    6.2760   47.7521   32.4195 H   0  0  0  0  0  0  0  0  0  0  0  0
    8.2719   50.9330   29.7795 H   0  0  0  0  0  0  0  0  0  0  0  0
    8.6821   51.5099   31.4117 H   0  0  0  0  0  0  0  0  0  0  0  0
   10.1644   50.2908   28.5712 H   0  0  0  0  0  0  0  0  0  0  0  0
   12.3210   49.1379   28.3477 H   0  0  0  0  0  0  0  0  0  0  0  0
   12.3342   48.2447   32.5308 H   0  0  0  0  0  0  0  0  0  0  0  0
   13.3960   48.1022   30.3196 H   0  0  0  0  0  0  0  0  0  0  0  0
    9.7455   40.0168   31.9262 H   0  0  0  0  0  0  0  0  0  0  0  0
   11.2117   41.0420   31.8834 H   0  0  0  0  0  0  0  0  0  0  0  0
   11.6246   39.0449   30.5888 H   0  0  0  0  0  0  0  0  0  0  0  0
   10.7051   37.5580   33.1499 H   0  0  0  0  0  0  0  0  0  0  0  0
   14.1985   37.4426   31.5553 H   0  0  0  0  0  0  0  0  0  0  0  0
   10.0893   37.4057   30.3459 H   0  0  0  0  0  0  0  0  0  0  0  0
   12.1337   35.7754   32.5703 H   0  0  0  0  0  0  0  0  0  0  0  0
   11.7934   35.4394   30.4513 H   0  0  0  0  0  0  0  0  0  0  0  0
   12.4314   38.3973   34.8700 H   0  0  0  0  0  0  0  0  0  0  0  0
   17.2669   34.4141   33.1692 H   0  0  0  0  0  0  0  0  0  0  0  0
   15.3759   36.1864   37.9790 H   0  0  0  0  0  0  0  0  0  0  0  0
   16.7638   35.0599   37.7896 H   0  0  0  0  0  0  0  0  0  0  0  0
  1  2  2  0
  1  3  1  0
  3  4  1  0
  4  5  1  0
  6  1  1  0
  7  6  1  0
  6  8  1  0
  8  9  1  0
  9 10  1  0
 10 11  1  0
 11 12  1  0
 12 13  1  0
 13 14  1  0
 13 15  2  0
 14 16  1  0
 16 17  1  0
 17 18  2  0
 19 17  1  0
 18 20  1  0
 21 19  2  0
 19 22  1  0
 20 23  2  0
 23 21  1  0
 22 24  1  0
 22 25  2  0
  4 26  2  0
  4 27  1  0
 28 27  1  0
 28 29  1  0
 29 30  1  0
 29 31  1  0
 30 32  1  0
 31 33  1  0
 31 34  1  0
 34 32  1  0
 32 35  1  0
 34 36  1  0
 37 35  1  0
 38 35  1  0
 39 37  2  0
 37 40  1  0
 41 38  2  0
 42 39  1  0
 40 43  2  0
 40 41  1  0
 44 42  2  0
 44 43  1  0
 43 45  1  0
  6 46  1  6
  7 47  1  0
  7 48  1  0
  8 49  1  0
  8 50  1  0
  9 51  1  0
  9 52  1  0
 10 53  1  0
 10 54  1  0
 11 55  1  0
 11 56  1  0
 12 57  1  0
 16 58  1  0
 16 59  1  0
 18 60  1  0
 20 61  1  0
 21 62  1  0
 23 63  1  0
 28 64  1  0
 28 65  1  0
 29 66  1  0
 31 67  1  0
 32 68  1  0
 33 69  1  0
 34 70  1  0
 36 71  1  0
 38 72  1  0
 42 73  1  0
 45 74  1  0
 45 75  1  0
M  CHG  3   5  -1  22   1  24  -1
M  END
>  <EmbedRMS>  (188) 
0.0753066851699

$$$$

     RDKit          3D

 75 78  0  0  0  0  0  0  0  0999 V2000
    9.4311   42.9411   34.3438 C   0  0  0  0  0  0  0  0  0  0  0  0
   10.4885   43.0409   35.0293 O   0  0  0  0  0  0  0  0  0  0  0  0
    8.8558   41.7128   34.0292 O   0  0  0  0  0  0  0  0  0  0  0  0
    9.4946   40.2163   34.4676 P   0  0  0  0  0  0  0  0  0  0  0  0
    9.7319   40.1739   36.1286 O   0  0  0  0  0  0  0  0  0  0  0  0
    8.7483   44.1360   33.7722 C   0  0  1  0  0  0  0  0  0  0  0  0
    9.3039   45.3665   34.3388 N   0  0  0  0  0  0  0  0  0  0  0  0
    8.8892   44.0520   32.2309 C   0  0  0  0  0  0  0  0  0  0  0  0
    8.2014   45.1722   31.4436 C   0  0  0  0  0  0  0  0  0  0  0  0
    6.6642   45.1065   31.4887 C   0  0  0  0  0  0  0  0  0  0  0  0
    6.0264   46.3234   30.8120 C   0  0  0  0  0  0  0  0  0  0  0  0
    6.5074   47.5645   31.4186 N   0  0  0  0  0  0  0  0  0  0  0  0
    7.2446   48.5392   30.6835 C   0  0  0  0  0  0  0  0  0  0  0  0
    7.5980   49.7386   31.3069 O   0  0  0  0  0  0  0  0  0  0  0  0
    7.5929   48.3117   29.4932 O   0  0  0  0  0  0  0  0  0  0  0  0
    8.3509   50.7562   30.6505 C   0  0  0  0  0  0  0  0  0  0  0  0
    8.6111   51.9380   31.5606 C   0  0  0  0  0  0  0  0  0  0  0  0
    8.4167   51.8155   32.9527 C   0  0  0  0  0  0  0  0  0  0  0  0
    9.0432   53.1873   31.0345 C   0  0  0  0  0  0  0  0  0  0  0  0
    8.6083   52.9078   33.7993 C   0  0  0  0  0  0  0  0  0  0  0  0
    9.2129   54.2781   31.9057 C   0  0  0  0  0  0  0  0  0  0  0  0
    9.3026   53.3760   29.6306 N   0  0  0  0  0  0  0  0  0  0  0  0
    8.9981   54.1380   33.2764 C   0  0  0  0  0  0  0  0  0  0  0  0
    9.1314   54.6172   29.0615 O   0  0  0  0  0  0  0  0  0  0  0  0
    9.8425   52.4768   28.9544 O   0  0  0  0  0  0  0  0  0  0  0  0
    8.5375   39.1400   34.0125 O   0  0  0  0  0  0  0  0  0  0  0  0
   10.9796   40.0897   33.6815 O   0  0  0  0  0  0  0  0  0  0  0  0
   10.7982   40.0850   32.2818 C   0  0  0  0  0  0  0  0  0  0  0  0
   11.5886   38.9143   31.7009 C   0  0  0  0  0  0  0  0  0  0  0  0
   12.9213   38.9368   32.1699 O   0  0  0  0  0  0  0  0  0  0  0  0
   11.0047   37.5661   32.0991 C   0  0  0  0  0  0  0  0  0  0  0  0
   13.3510   37.5885   32.2601 C   0  0  0  0  0  0  0  0  0  0  0  0
    9.9296   37.1962   31.2780 O   0  0  0  0  0  0  0  0  0  0  0  0
   12.1923   36.6659   31.9047 C   0  0  0  0  0  0  0  0  0  0  0  0
   13.8033   37.2967   33.6188 N   0  0  0  0  0  0  0  0  0  0  0  0
   12.3006   36.2865   30.5562 O   0  0  0  0  0  0  0  0  0  0  0  0
   14.7933   36.4724   33.9860 C   0  0  0  0  0  0  0  0  0  0  0  0
   13.2753   37.7296   34.7935 C   0  0  0  0  0  0  0  0  0  0  0  0
   15.6243   35.7579   33.1860 N   0  0  0  0  0  0  0  0  0  0  0  0
   14.8728   36.4410   35.3328 C   0  0  0  0  0  0  0  0  0  0  0  0
   13.9209   37.2263   35.8804 N   0  0  0  0  0  0  0  0  0  0  0  0
   16.5873   34.9919   33.7803 C   0  0  0  0  0  0  0  0  0  0  0  0
   15.8577   35.6716   35.9443 C   0  0  0  0  0  0  0  0  0  0  0  0
   16.7025   34.9583   35.1440 N   0  0  0  0  0  0  0  0  0  0  0  0
   16.0100   35.6384   37.3563 N   0  0  0  0  0  0  0  0  0  0  0  0
    7.6763   44.0635   34.0548 H   0  0  0  0  0  0  0  0  0  0  0  0
   10.2152   45.5880   33.8748 H   0  0  0  0  0  0  0  0  0  0  0  0
    8.6469   46.1559   34.1432 H   0  0  0  0  0  0  0  0  0  0  0  0
    8.4831   43.0819   31.8666 H   0  0  0  0  0  0  0  0  0  0  0  0
    9.9708   44.0644   31.9680 H   0  0  0  0  0  0  0  0  0  0  0  0
    8.5198   45.0961   30.3808 H   0  0  0  0  0  0  0  0  0  0  0  0
    8.5712   46.1488   31.8176 H   0  0  0  0  0  0  0  0  0  0  0  0
    6.3141   45.0785   32.5414 H   0  0  0  0  0  0  0  0  0  0  0  0
    6.3148   44.1799   30.9838 H   0  0  0  0  0  0  0  0  0  0  0  0
    4.9231   46.2693   30.9294 H   0  0  0  0  0  0  0  0  0  0  0  0
    6.2449   46.2893   29.7230 H   0  0  0  0  0  0  0  0  0  0  0  0
    6.2857   47.7533   32.4221 H   0  0  0  0  0  0  0  0  0  0  0  0
    7.7720   51.0976   29.7648 H   0  0  0  0  0  0  0  0  0  0  0  0
    9.3237   50.3360   30.3157 H   0  0  0  0  0  0  0  0  0  0  0  0
    8.1131   50.8754   33.3947 H   0  0  0  0  0  0  0  0  0  0  0  0
    8.4506   52.8001   34.8648 H   0  0  0  0  0  0  0  0  0  0  0  0
    9.5334   55.2392   31.5240 H   0  0  0  0  0  0  0  0  0  0  0  0
    9.1424   54.9841   33.9359 H   0  0  0  0  0  0  0  0  0  0  0  0
   11.2130   41.0321   31.8752 H   0  0  0  0  0  0  0  0  0  0  0  0
    9.7426   40.0140   31.9267 H   0  0  0  0  0  0  0  0  0  0  0  0
   11.5980   39.0108   30.5905 H   0  0  0  0  0  0  0  0  0  0  0  0
   10.7008   37.5603   33.1721 H   0  0  0  0  0  0  0  0  0  0  0  0
   14.1977   37.4380   31.5532 H   0  0  0  0  0  0  0  0  0  0  0  0
    9.5180   36.3962   31.6978 H   0  0  0  0  0  0  0  0  0  0  0  0
   12.1418   35.7698   32.5692 H   0  0  0  0  0  0  0  0  0  0  0  0
   11.7729   35.4524   30.4489 H   0  0  0  0  0  0  0  0  0  0  0  0
   12.4321   38.3985   34.8692 H   0  0  0  0  0  0  0  0  0  0  0  0
   17.2667   34.4138   33.1694 H   0  0  0  0  0  0  0  0  0  0  0  0
   16.7634   35.0598   37.7897 H   0  0  0  0  0  0  0  0  0  0  0  0
   15.3757   36.1867   37.9790 H   0  0  0  0  0  0  0  0  0  0  0  0
  1  2  2  0
  1  3  1  0
  3  4  1  0
  4  5  1  0
  6  1  1  0
  7  6  1  0
  6  8  1  0
  8  9  1  0
  9 10  1  0
 10 11  1  0
 11 12  1  0
 12 13  1  0
 13 14  1  0
 13 15  2  0
 14 16  1  0
 16 17  1  0
 17 18  2  0
 19 17  1  0
 18 20  1  0
 21 19  2  0
 19 22  1  0
 20 23  2  0
 23 21  1  0
 22 24  1  0
 22 25  2  0
  4 26  2  0
  4 27  1  0
 28 27  1  0
 28 29  1  0
 29 30  1  0
 29 31  1  0
 30 32  1  0
 31 33  1  0
 31 34  1  0
 34 32  1  0
 32 35  1  0
 34 36  1  0
 37 35  1  0
 38 35  1  0
 39 37  2  0
 37 40  1  0
 41 38  2  0
 42 39  1  0
 40 43  2  0
 40 41  1  0
 44 42  2  0
 44 43  1  0
 43 45  1  0
  6 46  1  6
  7 47  1  0
  7 48  1  0
  8 49  1  0
  8 50  1  0
  9 51  1  0
  9 52  1  0
 10 53  1  0
 10 54  1  0
 11 55  1  0
 11 56  1  0
 12 57  1  0
 16 58  1  0
 16 59  1  0
 18 60  1  0
 20 61  1  0
 21 62  1  0
 23 63  1  0
 28 64  1  0
 28 65  1  0
 29 66  1  0
 31 67  1  0
 32 68  1  0
 33 69  1  0
 34 70  1  0
 36 71  1  0
 38 72  1  0
 42 73  1  0
 45 74  1  0
 45 75  1  0
M  CHG  3   5  -1  22   1  24  -1
M  END
>  <EmbedRMS>  (189) 
0.0735937028586

$$$$

     RDKit          3D

 75 78  0  0  0  0  0  0  0  0999 V2000
    9.4335   42.9370   34.3456 C   0  0  0  0  0  0  0  0  0  0  0  0
   10.4908   43.0334   35.0315 O   0  0  0  0  0  0  0  0  0  0  0  0
    8.8564   41.7108   34.0291 O   0  0  0  0  0  0  0  0  0  0  0  0
    9.4943   40.2143   34.4677 P   0  0  0  0  0  0  0  0  0  0  0  0
    9.7309   40.1727   36.1288 O   0  0  0  0  0  0  0  0  0  0  0  0
    8.7510   44.1358   33.7737 C   0  0  1  0  0  0  0  0  0  0  0  0
    9.2966   45.3829   34.3132 N   0  0  0  0  0  0  0  0  0  0  0  0
    8.8895   44.0548   32.2353 C   0  0  0  0  0  0  0  0  0  0  0  0
    8.2023   45.1851   31.4619 C   0  0  0  0  0  0  0  0  0  0  0  0
    6.6647   45.1058   31.4851 C   0  0  0  0  0  0  0  0  0  0  0  0
    6.0239   46.3217   30.8075 C   0  0  0  0  0  0  0  0  0  0  0  0
    6.4969   47.5652   31.4152 N   0  0  0  0  0  0  0  0  0  0  0  0
    7.2609   48.5276   30.6919 C   0  0  0  0  0  0  0  0  0  0  0  0
    7.6834   49.6895   31.3455 O   0  0  0  0  0  0  0  0  0  0  0  0
    7.5886   48.3122   29.4937 O   0  0  0  0  0  0  0  0  0  0  0  0
    8.6461   50.5909   30.8025 C   0  0  0  0  0  0  0  0  0  0  0  0
   10.0159   49.9517   30.7787 C   0  0  0  0  0  0  0  0  0  0  0  0
   10.5377   49.5344   29.5400 C   0  0  0  0  0  0  0  0  0  0  0  0
   10.7992   49.7802   31.9547 C   0  0  0  0  0  0  0  0  0  0  0  0
   11.8040   48.9557   29.4572 C   0  0  0  0  0  0  0  0  0  0  0  0
   12.0789   49.2063   31.8436 C   0  0  0  0  0  0  0  0  0  0  0  0
   10.3434   50.2043   33.2540 N   0  0  0  0  0  0  0  0  0  0  0  0
   12.5734   48.7927   30.6064 C   0  0  0  0  0  0  0  0  0  0  0  0
   11.2576   50.5724   34.2145 O   0  0  0  0  0  0  0  0  0  0  0  0
    9.1443   50.0994   33.5814 O   0  0  0  0  0  0  0  0  0  0  0  0
    8.5371   39.1385   34.0121 O   0  0  0  0  0  0  0  0  0  0  0  0
   10.9797   40.0871   33.6829 O   0  0  0  0  0  0  0  0  0  0  0  0
   10.8003   40.0905   32.2832 C   0  0  0  0  0  0  0  0  0  0  0  0
   11.5958   38.9271   31.6963 C   0  0  0  0  0  0  0  0  0  0  0  0
   12.9239   38.9409   32.1766 O   0  0  0  0  0  0  0  0  0  0  0  0
   11.0062   37.5719   32.0793 C   0  0  0  0  0  0  0  0  0  0  0  0
   13.3507   37.5905   32.2614 C   0  0  0  0  0  0  0  0  0  0  0  0
    9.9064   37.1793   31.2946 O   0  0  0  0  0  0  0  0  0  0  0  0
   12.1920   36.6671   31.9003 C   0  0  0  0  0  0  0  0  0  0  0  0
   13.8017   37.2948   33.6193 N   0  0  0  0  0  0  0  0  0  0  0  0
   12.3133   36.2788   30.5560 O   0  0  0  0  0  0  0  0  0  0  0  0
   14.7927   36.4716   33.9861 C   0  0  0  0  0  0  0  0  0  0  0  0
   13.2746   37.7284   34.7941 C   0  0  0  0  0  0  0  0  0  0  0  0
   15.6240   35.7576   33.1859 N   0  0  0  0  0  0  0  0  0  0  0  0
   14.8728   36.4406   35.3330 C   0  0  0  0  0  0  0  0  0  0  0  0
   13.9209   37.2258   35.8807 N   0  0  0  0  0  0  0  0  0  0  0  0
   16.5874   34.9920   33.7802 C   0  0  0  0  0  0  0  0  0  0  0  0
   15.8579   35.6716   35.9443 C   0  0  0  0  0  0  0  0  0  0  0  0
   16.7028   34.9584   35.1439 N   0  0  0  0  0  0  0  0  0  0  0  0
   16.0103   35.6383   37.3563 N   0  0  0  0  0  0  0  0  0  0  0  0
    7.6773   44.0717   34.0499 H   0  0  0  0  0  0  0  0  0  0  0  0
    9.1848   45.3822   35.3535 H   0  0  0  0  0  0  0  0  0  0  0  0
   10.3191   45.4429   34.0980 H   0  0  0  0  0  0  0  0  0  0  0  0
    9.9713   44.0712   31.9734 H   0  0  0  0  0  0  0  0  0  0  0  0
    8.4824   43.0872   31.8656 H   0  0  0  0  0  0  0  0  0  0  0  0
    8.5534   46.1540   31.8757 H   0  0  0  0  0  0  0  0  0  0  0  0
    8.5387   45.1409   30.4028 H   0  0  0  0  0  0  0  0  0  0  0  0
    6.3306   44.1798   30.9688 H   0  0  0  0  0  0  0  0  0  0  0  0
    6.3011   45.0665   32.5329 H   0  0  0  0  0  0  0  0  0  0  0  0
    6.2467   46.2888   29.7194 H   0  0  0  0  0  0  0  0  0  0  0  0
    4.9203   46.2628   30.9201 H   0  0  0  0  0  0  0  0  0  0  0  0
    6.2751   47.7509   32.4193 H   0  0  0  0  0  0  0  0  0  0  0  0
    8.6767   51.5138   31.4187 H   0  0  0  0  0  0  0  0  0  0  0  0
    8.3242   50.9030   29.7845 H   0  0  0  0  0  0  0  0  0  0  0  0
    9.9617   49.6565   28.6309 H   0  0  0  0  0  0  0  0  0  0  0  0
   12.1910   48.6362   28.4981 H   0  0  0  0  0  0  0  0  0  0  0  0
   12.6944   49.0655   32.7231 H   0  0  0  0  0  0  0  0  0  0  0  0
   13.5569   48.3457   30.5391 H   0  0  0  0  0  0  0  0  0  0  0  0
   11.2117   41.0420   31.8834 H   0  0  0  0  0  0  0  0  0  0  0  0
    9.7455   40.0168   31.9262 H   0  0  0  0  0  0  0  0  0  0  0  0
   11.6245   39.0449   30.5888 H   0  0  0  0  0  0  0  0  0  0  0  0
   10.7050   37.5580   33.1500 H   0  0  0  0  0  0  0  0  0  0  0  0
   14.1985   37.4426   31.5553 H   0  0  0  0  0  0  0  0  0  0  0  0
   10.0893   37.4057   30.3459 H   0  0  0  0  0  0  0  0  0  0  0  0
   12.1337   35.7754   32.5703 H   0  0  0  0  0  0  0  0  0  0  0  0
   11.7934   35.4394   30.4514 H   0  0  0  0  0  0  0  0  0  0  0  0
   12.4314   38.3973   34.8700 H   0  0  0  0  0  0  0  0  0  0  0  0
   17.2669   34.4142   33.1692 H   0  0  0  0  0  0  0  0  0  0  0  0
   15.3759   36.1865   37.9790 H   0  0  0  0  0  0  0  0  0  0  0  0
   16.7638   35.0599   37.7896 H   0  0  0  0  0  0  0  0  0  0  0  0
  1  2  2  0
  1  3  1  0
  3  4  1  0
  4  5  1  0
  6  1  1  0
  7  6  1  0
  6  8  1  0
  8  9  1  0
  9 10  1  0
 10 11  1  0
 11 12  1  0
 12 13  1  0
 13 14  1  0
 13 15  2  0
 14 16  1  0
 16 17  1  0
 17 18  2  0
 19 17  1  0
 18 20  1  0
 21 19  2  0
 19 22  1  0
 20 23  2  0
 23 21  1  0
 22 24  1  0
 22 25  2  0
  4 26  2  0
  4 27  1  0
 28 27  1  0
 28 29  1  0
 29 30  1  0
 29 31  1  0
 30 32  1  0
 31 33  1  0
 31 34  1  0
 34 32  1  0
 32 35  1  0
 34 36  1  0
 37 35  1  0
 38 35  1  0
 39 37  2  0
 37 40  1  0
 41 38  2  0
 42 39  1  0
 40 43  2  0
 40 41  1  0
 44 42  2  0
 44 43  1  0
 43 45  1  0
  6 46  1  6
  7 47  1  0
  7 48  1  0
  8 49  1  0
  8 50  1  0
  9 51  1  0
  9 52  1  0
 10 53  1  0
 10 54  1  0
 11 55  1  0
 11 56  1  0
 12 57  1  0
 16 58  1  0
 16 59  1  0
 18 60  1  0
 20 61  1  0
 21 62  1  0
 23 63  1  0
 28 64  1  0
 28 65  1  0
 29 66  1  0
 31 67  1  0
 32 68  1  0
 33 69  1  0
 34 70  1  0
 36 71  1  0
 38 72  1  0
 42 73  1  0
 45 74  1  0
 45 75  1  0
M  CHG  3   5  -1  22   1  24  -1
M  END
>  <EmbedRMS>  (190) 
0.0753664187023

$$$$

     RDKit          3D

 75 78  0  0  0  0  0  0  0  0999 V2000
    9.4331   42.9367   34.3462 C   0  0  0  0  0  0  0  0  0  0  0  0
   10.4906   43.0332   35.0319 O   0  0  0  0  0  0  0  0  0  0  0  0
    8.8563   41.7105   34.0296 O   0  0  0  0  0  0  0  0  0  0  0  0
    9.4945   40.2143   34.4680 P   0  0  0  0  0  0  0  0  0  0  0  0
    9.7308   40.1727   36.1291 O   0  0  0  0  0  0  0  0  0  0  0  0
    8.7504   44.1350   33.7742 C   0  0  1  0  0  0  0  0  0  0  0  0
    9.2960   45.3824   34.3134 N   0  0  0  0  0  0  0  0  0  0  0  0
    8.8892   44.0530   32.2359 C   0  0  0  0  0  0  0  0  0  0  0  0
    8.2030   45.1829   31.4618 C   0  0  0  0  0  0  0  0  0  0  0  0
    6.6655   45.1041   31.4832 C   0  0  0  0  0  0  0  0  0  0  0  0
    6.0283   46.3230   30.8082 C   0  0  0  0  0  0  0  0  0  0  0  0
    6.5047   47.5632   31.4209 N   0  0  0  0  0  0  0  0  0  0  0  0
    7.2510   48.5400   30.6846 C   0  0  0  0  0  0  0  0  0  0  0  0
    7.6471   49.7496   31.2673 O   0  0  0  0  0  0  0  0  0  0  0  0
    7.5870   48.3096   29.4937 O   0  0  0  0  0  0  0  0  0  0  0  0
    7.3715   50.1089   32.6194 C   0  0  0  0  0  0  0  0  0  0  0  0
    7.9315   51.4731   32.9591 C   0  0  0  0  0  0  0  0  0  0  0  0
    8.2673   52.3757   31.9286 C   0  0  0  0  0  0  0  0  0  0  0  0
    8.1344   51.8654   34.3101 C   0  0  0  0  0  0  0  0  0  0  0  0
    8.8279   53.6191   32.2235 C   0  0  0  0  0  0  0  0  0  0  0  0
    8.7166   53.1170   34.5827 C   0  0  0  0  0  0  0  0  0  0  0  0
    7.7629   51.0135   35.4098 N   0  0  0  0  0  0  0  0  0  0  0  0
    9.0597   53.9856   33.5468 C   0  0  0  0  0  0  0  0  0  0  0  0
    6.5952   50.2872   35.3704 O   0  0  0  0  0  0  0  0  0  0  0  0
    8.4085   51.0526   36.4777 O   0  0  0  0  0  0  0  0  0  0  0  0
    8.5372   39.1387   34.0125 O   0  0  0  0  0  0  0  0  0  0  0  0
   10.9804   40.0881   33.6837 O   0  0  0  0  0  0  0  0  0  0  0  0
   10.8025   40.0899   32.2838 C   0  0  0  0  0  0  0  0  0  0  0  0
   11.5888   38.9174   31.7007 C   0  0  0  0  0  0  0  0  0  0  0  0
   12.9219   38.9373   32.1692 O   0  0  0  0  0  0  0  0  0  0  0  0
   11.0028   37.5682   32.0980 C   0  0  0  0  0  0  0  0  0  0  0  0
   13.3496   37.5885   32.2601 C   0  0  0  0  0  0  0  0  0  0  0  0
    9.9343   37.1822   31.2756 O   0  0  0  0  0  0  0  0  0  0  0  0
   12.1891   36.6677   31.9049 C   0  0  0  0  0  0  0  0  0  0  0  0
   13.8025   37.2965   33.6186 N   0  0  0  0  0  0  0  0  0  0  0  0
   12.2991   36.2867   30.5567 O   0  0  0  0  0  0  0  0  0  0  0  0
   14.7929   36.4725   33.9858 C   0  0  0  0  0  0  0  0  0  0  0  0
   13.2749   37.7294   34.7935 C   0  0  0  0  0  0  0  0  0  0  0  0
   15.6240   35.7580   33.1858 N   0  0  0  0  0  0  0  0  0  0  0  0
   14.8727   36.4411   35.3327 C   0  0  0  0  0  0  0  0  0  0  0  0
   13.9208   37.2263   35.8803 N   0  0  0  0  0  0  0  0  0  0  0  0
   16.5871   34.9921   33.7801 C   0  0  0  0  0  0  0  0  0  0  0  0
   15.8576   35.6718   35.9441 C   0  0  0  0  0  0  0  0  0  0  0  0
   16.7024   34.9585   35.1438 N   0  0  0  0  0  0  0  0  0  0  0  0
   16.0100   35.6384   37.3562 N   0  0  0  0  0  0  0  0  0  0  0  0
    7.6767   44.0710   34.0502 H   0  0  0  0  0  0  0  0  0  0  0  0
   10.3189   45.4410   34.1004 H   0  0  0  0  0  0  0  0  0  0  0  0
    9.1819   45.3827   35.3535 H   0  0  0  0  0  0  0  0  0  0  0  0
    9.9710   44.0683   31.9742 H   0  0  0  0  0  0  0  0  0  0  0  0
    8.4814   43.0854   31.8668 H   0  0  0  0  0  0  0  0  0  0  0  0
    8.5540   46.1514   31.8762 H   0  0  0  0  0  0  0  0  0  0  0  0
    8.5404   45.1382   30.4031 H   0  0  0  0  0  0  0  0  0  0  0  0
    6.3004   45.0620   32.5303 H   0  0  0  0  0  0  0  0  0  0  0  0
    6.3313   44.1801   30.9634 H   0  0  0  0  0  0  0  0  0  0  0  0
    4.9245   46.2664   30.9208 H   0  0  0  0  0  0  0  0  0  0  0  0
    6.2504   46.2919   29.7201 H   0  0  0  0  0  0  0  0  0  0  0  0
    6.2717   47.7253   32.4253 H   0  0  0  0  0  0  0  0  0  0  0  0
    7.8416   49.3488   33.2805 H   0  0  0  0  0  0  0  0  0  0  0  0
    6.2726   50.1221   32.7830 H   0  0  0  0  0  0  0  0  0  0  0  0
    8.1008   52.1236   30.8894 H   0  0  0  0  0  0  0  0  0  0  0  0
    9.0861   54.2993   31.4220 H   0  0  0  0  0  0  0  0  0  0  0  0
    8.8867   53.4308   35.6049 H   0  0  0  0  0  0  0  0  0  0  0  0
    9.4977   54.9495   33.7717 H   0  0  0  0  0  0  0  0  0  0  0  0
   11.2258   41.0357   31.8829 H   0  0  0  0  0  0  0  0  0  0  0  0
    9.7476   40.0331   31.9256 H   0  0  0  0  0  0  0  0  0  0  0  0
   11.5975   39.0148   30.5904 H   0  0  0  0  0  0  0  0  0  0  0  0
   10.7024   37.5455   33.1719 H   0  0  0  0  0  0  0  0  0  0  0  0
   14.1957   37.4366   31.5528 H   0  0  0  0  0  0  0  0  0  0  0  0
    9.1339   37.6657   31.6070 H   0  0  0  0  0  0  0  0  0  0  0  0
   12.1381   35.7717   32.5697 H   0  0  0  0  0  0  0  0  0  0  0  0
   11.7707   35.4530   30.4496 H   0  0  0  0  0  0  0  0  0  0  0  0
   12.4314   38.3980   34.8694 H   0  0  0  0  0  0  0  0  0  0  0  0
   17.2665   34.4140   33.1691 H   0  0  0  0  0  0  0  0  0  0  0  0
   15.3757   36.1868   37.9789 H   0  0  0  0  0  0  0  0  0  0  0  0
   16.7634   35.0598   37.7895 H   0  0  0  0  0  0  0  0  0  0  0  0
  1  2  2  0
  1  3  1  0
  3  4  1  0
  4  5  1  0
  6  1  1  0
  7  6  1  0
  6  8  1  0
  8  9  1  0
  9 10  1  0
 10 11  1  0
 11 12  1  0
 12 13  1  0
 13 14  1  0
 13 15  2  0
 14 16  1  0
 16 17  1  0
 17 18  2  0
 19 17  1  0
 18 20  1  0
 21 19  2  0
 19 22  1  0
 20 23  2  0
 23 21  1  0
 22 24  1  0
 22 25  2  0
  4 26  2  0
  4 27  1  0
 28 27  1  0
 28 29  1  0
 29 30  1  0
 29 31  1  0
 30 32  1  0
 31 33  1  0
 31 34  1  0
 34 32  1  0
 32 35  1  0
 34 36  1  0
 37 35  1  0
 38 35  1  0
 39 37  2  0
 37 40  1  0
 41 38  2  0
 42 39  1  0
 40 43  2  0
 40 41  1  0
 44 42  2  0
 44 43  1  0
 43 45  1  0
  6 46  1  6
  7 47  1  0
  7 48  1  0
  8 49  1  0
  8 50  1  0
  9 51  1  0
  9 52  1  0
 10 53  1  0
 10 54  1  0
 11 55  1  0
 11 56  1  0
 12 57  1  0
 16 58  1  0
 16 59  1  0
 18 60  1  0
 20 61  1  0
 21 62  1  0
 23 63  1  0
 28 64  1  0
 28 65  1  0
 29 66  1  0
 31 67  1  0
 32 68  1  0
 33 69  1  0
 34 70  1  0
 36 71  1  0
 38 72  1  0
 42 73  1  0
 45 74  1  0
 45 75  1  0
M  CHG  3   5  -1  22   1  24  -1
M  END
>  <EmbedRMS>  (191) 
0.0743281998821

$$$$

     RDKit          3D

 75 78  0  0  0  0  0  0  0  0999 V2000
    9.4334   42.9356   34.3453 C   0  0  0  0  0  0  0  0  0  0  0  0
   10.4907   43.0323   35.0312 O   0  0  0  0  0  0  0  0  0  0  0  0
    8.8562   41.7096   34.0291 O   0  0  0  0  0  0  0  0  0  0  0  0
    9.4942   40.2135   34.4678 P   0  0  0  0  0  0  0  0  0  0  0  0
    9.7310   40.1724   36.1289 O   0  0  0  0  0  0  0  0  0  0  0  0
    8.7506   44.1335   33.7736 C   0  0  1  0  0  0  0  0  0  0  0  0
    9.2958   45.3792   34.3142 N   0  0  0  0  0  0  0  0  0  0  0  0
    8.8900   44.0538   32.2356 C   0  0  0  0  0  0  0  0  0  0  0  0
    8.2041   45.1853   31.4638 C   0  0  0  0  0  0  0  0  0  0  0  0
    6.6669   45.1060   31.4860 C   0  0  0  0  0  0  0  0  0  0  0  0
    6.0293   46.3245   30.8115 C   0  0  0  0  0  0  0  0  0  0  0  0
    6.5069   47.5659   31.4217 N   0  0  0  0  0  0  0  0  0  0  0  0
    7.2313   48.5501   30.6742 C   0  0  0  0  0  0  0  0  0  0  0  0
    7.5429   49.8057   31.2122 O   0  0  0  0  0  0  0  0  0  0  0  0
    7.5995   48.2988   29.4973 O   0  0  0  0  0  0  0  0  0  0  0  0
    7.2042   50.2430   32.5273 C   0  0  0  0  0  0  0  0  0  0  0  0
    8.0977   49.6018   33.5647 C   0  0  0  0  0  0  0  0  0  0  0  0
    7.4984   48.9519   34.6594 C   0  0  0  0  0  0  0  0  0  0  0  0
    9.5164   49.6354   33.4712 C   0  0  0  0  0  0  0  0  0  0  0  0
    8.2790   48.3339   35.6365 C   0  0  0  0  0  0  0  0  0  0  0  0
   10.2827   48.9872   34.4559 C   0  0  0  0  0  0  0  0  0  0  0  0
   10.1968   50.3065   32.3955 N   0  0  0  0  0  0  0  0  0  0  0  0
    9.6682   48.3507   35.5343 C   0  0  0  0  0  0  0  0  0  0  0  0
   11.4165   49.8418   31.9597 O   0  0  0  0  0  0  0  0  0  0  0  0
    9.7863   51.4047   31.9681 O   0  0  0  0  0  0  0  0  0  0  0  0
    8.5371   39.1378   34.0123 O   0  0  0  0  0  0  0  0  0  0  0  0
   10.9796   40.0867   33.6827 O   0  0  0  0  0  0  0  0  0  0  0  0
   10.7997   40.0898   32.2830 C   0  0  0  0  0  0  0  0  0  0  0  0
   11.5968   38.9273   31.6962 C   0  0  0  0  0  0  0  0  0  0  0  0
   12.9243   38.9425   32.1784 O   0  0  0  0  0  0  0  0  0  0  0  0
   11.0086   37.5713   32.0780 C   0  0  0  0  0  0  0  0  0  0  0  0
   13.3529   37.5929   32.2623 C   0  0  0  0  0  0  0  0  0  0  0  0
    9.9098   37.1770   31.2925 O   0  0  0  0  0  0  0  0  0  0  0  0
   12.1943   36.6683   31.8994 C   0  0  0  0  0  0  0  0  0  0  0  0
   13.8019   37.2950   33.6199 N   0  0  0  0  0  0  0  0  0  0  0  0
   12.3027   36.2773   30.5558 O   0  0  0  0  0  0  0  0  0  0  0  0
   14.7926   36.4715   33.9865 C   0  0  0  0  0  0  0  0  0  0  0  0
   13.2749   37.7286   34.7946 C   0  0  0  0  0  0  0  0  0  0  0  0
   15.6239   35.7577   33.1860 N   0  0  0  0  0  0  0  0  0  0  0  0
   14.8727   36.4403   35.3332 C   0  0  0  0  0  0  0  0  0  0  0  0
   13.9210   37.2257   35.8811 N   0  0  0  0  0  0  0  0  0  0  0  0
   16.5873   34.9921   33.7802 C   0  0  0  0  0  0  0  0  0  0  0  0
   15.8579   35.6714   35.9444 C   0  0  0  0  0  0  0  0  0  0  0  0
   16.7028   34.9583   35.1439 N   0  0  0  0  0  0  0  0  0  0  0  0
   16.0104   35.6381   37.3564 N   0  0  0  0  0  0  0  0  0  0  0  0
    7.6770   44.0694   34.0496 H   0  0  0  0  0  0  0  0  0  0  0  0
   10.3172   45.4428   34.0954 H   0  0  0  0  0  0  0  0  0  0  0  0
    9.1884   45.3726   35.3550 H   0  0  0  0  0  0  0  0  0  0  0  0
    9.9720   44.0697   31.9743 H   0  0  0  0  0  0  0  0  0  0  0  0
    8.4824   43.0868   31.8649 H   0  0  0  0  0  0  0  0  0  0  0  0
    8.5412   45.1429   30.4049 H   0  0  0  0  0  0  0  0  0  0  0  0
    8.5547   46.1534   31.8804 H   0  0  0  0  0  0  0  0  0  0  0  0
    6.3324   44.1818   30.9668 H   0  0  0  0  0  0  0  0  0  0  0  0
    6.3026   45.0648   32.5334 H   0  0  0  0  0  0  0  0  0  0  0  0
    6.2485   46.2919   29.7228 H   0  0  0  0  0  0  0  0  0  0  0  0
    4.9258   46.2681   30.9266 H   0  0  0  0  0  0  0  0  0  0  0  0
    6.2696   47.7318   32.4232 H   0  0  0  0  0  0  0  0  0  0  0  0
    6.1263   50.0517   32.7217 H   0  0  0  0  0  0  0  0  0  0  0  0
    7.3347   51.3433   32.5802 H   0  0  0  0  0  0  0  0  0  0  0  0
    6.4204   48.9203   34.7585 H   0  0  0  0  0  0  0  0  0  0  0  0
    7.8050   47.8354   36.4721 H   0  0  0  0  0  0  0  0  0  0  0  0
   11.3639   48.9947   34.4012 H   0  0  0  0  0  0  0  0  0  0  0  0
   10.2712   47.8654   36.2909 H   0  0  0  0  0  0  0  0  0  0  0  0
    9.7450   40.0145   31.9263 H   0  0  0  0  0  0  0  0  0  0  0  0
   11.2097   41.0418   31.8831 H   0  0  0  0  0  0  0  0  0  0  0  0
   11.6265   39.0456   30.5888 H   0  0  0  0  0  0  0  0  0  0  0  0
   10.7064   37.5573   33.1484 H   0  0  0  0  0  0  0  0  0  0  0  0
   14.2021   37.4484   31.5573 H   0  0  0  0  0  0  0  0  0  0  0  0
   10.0952   37.3990   30.3433 H   0  0  0  0  0  0  0  0  0  0  0  0
   12.1163   35.7744   32.5633 H   0  0  0  0  0  0  0  0  0  0  0  0
   12.9615   35.5349   30.5311 H   0  0  0  0  0  0  0  0  0  0  0  0
   12.4321   38.3982   34.8705 H   0  0  0  0  0  0  0  0  0  0  0  0
   17.2669   34.4143   33.1690 H   0  0  0  0  0  0  0  0  0  0  0  0
   15.3761   36.1862   37.9792 H   0  0  0  0  0  0  0  0  0  0  0  0
   16.7641   35.0598   37.7896 H   0  0  0  0  0  0  0  0  0  0  0  0
  1  2  2  0
  1  3  1  0
  3  4  1  0
  4  5  1  0
  6  1  1  0
  7  6  1  0
  6  8  1  0
  8  9  1  0
  9 10  1  0
 10 11  1  0
 11 12  1  0
 12 13  1  0
 13 14  1  0
 13 15  2  0
 14 16  1  0
 16 17  1  0
 17 18  2  0
 19 17  1  0
 18 20  1  0
 21 19  2  0
 19 22  1  0
 20 23  2  0
 23 21  1  0
 22 24  1  0
 22 25  2  0
  4 26  2  0
  4 27  1  0
 28 27  1  0
 28 29  1  0
 29 30  1  0
 29 31  1  0
 30 32  1  0
 31 33  1  0
 31 34  1  0
 34 32  1  0
 32 35  1  0
 34 36  1  0
 37 35  1  0
 38 35  1  0
 39 37  2  0
 37 40  1  0
 41 38  2  0
 42 39  1  0
 40 43  2  0
 40 41  1  0
 44 42  2  0
 44 43  1  0
 43 45  1  0
  6 46  1  6
  7 47  1  0
  7 48  1  0
  8 49  1  0
  8 50  1  0
  9 51  1  0
  9 52  1  0
 10 53  1  0
 10 54  1  0
 11 55  1  0
 11 56  1  0
 12 57  1  0
 16 58  1  0
 16 59  1  0
 18 60  1  0
 20 61  1  0
 21 62  1  0
 23 63  1  0
 28 64  1  0
 28 65  1  0
 29 66  1  0
 31 67  1  0
 32 68  1  0
 33 69  1  0
 34 70  1  0
 36 71  1  0
 38 72  1  0
 42 73  1  0
 45 74  1  0
 45 75  1  0
M  CHG  3   5  -1  22   1  24  -1
M  END
>  <EmbedRMS>  (192) 
0.0746036976686

$$$$

     RDKit          3D

 75 78  0  0  0  0  0  0  0  0999 V2000
    9.4330   42.9366   34.3465 C   0  0  0  0  0  0  0  0  0  0  0  0
   10.4907   43.0330   35.0318 O   0  0  0  0  0  0  0  0  0  0  0  0
    8.8554   41.7104   34.0310 O   0  0  0  0  0  0  0  0  0  0  0  0
    9.4930   40.2142   34.4706 P   0  0  0  0  0  0  0  0  0  0  0  0
    9.7296   40.1727   36.1315 O   0  0  0  0  0  0  0  0  0  0  0  0
    8.7506   44.1348   33.7742 C   0  0  1  0  0  0  0  0  0  0  0  0
    9.2963   45.3821   34.3133 N   0  0  0  0  0  0  0  0  0  0  0  0
    8.8893   44.0527   32.2359 C   0  0  0  0  0  0  0  0  0  0  0  0
    8.2028   45.1823   31.4615 C   0  0  0  0  0  0  0  0  0  0  0  0
    6.6653   45.1046   31.4856 C   0  0  0  0  0  0  0  0  0  0  0  0
    6.0270   46.3226   30.8106 C   0  0  0  0  0  0  0  0  0  0  0  0
    6.5064   47.5640   31.4180 N   0  0  0  0  0  0  0  0  0  0  0  0
    7.2437   48.5391   30.6835 C   0  0  0  0  0  0  0  0  0  0  0  0
    7.5930   49.7401   31.3061 O   0  0  0  0  0  0  0  0  0  0  0  0
    7.5934   48.3117   29.4936 O   0  0  0  0  0  0  0  0  0  0  0  0
    8.3361   50.7614   30.6475 C   0  0  0  0  0  0  0  0  0  0  0  0
    8.5142   51.9392   31.5731 C   0  0  0  0  0  0  0  0  0  0  0  0
    9.8206   52.3637   31.8806 C   0  0  0  0  0  0  0  0  0  0  0  0
    7.4101   52.6028   32.1745 C   0  0  0  0  0  0  0  0  0  0  0  0
   10.0375   53.4155   32.7714 C   0  0  0  0  0  0  0  0  0  0  0  0
    7.6535   53.6511   33.0814 C   0  0  0  0  0  0  0  0  0  0  0  0
    6.0495   52.2203   31.8993 N   0  0  0  0  0  0  0  0  0  0  0  0
    8.9566   54.0554   33.3734 C   0  0  0  0  0  0  0  0  0  0  0  0
    5.6570   51.8814   30.6256 O   0  0  0  0  0  0  0  0  0  0  0  0
    5.1745   52.3461   32.7811 O   0  0  0  0  0  0  0  0  0  0  0  0
    8.5366   39.1382   34.0139 O   0  0  0  0  0  0  0  0  0  0  0  0
   10.9785   40.0883   33.6869 O   0  0  0  0  0  0  0  0  0  0  0  0
   10.7973   40.0895   32.2883 C   0  0  0  0  0  0  0  0  0  0  0  0
   11.5882   38.9234   31.7043 C   0  0  0  0  0  0  0  0  0  0  0  0
   12.9230   38.9440   32.1728 O   0  0  0  0  0  0  0  0  0  0  0  0
   11.0048   37.5703   32.0916 C   0  0  0  0  0  0  0  0  0  0  0  0
   13.3570   37.5960   32.2595 C   0  0  0  0  0  0  0  0  0  0  0  0
    9.9332   37.1986   31.2676 O   0  0  0  0  0  0  0  0  0  0  0  0
   12.1965   36.6751   31.8949 C   0  0  0  0  0  0  0  0  0  0  0  0
   13.8037   37.2979   33.6187 N   0  0  0  0  0  0  0  0  0  0  0  0
   12.2935   36.2389   30.5581 O   0  0  0  0  0  0  0  0  0  0  0  0
   14.7929   36.4726   33.9860 C   0  0  0  0  0  0  0  0  0  0  0  0
   13.2755   37.7304   34.7934 C   0  0  0  0  0  0  0  0  0  0  0  0
   15.6244   35.7585   33.1859 N   0  0  0  0  0  0  0  0  0  0  0  0
   14.8722   36.4406   35.3328 C   0  0  0  0  0  0  0  0  0  0  0  0
   13.9205   37.2262   35.8803 N   0  0  0  0  0  0  0  0  0  0  0  0
   16.5872   34.9923   33.7802 C   0  0  0  0  0  0  0  0  0  0  0  0
   15.8573   35.6715   35.9442 C   0  0  0  0  0  0  0  0  0  0  0  0
   16.7023   34.9584   35.1439 N   0  0  0  0  0  0  0  0  0  0  0  0
   16.0098   35.6384   37.3563 N   0  0  0  0  0  0  0  0  0  0  0  0
    7.6770   44.0708   34.0504 H   0  0  0  0  0  0  0  0  0  0  0  0
    9.1827   45.3822   35.3535 H   0  0  0  0  0  0  0  0  0  0  0  0
   10.3192   45.4407   34.1000 H   0  0  0  0  0  0  0  0  0  0  0  0
    8.4816   43.0850   31.8670 H   0  0  0  0  0  0  0  0  0  0  0  0
    9.9711   44.0680   31.9740 H   0  0  0  0  0  0  0  0  0  0  0  0
    8.5384   45.1361   30.4022 H   0  0  0  0  0  0  0  0  0  0  0  0
    8.5552   46.1509   31.8742 H   0  0  0  0  0  0  0  0  0  0  0  0
    6.3295   44.1800   30.9679 H   0  0  0  0  0  0  0  0  0  0  0  0
    6.3020   45.0644   32.5334 H   0  0  0  0  0  0  0  0  0  0  0  0
    6.2464   46.2898   29.7217 H   0  0  0  0  0  0  0  0  0  0  0  0
    4.9235   46.2674   30.9266 H   0  0  0  0  0  0  0  0  0  0  0  0
    6.2816   47.7535   32.4207 H   0  0  0  0  0  0  0  0  0  0  0  0
    7.8121   51.0864   29.7244 H   0  0  0  0  0  0  0  0  0  0  0  0
    9.3197   50.3457   30.3364 H   0  0  0  0  0  0  0  0  0  0  0  0
   10.6787   51.8747   31.4362 H   0  0  0  0  0  0  0  0  0  0  0  0
   11.0475   53.7308   33.0001 H   0  0  0  0  0  0  0  0  0  0  0  0
    6.8282   54.1684   33.5543 H   0  0  0  0  0  0  0  0  0  0  0  0
    9.1280   54.8684   34.0671 H   0  0  0  0  0  0  0  0  0  0  0  0
    9.7422   40.0186   31.9315 H   0  0  0  0  0  0  0  0  0  0  0  0
   11.2113   41.0390   31.8862 H   0  0  0  0  0  0  0  0  0  0  0  0
   11.5931   39.0396   30.5966 H   0  0  0  0  0  0  0  0  0  0  0  0
   10.6986   37.5585   33.1640 H   0  0  0  0  0  0  0  0  0  0  0  0
   14.2072   37.4493   31.5564 H   0  0  0  0  0  0  0  0  0  0  0  0
    9.5321   36.3881   31.6771 H   0  0  0  0  0  0  0  0  0  0  0  0
   12.1344   35.7837   32.5582 H   0  0  0  0  0  0  0  0  0  0  0  0
   12.4641   37.0179   29.9674 H   0  0  0  0  0  0  0  0  0  0  0  0
   12.4333   38.4005   34.8692 H   0  0  0  0  0  0  0  0  0  0  0  0
   17.2668   34.4144   33.1692 H   0  0  0  0  0  0  0  0  0  0  0  0
   15.3755   36.1866   37.9789 H   0  0  0  0  0  0  0  0  0  0  0  0
   16.7634   35.0600   37.7896 H   0  0  0  0  0  0  0  0  0  0  0  0
  1  2  2  0
  1  3  1  0
  3  4  1  0
  4  5  1  0
  6  1  1  0
  7  6  1  0
  6  8  1  0
  8  9  1  0
  9 10  1  0
 10 11  1  0
 11 12  1  0
 12 13  1  0
 13 14  1  0
 13 15  2  0
 14 16  1  0
 16 17  1  0
 17 18  2  0
 19 17  1  0
 18 20  1  0
 21 19  2  0
 19 22  1  0
 20 23  2  0
 23 21  1  0
 22 24  1  0
 22 25  2  0
  4 26  2  0
  4 27  1  0
 28 27  1  0
 28 29  1  0
 29 30  1  0
 29 31  1  0
 30 32  1  0
 31 33  1  0
 31 34  1  0
 34 32  1  0
 32 35  1  0
 34 36  1  0
 37 35  1  0
 38 35  1  0
 39 37  2  0
 37 40  1  0
 41 38  2  0
 42 39  1  0
 40 43  2  0
 40 41  1  0
 44 42  2  0
 44 43  1  0
 43 45  1  0
  6 46  1  6
  7 47  1  0
  7 48  1  0
  8 49  1  0
  8 50  1  0
  9 51  1  0
  9 52  1  0
 10 53  1  0
 10 54  1  0
 11 55  1  0
 11 56  1  0
 12 57  1  0
 16 58  1  0
 16 59  1  0
 18 60  1  0
 20 61  1  0
 21 62  1  0
 23 63  1  0
 28 64  1  0
 28 65  1  0
 29 66  1  0
 31 67  1  0
 32 68  1  0
 33 69  1  0
 34 70  1  0
 36 71  1  0
 38 72  1  0
 42 73  1  0
 45 74  1  0
 45 75  1  0
M  CHG  3   5  -1  22   1  24  -1
M  END
>  <EmbedRMS>  (193) 
0.0758788517061

$$$$

     RDKit          3D

 75 78  0  0  0  0  0  0  0  0999 V2000
    9.4337   42.9374   34.3450 C   0  0  0  0  0  0  0  0  0  0  0  0
   10.4908   43.0336   35.0312 O   0  0  0  0  0  0  0  0  0  0  0  0
    8.8564   41.7112   34.0287 O   0  0  0  0  0  0  0  0  0  0  0  0
    9.4941   40.2146   34.4676 P   0  0  0  0  0  0  0  0  0  0  0  0
    9.7309   40.1730   36.1287 O   0  0  0  0  0  0  0  0  0  0  0  0
    8.7514   44.1365   33.7732 C   0  0  1  0  0  0  0  0  0  0  0  0
    9.2971   45.3834   34.3132 N   0  0  0  0  0  0  0  0  0  0  0  0
    8.8901   44.0569   32.2349 C   0  0  0  0  0  0  0  0  0  0  0  0
    8.2020   45.1877   31.4625 C   0  0  0  0  0  0  0  0  0  0  0  0
    6.6642   45.1069   31.4851 C   0  0  0  0  0  0  0  0  0  0  0  0
    6.0208   46.3211   30.8055 C   0  0  0  0  0  0  0  0  0  0  0  0
    6.4884   47.5667   31.4130 N   0  0  0  0  0  0  0  0  0  0  0  0
    7.2742   48.5174   30.6982 C   0  0  0  0  0  0  0  0  0  0  0  0
    7.7683   49.6362   31.3760 O   0  0  0  0  0  0  0  0  0  0  0  0
    7.5863   48.3123   29.4937 O   0  0  0  0  0  0  0  0  0  0  0  0
    8.8557   50.4185   30.8859 C   0  0  0  0  0  0  0  0  0  0  0  0
   10.1290   49.5995   30.8856 C   0  0  0  0  0  0  0  0  0  0  0  0
   10.4520   48.8690   32.0446 C   0  0  0  0  0  0  0  0  0  0  0  0
   10.9624   49.4857   29.7433 C   0  0  0  0  0  0  0  0  0  0  0  0
   11.5457   48.0026   32.0599 C   0  0  0  0  0  0  0  0  0  0  0  0
   12.0515   48.5964   29.7727 C   0  0  0  0  0  0  0  0  0  0  0  0
   10.7391   50.2775   28.5663 N   0  0  0  0  0  0  0  0  0  0  0  0
   12.3380   47.8588   30.9225 C   0  0  0  0  0  0  0  0  0  0  0  0
   10.5483   51.6355   28.6782 O   0  0  0  0  0  0  0  0  0  0  0  0
   10.9448   49.7886   27.4363 O   0  0  0  0  0  0  0  0  0  0  0  0
    8.5369   39.1387   34.0121 O   0  0  0  0  0  0  0  0  0  0  0  0
   10.9794   40.0870   33.6826 O   0  0  0  0  0  0  0  0  0  0  0  0
   10.7997   40.0899   32.2829 C   0  0  0  0  0  0  0  0  0  0  0  0
   11.5968   38.9274   31.6962 C   0  0  0  0  0  0  0  0  0  0  0  0
   12.9243   38.9425   32.1784 O   0  0  0  0  0  0  0  0  0  0  0  0
   11.0086   37.5713   32.0780 C   0  0  0  0  0  0  0  0  0  0  0  0
   13.3528   37.5929   32.2623 C   0  0  0  0  0  0  0  0  0  0  0  0
    9.9098   37.1771   31.2925 O   0  0  0  0  0  0  0  0  0  0  0  0
   12.1943   36.6683   31.8995 C   0  0  0  0  0  0  0  0  0  0  0  0
   13.8019   37.2950   33.6199 N   0  0  0  0  0  0  0  0  0  0  0  0
   12.3027   36.2773   30.5558 O   0  0  0  0  0  0  0  0  0  0  0  0
   14.7926   36.4715   33.9864 C   0  0  0  0  0  0  0  0  0  0  0  0
   13.2749   37.7286   34.7946 C   0  0  0  0  0  0  0  0  0  0  0  0
   15.6239   35.7577   33.1860 N   0  0  0  0  0  0  0  0  0  0  0  0
   14.8727   36.4403   35.3332 C   0  0  0  0  0  0  0  0  0  0  0  0
   13.9210   37.2257   35.8811 N   0  0  0  0  0  0  0  0  0  0  0  0
   16.5873   34.9921   33.7802 C   0  0  0  0  0  0  0  0  0  0  0  0
   15.8579   35.6714   35.9444 C   0  0  0  0  0  0  0  0  0  0  0  0
   16.7028   34.9583   35.1439 N   0  0  0  0  0  0  0  0  0  0  0  0
   16.0104   35.6381   37.3564 N   0  0  0  0  0  0  0  0  0  0  0  0
    7.6777   44.0726   34.0492 H   0  0  0  0  0  0  0  0  0  0  0  0
    9.1853   45.3825   35.3535 H   0  0  0  0  0  0  0  0  0  0  0  0
   10.3196   45.4431   34.0981 H   0  0  0  0  0  0  0  0  0  0  0  0
    9.9720   44.0750   31.9732 H   0  0  0  0  0  0  0  0  0  0  0  0
    8.4841   43.0893   31.8642 H   0  0  0  0  0  0  0  0  0  0  0  0
    8.5516   46.1565   31.8778 H   0  0  0  0  0  0  0  0  0  0  0  0
    8.5391   45.1456   30.4036 H   0  0  0  0  0  0  0  0  0  0  0  0
    6.3003   45.0682   32.5328 H   0  0  0  0  0  0  0  0  0  0  0  0
    6.3315   44.1798   30.9698 H   0  0  0  0  0  0  0  0  0  0  0  0
    6.2457   46.2883   29.7179 H   0  0  0  0  0  0  0  0  0  0  0  0
    4.9172   46.2590   30.9158 H   0  0  0  0  0  0  0  0  0  0  0  0
    6.2691   47.7498   32.4180 H   0  0  0  0  0  0  0  0  0  0  0  0
    8.9950   51.2904   31.5586 H   0  0  0  0  0  0  0  0  0  0  0  0
    8.5900   50.8026   29.8807 H   0  0  0  0  0  0  0  0  0  0  0  0
    9.8349   48.9479   32.9315 H   0  0  0  0  0  0  0  0  0  0  0  0
   11.7729   47.4341   32.9524 H   0  0  0  0  0  0  0  0  0  0  0  0
   12.6948   48.4919   28.9081 H   0  0  0  0  0  0  0  0  0  0  0  0
   13.1833   47.1829   30.9350 H   0  0  0  0  0  0  0  0  0  0  0  0
    9.7450   40.0146   31.9261 H   0  0  0  0  0  0  0  0  0  0  0  0
   11.2097   41.0419   31.8829 H   0  0  0  0  0  0  0  0  0  0  0  0
   11.6265   39.0456   30.5888 H   0  0  0  0  0  0  0  0  0  0  0  0
   10.7064   37.5574   33.1484 H   0  0  0  0  0  0  0  0  0  0  0  0
   14.2021   37.4484   31.5573 H   0  0  0  0  0  0  0  0  0  0  0  0
   10.0952   37.3991   30.3433 H   0  0  0  0  0  0  0  0  0  0  0  0
   12.1163   35.7745   32.5634 H   0  0  0  0  0  0  0  0  0  0  0  0
   12.9614   35.5349   30.5312 H   0  0  0  0  0  0  0  0  0  0  0  0
   12.4321   38.3982   34.8705 H   0  0  0  0  0  0  0  0  0  0  0  0
   17.2669   34.4143   33.1690 H   0  0  0  0  0  0  0  0  0  0  0  0
   15.3761   36.1862   37.9792 H   0  0  0  0  0  0  0  0  0  0  0  0
   16.7641   35.0599   37.7896 H   0  0  0  0  0  0  0  0  0  0  0  0
  1  2  2  0
  1  3  1  0
  3  4  1  0
  4  5  1  0
  6  1  1  0
  7  6  1  0
  6  8  1  0
  8  9  1  0
  9 10  1  0
 10 11  1  0
 11 12  1  0
 12 13  1  0
 13 14  1  0
 13 15  2  0
 14 16  1  0
 16 17  1  0
 17 18  2  0
 19 17  1  0
 18 20  1  0
 21 19  2  0
 19 22  1  0
 20 23  2  0
 23 21  1  0
 22 24  1  0
 22 25  2  0
  4 26  2  0
  4 27  1  0
 28 27  1  0
 28 29  1  0
 29 30  1  0
 29 31  1  0
 30 32  1  0
 31 33  1  0
 31 34  1  0
 34 32  1  0
 32 35  1  0
 34 36  1  0
 37 35  1  0
 38 35  1  0
 39 37  2  0
 37 40  1  0
 41 38  2  0
 42 39  1  0
 40 43  2  0
 40 41  1  0
 44 42  2  0
 44 43  1  0
 43 45  1  0
  6 46  1  6
  7 47  1  0
  7 48  1  0
  8 49  1  0
  8 50  1  0
  9 51  1  0
  9 52  1  0
 10 53  1  0
 10 54  1  0
 11 55  1  0
 11 56  1  0
 12 57  1  0
 16 58  1  0
 16 59  1  0
 18 60  1  0
 20 61  1  0
 21 62  1  0
 23 63  1  0
 28 64  1  0
 28 65  1  0
 29 66  1  0
 31 67  1  0
 32 68  1  0
 33 69  1  0
 34 70  1  0
 36 71  1  0
 38 72  1  0
 42 73  1  0
 45 74  1  0
 45 75  1  0
M  CHG  3   5  -1  22   1  24  -1
M  END
>  <EmbedRMS>  (194) 
0.0758455400182

$$$$

     RDKit          3D

 75 78  0  0  0  0  0  0  0  0999 V2000
    9.4330   42.9355   34.3455 C   0  0  0  0  0  0  0  0  0  0  0  0
   10.4901   43.0325   35.0316 O   0  0  0  0  0  0  0  0  0  0  0  0
    8.8559   41.7095   34.0295 O   0  0  0  0  0  0  0  0  0  0  0  0
    9.4946   40.2137   34.4679 P   0  0  0  0  0  0  0  0  0  0  0  0
    9.7309   40.1727   36.1290 O   0  0  0  0  0  0  0  0  0  0  0  0
    8.7503   44.1333   33.7734 C   0  0  1  0  0  0  0  0  0  0  0  0
    9.2955   45.3790   34.3141 N   0  0  0  0  0  0  0  0  0  0  0  0
    8.8903   44.0532   32.2354 C   0  0  0  0  0  0  0  0  0  0  0  0
    8.2044   45.1845   31.4633 C   0  0  0  0  0  0  0  0  0  0  0  0
    6.6671   45.1057   31.4859 C   0  0  0  0  0  0  0  0  0  0  0  0
    6.0292   46.3251   30.8131 C   0  0  0  0  0  0  0  0  0  0  0  0
    6.5097   47.5656   31.4227 N   0  0  0  0  0  0  0  0  0  0  0  0
    7.2302   48.5511   30.6729 C   0  0  0  0  0  0  0  0  0  0  0  0
    7.5373   49.8079   31.2103 O   0  0  0  0  0  0  0  0  0  0  0  0
    7.5988   48.2993   29.4963 O   0  0  0  0  0  0  0  0  0  0  0  0
    7.1968   50.2357   32.5282 C   0  0  0  0  0  0  0  0  0  0  0  0
    8.1031   49.5952   33.5552 C   0  0  0  0  0  0  0  0  0  0  0  0
    9.4891   49.5865   33.3123 C   0  0  0  0  0  0  0  0  0  0  0  0
    7.6071   49.0058   34.7468 C   0  0  0  0  0  0  0  0  0  0  0  0
   10.3658   48.9757   34.2094 C   0  0  0  0  0  0  0  0  0  0  0  0
    8.5038   48.3824   35.6313 C   0  0  0  0  0  0  0  0  0  0  0  0
    6.2149   49.0621   35.0923 N   0  0  0  0  0  0  0  0  0  0  0  0
    9.8740   48.3719   35.3652 C   0  0  0  0  0  0  0  0  0  0  0  0
    5.5498   50.2670   35.0748 O   0  0  0  0  0  0  0  0  0  0  0  0
    5.6592   48.0722   35.6109 O   0  0  0  0  0  0  0  0  0  0  0  0
    8.5377   39.1376   34.0127 O   0  0  0  0  0  0  0  0  0  0  0  0
   10.9806   40.0879   33.6838 O   0  0  0  0  0  0  0  0  0  0  0  0
   10.8024   40.0900   32.2841 C   0  0  0  0  0  0  0  0  0  0  0  0
   11.5887   38.9175   31.7007 C   0  0  0  0  0  0  0  0  0  0  0  0
   12.9220   38.9373   32.1687 O   0  0  0  0  0  0  0  0  0  0  0  0
   11.0028   37.5682   32.0982 C   0  0  0  0  0  0  0  0  0  0  0  0
   13.3497   37.5886   32.2597 C   0  0  0  0  0  0  0  0  0  0  0  0
    9.9340   37.1822   31.2764 O   0  0  0  0  0  0  0  0  0  0  0  0
   12.1893   36.6679   31.9048 C   0  0  0  0  0  0  0  0  0  0  0  0
   13.8026   37.2967   33.6183 N   0  0  0  0  0  0  0  0  0  0  0  0
   12.2995   36.2870   30.5568 O   0  0  0  0  0  0  0  0  0  0  0  0
   14.7928   36.4723   33.9857 C   0  0  0  0  0  0  0  0  0  0  0  0
   13.2748   37.7297   34.7932 C   0  0  0  0  0  0  0  0  0  0  0  0
   15.6241   35.7578   33.1858 N   0  0  0  0  0  0  0  0  0  0  0  0
   14.8727   36.4412   35.3326 C   0  0  0  0  0  0  0  0  0  0  0  0
   13.9207   37.2266   35.8800 N   0  0  0  0  0  0  0  0  0  0  0  0
   16.5875   34.9922   33.7802 C   0  0  0  0  0  0  0  0  0  0  0  0
   15.8574   35.6718   35.9442 C   0  0  0  0  0  0  0  0  0  0  0  0
   16.7027   34.9588   35.1440 N   0  0  0  0  0  0  0  0  0  0  0  0
   16.0091   35.6380   37.3564 N   0  0  0  0  0  0  0  0  0  0  0  0
    7.6766   44.0693   34.0493 H   0  0  0  0  0  0  0  0  0  0  0  0
    9.1861   45.3738   35.3546 H   0  0  0  0  0  0  0  0  0  0  0  0
   10.3176   45.4407   34.0982 H   0  0  0  0  0  0  0  0  0  0  0  0
    9.9723   44.0693   31.9741 H   0  0  0  0  0  0  0  0  0  0  0  0
    8.4824   43.0862   31.8649 H   0  0  0  0  0  0  0  0  0  0  0  0
    8.5545   46.1521   31.8809 H   0  0  0  0  0  0  0  0  0  0  0  0
    8.5419   45.1425   30.4043 H   0  0  0  0  0  0  0  0  0  0  0  0
    6.3025   45.0633   32.5334 H   0  0  0  0  0  0  0  0  0  0  0  0
    6.3326   44.1820   30.9661 H   0  0  0  0  0  0  0  0  0  0  0  0
    6.2458   46.2930   29.7239 H   0  0  0  0  0  0  0  0  0  0  0  0
    4.9258   46.2707   30.9313 H   0  0  0  0  0  0  0  0  0  0  0  0
    6.2860   47.7263   32.4288 H   0  0  0  0  0  0  0  0  0  0  0  0
    6.1206   50.0388   32.7063 H   0  0  0  0  0  0  0  0  0  0  0  0
    7.3430   51.3345   32.5816 H   0  0  0  0  0  0  0  0  0  0  0  0
    9.8924   50.0458   32.4178 H   0  0  0  0  0  0  0  0  0  0  0  0
   11.4291   48.9690   34.0059 H   0  0  0  0  0  0  0  0  0  0  0  0
    8.1411   47.9253   36.5437 H   0  0  0  0  0  0  0  0  0  0  0  0
   10.5552   47.8961   36.0583 H   0  0  0  0  0  0  0  0  0  0  0  0
   11.2249   41.0361   31.8831 H   0  0  0  0  0  0  0  0  0  0  0  0
    9.7474   40.0336   31.9259 H   0  0  0  0  0  0  0  0  0  0  0  0
   11.5972   39.0150   30.5903 H   0  0  0  0  0  0  0  0  0  0  0  0
   10.7020   37.5449   33.1721 H   0  0  0  0  0  0  0  0  0  0  0  0
   14.1956   37.4363   31.5518 H   0  0  0  0  0  0  0  0  0  0  0  0
    9.1341   37.6667   31.6078 H   0  0  0  0  0  0  0  0  0  0  0  0
   12.1383   35.7721   32.5696 H   0  0  0  0  0  0  0  0  0  0  0  0
   11.7710   35.4534   30.4499 H   0  0  0  0  0  0  0  0  0  0  0  0
   12.4309   38.3979   34.8694 H   0  0  0  0  0  0  0  0  0  0  0  0
   17.2666   34.4135   33.1693 H   0  0  0  0  0  0  0  0  0  0  0  0
   16.7628   35.0603   37.7905 H   0  0  0  0  0  0  0  0  0  0  0  0
   15.3751   36.1872   37.9785 H   0  0  0  0  0  0  0  0  0  0  0  0
  1  2  2  0
  1  3  1  0
  3  4  1  0
  4  5  1  0
  6  1  1  0
  7  6  1  0
  6  8  1  0
  8  9  1  0
  9 10  1  0
 10 11  1  0
 11 12  1  0
 12 13  1  0
 13 14  1  0
 13 15  2  0
 14 16  1  0
 16 17  1  0
 17 18  2  0
 19 17  1  0
 18 20  1  0
 21 19  2  0
 19 22  1  0
 20 23  2  0
 23 21  1  0
 22 24  1  0
 22 25  2  0
  4 26  2  0
  4 27  1  0
 28 27  1  0
 28 29  1  0
 29 30  1  0
 29 31  1  0
 30 32  1  0
 31 33  1  0
 31 34  1  0
 34 32  1  0
 32 35  1  0
 34 36  1  0
 37 35  1  0
 38 35  1  0
 39 37  2  0
 37 40  1  0
 41 38  2  0
 42 39  1  0
 40 43  2  0
 40 41  1  0
 44 42  2  0
 44 43  1  0
 43 45  1  0
  6 46  1  6
  7 47  1  0
  7 48  1  0
  8 49  1  0
  8 50  1  0
  9 51  1  0
  9 52  1  0
 10 53  1  0
 10 54  1  0
 11 55  1  0
 11 56  1  0
 12 57  1  0
 16 58  1  0
 16 59  1  0
 18 60  1  0
 20 61  1  0
 21 62  1  0
 23 63  1  0
 28 64  1  0
 28 65  1  0
 29 66  1  0
 31 67  1  0
 32 68  1  0
 33 69  1  0
 34 70  1  0
 36 71  1  0
 38 72  1  0
 42 73  1  0
 45 74  1  0
 45 75  1  0
M  CHG  3   5  -1  22   1  24  -1
M  END
>  <EmbedRMS>  (195) 
0.07415196568

$$$$

     RDKit          3D

 75 78  0  0  0  0  0  0  0  0999 V2000
    9.4311   42.9412   34.3437 C   0  0  0  0  0  0  0  0  0  0  0  0
   10.4884   43.0411   35.0293 O   0  0  0  0  0  0  0  0  0  0  0  0
    8.8562   41.7129   34.0287 O   0  0  0  0  0  0  0  0  0  0  0  0
    9.4945   40.2162   34.4677 P   0  0  0  0  0  0  0  0  0  0  0  0
    9.7312   40.1740   36.1288 O   0  0  0  0  0  0  0  0  0  0  0  0
    8.7482   44.1362   33.7722 C   0  0  1  0  0  0  0  0  0  0  0  0
    9.3036   45.3668   34.3389 N   0  0  0  0  0  0  0  0  0  0  0  0
    8.8891   44.0522   32.2309 C   0  0  0  0  0  0  0  0  0  0  0  0
    8.2016   45.1727   31.4438 C   0  0  0  0  0  0  0  0  0  0  0  0
    6.6644   45.1060   31.4863 C   0  0  0  0  0  0  0  0  0  0  0  0
    6.0277   46.3240   30.8099 C   0  0  0  0  0  0  0  0  0  0  0  0
    6.5059   47.5638   31.4217 N   0  0  0  0  0  0  0  0  0  0  0  0
    7.2509   48.5405   30.6842 C   0  0  0  0  0  0  0  0  0  0  0  0
    7.6443   49.7520   31.2645 O   0  0  0  0  0  0  0  0  0  0  0  0
    7.5875   48.3087   29.4937 O   0  0  0  0  0  0  0  0  0  0  0  0
    7.3600   50.1182   32.6107 C   0  0  0  0  0  0  0  0  0  0  0  0
    7.9291   51.4851   32.8881 C   0  0  0  0  0  0  0  0  0  0  0  0
    9.1855   51.5742   33.5148 C   0  0  0  0  0  0  0  0  0  0  0  0
    7.2287   52.6774   32.5629 C   0  0  0  0  0  0  0  0  0  0  0  0
    9.7347   52.8160   33.8362 C   0  0  0  0  0  0  0  0  0  0  0  0
    7.7941   53.9185   32.9104 C   0  0  0  0  0  0  0  0  0  0  0  0
    5.9521   52.6519   31.8978 N   0  0  0  0  0  0  0  0  0  0  0  0
    9.0380   53.9855   33.5395 C   0  0  0  0  0  0  0  0  0  0  0  0
    5.7049   51.7536   30.8860 O   0  0  0  0  0  0  0  0  0  0  0  0
    5.1147   53.5517   32.1170 O   0  0  0  0  0  0  0  0  0  0  0  0
    8.5374   39.1401   34.0124 O   0  0  0  0  0  0  0  0  0  0  0  0
   10.9799   40.0879   33.6828 O   0  0  0  0  0  0  0  0  0  0  0  0
   10.8002   40.0907   32.2831 C   0  0  0  0  0  0  0  0  0  0  0  0
   11.5958   38.9271   31.6964 C   0  0  0  0  0  0  0  0  0  0  0  0
   12.9239   38.9409   32.1767 O   0  0  0  0  0  0  0  0  0  0  0  0
   11.0062   37.5720   32.0794 C   0  0  0  0  0  0  0  0  0  0  0  0
   13.3506   37.5906   32.2614 C   0  0  0  0  0  0  0  0  0  0  0  0
    9.9064   37.1793   31.2946 O   0  0  0  0  0  0  0  0  0  0  0  0
   12.1920   36.6672   31.9004 C   0  0  0  0  0  0  0  0  0  0  0  0
   13.8017   37.2948   33.6193 N   0  0  0  0  0  0  0  0  0  0  0  0
   12.3133   36.2788   30.5561 O   0  0  0  0  0  0  0  0  0  0  0  0
   14.7927   36.4717   33.9862 C   0  0  0  0  0  0  0  0  0  0  0  0
   13.2746   37.7284   34.7941 C   0  0  0  0  0  0  0  0  0  0  0  0
   15.6240   35.7576   33.1859 N   0  0  0  0  0  0  0  0  0  0  0  0
   14.8728   36.4406   35.3330 C   0  0  0  0  0  0  0  0  0  0  0  0
   13.9209   37.2258   35.8808 N   0  0  0  0  0  0  0  0  0  0  0  0
   16.5874   34.9920   33.7802 C   0  0  0  0  0  0  0  0  0  0  0  0
   15.8579   35.6716   35.9443 C   0  0  0  0  0  0  0  0  0  0  0  0
   16.7028   34.9584   35.1439 N   0  0  0  0  0  0  0  0  0  0  0  0
   16.0103   35.6383   37.3563 N   0  0  0  0  0  0  0  0  0  0  0  0
    7.6761   44.0638   34.0546 H   0  0  0  0  0  0  0  0  0  0  0  0
   10.2147   45.5887   33.8746 H   0  0  0  0  0  0  0  0  0  0  0  0
    8.6463   46.1563   34.1438 H   0  0  0  0  0  0  0  0  0  0  0  0
    8.4829   43.0822   31.8666 H   0  0  0  0  0  0  0  0  0  0  0  0
    9.9707   44.0645   31.9682 H   0  0  0  0  0  0  0  0  0  0  0  0
    8.5701   46.1493   31.8192 H   0  0  0  0  0  0  0  0  0  0  0  0
    8.5217   45.0978   30.3814 H   0  0  0  0  0  0  0  0  0  0  0  0
    6.3163   44.1801   30.9792 H   0  0  0  0  0  0  0  0  0  0  0  0
    6.3125   45.0760   32.5383 H   0  0  0  0  0  0  0  0  0  0  0  0
    4.9240   46.2686   30.9241 H   0  0  0  0  0  0  0  0  0  0  0  0
    6.2486   46.2917   29.7215 H   0  0  0  0  0  0  0  0  0  0  0  0
    6.2754   47.7255   32.4267 H   0  0  0  0  0  0  0  0  0  0  0  0
    7.8126   49.3680   33.2962 H   0  0  0  0  0  0  0  0  0  0  0  0
    6.2640   50.1149   32.7935 H   0  0  0  0  0  0  0  0  0  0  0  0
    9.7408   50.6777   33.7626 H   0  0  0  0  0  0  0  0  0  0  0  0
   10.7008   52.8708   34.3212 H   0  0  0  0  0  0  0  0  0  0  0  0
    7.2767   54.8405   32.6771 H   0  0  0  0  0  0  0  0  0  0  0  0
    9.4646   54.9475   33.7931 H   0  0  0  0  0  0  0  0  0  0  0  0
   11.2114   41.0421   31.8829 H   0  0  0  0  0  0  0  0  0  0  0  0
    9.7454   40.0168   31.9263 H   0  0  0  0  0  0  0  0  0  0  0  0
   11.6246   39.0449   30.5889 H   0  0  0  0  0  0  0  0  0  0  0  0
   10.7050   37.5581   33.1500 H   0  0  0  0  0  0  0  0  0  0  0  0
   14.1984   37.4426   31.5553 H   0  0  0  0  0  0  0  0  0  0  0  0
   10.0893   37.4058   30.3459 H   0  0  0  0  0  0  0  0  0  0  0  0
   12.1337   35.7754   32.5703 H   0  0  0  0  0  0  0  0  0  0  0  0
   11.7933   35.4394   30.4514 H   0  0  0  0  0  0  0  0  0  0  0  0
   12.4314   38.3973   34.8700 H   0  0  0  0  0  0  0  0  0  0  0  0
   17.2669   34.4142   33.1691 H   0  0  0  0  0  0  0  0  0  0  0  0
   16.7638   35.0599   37.7896 H   0  0  0  0  0  0  0  0  0  0  0  0
   15.3759   36.1864   37.9790 H   0  0  0  0  0  0  0  0  0  0  0  0
  1  2  2  0
  1  3  1  0
  3  4  1  0
  4  5  1  0
  6  1  1  0
  7  6  1  0
  6  8  1  0
  8  9  1  0
  9 10  1  0
 10 11  1  0
 11 12  1  0
 12 13  1  0
 13 14  1  0
 13 15  2  0
 14 16  1  0
 16 17  1  0
 17 18  2  0
 19 17  1  0
 18 20  1  0
 21 19  2  0
 19 22  1  0
 20 23  2  0
 23 21  1  0
 22 24  1  0
 22 25  2  0
  4 26  2  0
  4 27  1  0
 28 27  1  0
 28 29  1  0
 29 30  1  0
 29 31  1  0
 30 32  1  0
 31 33  1  0
 31 34  1  0
 34 32  1  0
 32 35  1  0
 34 36  1  0
 37 35  1  0
 38 35  1  0
 39 37  2  0
 37 40  1  0
 41 38  2  0
 42 39  1  0
 40 43  2  0
 40 41  1  0
 44 42  2  0
 44 43  1  0
 43 45  1  0
  6 46  1  6
  7 47  1  0
  7 48  1  0
  8 49  1  0
  8 50  1  0
  9 51  1  0
  9 52  1  0
 10 53  1  0
 10 54  1  0
 11 55  1  0
 11 56  1  0
 12 57  1  0
 16 58  1  0
 16 59  1  0
 18 60  1  0
 20 61  1  0
 21 62  1  0
 23 63  1  0
 28 64  1  0
 28 65  1  0
 29 66  1  0
 31 67  1  0
 32 68  1  0
 33 69  1  0
 34 70  1  0
 36 71  1  0
 38 72  1  0
 42 73  1  0
 45 74  1  0
 45 75  1  0
M  CHG  3   5  -1  22   1  24  -1
M  END
>  <EmbedRMS>  (196) 
0.0740688328503

$$$$

     RDKit          3D

 75 78  0  0  0  0  0  0  0  0999 V2000
    9.4334   42.9373   34.3454 C   0  0  0  0  0  0  0  0  0  0  0  0
   10.4908   43.0335   35.0313 O   0  0  0  0  0  0  0  0  0  0  0  0
    8.8559   41.7111   34.0294 O   0  0  0  0  0  0  0  0  0  0  0  0
    9.4942   40.2146   34.4675 P   0  0  0  0  0  0  0  0  0  0  0  0
    9.7316   40.1728   36.1285 O   0  0  0  0  0  0  0  0  0  0  0  0
    8.7511   44.1362   33.7735 C   0  0  1  0  0  0  0  0  0  0  0  0
    9.2970   45.3832   34.3130 N   0  0  0  0  0  0  0  0  0  0  0  0
    8.8895   44.0555   32.2351 C   0  0  0  0  0  0  0  0  0  0  0  0
    8.2021   45.1860   31.4620 C   0  0  0  0  0  0  0  0  0  0  0  0
    6.6644   45.1063   31.4851 C   0  0  0  0  0  0  0  0  0  0  0  0
    6.0227   46.3215   30.8065 C   0  0  0  0  0  0  0  0  0  0  0  0
    6.4934   47.5658   31.4142 N   0  0  0  0  0  0  0  0  0  0  0  0
    7.2657   48.5241   30.6942 C   0  0  0  0  0  0  0  0  0  0  0  0
    7.7162   49.6692   31.3581 O   0  0  0  0  0  0  0  0  0  0  0  0
    7.5884   48.3116   29.4946 O   0  0  0  0  0  0  0  0  0  0  0  0
    8.7200   50.5371   30.8340 C   0  0  0  0  0  0  0  0  0  0  0  0
   10.0528   49.8247   30.7656 C   0  0  0  0  0  0  0  0  0  0  0  0
   10.5355   49.2133   31.9376 C   0  0  0  0  0  0  0  0  0  0  0  0
   10.8549   49.8021   29.5949 C   0  0  0  0  0  0  0  0  0  0  0  0
   11.7803   48.5828   31.9532 C   0  0  0  0  0  0  0  0  0  0  0  0
   12.1151   49.1805   29.6362 C   0  0  0  0  0  0  0  0  0  0  0  0
   10.4194   50.4040   28.3672 N   0  0  0  0  0  0  0  0  0  0  0  0
   12.5704   48.5695   30.8054 C   0  0  0  0  0  0  0  0  0  0  0  0
    9.2362   50.0074   27.7894 O   0  0  0  0  0  0  0  0  0  0  0  0
   11.2193   51.0856   27.6934 O   0  0  0  0  0  0  0  0  0  0  0  0
    8.5370   39.1387   34.0123 O   0  0  0  0  0  0  0  0  0  0  0  0
   10.9792   40.0888   33.6813 O   0  0  0  0  0  0  0  0  0  0  0  0
   10.7977   40.0843   32.2817 C   0  0  0  0  0  0  0  0  0  0  0  0
   11.5897   38.9147   31.7008 C   0  0  0  0  0  0  0  0  0  0  0  0
   12.9218   38.9385   32.1717 O   0  0  0  0  0  0  0  0  0  0  0  0
   11.0070   37.5654   32.0975 C   0  0  0  0  0  0  0  0  0  0  0  0
   13.3533   37.5909   32.2610 C   0  0  0  0  0  0  0  0  0  0  0  0
    9.9333   37.1935   31.2754 O   0  0  0  0  0  0  0  0  0  0  0  0
   12.1945   36.6671   31.9040 C   0  0  0  0  0  0  0  0  0  0  0  0
   13.8036   37.2970   33.6193 N   0  0  0  0  0  0  0  0  0  0  0  0
   12.2893   36.2849   30.5562 O   0  0  0  0  0  0  0  0  0  0  0  0
   14.7931   36.4723   33.9863 C   0  0  0  0  0  0  0  0  0  0  0  0
   13.2756   37.7298   34.7940 C   0  0  0  0  0  0  0  0  0  0  0  0
   15.6242   35.7580   33.1861 N   0  0  0  0  0  0  0  0  0  0  0  0
   14.8727   36.4407   35.3331 C   0  0  0  0  0  0  0  0  0  0  0  0
   13.9210   37.2262   35.8807 N   0  0  0  0  0  0  0  0  0  0  0  0
   16.5872   34.9920   33.7803 C   0  0  0  0  0  0  0  0  0  0  0  0
   15.8577   35.6715   35.9444 C   0  0  0  0  0  0  0  0  0  0  0  0
   16.7025   34.9582   35.1440 N   0  0  0  0  0  0  0  0  0  0  0  0
   16.0101   35.6382   37.3564 N   0  0  0  0  0  0  0  0  0  0  0  0
    7.6775   44.0723   34.0498 H   0  0  0  0  0  0  0  0  0  0  0  0
   10.3191   45.4441   34.0959 H   0  0  0  0  0  0  0  0  0  0  0  0
    9.1869   45.3819   35.3535 H   0  0  0  0  0  0  0  0  0  0  0  0
    8.4825   43.0879   31.8653 H   0  0  0  0  0  0  0  0  0  0  0  0
    9.9713   44.0721   31.9731 H   0  0  0  0  0  0  0  0  0  0  0  0
    8.5386   45.1424   30.4030 H   0  0  0  0  0  0  0  0  0  0  0  0
    8.5528   46.1550   31.8762 H   0  0  0  0  0  0  0  0  0  0  0  0
    6.3308   44.1798   30.9694 H   0  0  0  0  0  0  0  0  0  0  0  0
    6.3007   45.0674   32.5329 H   0  0  0  0  0  0  0  0  0  0  0  0
    6.2465   46.2886   29.7186 H   0  0  0  0  0  0  0  0  0  0  0  0
    4.9191   46.2612   30.9180 H   0  0  0  0  0  0  0  0  0  0  0  0
    6.2721   47.7506   32.4185 H   0  0  0  0  0  0  0  0  0  0  0  0
    8.3879   50.9500   29.8622 H   0  0  0  0  0  0  0  0  0  0  0  0
    8.8251   51.3999   31.5249 H   0  0  0  0  0  0  0  0  0  0  0  0
    9.9446   49.2276   32.8454 H   0  0  0  0  0  0  0  0  0  0  0  0
   12.1359   48.1107   32.8601 H   0  0  0  0  0  0  0  0  0  0  0  0
   12.7395   49.1559   28.7519 H   0  0  0  0  0  0  0  0  0  0  0  0
   13.5382   48.0851   30.8211 H   0  0  0  0  0  0  0  0  0  0  0  0
   11.2112   41.0320   31.8753 H   0  0  0  0  0  0  0  0  0  0  0  0
    9.7422   40.0118   31.9265 H   0  0  0  0  0  0  0  0  0  0  0  0
   11.6005   39.0120   30.5904 H   0  0  0  0  0  0  0  0  0  0  0  0
   10.7015   37.5593   33.1701 H   0  0  0  0  0  0  0  0  0  0  0  0
   14.2012   37.4438   31.5552 H   0  0  0  0  0  0  0  0  0  0  0  0
    9.5289   36.3869   31.6895 H   0  0  0  0  0  0  0  0  0  0  0  0
   12.1243   35.7694   32.5633 H   0  0  0  0  0  0  0  0  0  0  0  0
   12.9478   35.5427   30.5202 H   0  0  0  0  0  0  0  0  0  0  0  0
   12.4328   38.3993   34.8697 H   0  0  0  0  0  0  0  0  0  0  0  0
   17.2667   34.4140   33.1692 H   0  0  0  0  0  0  0  0  0  0  0  0
   15.3759   36.1865   37.9791 H   0  0  0  0  0  0  0  0  0  0  0  0
   16.7636   35.0598   37.7897 H   0  0  0  0  0  0  0  0  0  0  0  0
  1  2  2  0
  1  3  1  0
  3  4  1  0
  4  5  1  0
  6  1  1  0
  7  6  1  0
  6  8  1  0
  8  9  1  0
  9 10  1  0
 10 11  1  0
 11 12  1  0
 12 13  1  0
 13 14  1  0
 13 15  2  0
 14 16  1  0
 16 17  1  0
 17 18  2  0
 19 17  1  0
 18 20  1  0
 21 19  2  0
 19 22  1  0
 20 23  2  0
 23 21  1  0
 22 24  1  0
 22 25  2  0
  4 26  2  0
  4 27  1  0
 28 27  1  0
 28 29  1  0
 29 30  1  0
 29 31  1  0
 30 32  1  0
 31 33  1  0
 31 34  1  0
 34 32  1  0
 32 35  1  0
 34 36  1  0
 37 35  1  0
 38 35  1  0
 39 37  2  0
 37 40  1  0
 41 38  2  0
 42 39  1  0
 40 43  2  0
 40 41  1  0
 44 42  2  0
 44 43  1  0
 43 45  1  0
  6 46  1  6
  7 47  1  0
  7 48  1  0
  8 49  1  0
  8 50  1  0
  9 51  1  0
  9 52  1  0
 10 53  1  0
 10 54  1  0
 11 55  1  0
 11 56  1  0
 12 57  1  0
 16 58  1  0
 16 59  1  0
 18 60  1  0
 20 61  1  0
 21 62  1  0
 23 63  1  0
 28 64  1  0
 28 65  1  0
 29 66  1  0
 31 67  1  0
 32 68  1  0
 33 69  1  0
 34 70  1  0
 36 71  1  0
 38 72  1  0
 42 73  1  0
 45 74  1  0
 45 75  1  0
M  CHG  3   5  -1  22   1  24  -1
M  END
>  <EmbedRMS>  (197) 
0.0750781998874

$$$$

     RDKit          3D

 75 78  0  0  0  0  0  0  0  0999 V2000
    9.4337   42.9374   34.3450 C   0  0  0  0  0  0  0  0  0  0  0  0
   10.4908   43.0336   35.0312 O   0  0  0  0  0  0  0  0  0  0  0  0
    8.8564   41.7112   34.0287 O   0  0  0  0  0  0  0  0  0  0  0  0
    9.4942   40.2146   34.4676 P   0  0  0  0  0  0  0  0  0  0  0  0
    9.7308   40.1730   36.1287 O   0  0  0  0  0  0  0  0  0  0  0  0
    8.7514   44.1366   33.7733 C   0  0  1  0  0  0  0  0  0  0  0  0
    9.2971   45.3834   34.3132 N   0  0  0  0  0  0  0  0  0  0  0  0
    8.8901   44.0569   32.2349 C   0  0  0  0  0  0  0  0  0  0  0  0
    8.2020   45.1877   31.4625 C   0  0  0  0  0  0  0  0  0  0  0  0
    6.6642   45.1069   31.4851 C   0  0  0  0  0  0  0  0  0  0  0  0
    6.0208   46.3211   30.8055 C   0  0  0  0  0  0  0  0  0  0  0  0
    6.4884   47.5667   31.4130 N   0  0  0  0  0  0  0  0  0  0  0  0
    7.2742   48.5174   30.6982 C   0  0  0  0  0  0  0  0  0  0  0  0
    7.7683   49.6362   31.3760 O   0  0  0  0  0  0  0  0  0  0  0  0
    7.5864   48.3123   29.4937 O   0  0  0  0  0  0  0  0  0  0  0  0
    8.8562   50.4180   30.8861 C   0  0  0  0  0  0  0  0  0  0  0  0
   10.1294   49.5982   30.8873 C   0  0  0  0  0  0  0  0  0  0  0  0
   10.4517   48.8721   32.0493 C   0  0  0  0  0  0  0  0  0  0  0  0
   10.9642   49.4789   29.7453 C   0  0  0  0  0  0  0  0  0  0  0  0
   11.5442   48.0043   32.0681 C   0  0  0  0  0  0  0  0  0  0  0  0
   12.0502   48.5874   29.7783 C   0  0  0  0  0  0  0  0  0  0  0  0
   10.7447   50.2596   28.5604 N   0  0  0  0  0  0  0  0  0  0  0  0
   12.3359   47.8543   30.9312 C   0  0  0  0  0  0  0  0  0  0  0  0
   10.9962   49.7111   27.3240 O   0  0  0  0  0  0  0  0  0  0  0  0
   10.5662   51.4920   28.6474 O   0  0  0  0  0  0  0  0  0  0  0  0
    8.5370   39.1388   34.0120 O   0  0  0  0  0  0  0  0  0  0  0  0
   10.9797   40.0871   33.6829 O   0  0  0  0  0  0  0  0  0  0  0  0
   10.8003   40.0906   32.2832 C   0  0  0  0  0  0  0  0  0  0  0  0
   11.5958   38.9271   31.6963 C   0  0  0  0  0  0  0  0  0  0  0  0
   12.9239   38.9409   32.1766 O   0  0  0  0  0  0  0  0  0  0  0  0
   11.0062   37.5719   32.0793 C   0  0  0  0  0  0  0  0  0  0  0  0
   13.3507   37.5905   32.2614 C   0  0  0  0  0  0  0  0  0  0  0  0
    9.9064   37.1793   31.2946 O   0  0  0  0  0  0  0  0  0  0  0  0
   12.1920   36.6672   31.9003 C   0  0  0  0  0  0  0  0  0  0  0  0
   13.8017   37.2948   33.6193 N   0  0  0  0  0  0  0  0  0  0  0  0
   12.3133   36.2788   30.5560 O   0  0  0  0  0  0  0  0  0  0  0  0
   14.7927   36.4717   33.9861 C   0  0  0  0  0  0  0  0  0  0  0  0
   13.2746   37.7284   34.7941 C   0  0  0  0  0  0  0  0  0  0  0  0
   15.6240   35.7576   33.1859 N   0  0  0  0  0  0  0  0  0  0  0  0
   14.8728   36.4406   35.3330 C   0  0  0  0  0  0  0  0  0  0  0  0
   13.9209   37.2258   35.8807 N   0  0  0  0  0  0  0  0  0  0  0  0
   16.5874   34.9920   33.7802 C   0  0  0  0  0  0  0  0  0  0  0  0
   15.8579   35.6716   35.9443 C   0  0  0  0  0  0  0  0  0  0  0  0
   16.7028   34.9584   35.1439 N   0  0  0  0  0  0  0  0  0  0  0  0
   16.0103   35.6383   37.3563 N   0  0  0  0  0  0  0  0  0  0  0  0
    7.6777   44.0726   34.0492 H   0  0  0  0  0  0  0  0  0  0  0  0
   10.3196   45.4431   34.0981 H   0  0  0  0  0  0  0  0  0  0  0  0
    9.1852   45.3825   35.3535 H   0  0  0  0  0  0  0  0  0  0  0  0
    8.4841   43.0893   31.8643 H   0  0  0  0  0  0  0  0  0  0  0  0
    9.9720   44.0751   31.9732 H   0  0  0  0  0  0  0  0  0  0  0  0
    8.5391   45.1455   30.4036 H   0  0  0  0  0  0  0  0  0  0  0  0
    8.5516   46.1565   31.8777 H   0  0  0  0  0  0  0  0  0  0  0  0
    6.3003   45.0682   32.5328 H   0  0  0  0  0  0  0  0  0  0  0  0
    6.3315   44.1798   30.9698 H   0  0  0  0  0  0  0  0  0  0  0  0
    6.2457   46.2883   29.7178 H   0  0  0  0  0  0  0  0  0  0  0  0
    4.9172   46.2590   30.9158 H   0  0  0  0  0  0  0  0  0  0  0  0
    6.2691   47.7498   32.4180 H   0  0  0  0  0  0  0  0  0  0  0  0
    8.9954   51.2898   31.5588 H   0  0  0  0  0  0  0  0  0  0  0  0
    8.5901   50.8028   29.8814 H   0  0  0  0  0  0  0  0  0  0  0  0
    9.8348   48.9553   32.9359 H   0  0  0  0  0  0  0  0  0  0  0  0
   11.7707   47.4392   32.9630 H   0  0  0  0  0  0  0  0  0  0  0  0
   12.6929   48.4775   28.9139 H   0  0  0  0  0  0  0  0  0  0  0  0
   13.1798   47.1768   30.9462 H   0  0  0  0  0  0  0  0  0  0  0  0
    9.7456   40.0169   31.9261 H   0  0  0  0  0  0  0  0  0  0  0  0
   11.2117   41.0421   31.8834 H   0  0  0  0  0  0  0  0  0  0  0  0
   11.6246   39.0450   30.5888 H   0  0  0  0  0  0  0  0  0  0  0  0
   10.7050   37.5580   33.1499 H   0  0  0  0  0  0  0  0  0  0  0  0
   14.1985   37.4426   31.5553 H   0  0  0  0  0  0  0  0  0  0  0  0
   10.0893   37.4057   30.3459 H   0  0  0  0  0  0  0  0  0  0  0  0
   12.1337   35.7754   32.5703 H   0  0  0  0  0  0  0  0  0  0  0  0
   11.7934   35.4394   30.4514 H   0  0  0  0  0  0  0  0  0  0  0  0
   12.4314   38.3973   34.8700 H   0  0  0  0  0  0  0  0  0  0  0  0
   17.2669   34.4142   33.1692 H   0  0  0  0  0  0  0  0  0  0  0  0
   15.3759   36.1865   37.9790 H   0  0  0  0  0  0  0  0  0  0  0  0
   16.7638   35.0599   37.7896 H   0  0  0  0  0  0  0  0  0  0  0  0
  1  2  2  0
  1  3  1  0
  3  4  1  0
  4  5  1  0
  6  1  1  0
  7  6  1  0
  6  8  1  0
  8  9  1  0
  9 10  1  0
 10 11  1  0
 11 12  1  0
 12 13  1  0
 13 14  1  0
 13 15  2  0
 14 16  1  0
 16 17  1  0
 17 18  2  0
 19 17  1  0
 18 20  1  0
 21 19  2  0
 19 22  1  0
 20 23  2  0
 23 21  1  0
 22 24  1  0
 22 25  2  0
  4 26  2  0
  4 27  1  0
 28 27  1  0
 28 29  1  0
 29 30  1  0
 29 31  1  0
 30 32  1  0
 31 33  1  0
 31 34  1  0
 34 32  1  0
 32 35  1  0
 34 36  1  0
 37 35  1  0
 38 35  1  0
 39 37  2  0
 37 40  1  0
 41 38  2  0
 42 39  1  0
 40 43  2  0
 40 41  1  0
 44 42  2  0
 44 43  1  0
 43 45  1  0
  6 46  1  6
  7 47  1  0
  7 48  1  0
  8 49  1  0
  8 50  1  0
  9 51  1  0
  9 52  1  0
 10 53  1  0
 10 54  1  0
 11 55  1  0
 11 56  1  0
 12 57  1  0
 16 58  1  0
 16 59  1  0
 18 60  1  0
 20 61  1  0
 21 62  1  0
 23 63  1  0
 28 64  1  0
 28 65  1  0
 29 66  1  0
 31 67  1  0
 32 68  1  0
 33 69  1  0
 34 70  1  0
 36 71  1  0
 38 72  1  0
 42 73  1  0
 45 74  1  0
 45 75  1  0
M  CHG  3   5  -1  22   1  24  -1
M  END
>  <EmbedRMS>  (198) 
0.0760313468156

$$$$

     RDKit          3D

 75 78  0  0  0  0  0  0  0  0999 V2000
    9.4330   42.9367   34.3463 C   0  0  0  0  0  0  0  0  0  0  0  0
   10.4905   43.0333   35.0319 O   0  0  0  0  0  0  0  0  0  0  0  0
    8.8562   41.7105   34.0297 O   0  0  0  0  0  0  0  0  0  0  0  0
    9.4945   40.2143   34.4680 P   0  0  0  0  0  0  0  0  0  0  0  0
    9.7309   40.1727   36.1291 O   0  0  0  0  0  0  0  0  0  0  0  0
    8.7502   44.1350   33.7741 C   0  0  1  0  0  0  0  0  0  0  0  0
    9.2956   45.3824   34.3132 N   0  0  0  0  0  0  0  0  0  0  0  0
    8.8891   44.0526   32.2359 C   0  0  0  0  0  0  0  0  0  0  0  0
    8.2031   45.1822   31.4613 C   0  0  0  0  0  0  0  0  0  0  0  0
    6.6656   45.1032   31.4819 C   0  0  0  0  0  0  0  0  0  0  0  0
    6.0281   46.3239   30.8103 C   0  0  0  0  0  0  0  0  0  0  0  0
    6.5101   47.5618   31.4225 N   0  0  0  0  0  0  0  0  0  0  0  0
    7.2429   48.5448   30.6813 C   0  0  0  0  0  0  0  0  0  0  0  0
    7.6086   49.7732   31.2494 O   0  0  0  0  0  0  0  0  0  0  0  0
    7.5905   48.3072   29.4952 O   0  0  0  0  0  0  0  0  0  0  0  0
    7.2761   50.1873   32.5744 C   0  0  0  0  0  0  0  0  0  0  0  0
    5.7929   50.4610   32.6990 C   0  0  0  0  0  0  0  0  0  0  0  0
    5.1759   51.2549   31.7150 C   0  0  0  0  0  0  0  0  0  0  0  0
    5.0011   49.9215   33.7471 C   0  0  0  0  0  0  0  0  0  0  0  0
    3.7971   51.4697   31.7338 C   0  0  0  0  0  0  0  0  0  0  0  0
    3.6117   50.1306   33.7367 C   0  0  0  0  0  0  0  0  0  0  0  0
    5.5811   49.1816   34.8322 N   0  0  0  0  0  0  0  0  0  0  0  0
    3.0149   50.8993   32.7365 C   0  0  0  0  0  0  0  0  0  0  0  0
    4.9085   48.1043   35.3612 O   0  0  0  0  0  0  0  0  0  0  0  0
    6.5606   49.6443   35.4524 O   0  0  0  0  0  0  0  0  0  0  0  0
    8.5372   39.1387   34.0125 O   0  0  0  0  0  0  0  0  0  0  0  0
   10.9804   40.0881   33.6837 O   0  0  0  0  0  0  0  0  0  0  0  0
   10.8025   40.0900   32.2839 C   0  0  0  0  0  0  0  0  0  0  0  0
   11.5888   38.9174   31.7007 C   0  0  0  0  0  0  0  0  0  0  0  0
   12.9219   38.9373   32.1692 O   0  0  0  0  0  0  0  0  0  0  0  0
   11.0028   37.5682   32.0980 C   0  0  0  0  0  0  0  0  0  0  0  0
   13.3496   37.5885   32.2601 C   0  0  0  0  0  0  0  0  0  0  0  0
    9.9343   37.1822   31.2756 O   0  0  0  0  0  0  0  0  0  0  0  0
   12.1891   36.6677   31.9049 C   0  0  0  0  0  0  0  0  0  0  0  0
   13.8025   37.2965   33.6186 N   0  0  0  0  0  0  0  0  0  0  0  0
   12.2991   36.2867   30.5567 O   0  0  0  0  0  0  0  0  0  0  0  0
   14.7929   36.4725   33.9858 C   0  0  0  0  0  0  0  0  0  0  0  0
   13.2749   37.7294   34.7935 C   0  0  0  0  0  0  0  0  0  0  0  0
   15.6240   35.7580   33.1858 N   0  0  0  0  0  0  0  0  0  0  0  0
   14.8727   36.4411   35.3327 C   0  0  0  0  0  0  0  0  0  0  0  0
   13.9208   37.2263   35.8803 N   0  0  0  0  0  0  0  0  0  0  0  0
   16.5871   34.9921   33.7801 C   0  0  0  0  0  0  0  0  0  0  0  0
   15.8576   35.6718   35.9441 C   0  0  0  0  0  0  0  0  0  0  0  0
   16.7024   34.9584   35.1438 N   0  0  0  0  0  0  0  0  0  0  0  0
   16.0099   35.6384   37.3562 N   0  0  0  0  0  0  0  0  0  0  0  0
    7.6765   44.0709   34.0501 H   0  0  0  0  0  0  0  0  0  0  0  0
   10.3187   45.4408   34.1008 H   0  0  0  0  0  0  0  0  0  0  0  0
    9.1809   45.3830   35.3533 H   0  0  0  0  0  0  0  0  0  0  0  0
    8.4814   43.0850   31.8669 H   0  0  0  0  0  0  0  0  0  0  0  0
    9.9710   44.0678   31.9742 H   0  0  0  0  0  0  0  0  0  0  0  0
    8.5543   46.1506   31.8758 H   0  0  0  0  0  0  0  0  0  0  0  0
    8.5409   45.1377   30.4027 H   0  0  0  0  0  0  0  0  0  0  0  0
    6.3314   44.1805   30.9600 H   0  0  0  0  0  0  0  0  0  0  0  0
    6.3002   45.0586   32.5289 H   0  0  0  0  0  0  0  0  0  0  0  0
    6.2448   46.2940   29.7210 H   0  0  0  0  0  0  0  0  0  0  0  0
    4.9248   46.2699   30.9290 H   0  0  0  0  0  0  0  0  0  0  0  0
    6.3030   47.7085   32.4338 H   0  0  0  0  0  0  0  0  0  0  0  0
    7.6442   49.4250   33.2892 H   0  0  0  0  0  0  0  0  0  0  0  0
    7.8206   51.1302   32.7898 H   0  0  0  0  0  0  0  0  0  0  0  0
    5.7634   51.6927   30.9171 H   0  0  0  0  0  0  0  0  0  0  0  0
    3.3332   52.0728   30.9640 H   0  0  0  0  0  0  0  0  0  0  0  0
    2.9917   49.7182   34.5227 H   0  0  0  0  0  0  0  0  0  0  0  0
    1.9450   51.0629   32.7460 H   0  0  0  0  0  0  0  0  0  0  0  0
   11.2258   41.0357   31.8829 H   0  0  0  0  0  0  0  0  0  0  0  0
    9.7476   40.0331   31.9256 H   0  0  0  0  0  0  0  0  0  0  0  0
   11.5974   39.0148   30.5904 H   0  0  0  0  0  0  0  0  0  0  0  0
   10.7023   37.5455   33.1719 H   0  0  0  0  0  0  0  0  0  0  0  0
   14.1957   37.4366   31.5528 H   0  0  0  0  0  0  0  0  0  0  0  0
    9.1340   37.6658   31.6069 H   0  0  0  0  0  0  0  0  0  0  0  0
   12.1381   35.7717   32.5697 H   0  0  0  0  0  0  0  0  0  0  0  0
   11.7707   35.4530   30.4496 H   0  0  0  0  0  0  0  0  0  0  0  0
   12.4314   38.3980   34.8694 H   0  0  0  0  0  0  0  0  0  0  0  0
   17.2665   34.4140   33.1691 H   0  0  0  0  0  0  0  0  0  0  0  0
   16.7633   35.0598   37.7895 H   0  0  0  0  0  0  0  0  0  0  0  0
   15.3757   36.1868   37.9789 H   0  0  0  0  0  0  0  0  0  0  0  0
  1  2  2  0
  1  3  1  0
  3  4  1  0
  4  5  1  0
  6  1  1  0
  7  6  1  0
  6  8  1  0
  8  9  1  0
  9 10  1  0
 10 11  1  0
 11 12  1  0
 12 13  1  0
 13 14  1  0
 13 15  2  0
 14 16  1  0
 16 17  1  0
 17 18  2  0
 19 17  1  0
 18 20  1  0
 21 19  2  0
 19 22  1  0
 20 23  2  0
 23 21  1  0
 22 24  1  0
 22 25  2  0
  4 26  2  0
  4 27  1  0
 28 27  1  0
 28 29  1  0
 29 30  1  0
 29 31  1  0
 30 32  1  0
 31 33  1  0
 31 34  1  0
 34 32  1  0
 32 35  1  0
 34 36  1  0
 37 35  1  0
 38 35  1  0
 39 37  2  0
 37 40  1  0
 41 38  2  0
 42 39  1  0
 40 43  2  0
 40 41  1  0
 44 42  2  0
 44 43  1  0
 43 45  1  0
  6 46  1  6
  7 47  1  0
  7 48  1  0
  8 49  1  0
  8 50  1  0
  9 51  1  0
  9 52  1  0
 10 53  1  0
 10 54  1  0
 11 55  1  0
 11 56  1  0
 12 57  1  0
 16 58  1  0
 16 59  1  0
 18 60  1  0
 20 61  1  0
 21 62  1  0
 23 63  1  0
 28 64  1  0
 28 65  1  0
 29 66  1  0
 31 67  1  0
 32 68  1  0
 33 69  1  0
 34 70  1  0
 36 71  1  0
 38 72  1  0
 42 73  1  0
 45 74  1  0
 45 75  1  0
M  CHG  3   5  -1  22   1  24  -1
M  END
>  <EmbedRMS>  (199) 
0.0740400244196

$$$$

     RDKit          3D

 75 78  0  0  0  0  0  0  0  0999 V2000
    9.4316   42.9408   34.3434 C   0  0  0  0  0  0  0  0  0  0  0  0
   10.4886   43.0406   35.0296 O   0  0  0  0  0  0  0  0  0  0  0  0
    8.8563   41.7126   34.0288 O   0  0  0  0  0  0  0  0  0  0  0  0
    9.4947   40.2162   34.4679 P   0  0  0  0  0  0  0  0  0  0  0  0
    9.7311   40.1741   36.1290 O   0  0  0  0  0  0  0  0  0  0  0  0
    8.7493   44.1354   33.7712 C   0  0  1  0  0  0  0  0  0  0  0  0
    9.3046   45.3656   34.3365 N   0  0  0  0  0  0  0  0  0  0  0  0
    8.8900   44.0523   32.2301 C   0  0  0  0  0  0  0  0  0  0  0  0
    8.2019   45.1727   31.4424 C   0  0  0  0  0  0  0  0  0  0  0  0
    6.6650   45.1094   31.4909 C   0  0  0  0  0  0  0  0  0  0  0  0
    6.0286   46.3247   30.8103 C   0  0  0  0  0  0  0  0  0  0  0  0
    6.5012   47.5682   31.4204 N   0  0  0  0  0  0  0  0  0  0  0  0
    7.2350   48.5483   30.6786 C   0  0  0  0  0  0  0  0  0  0  0  0
    7.5613   49.7992   31.2194 O   0  0  0  0  0  0  0  0  0  0  0  0
    7.6024   48.2969   29.5012 O   0  0  0  0  0  0  0  0  0  0  0  0
    7.1850   50.2820   32.5091 C   0  0  0  0  0  0  0  0  0  0  0  0
    8.0451   49.6929   33.6071 C   0  0  0  0  0  0  0  0  0  0  0  0
    7.4177   48.9096   34.5960 C   0  0  0  0  0  0  0  0  0  0  0  0
    9.4316   49.9948   33.7448 C   0  0  0  0  0  0  0  0  0  0  0  0
    8.1419   48.3975   35.6719 C   0  0  0  0  0  0  0  0  0  0  0  0
   10.1408   49.4600   34.8364 C   0  0  0  0  0  0  0  0  0  0  0  0
   10.1249   50.8886   32.8517 N   0  0  0  0  0  0  0  0  0  0  0  0
    9.5032   48.6619   35.7854 C   0  0  0  0  0  0  0  0  0  0  0  0
   11.1856   51.6323   33.3164 O   0  0  0  0  0  0  0  0  0  0  0  0
    9.8810   50.9012   31.6292 O   0  0  0  0  0  0  0  0  0  0  0  0
    8.5375   39.1403   34.0127 O   0  0  0  0  0  0  0  0  0  0  0  0
   10.9806   40.0888   33.6836 O   0  0  0  0  0  0  0  0  0  0  0  0
   10.8025   40.0902   32.2838 C   0  0  0  0  0  0  0  0  0  0  0  0
   11.5888   38.9175   31.7008 C   0  0  0  0  0  0  0  0  0  0  0  0
   12.9219   38.9373   32.1692 O   0  0  0  0  0  0  0  0  0  0  0  0
   11.0028   37.5683   32.0981 C   0  0  0  0  0  0  0  0  0  0  0  0
   13.3496   37.5885   32.2601 C   0  0  0  0  0  0  0  0  0  0  0  0
    9.9343   37.1823   31.2757 O   0  0  0  0  0  0  0  0  0  0  0  0
   12.1890   36.6677   31.9050 C   0  0  0  0  0  0  0  0  0  0  0  0
   13.8025   37.2965   33.6186 N   0  0  0  0  0  0  0  0  0  0  0  0
   12.2990   36.2867   30.5568 O   0  0  0  0  0  0  0  0  0  0  0  0
   14.7929   36.4725   33.9858 C   0  0  0  0  0  0  0  0  0  0  0  0
   13.2749   37.7294   34.7935 C   0  0  0  0  0  0  0  0  0  0  0  0
   15.6240   35.7580   33.1858 N   0  0  0  0  0  0  0  0  0  0  0  0
   14.8727   36.4411   35.3327 C   0  0  0  0  0  0  0  0  0  0  0  0
   13.9208   37.2263   35.8803 N   0  0  0  0  0  0  0  0  0  0  0  0
   16.5871   34.9921   33.7801 C   0  0  0  0  0  0  0  0  0  0  0  0
   15.8576   35.6718   35.9441 C   0  0  0  0  0  0  0  0  0  0  0  0
   16.7024   34.9585   35.1438 N   0  0  0  0  0  0  0  0  0  0  0  0
   16.0100   35.6384   37.3562 N   0  0  0  0  0  0  0  0  0  0  0  0
    7.6773   44.0639   34.0539 H   0  0  0  0  0  0  0  0  0  0  0  0
    8.6597   46.1548   34.1090 H   0  0  0  0  0  0  0  0  0  0  0  0
   10.2272   45.5737   33.8887 H   0  0  0  0  0  0  0  0  0  0  0  0
    8.4841   43.0821   31.8657 H   0  0  0  0  0  0  0  0  0  0  0  0
    9.9715   44.0651   31.9673 H   0  0  0  0  0  0  0  0  0  0  0  0
    8.5735   46.1508   31.8109 H   0  0  0  0  0  0  0  0  0  0  0  0
    8.5175   45.0929   30.3790 H   0  0  0  0  0  0  0  0  0  0  0  0
    6.3132   44.1814   30.9902 H   0  0  0  0  0  0  0  0  0  0  0  0
    6.3169   45.0865   32.5444 H   0  0  0  0  0  0  0  0  0  0  0  0
    4.9246   46.2670   30.9207 H   0  0  0  0  0  0  0  0  0  0  0  0
    6.2524   46.2899   29.7225 H   0  0  0  0  0  0  0  0  0  0  0  0
    6.2429   47.7428   32.4132 H   0  0  0  0  0  0  0  0  0  0  0  0
    6.1024   50.0914   32.6759 H   0  0  0  0  0  0  0  0  0  0  0  0
    7.3094   51.3852   32.5227 H   0  0  0  0  0  0  0  0  0  0  0  0
    6.3553   48.7063   34.5490 H   0  0  0  0  0  0  0  0  0  0  0  0
    7.6450   47.7923   36.4193 H   0  0  0  0  0  0  0  0  0  0  0  0
   11.1966   49.6668   34.9572 H   0  0  0  0  0  0  0  0  0  0  0  0
   10.0642   48.2592   36.6188 H   0  0  0  0  0  0  0  0  0  0  0  0
   11.2257   41.0358   31.8826 H   0  0  0  0  0  0  0  0  0  0  0  0
    9.7476   40.0332   31.9256 H   0  0  0  0  0  0  0  0  0  0  0  0
   11.5975   39.0148   30.5905 H   0  0  0  0  0  0  0  0  0  0  0  0
   10.7023   37.5457   33.1720 H   0  0  0  0  0  0  0  0  0  0  0  0
   14.1957   37.4366   31.5528 H   0  0  0  0  0  0  0  0  0  0  0  0
    9.1339   37.6659   31.6070 H   0  0  0  0  0  0  0  0  0  0  0  0
   12.1380   35.7718   32.5698 H   0  0  0  0  0  0  0  0  0  0  0  0
   11.7706   35.4530   30.4497 H   0  0  0  0  0  0  0  0  0  0  0  0
   12.4314   38.3979   34.8694 H   0  0  0  0  0  0  0  0  0  0  0  0
   17.2665   34.4140   33.1691 H   0  0  0  0  0  0  0  0  0  0  0  0
   16.7634   35.0599   37.7895 H   0  0  0  0  0  0  0  0  0  0  0  0
   15.3757   36.1868   37.9788 H   0  0  0  0  0  0  0  0  0  0  0  0
  1  2  2  0
  1  3  1  0
  3  4  1  0
  4  5  1  0
  6  1  1  0
  7  6  1  0
  6  8  1  0
  8  9  1  0
  9 10  1  0
 10 11  1  0
 11 12  1  0
 12 13  1  0
 13 14  1  0
 13 15  2  0
 14 16  1  0
 16 17  1  0
 17 18  2  0
 19 17  1  0
 18 20  1  0
 21 19  2  0
 19 22  1  0
 20 23  2  0
 23 21  1  0
 22 24  1  0
 22 25  2  0
  4 26  2  0
  4 27  1  0
 28 27  1  0
 28 29  1  0
 29 30  1  0
 29 31  1  0
 30 32  1  0
 31 33  1  0
 31 34  1  0
 34 32  1  0
 32 35  1  0
 34 36  1  0
 37 35  1  0
 38 35  1  0
 39 37  2  0
 37 40  1  0
 41 38  2  0
 42 39  1  0
 40 43  2  0
 40 41  1  0
 44 42  2  0
 44 43  1  0
 43 45  1  0
  6 46  1  6
  7 47  1  0
  7 48  1  0
  8 49  1  0
  8 50  1  0
  9 51  1  0
  9 52  1  0
 10 53  1  0
 10 54  1  0
 11 55  1  0
 11 56  1  0
 12 57  1  0
 16 58  1  0
 16 59  1  0
 18 60  1  0
 20 61  1  0
 21 62  1  0
 23 63  1  0
 28 64  1  0
 28 65  1  0
 29 66  1  0
 31 67  1  0
 32 68  1  0
 33 69  1  0
 34 70  1  0
 36 71  1  0
 38 72  1  0
 42 73  1  0
 45 74  1  0
 45 75  1  0
M  CHG  3   5  -1  22   1  24  -1
M  END
>  <EmbedRMS>  (200) 
0.0736741161641

$$$$

     RDKit          3D

 75 78  0  0  0  0  0  0  0  0999 V2000
    9.4333   42.9368   34.3460 C   0  0  0  0  0  0  0  0  0  0  0  0
   10.4908   43.0332   35.0318 O   0  0  0  0  0  0  0  0  0  0  0  0
    8.8563   41.7106   34.0295 O   0  0  0  0  0  0  0  0  0  0  0  0
    9.4945   40.2143   34.4680 P   0  0  0  0  0  0  0  0  0  0  0  0
    9.7308   40.1727   36.1291 O   0  0  0  0  0  0  0  0  0  0  0  0
    8.7507   44.1352   33.7740 C   0  0  1  0  0  0  0  0  0  0  0  0
    9.2964   45.3824   34.3132 N   0  0  0  0  0  0  0  0  0  0  0  0
    8.8893   44.0534   32.2357 C   0  0  0  0  0  0  0  0  0  0  0  0
    8.2026   45.1832   31.4617 C   0  0  0  0  0  0  0  0  0  0  0  0
    6.6651   45.1048   31.4852 C   0  0  0  0  0  0  0  0  0  0  0  0
    6.0260   46.3221   30.8094 C   0  0  0  0  0  0  0  0  0  0  0  0
    6.5036   47.5640   31.4171 N   0  0  0  0  0  0  0  0  0  0  0  0
    7.2500   48.5351   30.6867 C   0  0  0  0  0  0  0  0  0  0  0  0
    7.6307   49.7194   31.3225 O   0  0  0  0  0  0  0  0  0  0  0  0
    7.5910   48.3130   29.4932 O   0  0  0  0  0  0  0  0  0  0  0  0
    8.4279   50.7125   30.6865 C   0  0  0  0  0  0  0  0  0  0  0  0
    8.7223   51.8200   31.6638 C   0  0  0  0  0  0  0  0  0  0  0  0
    7.9350   52.9848   31.6159 C   0  0  0  0  0  0  0  0  0  0  0  0
    9.7802   51.7343   32.6084 C   0  0  0  0  0  0  0  0  0  0  0  0
    8.1963   54.0568   32.4701 C   0  0  0  0  0  0  0  0  0  0  0  0
   10.0357   52.8335   33.4494 C   0  0  0  0  0  0  0  0  0  0  0  0
   10.6075   50.5610   32.7201 N   0  0  0  0  0  0  0  0  0  0  0  0
    9.2476   53.9832   33.3815 C   0  0  0  0  0  0  0  0  0  0  0  0
   10.0613   49.3027   32.6190 O   0  0  0  0  0  0  0  0  0  0  0  0
   11.7999   50.6685   33.0741 O   0  0  0  0  0  0  0  0  0  0  0  0
    8.5372   39.1387   34.0124 O   0  0  0  0  0  0  0  0  0  0  0  0
   10.9804   40.0881   33.6837 O   0  0  0  0  0  0  0  0  0  0  0  0
   10.8025   40.0900   32.2838 C   0  0  0  0  0  0  0  0  0  0  0  0
   11.5888   38.9174   31.7007 C   0  0  0  0  0  0  0  0  0  0  0  0
   12.9219   38.9373   32.1692 O   0  0  0  0  0  0  0  0  0  0  0  0
   11.0028   37.5682   32.0980 C   0  0  0  0  0  0  0  0  0  0  0  0
   13.3496   37.5885   32.2601 C   0  0  0  0  0  0  0  0  0  0  0  0
    9.9343   37.1822   31.2756 O   0  0  0  0  0  0  0  0  0  0  0  0
   12.1891   36.6677   31.9049 C   0  0  0  0  0  0  0  0  0  0  0  0
   13.8025   37.2965   33.6186 N   0  0  0  0  0  0  0  0  0  0  0  0
   12.2991   36.2867   30.5568 O   0  0  0  0  0  0  0  0  0  0  0  0
   14.7929   36.4725   33.9858 C   0  0  0  0  0  0  0  0  0  0  0  0
   13.2749   37.7294   34.7935 C   0  0  0  0  0  0  0  0  0  0  0  0
   15.6240   35.7580   33.1858 N   0  0  0  0  0  0  0  0  0  0  0  0
   14.8727   36.4411   35.3327 C   0  0  0  0  0  0  0  0  0  0  0  0
   13.9208   37.2263   35.8803 N   0  0  0  0  0  0  0  0  0  0  0  0
   16.5871   34.9921   33.7801 C   0  0  0  0  0  0  0  0  0  0  0  0
   15.8576   35.6718   35.9441 C   0  0  0  0  0  0  0  0  0  0  0  0
   16.7024   34.9584   35.1438 N   0  0  0  0  0  0  0  0  0  0  0  0
   16.0100   35.6384   37.3562 N   0  0  0  0  0  0  0  0  0  0  0  0
    7.6771   44.0710   34.0503 H   0  0  0  0  0  0  0  0  0  0  0  0
    9.1835   45.3823   35.3535 H   0  0  0  0  0  0  0  0  0  0  0  0
   10.3190   45.4416   34.0991 H   0  0  0  0  0  0  0  0  0  0  0  0
    9.9711   44.0690   31.9738 H   0  0  0  0  0  0  0  0  0  0  0  0
    8.4817   43.0857   31.8666 H   0  0  0  0  0  0  0  0  0  0  0  0
    8.5544   46.1519   31.8751 H   0  0  0  0  0  0  0  0  0  0  0  0
    8.5386   45.1379   30.4026 H   0  0  0  0  0  0  0  0  0  0  0  0
    6.3301   44.1797   30.9677 H   0  0  0  0  0  0  0  0  0  0  0  0
    6.3014   45.0646   32.5329 H   0  0  0  0  0  0  0  0  0  0  0  0
    4.9225   46.2659   30.9244 H   0  0  0  0  0  0  0  0  0  0  0  0
    6.2466   46.2895   29.7208 H   0  0  0  0  0  0  0  0  0  0  0  0
    6.2815   47.7511   32.4208 H   0  0  0  0  0  0  0  0  0  0  0  0
    9.3761   50.2701   30.3114 H   0  0  0  0  0  0  0  0  0  0  0  0
    7.8797   51.1066   29.8025 H   0  0  0  0  0  0  0  0  0  0  0  0
    7.1178   53.0673   30.9097 H   0  0  0  0  0  0  0  0  0  0  0  0
    7.5848   54.9486   32.4215 H   0  0  0  0  0  0  0  0  0  0  0  0
   10.8394   52.7935   34.1737 H   0  0  0  0  0  0  0  0  0  0  0  0
    9.4505   54.8176   34.0406 H   0  0  0  0  0  0  0  0  0  0  0  0
    9.7476   40.0331   31.9256 H   0  0  0  0  0  0  0  0  0  0  0  0
   11.2258   41.0357   31.8830 H   0  0  0  0  0  0  0  0  0  0  0  0
   11.5975   39.0148   30.5904 H   0  0  0  0  0  0  0  0  0  0  0  0
   10.7023   37.5455   33.1719 H   0  0  0  0  0  0  0  0  0  0  0  0
   14.1957   37.4366   31.5528 H   0  0  0  0  0  0  0  0  0  0  0  0
    9.1340   37.6658   31.6069 H   0  0  0  0  0  0  0  0  0  0  0  0
   12.1380   35.7717   32.5697 H   0  0  0  0  0  0  0  0  0  0  0  0
   11.7707   35.4530   30.4496 H   0  0  0  0  0  0  0  0  0  0  0  0
   12.4314   38.3980   34.8694 H   0  0  0  0  0  0  0  0  0  0  0  0
   17.2665   34.4140   33.1691 H   0  0  0  0  0  0  0  0  0  0  0  0
   15.3757   36.1867   37.9789 H   0  0  0  0  0  0  0  0  0  0  0  0
   16.7634   35.0598   37.7895 H   0  0  0  0  0  0  0  0  0  0  0  0
  1  2  2  0
  1  3  1  0
  3  4  1  0
  4  5  1  0
  6  1  1  0
  7  6  1  0
  6  8  1  0
  8  9  1  0
  9 10  1  0
 10 11  1  0
 11 12  1  0
 12 13  1  0
 13 14  1  0
 13 15  2  0
 14 16  1  0
 16 17  1  0
 17 18  2  0
 19 17  1  0
 18 20  1  0
 21 19  2  0
 19 22  1  0
 20 23  2  0
 23 21  1  0
 22 24  1  0
 22 25  2  0
  4 26  2  0
  4 27  1  0
 28 27  1  0
 28 29  1  0
 29 30  1  0
 29 31  1  0
 30 32  1  0
 31 33  1  0
 31 34  1  0
 34 32  1  0
 32 35  1  0
 34 36  1  0
 37 35  1  0
 38 35  1  0
 39 37  2  0
 37 40  1  0
 41 38  2  0
 42 39  1  0
 40 43  2  0
 40 41  1  0
 44 42  2  0
 44 43  1  0
 43 45  1  0
  6 46  1  6
  7 47  1  0
  7 48  1  0
  8 49  1  0
  8 50  1  0
  9 51  1  0
  9 52  1  0
 10 53  1  0
 10 54  1  0
 11 55  1  0
 11 56  1  0
 12 57  1  0
 16 58  1  0
 16 59  1  0
 18 60  1  0
 20 61  1  0
 21 62  1  0
 23 63  1  0
 28 64  1  0
 28 65  1  0
 29 66  1  0
 31 67  1  0
 32 68  1  0
 33 69  1  0
 34 70  1  0
 36 71  1  0
 38 72  1  0
 42 73  1  0
 45 74  1  0
 45 75  1  0
M  CHG  3   5  -1  22   1  24  -1
M  END
>  <EmbedRMS>  (201) 
0.0743795430419

$$$$

     RDKit          3D

 75 78  0  0  0  0  0  0  0  0999 V2000
    9.4311   42.9413   34.3438 C   0  0  0  0  0  0  0  0  0  0  0  0
   10.4885   43.0412   35.0294 O   0  0  0  0  0  0  0  0  0  0  0  0
    8.8562   41.7130   34.0288 O   0  0  0  0  0  0  0  0  0  0  0  0
    9.4947   40.2164   34.4679 P   0  0  0  0  0  0  0  0  0  0  0  0
    9.7310   40.1742   36.1290 O   0  0  0  0  0  0  0  0  0  0  0  0
    8.7482   44.1363   33.7722 C   0  0  1  0  0  0  0  0  0  0  0  0
    9.3036   45.3669   34.3389 N   0  0  0  0  0  0  0  0  0  0  0  0
    8.8891   44.0522   32.2309 C   0  0  0  0  0  0  0  0  0  0  0  0
    8.2016   45.1727   31.4438 C   0  0  0  0  0  0  0  0  0  0  0  0
    6.6644   45.1061   31.4864 C   0  0  0  0  0  0  0  0  0  0  0  0
    6.0277   46.3239   30.8099 C   0  0  0  0  0  0  0  0  0  0  0  0
    6.5058   47.5639   31.4216 N   0  0  0  0  0  0  0  0  0  0  0  0
    7.2509   48.5405   30.6841 C   0  0  0  0  0  0  0  0  0  0  0  0
    7.6452   49.7517   31.2649 O   0  0  0  0  0  0  0  0  0  0  0  0
    7.5875   48.3088   29.4937 O   0  0  0  0  0  0  0  0  0  0  0  0
    7.3635   50.1174   32.6131 C   0  0  0  0  0  0  0  0  0  0  0  0
    7.9850   51.4598   32.9144 C   0  0  0  0  0  0  0  0  0  0  0  0
    9.3456   51.6457   32.6073 C   0  0  0  0  0  0  0  0  0  0  0  0
    7.2478   52.5420   33.4646 C   0  0  0  0  0  0  0  0  0  0  0  0
    9.9552   52.8875   32.7916 C   0  0  0  0  0  0  0  0  0  0  0  0
    7.8736   53.7903   33.6226 C   0  0  0  0  0  0  0  0  0  0  0  0
    5.8862   52.3927   33.8948 N   0  0  0  0  0  0  0  0  0  0  0  0
    9.2177   53.9608   33.2879 C   0  0  0  0  0  0  0  0  0  0  0  0
    4.9955   53.4251   33.7112 O   0  0  0  0  0  0  0  0  0  0  0  0
    5.5702   51.4528   34.6531 O   0  0  0  0  0  0  0  0  0  0  0  0
    8.5375   39.1405   34.0127 O   0  0  0  0  0  0  0  0  0  0  0  0
   10.9805   40.0889   33.6836 O   0  0  0  0  0  0  0  0  0  0  0  0
   10.8025   40.0902   32.2837 C   0  0  0  0  0  0  0  0  0  0  0  0
   11.5888   38.9175   31.7008 C   0  0  0  0  0  0  0  0  0  0  0  0
   12.9219   38.9374   32.1693 O   0  0  0  0  0  0  0  0  0  0  0  0
   11.0028   37.5683   32.0981 C   0  0  0  0  0  0  0  0  0  0  0  0
   13.3496   37.5886   32.2601 C   0  0  0  0  0  0  0  0  0  0  0  0
    9.9343   37.1823   31.2757 O   0  0  0  0  0  0  0  0  0  0  0  0
   12.1891   36.6677   31.9050 C   0  0  0  0  0  0  0  0  0  0  0  0
   13.8025   37.2965   33.6186 N   0  0  0  0  0  0  0  0  0  0  0  0
   12.2990   36.2868   30.5568 O   0  0  0  0  0  0  0  0  0  0  0  0
   14.7929   36.4725   33.9858 C   0  0  0  0  0  0  0  0  0  0  0  0
   13.2749   37.7294   34.7935 C   0  0  0  0  0  0  0  0  0  0  0  0
   15.6240   35.7580   33.1858 N   0  0  0  0  0  0  0  0  0  0  0  0
   14.8727   36.4411   35.3327 C   0  0  0  0  0  0  0  0  0  0  0  0
   13.9208   37.2263   35.8803 N   0  0  0  0  0  0  0  0  0  0  0  0
   16.5871   34.9921   33.7801 C   0  0  0  0  0  0  0  0  0  0  0  0
   15.8576   35.6718   35.9441 C   0  0  0  0  0  0  0  0  0  0  0  0
   16.7024   34.9584   35.1438 N   0  0  0  0  0  0  0  0  0  0  0  0
   16.0099   35.6384   37.3562 N   0  0  0  0  0  0  0  0  0  0  0  0
    7.6761   44.0638   34.0546 H   0  0  0  0  0  0  0  0  0  0  0  0
   10.2147   45.5888   33.8745 H   0  0  0  0  0  0  0  0  0  0  0  0
    8.6463   46.1563   34.1437 H   0  0  0  0  0  0  0  0  0  0  0  0
    8.4828   43.0822   31.8666 H   0  0  0  0  0  0  0  0  0  0  0  0
    9.9707   44.0645   31.9681 H   0  0  0  0  0  0  0  0  0  0  0  0
    8.5702   46.1493   31.8192 H   0  0  0  0  0  0  0  0  0  0  0  0
    8.5217   45.0978   30.3814 H   0  0  0  0  0  0  0  0  0  0  0  0
    6.3164   44.1800   30.9794 H   0  0  0  0  0  0  0  0  0  0  0  0
    6.3126   45.0761   32.5385 H   0  0  0  0  0  0  0  0  0  0  0  0
    6.2488   46.2916   29.7215 H   0  0  0  0  0  0  0  0  0  0  0  0
    4.9240   46.2685   30.9240 H   0  0  0  0  0  0  0  0  0  0  0  0
    6.2745   47.7260   32.4264 H   0  0  0  0  0  0  0  0  0  0  0  0
    7.8034   49.3640   33.3019 H   0  0  0  0  0  0  0  0  0  0  0  0
    6.2638   50.1293   32.7460 H   0  0  0  0  0  0  0  0  0  0  0  0
    9.9326   50.8285   32.2056 H   0  0  0  0  0  0  0  0  0  0  0  0
   11.0000   53.0195   32.5414 H   0  0  0  0  0  0  0  0  0  0  0  0
    7.3246   54.6281   34.0339 H   0  0  0  0  0  0  0  0  0  0  0  0
    9.6913   54.9243   33.4256 H   0  0  0  0  0  0  0  0  0  0  0  0
    9.7476   40.0332   31.9256 H   0  0  0  0  0  0  0  0  0  0  0  0
   11.2257   41.0358   31.8825 H   0  0  0  0  0  0  0  0  0  0  0  0
   11.5975   39.0148   30.5905 H   0  0  0  0  0  0  0  0  0  0  0  0
   10.7023   37.5457   33.1720 H   0  0  0  0  0  0  0  0  0  0  0  0
   14.1957   37.4366   31.5528 H   0  0  0  0  0  0  0  0  0  0  0  0
    9.1339   37.6659   31.6070 H   0  0  0  0  0  0  0  0  0  0  0  0
   12.1380   35.7718   32.5698 H   0  0  0  0  0  0  0  0  0  0  0  0
   11.7707   35.4530   30.4496 H   0  0  0  0  0  0  0  0  0  0  0  0
   12.4315   38.3981   34.8694 H   0  0  0  0  0  0  0  0  0  0  0  0
   17.2665   34.4140   33.1691 H   0  0  0  0  0  0  0  0  0  0  0  0
   16.7633   35.0598   37.7895 H   0  0  0  0  0  0  0  0  0  0  0  0
   15.3757   36.1868   37.9789 H   0  0  0  0  0  0  0  0  0  0  0  0
  1  2  2  0
  1  3  1  0
  3  4  1  0
  4  5  1  0
  6  1  1  0
  7  6  1  0
  6  8  1  0
  8  9  1  0
  9 10  1  0
 10 11  1  0
 11 12  1  0
 12 13  1  0
 13 14  1  0
 13 15  2  0
 14 16  1  0
 16 17  1  0
 17 18  2  0
 19 17  1  0
 18 20  1  0
 21 19  2  0
 19 22  1  0
 20 23  2  0
 23 21  1  0
 22 24  1  0
 22 25  2  0
  4 26  2  0
  4 27  1  0
 28 27  1  0
 28 29  1  0
 29 30  1  0
 29 31  1  0
 30 32  1  0
 31 33  1  0
 31 34  1  0
 34 32  1  0
 32 35  1  0
 34 36  1  0
 37 35  1  0
 38 35  1  0
 39 37  2  0
 37 40  1  0
 41 38  2  0
 42 39  1  0
 40 43  2  0
 40 41  1  0
 44 42  2  0
 44 43  1  0
 43 45  1  0
  6 46  1  6
  7 47  1  0
  7 48  1  0
  8 49  1  0
  8 50  1  0
  9 51  1  0
  9 52  1  0
 10 53  1  0
 10 54  1  0
 11 55  1  0
 11 56  1  0
 12 57  1  0
 16 58  1  0
 16 59  1  0
 18 60  1  0
 20 61  1  0
 21 62  1  0
 23 63  1  0
 28 64  1  0
 28 65  1  0
 29 66  1  0
 31 67  1  0
 32 68  1  0
 33 69  1  0
 34 70  1  0
 36 71  1  0
 38 72  1  0
 42 73  1  0
 45 74  1  0
 45 75  1  0
M  CHG  3   5  -1  22   1  24  -1
M  END
>  <EmbedRMS>  (202) 
0.0734945270716

$$$$

     RDKit          3D

 75 78  0  0  0  0  0  0  0  0999 V2000
    9.4298   42.9391   34.3434 C   0  0  0  0  0  0  0  0  0  0  0  0
   10.4909   43.0385   35.0235 O   0  0  0  0  0  0  0  0  0  0  0  0
    8.8543   41.7112   34.0297 O   0  0  0  0  0  0  0  0  0  0  0  0
    9.4930   40.2155   34.4703 P   0  0  0  0  0  0  0  0  0  0  0  0
    9.7297   40.1740   36.1312 O   0  0  0  0  0  0  0  0  0  0  0  0
    8.7408   44.1362   33.7775 C   0  0  1  0  0  0  0  0  0  0  0  0
    9.2995   45.3701   34.3306 N   0  0  0  0  0  0  0  0  0  0  0  0
    8.8969   44.0585   32.2391 C   0  0  0  0  0  0  0  0  0  0  0  0
    8.2038   45.1685   31.4392 C   0  0  0  0  0  0  0  0  0  0  0  0
    6.6666   45.1070   31.4912 C   0  0  0  0  0  0  0  0  0  0  0  0
    6.0298   46.3246   30.8151 C   0  0  0  0  0  0  0  0  0  0  0  0
    6.5109   47.5651   31.4241 N   0  0  0  0  0  0  0  0  0  0  0  0
    7.2288   48.5519   30.6737 C   0  0  0  0  0  0  0  0  0  0  0  0
    7.5274   49.8121   31.2090 O   0  0  0  0  0  0  0  0  0  0  0  0
    7.6014   48.2990   29.4985 O   0  0  0  0  0  0  0  0  0  0  0  0
    7.1405   50.2576   32.5083 C   0  0  0  0  0  0  0  0  0  0  0  0
    8.0194   49.6473   33.5775 C   0  0  0  0  0  0  0  0  0  0  0  0
    9.4115   49.6303   33.3736 C   0  0  0  0  0  0  0  0  0  0  0  0
    7.4913   49.1027   34.7768 C   0  0  0  0  0  0  0  0  0  0  0  0
   10.2635   49.0530   34.3164 C   0  0  0  0  0  0  0  0  0  0  0  0
    8.3639   48.5145   35.7089 C   0  0  0  0  0  0  0  0  0  0  0  0
    6.0898   49.1675   35.0804 N   0  0  0  0  0  0  0  0  0  0  0  0
    9.7404   48.4931   35.4804 C   0  0  0  0  0  0  0  0  0  0  0  0
    5.4236   50.3685   34.9979 O   0  0  0  0  0  0  0  0  0  0  0  0
    5.5277   48.2027   35.6385 O   0  0  0  0  0  0  0  0  0  0  0  0
    8.5370   39.1387   34.0142 O   0  0  0  0  0  0  0  0  0  0  0  0
   10.9785   40.0890   33.6867 O   0  0  0  0  0  0  0  0  0  0  0  0
   10.7973   40.0897   32.2881 C   0  0  0  0  0  0  0  0  0  0  0  0
   11.5882   38.9235   31.7043 C   0  0  0  0  0  0  0  0  0  0  0  0
   12.9230   38.9440   32.1728 O   0  0  0  0  0  0  0  0  0  0  0  0
   11.0048   37.5704   32.0916 C   0  0  0  0  0  0  0  0  0  0  0  0
   13.3570   37.5961   32.2595 C   0  0  0  0  0  0  0  0  0  0  0  0
    9.9331   37.1987   31.2676 O   0  0  0  0  0  0  0  0  0  0  0  0
   12.1965   36.6751   31.8950 C   0  0  0  0  0  0  0  0  0  0  0  0
   13.8037   37.2979   33.6187 N   0  0  0  0  0  0  0  0  0  0  0  0
   12.2934   36.2389   30.5582 O   0  0  0  0  0  0  0  0  0  0  0  0
   14.7929   36.4726   33.9860 C   0  0  0  0  0  0  0  0  0  0  0  0
   13.2755   37.7304   34.7934 C   0  0  0  0  0  0  0  0  0  0  0  0
   15.6244   35.7585   33.1859 N   0  0  0  0  0  0  0  0  0  0  0  0
   14.8722   36.4406   35.3328 C   0  0  0  0  0  0  0  0  0  0  0  0
   13.9205   37.2263   35.8803 N   0  0  0  0  0  0  0  0  0  0  0  0
   16.5872   34.9923   33.7802 C   0  0  0  0  0  0  0  0  0  0  0  0
   15.8573   35.6715   35.9442 C   0  0  0  0  0  0  0  0  0  0  0  0
   16.7023   34.9584   35.1439 N   0  0  0  0  0  0  0  0  0  0  0  0
   16.0098   35.6384   37.3563 N   0  0  0  0  0  0  0  0  0  0  0  0
    7.6662   44.0631   34.0530 H   0  0  0  0  0  0  0  0  0  0  0  0
    8.6817   46.1618   34.0433 H   0  0  0  0  0  0  0  0  0  0  0  0
    9.2186   45.3321   35.3733 H   0  0  0  0  0  0  0  0  0  0  0  0
    9.9817   44.0902   31.9915 H   0  0  0  0  0  0  0  0  0  0  0  0
    8.5093   43.0833   31.8681 H   0  0  0  0  0  0  0  0  0  0  0  0
    8.5792   46.1517   31.7890 H   0  0  0  0  0  0  0  0  0  0  0  0
    8.5158   45.0741   30.3760 H   0  0  0  0  0  0  0  0  0  0  0  0
    6.3127   44.1798   30.9906 H   0  0  0  0  0  0  0  0  0  0  0  0
    6.3203   45.0835   32.5451 H   0  0  0  0  0  0  0  0  0  0  0  0
    6.2464   46.2908   29.7258 H   0  0  0  0  0  0  0  0  0  0  0  0
    4.9265   46.2703   30.9338 H   0  0  0  0  0  0  0  0  0  0  0  0
    6.2903   47.7253   32.4310 H   0  0  0  0  0  0  0  0  0  0  0  0
    7.2718   51.3591   32.5473 H   0  0  0  0  0  0  0  0  0  0  0  0
    6.0619   50.0502   32.6561 H   0  0  0  0  0  0  0  0  0  0  0  0
    9.8392   50.0580   32.4751 H   0  0  0  0  0  0  0  0  0  0  0  0
   11.3317   49.0385   34.1428 H   0  0  0  0  0  0  0  0  0  0  0  0
    7.9770   48.0908   36.6272 H   0  0  0  0  0  0  0  0  0  0  0  0
   10.4027   48.0437   36.2090 H   0  0  0  0  0  0  0  0  0  0  0  0
   11.2112   41.0391   31.8857 H   0  0  0  0  0  0  0  0  0  0  0  0
    9.7422   40.0186   31.9313 H   0  0  0  0  0  0  0  0  0  0  0  0
   11.5932   39.0395   30.5966 H   0  0  0  0  0  0  0  0  0  0  0  0
   10.6986   37.5586   33.1640 H   0  0  0  0  0  0  0  0  0  0  0  0
   14.2072   37.4493   31.5564 H   0  0  0  0  0  0  0  0  0  0  0  0
    9.5321   36.3882   31.6772 H   0  0  0  0  0  0  0  0  0  0  0  0
   12.1344   35.7838   32.5583 H   0  0  0  0  0  0  0  0  0  0  0  0
   12.4641   37.0179   29.9675 H   0  0  0  0  0  0  0  0  0  0  0  0
   12.4333   38.4006   34.8692 H   0  0  0  0  0  0  0  0  0  0  0  0
   17.2668   34.4144   33.1692 H   0  0  0  0  0  0  0  0  0  0  0  0
   15.3755   36.1866   37.9790 H   0  0  0  0  0  0  0  0  0  0  0  0
   16.7634   35.0600   37.7896 H   0  0  0  0  0  0  0  0  0  0  0  0
  1  2  2  0
  1  3  1  0
  3  4  1  0
  4  5  1  0
  6  1  1  0
  7  6  1  0
  6  8  1  0
  8  9  1  0
  9 10  1  0
 10 11  1  0
 11 12  1  0
 12 13  1  0
 13 14  1  0
 13 15  2  0
 14 16  1  0
 16 17  1  0
 17 18  2  0
 19 17  1  0
 18 20  1  0
 21 19  2  0
 19 22  1  0
 20 23  2  0
 23 21  1  0
 22 24  1  0
 22 25  2  0
  4 26  2  0
  4 27  1  0
 28 27  1  0
 28 29  1  0
 29 30  1  0
 29 31  1  0
 30 32  1  0
 31 33  1  0
 31 34  1  0
 34 32  1  0
 32 35  1  0
 34 36  1  0
 37 35  1  0
 38 35  1  0
 39 37  2  0
 37 40  1  0
 41 38  2  0
 42 39  1  0
 40 43  2  0
 40 41  1  0
 44 42  2  0
 44 43  1  0
 43 45  1  0
  6 46  1  6
  7 47  1  0
  7 48  1  0
  8 49  1  0
  8 50  1  0
  9 51  1  0
  9 52  1  0
 10 53  1  0
 10 54  1  0
 11 55  1  0
 11 56  1  0
 12 57  1  0
 16 58  1  0
 16 59  1  0
 18 60  1  0
 20 61  1  0
 21 62  1  0
 23 63  1  0
 28 64  1  0
 28 65  1  0
 29 66  1  0
 31 67  1  0
 32 68  1  0
 33 69  1  0
 34 70  1  0
 36 71  1  0
 38 72  1  0
 42 73  1  0
 45 74  1  0
 45 75  1  0
M  CHG  3   5  -1  22   1  24  -1
M  END
>  <EmbedRMS>  (203) 
0.0750941330833

$$$$

     RDKit          3D

 75 78  0  0  0  0  0  0  0  0999 V2000
    9.4300   42.9391   34.3431 C   0  0  0  0  0  0  0  0  0  0  0  0
   10.4909   43.0385   35.0236 O   0  0  0  0  0  0  0  0  0  0  0  0
    8.8552   41.7112   34.0284 O   0  0  0  0  0  0  0  0  0  0  0  0
    9.4945   40.2154   34.4677 P   0  0  0  0  0  0  0  0  0  0  0  0
    9.7309   40.1739   36.1289 O   0  0  0  0  0  0  0  0  0  0  0  0
    8.7408   44.1361   33.7775 C   0  0  1  0  0  0  0  0  0  0  0  0
    9.2996   45.3700   34.3306 N   0  0  0  0  0  0  0  0  0  0  0  0
    8.8969   44.0586   32.2390 C   0  0  0  0  0  0  0  0  0  0  0  0
    8.2038   45.1686   31.4392 C   0  0  0  0  0  0  0  0  0  0  0  0
    6.6666   45.1070   31.4913 C   0  0  0  0  0  0  0  0  0  0  0  0
    6.0298   46.3246   30.8151 C   0  0  0  0  0  0  0  0  0  0  0  0
    6.5108   47.5651   31.4241 N   0  0  0  0  0  0  0  0  0  0  0  0
    7.2286   48.5520   30.6737 C   0  0  0  0  0  0  0  0  0  0  0  0
    7.5268   49.8123   31.2088 O   0  0  0  0  0  0  0  0  0  0  0  0
    7.6015   48.2990   29.4986 O   0  0  0  0  0  0  0  0  0  0  0  0
    7.1390   50.2580   32.5078 C   0  0  0  0  0  0  0  0  0  0  0  0
    8.0184   49.6487   33.5775 C   0  0  0  0  0  0  0  0  0  0  0  0
    9.4107   49.6374   33.3740 C   0  0  0  0  0  0  0  0  0  0  0  0
    7.4926   49.0997   34.7770 C   0  0  0  0  0  0  0  0  0  0  0  0
   10.2647   49.0610   34.3155 C   0  0  0  0  0  0  0  0  0  0  0  0
    8.3670   48.5115   35.7062 C   0  0  0  0  0  0  0  0  0  0  0  0
    6.0914   49.1505   35.0840 N   0  0  0  0  0  0  0  0  0  0  0  0
    9.7436   48.4959   35.4777 C   0  0  0  0  0  0  0  0  0  0  0  0
    5.4932   48.0861   35.7180 O   0  0  0  0  0  0  0  0  0  0  0  0
    5.4727   50.2319   35.0080 O   0  0  0  0  0  0  0  0  0  0  0  0
    8.5377   39.1392   34.0127 O   0  0  0  0  0  0  0  0  0  0  0  0
   10.9805   40.0888   33.6835 O   0  0  0  0  0  0  0  0  0  0  0  0
   10.8025   40.0901   32.2837 C   0  0  0  0  0  0  0  0  0  0  0  0
   11.5889   38.9174   31.7007 C   0  0  0  0  0  0  0  0  0  0  0  0
   12.9219   38.9373   32.1692 O   0  0  0  0  0  0  0  0  0  0  0  0
   11.0028   37.5682   32.0981 C   0  0  0  0  0  0  0  0  0  0  0  0
   13.3496   37.5885   32.2601 C   0  0  0  0  0  0  0  0  0  0  0  0
    9.9343   37.1823   31.2757 O   0  0  0  0  0  0  0  0  0  0  0  0
   12.1891   36.6677   31.9050 C   0  0  0  0  0  0  0  0  0  0  0  0
   13.8025   37.2965   33.6186 N   0  0  0  0  0  0  0  0  0  0  0  0
   12.2990   36.2867   30.5568 O   0  0  0  0  0  0  0  0  0  0  0  0
   14.7929   36.4725   33.9858 C   0  0  0  0  0  0  0  0  0  0  0  0
   13.2749   37.7294   34.7935 C   0  0  0  0  0  0  0  0  0  0  0  0
   15.6240   35.7580   33.1858 N   0  0  0  0  0  0  0  0  0  0  0  0
   14.8727   36.4411   35.3327 C   0  0  0  0  0  0  0  0  0  0  0  0
   13.9208   37.2263   35.8803 N   0  0  0  0  0  0  0  0  0  0  0  0
   16.5871   34.9921   33.7801 C   0  0  0  0  0  0  0  0  0  0  0  0
   15.8576   35.6718   35.9441 C   0  0  0  0  0  0  0  0  0  0  0  0
   16.7024   34.9584   35.1438 N   0  0  0  0  0  0  0  0  0  0  0  0
   16.0099   35.6384   37.3562 N   0  0  0  0  0  0  0  0  0  0  0  0
    7.6663   44.0630   34.0530 H   0  0  0  0  0  0  0  0  0  0  0  0
    9.2184   45.3321   35.3733 H   0  0  0  0  0  0  0  0  0  0  0  0
    8.6819   46.1618   34.0431 H   0  0  0  0  0  0  0  0  0  0  0  0
    8.5093   43.0834   31.8680 H   0  0  0  0  0  0  0  0  0  0  0  0
    9.9817   44.0903   31.9914 H   0  0  0  0  0  0  0  0  0  0  0  0
    8.5791   46.1518   31.7890 H   0  0  0  0  0  0  0  0  0  0  0  0
    8.5157   45.0742   30.3760 H   0  0  0  0  0  0  0  0  0  0  0  0
    6.3203   45.0836   32.5452 H   0  0  0  0  0  0  0  0  0  0  0  0
    6.3126   44.1798   30.9906 H   0  0  0  0  0  0  0  0  0  0  0  0
    4.9265   46.2703   30.9338 H   0  0  0  0  0  0  0  0  0  0  0  0
    6.2464   46.2908   29.7258 H   0  0  0  0  0  0  0  0  0  0  0  0
    6.2902   47.7254   32.4310 H   0  0  0  0  0  0  0  0  0  0  0  0
    6.0601   50.0511   32.6539 H   0  0  0  0  0  0  0  0  0  0  0  0
    7.2698   51.3596   32.5464 H   0  0  0  0  0  0  0  0  0  0  0  0
    9.8370   50.0687   32.4765 H   0  0  0  0  0  0  0  0  0  0  0  0
   11.3330   49.0510   34.1419 H   0  0  0  0  0  0  0  0  0  0  0  0
    7.9818   48.0832   36.6230 H   0  0  0  0  0  0  0  0  0  0  0  0
   10.4075   48.0466   36.2050 H   0  0  0  0  0  0  0  0  0  0  0  0
    9.7476   40.0332   31.9254 H   0  0  0  0  0  0  0  0  0  0  0  0
   11.2257   41.0357   31.8824 H   0  0  0  0  0  0  0  0  0  0  0  0
   11.5975   39.0147   30.5904 H   0  0  0  0  0  0  0  0  0  0  0  0
   10.7023   37.5456   33.1720 H   0  0  0  0  0  0  0  0  0  0  0  0
   14.1957   37.4366   31.5528 H   0  0  0  0  0  0  0  0  0  0  0  0
    9.1339   37.6658   31.6069 H   0  0  0  0  0  0  0  0  0  0  0  0
   12.1380   35.7717   32.5698 H   0  0  0  0  0  0  0  0  0  0  0  0
   11.7707   35.4530   30.4496 H   0  0  0  0  0  0  0  0  0  0  0  0
   12.4314   38.3980   34.8694 H   0  0  0  0  0  0  0  0  0  0  0  0
   17.2665   34.4140   33.1691 H   0  0  0  0  0  0  0  0  0  0  0  0
   16.7633   35.0598   37.7895 H   0  0  0  0  0  0  0  0  0  0  0  0
   15.3757   36.1868   37.9789 H   0  0  0  0  0  0  0  0  0  0  0  0
  1  2  2  0
  1  3  1  0
  3  4  1  0
  4  5  1  0
  6  1  1  0
  7  6  1  0
  6  8  1  0
  8  9  1  0
  9 10  1  0
 10 11  1  0
 11 12  1  0
 12 13  1  0
 13 14  1  0
 13 15  2  0
 14 16  1  0
 16 17  1  0
 17 18  2  0
 19 17  1  0
 18 20  1  0
 21 19  2  0
 19 22  1  0
 20 23  2  0
 23 21  1  0
 22 24  1  0
 22 25  2  0
  4 26  2  0
  4 27  1  0
 28 27  1  0
 28 29  1  0
 29 30  1  0
 29 31  1  0
 30 32  1  0
 31 33  1  0
 31 34  1  0
 34 32  1  0
 32 35  1  0
 34 36  1  0
 37 35  1  0
 38 35  1  0
 39 37  2  0
 37 40  1  0
 41 38  2  0
 42 39  1  0
 40 43  2  0
 40 41  1  0
 44 42  2  0
 44 43  1  0
 43 45  1  0
  6 46  1  6
  7 47  1  0
  7 48  1  0
  8 49  1  0
  8 50  1  0
  9 51  1  0
  9 52  1  0
 10 53  1  0
 10 54  1  0
 11 55  1  0
 11 56  1  0
 12 57  1  0
 16 58  1  0
 16 59  1  0
 18 60  1  0
 20 61  1  0
 21 62  1  0
 23 63  1  0
 28 64  1  0
 28 65  1  0
 29 66  1  0
 31 67  1  0
 32 68  1  0
 33 69  1  0
 34 70  1  0
 36 71  1  0
 38 72  1  0
 42 73  1  0
 45 74  1  0
 45 75  1  0
M  CHG  3   5  -1  22   1  24  -1
M  END
>  <EmbedRMS>  (204) 
0.0734102283611

$$$$

     RDKit          3D

 75 78  0  0  0  0  0  0  0  0999 V2000
    9.4300   42.9390   34.3431 C   0  0  0  0  0  0  0  0  0  0  0  0
   10.4911   43.0384   35.0233 O   0  0  0  0  0  0  0  0  0  0  0  0
    8.8552   41.7111   34.0282 O   0  0  0  0  0  0  0  0  0  0  0  0
    9.4943   40.2151   34.4676 P   0  0  0  0  0  0  0  0  0  0  0  0
    9.7311   40.1737   36.1287 O   0  0  0  0  0  0  0  0  0  0  0  0
    8.7403   44.1361   33.7778 C   0  0  1  0  0  0  0  0  0  0  0  0
    9.2975   45.3706   34.3316 N   0  0  0  0  0  0  0  0  0  0  0  0
    8.8969   44.0591   32.2395 C   0  0  0  0  0  0  0  0  0  0  0  0
    8.2040   45.1697   31.4406 C   0  0  0  0  0  0  0  0  0  0  0  0
    6.6666   45.1065   31.4899 C   0  0  0  0  0  0  0  0  0  0  0  0
    6.0296   46.3244   30.8141 C   0  0  0  0  0  0  0  0  0  0  0  0
    6.5120   47.5641   31.4233 N   0  0  0  0  0  0  0  0  0  0  0  0
    7.2395   48.5466   30.6780 C   0  0  0  0  0  0  0  0  0  0  0  0
    7.5862   49.7854   31.2333 O   0  0  0  0  0  0  0  0  0  0  0  0
    7.5917   48.3036   29.4944 O   0  0  0  0  0  0  0  0  0  0  0  0
    7.2917   50.1976   32.5682 C   0  0  0  0  0  0  0  0  0  0  0  0
    8.1712   49.4883   33.5769 C   0  0  0  0  0  0  0  0  0  0  0  0
    9.5328   49.3035   33.2678 C   0  0  0  0  0  0  0  0  0  0  0  0
    7.7086   49.1394   34.8741 C   0  0  0  0  0  0  0  0  0  0  0  0
   10.4134   48.7676   34.2084 C   0  0  0  0  0  0  0  0  0  0  0  0
    8.6151   48.6204   35.8136 C   0  0  0  0  0  0  0  0  0  0  0  0
    6.3449   49.3376   35.2740 N   0  0  0  0  0  0  0  0  0  0  0  0
    9.9567   48.4317   35.4809 C   0  0  0  0  0  0  0  0  0  0  0  0
    6.0735   49.8639   36.5156 O   0  0  0  0  0  0  0  0  0  0  0  0
    5.4209   48.7905   34.6387 O   0  0  0  0  0  0  0  0  0  0  0  0
    8.5375   39.1388   34.0125 O   0  0  0  0  0  0  0  0  0  0  0  0
   10.9796   40.0876   33.6825 O   0  0  0  0  0  0  0  0  0  0  0  0
   10.7997   40.0900   32.2828 C   0  0  0  0  0  0  0  0  0  0  0  0
   11.5968   38.9274   31.6962 C   0  0  0  0  0  0  0  0  0  0  0  0
   12.9242   38.9425   32.1784 O   0  0  0  0  0  0  0  0  0  0  0  0
   11.0086   37.5713   32.0780 C   0  0  0  0  0  0  0  0  0  0  0  0
   13.3528   37.5929   32.2623 C   0  0  0  0  0  0  0  0  0  0  0  0
    9.9098   37.1771   31.2926 O   0  0  0  0  0  0  0  0  0  0  0  0
   12.1943   36.6683   31.8995 C   0  0  0  0  0  0  0  0  0  0  0  0
   13.8019   37.2950   33.6199 N   0  0  0  0  0  0  0  0  0  0  0  0
   12.3027   36.2773   30.5558 O   0  0  0  0  0  0  0  0  0  0  0  0
   14.7926   36.4715   33.9865 C   0  0  0  0  0  0  0  0  0  0  0  0
   13.2749   37.7286   34.7946 C   0  0  0  0  0  0  0  0  0  0  0  0
   15.6239   35.7577   33.1860 N   0  0  0  0  0  0  0  0  0  0  0  0
   14.8727   36.4403   35.3332 C   0  0  0  0  0  0  0  0  0  0  0  0
   13.9210   37.2257   35.8812 N   0  0  0  0  0  0  0  0  0  0  0  0
   16.5873   34.9921   33.7802 C   0  0  0  0  0  0  0  0  0  0  0  0
   15.8579   35.6714   35.9444 C   0  0  0  0  0  0  0  0  0  0  0  0
   16.7028   34.9583   35.1439 N   0  0  0  0  0  0  0  0  0  0  0  0
   16.0104   35.6381   37.3564 N   0  0  0  0  0  0  0  0  0  0  0  0
    7.6657   44.0618   34.0529 H   0  0  0  0  0  0  0  0  0  0  0  0
    8.6722   46.1606   34.0551 H   0  0  0  0  0  0  0  0  0  0  0  0
    9.2269   45.3277   35.3749 H   0  0  0  0  0  0  0  0  0  0  0  0
    9.9818   44.0914   31.9923 H   0  0  0  0  0  0  0  0  0  0  0  0
    8.5096   43.0841   31.8677 H   0  0  0  0  0  0  0  0  0  0  0  0
    8.5180   45.0782   30.3777 H   0  0  0  0  0  0  0  0  0  0  0  0
    8.5778   46.1523   31.7940 H   0  0  0  0  0  0  0  0  0  0  0  0
    6.3144   44.1796   30.9875 H   0  0  0  0  0  0  0  0  0  0  0  0
    6.3188   45.0812   32.5433 H   0  0  0  0  0  0  0  0  0  0  0  0
    4.9264   46.2707   30.9335 H   0  0  0  0  0  0  0  0  0  0  0  0
    6.2458   46.2907   29.7248 H   0  0  0  0  0  0  0  0  0  0  0  0
    6.2992   47.7206   32.4312 H   0  0  0  0  0  0  0  0  0  0  0  0
    6.2086   50.0791   32.7610 H   0  0  0  0  0  0  0  0  0  0  0  0
    7.5081   51.2837   32.6430 H   0  0  0  0  0  0  0  0  0  0  0  0
    9.9209   49.5910   32.2985 H   0  0  0  0  0  0  0  0  0  0  0  0
   11.4559   48.6263   33.9542 H   0  0  0  0  0  0  0  0  0  0  0  0
    8.2764   48.3522   36.8064 H   0  0  0  0  0  0  0  0  0  0  0  0
   10.6429   48.0227   36.2112 H   0  0  0  0  0  0  0  0  0  0  0  0
   11.2095   41.0419   31.8824 H   0  0  0  0  0  0  0  0  0  0  0  0
    9.7449   40.0145   31.9262 H   0  0  0  0  0  0  0  0  0  0  0  0
   11.6266   39.0456   30.5888 H   0  0  0  0  0  0  0  0  0  0  0  0
   10.7064   37.5575   33.1485 H   0  0  0  0  0  0  0  0  0  0  0  0
   14.2021   37.4484   31.5574 H   0  0  0  0  0  0  0  0  0  0  0  0
   10.0952   37.3991   30.3433 H   0  0  0  0  0  0  0  0  0  0  0  0
   12.1163   35.7745   32.5634 H   0  0  0  0  0  0  0  0  0  0  0  0
   12.9614   35.5349   30.5312 H   0  0  0  0  0  0  0  0  0  0  0  0
   12.4321   38.3982   34.8705 H   0  0  0  0  0  0  0  0  0  0  0  0
   17.2669   34.4143   33.1690 H   0  0  0  0  0  0  0  0  0  0  0  0
   16.7641   35.0598   37.7896 H   0  0  0  0  0  0  0  0  0  0  0  0
   15.3761   36.1862   37.9792 H   0  0  0  0  0  0  0  0  0  0  0  0
  1  2  2  0
  1  3  1  0
  3  4  1  0
  4  5  1  0
  6  1  1  0
  7  6  1  0
  6  8  1  0
  8  9  1  0
  9 10  1  0
 10 11  1  0
 11 12  1  0
 12 13  1  0
 13 14  1  0
 13 15  2  0
 14 16  1  0
 16 17  1  0
 17 18  2  0
 19 17  1  0
 18 20  1  0
 21 19  2  0
 19 22  1  0
 20 23  2  0
 23 21  1  0
 22 24  1  0
 22 25  2  0
  4 26  2  0
  4 27  1  0
 28 27  1  0
 28 29  1  0
 29 30  1  0
 29 31  1  0
 30 32  1  0
 31 33  1  0
 31 34  1  0
 34 32  1  0
 32 35  1  0
 34 36  1  0
 37 35  1  0
 38 35  1  0
 39 37  2  0
 37 40  1  0
 41 38  2  0
 42 39  1  0
 40 43  2  0
 40 41  1  0
 44 42  2  0
 44 43  1  0
 43 45  1  0
  6 46  1  6
  7 47  1  0
  7 48  1  0
  8 49  1  0
  8 50  1  0
  9 51  1  0
  9 52  1  0
 10 53  1  0
 10 54  1  0
 11 55  1  0
 11 56  1  0
 12 57  1  0
 16 58  1  0
 16 59  1  0
 18 60  1  0
 20 61  1  0
 21 62  1  0
 23 63  1  0
 28 64  1  0
 28 65  1  0
 29 66  1  0
 31 67  1  0
 32 68  1  0
 33 69  1  0
 34 70  1  0
 36 71  1  0
 38 72  1  0
 42 73  1  0
 45 74  1  0
 45 75  1  0
M  CHG  3   5  -1  22   1  24  -1
M  END
>  <EmbedRMS>  (205) 
0.0737257675392

$$$$

     RDKit          3D

 75 78  0  0  0  0  0  0  0  0999 V2000
    9.4330   42.9367   34.3463 C   0  0  0  0  0  0  0  0  0  0  0  0
   10.4905   43.0333   35.0319 O   0  0  0  0  0  0  0  0  0  0  0  0
    8.8562   41.7105   34.0297 O   0  0  0  0  0  0  0  0  0  0  0  0
    9.4945   40.2143   34.4680 P   0  0  0  0  0  0  0  0  0  0  0  0
    9.7309   40.1726   36.1291 O   0  0  0  0  0  0  0  0  0  0  0  0
    8.7502   44.1350   33.7741 C   0  0  1  0  0  0  0  0  0  0  0  0
    9.2956   45.3824   34.3132 N   0  0  0  0  0  0  0  0  0  0  0  0
    8.8891   44.0526   32.2359 C   0  0  0  0  0  0  0  0  0  0  0  0
    8.2031   45.1822   31.4613 C   0  0  0  0  0  0  0  0  0  0  0  0
    6.6656   45.1032   31.4819 C   0  0  0  0  0  0  0  0  0  0  0  0
    6.0281   46.3239   30.8103 C   0  0  0  0  0  0  0  0  0  0  0  0
    6.5101   47.5618   31.4225 N   0  0  0  0  0  0  0  0  0  0  0  0
    7.2427   48.5449   30.6812 C   0  0  0  0  0  0  0  0  0  0  0  0
    7.6074   49.7738   31.2489 O   0  0  0  0  0  0  0  0  0  0  0  0
    7.5906   48.3072   29.4953 O   0  0  0  0  0  0  0  0  0  0  0  0
    7.2733   50.1885   32.5734 C   0  0  0  0  0  0  0  0  0  0  0  0
    5.7897   50.4609   32.6963 C   0  0  0  0  0  0  0  0  0  0  0  0
    5.1729   51.2536   31.7112 C   0  0  0  0  0  0  0  0  0  0  0  0
    4.9974   49.9214   33.7440 C   0  0  0  0  0  0  0  0  0  0  0  0
    3.7938   51.4670   31.7284 C   0  0  0  0  0  0  0  0  0  0  0  0
    3.6078   50.1291   33.7320 C   0  0  0  0  0  0  0  0  0  0  0  0
    5.5770   49.1828   34.8302 N   0  0  0  0  0  0  0  0  0  0  0  0
    3.0112   50.8966   32.7307 C   0  0  0  0  0  0  0  0  0  0  0  0
    4.9049   48.1053   35.3593 O   0  0  0  0  0  0  0  0  0  0  0  0
    6.5554   49.6469   35.4510 O   0  0  0  0  0  0  0  0  0  0  0  0
    8.5372   39.1387   34.0125 O   0  0  0  0  0  0  0  0  0  0  0  0
   10.9804   40.0881   33.6837 O   0  0  0  0  0  0  0  0  0  0  0  0
   10.8025   40.0900   32.2839 C   0  0  0  0  0  0  0  0  0  0  0  0
   11.5888   38.9174   31.7007 C   0  0  0  0  0  0  0  0  0  0  0  0
   12.9219   38.9373   32.1692 O   0  0  0  0  0  0  0  0  0  0  0  0
   11.0028   37.5682   32.0980 C   0  0  0  0  0  0  0  0  0  0  0  0
   13.3496   37.5885   32.2601 C   0  0  0  0  0  0  0  0  0  0  0  0
    9.9343   37.1822   31.2756 O   0  0  0  0  0  0  0  0  0  0  0  0
   12.1891   36.6677   31.9049 C   0  0  0  0  0  0  0  0  0  0  0  0
   13.8025   37.2965   33.6186 N   0  0  0  0  0  0  0  0  0  0  0  0
   12.2991   36.2867   30.5567 O   0  0  0  0  0  0  0  0  0  0  0  0
   14.7929   36.4725   33.9858 C   0  0  0  0  0  0  0  0  0  0  0  0
   13.2749   37.7294   34.7935 C   0  0  0  0  0  0  0  0  0  0  0  0
   15.6240   35.7580   33.1858 N   0  0  0  0  0  0  0  0  0  0  0  0
   14.8727   36.4411   35.3327 C   0  0  0  0  0  0  0  0  0  0  0  0
   13.9208   37.2263   35.8803 N   0  0  0  0  0  0  0  0  0  0  0  0
   16.5871   34.9921   33.7801 C   0  0  0  0  0  0  0  0  0  0  0  0
   15.8576   35.6718   35.9441 C   0  0  0  0  0  0  0  0  0  0  0  0
   16.7024   34.9584   35.1438 N   0  0  0  0  0  0  0  0  0  0  0  0
   16.0099   35.6384   37.3562 N   0  0  0  0  0  0  0  0  0  0  0  0
    7.6765   44.0709   34.0501 H   0  0  0  0  0  0  0  0  0  0  0  0
    9.1809   45.3831   35.3532 H   0  0  0  0  0  0  0  0  0  0  0  0
   10.3187   45.4409   34.1008 H   0  0  0  0  0  0  0  0  0  0  0  0
    8.4814   43.0850   31.8669 H   0  0  0  0  0  0  0  0  0  0  0  0
    9.9710   44.0678   31.9742 H   0  0  0  0  0  0  0  0  0  0  0  0
    8.5543   46.1506   31.8758 H   0  0  0  0  0  0  0  0  0  0  0  0
    8.5409   45.1377   30.4027 H   0  0  0  0  0  0  0  0  0  0  0  0
    6.3002   45.0586   32.5289 H   0  0  0  0  0  0  0  0  0  0  0  0
    6.3315   44.1805   30.9600 H   0  0  0  0  0  0  0  0  0  0  0  0
    6.2448   46.2939   29.7210 H   0  0  0  0  0  0  0  0  0  0  0  0
    4.9248   46.2699   30.9290 H   0  0  0  0  0  0  0  0  0  0  0  0
    6.3032   47.7085   32.4339 H   0  0  0  0  0  0  0  0  0  0  0  0
    7.8167   51.1322   32.7886 H   0  0  0  0  0  0  0  0  0  0  0  0
    7.6414   49.4272   33.2891 H   0  0  0  0  0  0  0  0  0  0  0  0
    5.7608   51.6913   30.9136 H   0  0  0  0  0  0  0  0  0  0  0  0
    3.3302   52.0692   30.9577 H   0  0  0  0  0  0  0  0  0  0  0  0
    2.9874   49.7166   34.5176 H   0  0  0  0  0  0  0  0  0  0  0  0
    1.9411   51.0590   32.7390 H   0  0  0  0  0  0  0  0  0  0  0  0
   11.2258   41.0357   31.8829 H   0  0  0  0  0  0  0  0  0  0  0  0
    9.7476   40.0331   31.9256 H   0  0  0  0  0  0  0  0  0  0  0  0
   11.5974   39.0148   30.5905 H   0  0  0  0  0  0  0  0  0  0  0  0
   10.7023   37.5455   33.1719 H   0  0  0  0  0  0  0  0  0  0  0  0
   14.1957   37.4366   31.5528 H   0  0  0  0  0  0  0  0  0  0  0  0
    9.1339   37.6658   31.6069 H   0  0  0  0  0  0  0  0  0  0  0  0
   12.1381   35.7717   32.5697 H   0  0  0  0  0  0  0  0  0  0  0  0
   11.7707   35.4530   30.4496 H   0  0  0  0  0  0  0  0  0  0  0  0
   12.4314   38.3980   34.8694 H   0  0  0  0  0  0  0  0  0  0  0  0
   17.2665   34.4140   33.1691 H   0  0  0  0  0  0  0  0  0  0  0  0
   15.3757   36.1867   37.9789 H   0  0  0  0  0  0  0  0  0  0  0  0
   16.7633   35.0598   37.7895 H   0  0  0  0  0  0  0  0  0  0  0  0
  1  2  2  0
  1  3  1  0
  3  4  1  0
  4  5  1  0
  6  1  1  0
  7  6  1  0
  6  8  1  0
  8  9  1  0
  9 10  1  0
 10 11  1  0
 11 12  1  0
 12 13  1  0
 13 14  1  0
 13 15  2  0
 14 16  1  0
 16 17  1  0
 17 18  2  0
 19 17  1  0
 18 20  1  0
 21 19  2  0
 19 22  1  0
 20 23  2  0
 23 21  1  0
 22 24  1  0
 22 25  2  0
  4 26  2  0
  4 27  1  0
 28 27  1  0
 28 29  1  0
 29 30  1  0
 29 31  1  0
 30 32  1  0
 31 33  1  0
 31 34  1  0
 34 32  1  0
 32 35  1  0
 34 36  1  0
 37 35  1  0
 38 35  1  0
 39 37  2  0
 37 40  1  0
 41 38  2  0
 42 39  1  0
 40 43  2  0
 40 41  1  0
 44 42  2  0
 44 43  1  0
 43 45  1  0
  6 46  1  6
  7 47  1  0
  7 48  1  0
  8 49  1  0
  8 50  1  0
  9 51  1  0
  9 52  1  0
 10 53  1  0
 10 54  1  0
 11 55  1  0
 11 56  1  0
 12 57  1  0
 16 58  1  0
 16 59  1  0
 18 60  1  0
 20 61  1  0
 21 62  1  0
 23 63  1  0
 28 64  1  0
 28 65  1  0
 29 66  1  0
 31 67  1  0
 32 68  1  0
 33 69  1  0
 34 70  1  0
 36 71  1  0
 38 72  1  0
 42 73  1  0
 45 74  1  0
 45 75  1  0
M  CHG  3   5  -1  22   1  24  -1
M  END
>  <EmbedRMS>  (206) 
0.0740376182364

$$$$

     RDKit          3D

 75 78  0  0  0  0  0  0  0  0999 V2000
    9.4335   42.9375   34.3451 C   0  0  0  0  0  0  0  0  0  0  0  0
   10.4908   43.0336   35.0311 O   0  0  0  0  0  0  0  0  0  0  0  0
    8.8560   41.7113   34.0291 O   0  0  0  0  0  0  0  0  0  0  0  0
    9.4942   40.2148   34.4674 P   0  0  0  0  0  0  0  0  0  0  0  0
    9.7315   40.1729   36.1285 O   0  0  0  0  0  0  0  0  0  0  0  0
    8.7513   44.1366   33.7733 C   0  0  1  0  0  0  0  0  0  0  0  0
    9.2971   45.3835   34.3132 N   0  0  0  0  0  0  0  0  0  0  0  0
    8.8901   44.0569   32.2349 C   0  0  0  0  0  0  0  0  0  0  0  0
    8.2020   45.1876   31.4625 C   0  0  0  0  0  0  0  0  0  0  0  0
    6.6642   45.1069   31.4851 C   0  0  0  0  0  0  0  0  0  0  0  0
    6.0208   46.3211   30.8055 C   0  0  0  0  0  0  0  0  0  0  0  0
    6.4884   47.5667   31.4130 N   0  0  0  0  0  0  0  0  0  0  0  0
    7.2742   48.5174   30.6982 C   0  0  0  0  0  0  0  0  0  0  0  0
    7.7683   49.6362   31.3760 O   0  0  0  0  0  0  0  0  0  0  0  0
    7.5864   48.3123   29.4937 O   0  0  0  0  0  0  0  0  0  0  0  0
    8.8560   50.4181   30.8860 C   0  0  0  0  0  0  0  0  0  0  0  0
   10.1294   49.5985   30.8871 C   0  0  0  0  0  0  0  0  0  0  0  0
   10.4515   48.8718   32.0488 C   0  0  0  0  0  0  0  0  0  0  0  0
   10.9645   49.4801   29.7453 C   0  0  0  0  0  0  0  0  0  0  0  0
   11.5442   48.0042   32.0673 C   0  0  0  0  0  0  0  0  0  0  0  0
   12.0508   48.5888   29.7780 C   0  0  0  0  0  0  0  0  0  0  0  0
   10.7452   50.2616   28.5609 N   0  0  0  0  0  0  0  0  0  0  0  0
   12.3362   47.8551   30.9305 C   0  0  0  0  0  0  0  0  0  0  0  0
   10.9975   49.7141   27.3242 O   0  0  0  0  0  0  0  0  0  0  0  0
   10.5662   51.4939   28.6487 O   0  0  0  0  0  0  0  0  0  0  0  0
    8.5371   39.1388   34.0121 O   0  0  0  0  0  0  0  0  0  0  0  0
   10.9794   40.0890   33.6815 O   0  0  0  0  0  0  0  0  0  0  0  0
   10.7982   40.0849   32.2818 C   0  0  0  0  0  0  0  0  0  0  0  0
   11.5886   38.9142   31.7008 C   0  0  0  0  0  0  0  0  0  0  0  0
   12.9214   38.9368   32.1698 O   0  0  0  0  0  0  0  0  0  0  0  0
   11.0047   37.5661   32.0990 C   0  0  0  0  0  0  0  0  0  0  0  0
   13.3511   37.5885   32.2601 C   0  0  0  0  0  0  0  0  0  0  0  0
    9.9296   37.1961   31.2780 O   0  0  0  0  0  0  0  0  0  0  0  0
   12.1923   36.6659   31.9047 C   0  0  0  0  0  0  0  0  0  0  0  0
   13.8033   37.2967   33.6188 N   0  0  0  0  0  0  0  0  0  0  0  0
   12.3007   36.2865   30.5561 O   0  0  0  0  0  0  0  0  0  0  0  0
   14.7933   36.4724   33.9860 C   0  0  0  0  0  0  0  0  0  0  0  0
   13.2753   37.7296   34.7935 C   0  0  0  0  0  0  0  0  0  0  0  0
   15.6243   35.7579   33.1860 N   0  0  0  0  0  0  0  0  0  0  0  0
   14.8728   36.4410   35.3328 C   0  0  0  0  0  0  0  0  0  0  0  0
   13.9209   37.2263   35.8804 N   0  0  0  0  0  0  0  0  0  0  0  0
   16.5873   34.9919   33.7803 C   0  0  0  0  0  0  0  0  0  0  0  0
   15.8577   35.6717   35.9443 C   0  0  0  0  0  0  0  0  0  0  0  0
   16.7025   34.9583   35.1440 N   0  0  0  0  0  0  0  0  0  0  0  0
   16.0100   35.6384   37.3563 N   0  0  0  0  0  0  0  0  0  0  0  0
    7.6776   44.0727   34.0492 H   0  0  0  0  0  0  0  0  0  0  0  0
    9.1852   45.3825   35.3535 H   0  0  0  0  0  0  0  0  0  0  0  0
   10.3196   45.4431   34.0981 H   0  0  0  0  0  0  0  0  0  0  0  0
    9.9720   44.0751   31.9733 H   0  0  0  0  0  0  0  0  0  0  0  0
    8.4841   43.0892   31.8643 H   0  0  0  0  0  0  0  0  0  0  0  0
    8.5391   45.1455   30.4036 H   0  0  0  0  0  0  0  0  0  0  0  0
    8.5516   46.1565   31.8777 H   0  0  0  0  0  0  0  0  0  0  0  0
    6.3003   45.0682   32.5328 H   0  0  0  0  0  0  0  0  0  0  0  0
    6.3315   44.1798   30.9698 H   0  0  0  0  0  0  0  0  0  0  0  0
    4.9172   46.2590   30.9157 H   0  0  0  0  0  0  0  0  0  0  0  0
    6.2457   46.2883   29.7178 H   0  0  0  0  0  0  0  0  0  0  0  0
    6.2691   47.7498   32.4180 H   0  0  0  0  0  0  0  0  0  0  0  0
    8.5899   50.8029   29.8814 H   0  0  0  0  0  0  0  0  0  0  0  0
    8.9952   51.2899   31.5588 H   0  0  0  0  0  0  0  0  0  0  0  0
    9.8344   48.9543   32.9353 H   0  0  0  0  0  0  0  0  0  0  0  0
   11.7706   47.4386   32.9619 H   0  0  0  0  0  0  0  0  0  0  0  0
   12.6937   48.4796   28.9137 H   0  0  0  0  0  0  0  0  0  0  0  0
   13.1803   47.1778   30.9453 H   0  0  0  0  0  0  0  0  0  0  0  0
    9.7427   40.0142   31.9264 H   0  0  0  0  0  0  0  0  0  0  0  0
   11.2132   41.0321   31.8756 H   0  0  0  0  0  0  0  0  0  0  0  0
   11.5980   39.0108   30.5904 H   0  0  0  0  0  0  0  0  0  0  0  0
   10.7009   37.5602   33.1721 H   0  0  0  0  0  0  0  0  0  0  0  0
   14.1977   37.4380   31.5532 H   0  0  0  0  0  0  0  0  0  0  0  0
    9.5180   36.3961   31.6977 H   0  0  0  0  0  0  0  0  0  0  0  0
   12.1418   35.7697   32.5692 H   0  0  0  0  0  0  0  0  0  0  0  0
   11.7730   35.4524   30.4489 H   0  0  0  0  0  0  0  0  0  0  0  0
   12.4321   38.3985   34.8692 H   0  0  0  0  0  0  0  0  0  0  0  0
   17.2667   34.4138   33.1694 H   0  0  0  0  0  0  0  0  0  0  0  0
   15.3757   36.1867   37.9790 H   0  0  0  0  0  0  0  0  0  0  0  0
   16.7634   35.0598   37.7897 H   0  0  0  0  0  0  0  0  0  0  0  0
  1  2  2  0
  1  3  1  0
  3  4  1  0
  4  5  1  0
  6  1  1  0
  7  6  1  0
  6  8  1  0
  8  9  1  0
  9 10  1  0
 10 11  1  0
 11 12  1  0
 12 13  1  0
 13 14  1  0
 13 15  2  0
 14 16  1  0
 16 17  1  0
 17 18  2  0
 19 17  1  0
 18 20  1  0
 21 19  2  0
 19 22  1  0
 20 23  2  0
 23 21  1  0
 22 24  1  0
 22 25  2  0
  4 26  2  0
  4 27  1  0
 28 27  1  0
 28 29  1  0
 29 30  1  0
 29 31  1  0
 30 32  1  0
 31 33  1  0
 31 34  1  0
 34 32  1  0
 32 35  1  0
 34 36  1  0
 37 35  1  0
 38 35  1  0
 39 37  2  0
 37 40  1  0
 41 38  2  0
 42 39  1  0
 40 43  2  0
 40 41  1  0
 44 42  2  0
 44 43  1  0
 43 45  1  0
  6 46  1  6
  7 47  1  0
  7 48  1  0
  8 49  1  0
  8 50  1  0
  9 51  1  0
  9 52  1  0
 10 53  1  0
 10 54  1  0
 11 55  1  0
 11 56  1  0
 12 57  1  0
 16 58  1  0
 16 59  1  0
 18 60  1  0
 20 61  1  0
 21 62  1  0
 23 63  1  0
 28 64  1  0
 28 65  1  0
 29 66  1  0
 31 67  1  0
 32 68  1  0
 33 69  1  0
 34 70  1  0
 36 71  1  0
 38 72  1  0
 42 73  1  0
 45 74  1  0
 45 75  1  0
M  CHG  3   5  -1  22   1  24  -1
M  END
>  <EmbedRMS>  (207) 
0.0756498939046

$$$$

     RDKit          3D

 75 78  0  0  0  0  0  0  0  0999 V2000
    9.4312   42.9412   34.3440 C   0  0  0  0  0  0  0  0  0  0  0  0
   10.4886   43.0411   35.0294 O   0  0  0  0  0  0  0  0  0  0  0  0
    8.8558   41.7129   34.0298 O   0  0  0  0  0  0  0  0  0  0  0  0
    9.4933   40.2164   34.4707 P   0  0  0  0  0  0  0  0  0  0  0  0
    9.7290   40.1745   36.1317 O   0  0  0  0  0  0  0  0  0  0  0  0
    8.7484   44.1360   33.7722 C   0  0  1  0  0  0  0  0  0  0  0  0
    9.3039   45.3665   34.3387 N   0  0  0  0  0  0  0  0  0  0  0  0
    8.8892   44.0518   32.2309 C   0  0  0  0  0  0  0  0  0  0  0  0
    8.2015   45.1720   31.4435 C   0  0  0  0  0  0  0  0  0  0  0  0
    6.6642   45.1065   31.4887 C   0  0  0  0  0  0  0  0  0  0  0  0
    6.0267   46.3237   30.8123 C   0  0  0  0  0  0  0  0  0  0  0  0
    6.5083   47.5645   31.4190 N   0  0  0  0  0  0  0  0  0  0  0  0
    7.2422   48.5405   30.6826 C   0  0  0  0  0  0  0  0  0  0  0  0
    7.5849   49.7467   31.3029 O   0  0  0  0  0  0  0  0  0  0  0  0
    7.5940   48.3106   29.4938 O   0  0  0  0  0  0  0  0  0  0  0  0
    8.2920   50.7939   30.6407 C   0  0  0  0  0  0  0  0  0  0  0  0
    7.4282   51.4396   29.5813 C   0  0  0  0  0  0  0  0  0  0  0  0
    7.9028   51.4758   28.2570 C   0  0  0  0  0  0  0  0  0  0  0  0
    6.1394   51.9640   29.8707 C   0  0  0  0  0  0  0  0  0  0  0  0
    7.1186   52.0078   27.2329 C   0  0  0  0  0  0  0  0  0  0  0  0
    5.3599   52.4819   28.8197 C   0  0  0  0  0  0  0  0  0  0  0  0
    5.5992   51.9619   31.2051 N   0  0  0  0  0  0  0  0  0  0  0  0
    5.8483   52.5063   27.5130 C   0  0  0  0  0  0  0  0  0  0  0  0
    6.3951   52.2585   32.2867 O   0  0  0  0  0  0  0  0  0  0  0  0
    4.3683   51.8480   31.3810 O   0  0  0  0  0  0  0  0  0  0  0  0
    8.5369   39.1403   34.0143 O   0  0  0  0  0  0  0  0  0  0  0  0
   10.9796   40.0883   33.6889 O   0  0  0  0  0  0  0  0  0  0  0  0
   10.8017   40.0949   32.2901 C   0  0  0  0  0  0  0  0  0  0  0  0
   11.5885   38.9267   31.7041 C   0  0  0  0  0  0  0  0  0  0  0  0
   12.9237   38.9445   32.1722 O   0  0  0  0  0  0  0  0  0  0  0  0
   11.0029   37.5726   32.0908 C   0  0  0  0  0  0  0  0  0  0  0  0
   13.3555   37.5960   32.2595 C   0  0  0  0  0  0  0  0  0  0  0  0
    9.9379   37.1847   31.2657 O   0  0  0  0  0  0  0  0  0  0  0  0
   12.1931   36.6769   31.8952 C   0  0  0  0  0  0  0  0  0  0  0  0
   13.8028   37.2977   33.6186 N   0  0  0  0  0  0  0  0  0  0  0  0
   12.2918   36.2396   30.5587 O   0  0  0  0  0  0  0  0  0  0  0  0
   14.7926   36.4727   33.9858 C   0  0  0  0  0  0  0  0  0  0  0  0
   13.2750   37.7302   34.7935 C   0  0  0  0  0  0  0  0  0  0  0  0
   15.6241   35.7586   33.1857 N   0  0  0  0  0  0  0  0  0  0  0  0
   14.8721   36.4408   35.3326 C   0  0  0  0  0  0  0  0  0  0  0  0
   13.9204   37.2263   35.8802 N   0  0  0  0  0  0  0  0  0  0  0  0
   16.5870   34.9924   33.7800 C   0  0  0  0  0  0  0  0  0  0  0  0
   15.8572   35.6717   35.9441 C   0  0  0  0  0  0  0  0  0  0  0  0
   16.7022   34.9585   35.1437 N   0  0  0  0  0  0  0  0  0  0  0  0
   16.0098   35.6384   37.3561 N   0  0  0  0  0  0  0  0  0  0  0  0
    7.6764   44.0635   34.0548 H   0  0  0  0  0  0  0  0  0  0  0  0
   10.2152   45.5879   33.8747 H   0  0  0  0  0  0  0  0  0  0  0  0
    8.6468   46.1559   34.1430 H   0  0  0  0  0  0  0  0  0  0  0  0
    9.9708   44.0641   31.9680 H   0  0  0  0  0  0  0  0  0  0  0  0
    8.4830   43.0817   31.8668 H   0  0  0  0  0  0  0  0  0  0  0  0
    8.5714   46.1486   31.8172 H   0  0  0  0  0  0  0  0  0  0  0  0
    8.5198   45.0957   30.3807 H   0  0  0  0  0  0  0  0  0  0  0  0
    6.3147   44.1801   30.9835 H   0  0  0  0  0  0  0  0  0  0  0  0
    6.3141   45.0783   32.5413 H   0  0  0  0  0  0  0  0  0  0  0  0
    4.9234   46.2700   30.9300 H   0  0  0  0  0  0  0  0  0  0  0  0
    6.2449   46.2897   29.7232 H   0  0  0  0  0  0  0  0  0  0  0  0
    6.2848   47.7545   32.4218 H   0  0  0  0  0  0  0  0  0  0  0  0
    8.5953   51.5582   31.3845 H   0  0  0  0  0  0  0  0  0  0  0  0
    9.2332   50.3849   30.2116 H   0  0  0  0  0  0  0  0  0  0  0  0
    8.8808   51.0808   28.0112 H   0  0  0  0  0  0  0  0  0  0  0  0
    7.4949   52.0272   26.2182 H   0  0  0  0  0  0  0  0  0  0  0  0
    4.3734   52.8828   29.0161 H   0  0  0  0  0  0  0  0  0  0  0  0
    5.2404   52.9145   26.7159 H   0  0  0  0  0  0  0  0  0  0  0  0
   11.2240   41.0428   31.8929 H   0  0  0  0  0  0  0  0  0  0  0  0
    9.7472   40.0378   31.9304 H   0  0  0  0  0  0  0  0  0  0  0  0
   11.5927   39.0434   30.5966 H   0  0  0  0  0  0  0  0  0  0  0  0
   10.7003   37.5443   33.1641 H   0  0  0  0  0  0  0  0  0  0  0  0
   14.2051   37.4477   31.5560 H   0  0  0  0  0  0  0  0  0  0  0  0
    9.1373   37.6722   31.5906 H   0  0  0  0  0  0  0  0  0  0  0  0
   12.1305   35.7856   32.5586 H   0  0  0  0  0  0  0  0  0  0  0  0
   12.4606   37.0186   29.9674 H   0  0  0  0  0  0  0  0  0  0  0  0
   12.4327   38.4001   34.8694 H   0  0  0  0  0  0  0  0  0  0  0  0
   17.2665   34.4146   33.1690 H   0  0  0  0  0  0  0  0  0  0  0  0
   15.3755   36.1866   37.9788 H   0  0  0  0  0  0  0  0  0  0  0  0
   16.7634   35.0601   37.7894 H   0  0  0  0  0  0  0  0  0  0  0  0
  1  2  2  0
  1  3  1  0
  3  4  1  0
  4  5  1  0
  6  1  1  0
  7  6  1  0
  6  8  1  0
  8  9  1  0
  9 10  1  0
 10 11  1  0
 11 12  1  0
 12 13  1  0
 13 14  1  0
 13 15  2  0
 14 16  1  0
 16 17  1  0
 17 18  2  0
 19 17  1  0
 18 20  1  0
 21 19  2  0
 19 22  1  0
 20 23  2  0
 23 21  1  0
 22 24  1  0
 22 25  2  0
  4 26  2  0
  4 27  1  0
 28 27  1  0
 28 29  1  0
 29 30  1  0
 29 31  1  0
 30 32  1  0
 31 33  1  0
 31 34  1  0
 34 32  1  0
 32 35  1  0
 34 36  1  0
 37 35  1  0
 38 35  1  0
 39 37  2  0
 37 40  1  0
 41 38  2  0
 42 39  1  0
 40 43  2  0
 40 41  1  0
 44 42  2  0
 44 43  1  0
 43 45  1  0
  6 46  1  6
  7 47  1  0
  7 48  1  0
  8 49  1  0
  8 50  1  0
  9 51  1  0
  9 52  1  0
 10 53  1  0
 10 54  1  0
 11 55  1  0
 11 56  1  0
 12 57  1  0
 16 58  1  0
 16 59  1  0
 18 60  1  0
 20 61  1  0
 21 62  1  0
 23 63  1  0
 28 64  1  0
 28 65  1  0
 29 66  1  0
 31 67  1  0
 32 68  1  0
 33 69  1  0
 34 70  1  0
 36 71  1  0
 38 72  1  0
 42 73  1  0
 45 74  1  0
 45 75  1  0
M  CHG  3   5  -1  22   1  24  -1
M  END
>  <EmbedRMS>  (208) 
0.0748509476369

$$$$

     RDKit          3D

 75 78  0  0  0  0  0  0  0  0999 V2000
    9.4313   42.9414   34.3436 C   0  0  0  0  0  0  0  0  0  0  0  0
   10.4885   43.0412   35.0293 O   0  0  0  0  0  0  0  0  0  0  0  0
    8.8562   41.7131   34.0287 O   0  0  0  0  0  0  0  0  0  0  0  0
    9.4947   40.2165   34.4678 P   0  0  0  0  0  0  0  0  0  0  0  0
    9.7310   40.1743   36.1290 O   0  0  0  0  0  0  0  0  0  0  0  0
    8.7485   44.1365   33.7721 C   0  0  1  0  0  0  0  0  0  0  0  0
    9.3041   45.3670   34.3387 N   0  0  0  0  0  0  0  0  0  0  0  0
    8.8892   44.0526   32.2308 C   0  0  0  0  0  0  0  0  0  0  0  0
    8.2011   45.1731   31.4438 C   0  0  0  0  0  0  0  0  0  0  0  0
    6.6638   45.1068   31.4884 C   0  0  0  0  0  0  0  0  0  0  0  0
    6.0253   46.3230   30.8107 C   0  0  0  0  0  0  0  0  0  0  0  0
    6.5042   47.5646   31.4176 N   0  0  0  0  0  0  0  0  0  0  0  0
    7.2519   48.5345   30.6870 C   0  0  0  0  0  0  0  0  0  0  0  0
    7.6391   49.7157   31.3245 O   0  0  0  0  0  0  0  0  0  0  0  0
    7.5903   48.3129   29.4928 O   0  0  0  0  0  0  0  0  0  0  0  0
    8.4459   50.7032   30.6916 C   0  0  0  0  0  0  0  0  0  0  0  0
    8.7560   51.8027   31.6739 C   0  0  0  0  0  0  0  0  0  0  0  0
    8.0214   53.0000   31.5949 C   0  0  0  0  0  0  0  0  0  0  0  0
    9.7788   51.6780   32.6546 C   0  0  0  0  0  0  0  0  0  0  0  0
    8.2988   54.0641   32.4535 C   0  0  0  0  0  0  0  0  0  0  0  0
   10.0509   52.7698   33.4987 C   0  0  0  0  0  0  0  0  0  0  0  0
   10.5620   50.4778   32.7991 N   0  0  0  0  0  0  0  0  0  0  0  0
    9.3144   53.9510   33.4003 C   0  0  0  0  0  0  0  0  0  0  0  0
   11.8486   50.5524   33.2817 O   0  0  0  0  0  0  0  0  0  0  0  0
   10.0441   49.3524   32.6504 O   0  0  0  0  0  0  0  0  0  0  0  0
    8.5374   39.1405   34.0127 O   0  0  0  0  0  0  0  0  0  0  0  0
   10.9805   40.0889   33.6836 O   0  0  0  0  0  0  0  0  0  0  0  0
   10.8025   40.0902   32.2837 C   0  0  0  0  0  0  0  0  0  0  0  0
   11.5888   38.9175   31.7008 C   0  0  0  0  0  0  0  0  0  0  0  0
   12.9219   38.9373   32.1693 O   0  0  0  0  0  0  0  0  0  0  0  0
   11.0028   37.5683   32.0981 C   0  0  0  0  0  0  0  0  0  0  0  0
   13.3496   37.5886   32.2601 C   0  0  0  0  0  0  0  0  0  0  0  0
    9.9343   37.1823   31.2757 O   0  0  0  0  0  0  0  0  0  0  0  0
   12.1891   36.6677   31.9050 C   0  0  0  0  0  0  0  0  0  0  0  0
   13.8025   37.2965   33.6186 N   0  0  0  0  0  0  0  0  0  0  0  0
   12.2990   36.2868   30.5568 O   0  0  0  0  0  0  0  0  0  0  0  0
   14.7929   36.4725   33.9858 C   0  0  0  0  0  0  0  0  0  0  0  0
   13.2749   37.7294   34.7935 C   0  0  0  0  0  0  0  0  0  0  0  0
   15.6240   35.7580   33.1858 N   0  0  0  0  0  0  0  0  0  0  0  0
   14.8727   36.4411   35.3327 C   0  0  0  0  0  0  0  0  0  0  0  0
   13.9208   37.2263   35.8803 N   0  0  0  0  0  0  0  0  0  0  0  0
   16.5871   34.9921   33.7801 C   0  0  0  0  0  0  0  0  0  0  0  0
   15.8576   35.6718   35.9441 C   0  0  0  0  0  0  0  0  0  0  0  0
   16.7024   34.9585   35.1438 N   0  0  0  0  0  0  0  0  0  0  0  0
   16.0099   35.6384   37.3562 N   0  0  0  0  0  0  0  0  0  0  0  0
    7.6765   44.0641   34.0547 H   0  0  0  0  0  0  0  0  0  0  0  0
    8.6471   46.1565   34.1433 H   0  0  0  0  0  0  0  0  0  0  0  0
   10.2153   45.5888   33.8744 H   0  0  0  0  0  0  0  0  0  0  0  0
    8.4831   43.0825   31.8664 H   0  0  0  0  0  0  0  0  0  0  0  0
    9.9707   44.0653   31.9677 H   0  0  0  0  0  0  0  0  0  0  0  0
    8.5703   46.1498   31.8183 H   0  0  0  0  0  0  0  0  0  0  0  0
    8.5199   45.0976   30.3811 H   0  0  0  0  0  0  0  0  0  0  0  0
    6.3151   44.1797   30.9838 H   0  0  0  0  0  0  0  0  0  0  0  0
    6.3134   45.0789   32.5410 H   0  0  0  0  0  0  0  0  0  0  0  0
    4.9219   46.2677   30.9269 H   0  0  0  0  0  0  0  0  0  0  0  0
    6.2451   46.2890   29.7220 H   0  0  0  0  0  0  0  0  0  0  0  0
    6.2843   47.7514   32.4219 H   0  0  0  0  0  0  0  0  0  0  0  0
    9.3893   50.2530   30.3135 H   0  0  0  0  0  0  0  0  0  0  0  0
    7.8993   51.1055   29.8103 H   0  0  0  0  0  0  0  0  0  0  0  0
    7.2324   53.1140   30.8614 H   0  0  0  0  0  0  0  0  0  0  0  0
    7.7276   54.9807   32.3809 H   0  0  0  0  0  0  0  0  0  0  0  0
   10.8277   52.7013   34.2497 H   0  0  0  0  0  0  0  0  0  0  0  0
    9.5299   54.7794   34.0627 H   0  0  0  0  0  0  0  0  0  0  0  0
   11.2257   41.0358   31.8824 H   0  0  0  0  0  0  0  0  0  0  0  0
    9.7476   40.0332   31.9256 H   0  0  0  0  0  0  0  0  0  0  0  0
   11.5975   39.0148   30.5905 H   0  0  0  0  0  0  0  0  0  0  0  0
   10.7023   37.5457   33.1720 H   0  0  0  0  0  0  0  0  0  0  0  0
   14.1957   37.4366   31.5528 H   0  0  0  0  0  0  0  0  0  0  0  0
    9.1339   37.6659   31.6070 H   0  0  0  0  0  0  0  0  0  0  0  0
   12.1380   35.7717   32.5698 H   0  0  0  0  0  0  0  0  0  0  0  0
   11.7706   35.4530   30.4496 H   0  0  0  0  0  0  0  0  0  0  0  0
   12.4315   38.3980   34.8694 H   0  0  0  0  0  0  0  0  0  0  0  0
   17.2665   34.4140   33.1691 H   0  0  0  0  0  0  0  0  0  0  0  0
   15.3757   36.1867   37.9789 H   0  0  0  0  0  0  0  0  0  0  0  0
   16.7633   35.0598   37.7895 H   0  0  0  0  0  0  0  0  0  0  0  0
  1  2  2  0
  1  3  1  0
  3  4  1  0
  4  5  1  0
  6  1  1  0
  7  6  1  0
  6  8  1  0
  8  9  1  0
  9 10  1  0
 10 11  1  0
 11 12  1  0
 12 13  1  0
 13 14  1  0
 13 15  2  0
 14 16  1  0
 16 17  1  0
 17 18  2  0
 19 17  1  0
 18 20  1  0
 21 19  2  0
 19 22  1  0
 20 23  2  0
 23 21  1  0
 22 24  1  0
 22 25  2  0
  4 26  2  0
  4 27  1  0
 28 27  1  0
 28 29  1  0
 29 30  1  0
 29 31  1  0
 30 32  1  0
 31 33  1  0
 31 34  1  0
 34 32  1  0
 32 35  1  0
 34 36  1  0
 37 35  1  0
 38 35  1  0
 39 37  2  0
 37 40  1  0
 41 38  2  0
 42 39  1  0
 40 43  2  0
 40 41  1  0
 44 42  2  0
 44 43  1  0
 43 45  1  0
  6 46  1  6
  7 47  1  0
  7 48  1  0
  8 49  1  0
  8 50  1  0
  9 51  1  0
  9 52  1  0
 10 53  1  0
 10 54  1  0
 11 55  1  0
 11 56  1  0
 12 57  1  0
 16 58  1  0
 16 59  1  0
 18 60  1  0
 20 61  1  0
 21 62  1  0
 23 63  1  0
 28 64  1  0
 28 65  1  0
 29 66  1  0
 31 67  1  0
 32 68  1  0
 33 69  1  0
 34 70  1  0
 36 71  1  0
 38 72  1  0
 42 73  1  0
 45 74  1  0
 45 75  1  0
M  CHG  3   5  -1  22   1  24  -1
M  END
>  <EmbedRMS>  (209) 
0.0735937836878

$$$$

     RDKit          3D

 75 78  0  0  0  0  0  0  0  0999 V2000
    9.4310   42.9413   34.3439 C   0  0  0  0  0  0  0  0  0  0  0  0
   10.4884   43.0413   35.0293 O   0  0  0  0  0  0  0  0  0  0  0  0
    8.8557   41.7130   34.0298 O   0  0  0  0  0  0  0  0  0  0  0  0
    9.4933   40.2165   34.4707 P   0  0  0  0  0  0  0  0  0  0  0  0
    9.7290   40.1745   36.1317 O   0  0  0  0  0  0  0  0  0  0  0  0
    8.7482   44.1361   33.7718 C   0  0  1  0  0  0  0  0  0  0  0  0
    9.3035   45.3668   34.3384 N   0  0  0  0  0  0  0  0  0  0  0  0
    8.8892   44.0515   32.2304 C   0  0  0  0  0  0  0  0  0  0  0  0
    8.2020   45.1718   31.4424 C   0  0  0  0  0  0  0  0  0  0  0  0
    6.6647   45.1044   31.4835 C   0  0  0  0  0  0  0  0  0  0  0  0
    6.0258   46.3265   30.8156 C   0  0  0  0  0  0  0  0  0  0  0  0
    6.5152   47.5630   31.4250 N   0  0  0  0  0  0  0  0  0  0  0  0
    7.2296   48.5514   30.6753 C   0  0  0  0  0  0  0  0  0  0  0  0
    7.5542   49.8004   31.2218 O   0  0  0  0  0  0  0  0  0  0  0  0
    7.6009   48.2998   29.4993 O   0  0  0  0  0  0  0  0  0  0  0  0
    7.0139   50.3408   32.4278 C   0  0  0  0  0  0  0  0  0  0  0  0
    5.5532   50.6957   32.2572 C   0  0  0  0  0  0  0  0  0  0  0  0
    4.5925   49.9322   32.9478 C   0  0  0  0  0  0  0  0  0  0  0  0
    5.1221   51.8052   31.4740 C   0  0  0  0  0  0  0  0  0  0  0  0
    3.2339   50.2296   32.8455 C   0  0  0  0  0  0  0  0  0  0  0  0
    3.7465   52.0911   31.3964 C   0  0  0  0  0  0  0  0  0  0  0  0
    6.0451   52.6817   30.7975 N   0  0  0  0  0  0  0  0  0  0  0  0
    2.8114   51.3044   32.0686 C   0  0  0  0  0  0  0  0  0  0  0  0
    5.7020   53.9952   30.5721 O   0  0  0  0  0  0  0  0  0  0  0  0
    7.0942   52.2445   30.2842 O   0  0  0  0  0  0  0  0  0  0  0  0
    8.5369   39.1403   34.0143 O   0  0  0  0  0  0  0  0  0  0  0  0
   10.9795   40.0883   33.6889 O   0  0  0  0  0  0  0  0  0  0  0  0
   10.8017   40.0949   32.2900 C   0  0  0  0  0  0  0  0  0  0  0  0
   11.5885   38.9267   31.7042 C   0  0  0  0  0  0  0  0  0  0  0  0
   12.9237   38.9445   32.1722 O   0  0  0  0  0  0  0  0  0  0  0  0
   11.0029   37.5726   32.0908 C   0  0  0  0  0  0  0  0  0  0  0  0
   13.3555   37.5960   32.2595 C   0  0  0  0  0  0  0  0  0  0  0  0
    9.9379   37.1847   31.2657 O   0  0  0  0  0  0  0  0  0  0  0  0
   12.1931   36.6769   31.8952 C   0  0  0  0  0  0  0  0  0  0  0  0
   13.8028   37.2977   33.6186 N   0  0  0  0  0  0  0  0  0  0  0  0
   12.2917   36.2396   30.5587 O   0  0  0  0  0  0  0  0  0  0  0  0
   14.7926   36.4727   33.9858 C   0  0  0  0  0  0  0  0  0  0  0  0
   13.2750   37.7302   34.7935 C   0  0  0  0  0  0  0  0  0  0  0  0
   15.6241   35.7586   33.1857 N   0  0  0  0  0  0  0  0  0  0  0  0
   14.8721   36.4408   35.3326 C   0  0  0  0  0  0  0  0  0  0  0  0
   13.9204   37.2263   35.8802 N   0  0  0  0  0  0  0  0  0  0  0  0
   16.5870   34.9924   33.7800 C   0  0  0  0  0  0  0  0  0  0  0  0
   15.8572   35.6717   35.9441 C   0  0  0  0  0  0  0  0  0  0  0  0
   16.7022   34.9585   35.1437 N   0  0  0  0  0  0  0  0  0  0  0  0
   16.0097   35.6384   37.3561 N   0  0  0  0  0  0  0  0  0  0  0  0
    7.6761   44.0636   34.0543 H   0  0  0  0  0  0  0  0  0  0  0  0
    8.6460   46.1560   34.1430 H   0  0  0  0  0  0  0  0  0  0  0  0
   10.2145   45.5885   33.8740 H   0  0  0  0  0  0  0  0  0  0  0  0
    8.4829   43.0814   31.8665 H   0  0  0  0  0  0  0  0  0  0  0  0
    9.9709   44.0636   31.9679 H   0  0  0  0  0  0  0  0  0  0  0  0
    8.5708   46.1481   31.8179 H   0  0  0  0  0  0  0  0  0  0  0  0
    8.5227   45.0970   30.3802 H   0  0  0  0  0  0  0  0  0  0  0  0
    6.3171   44.1814   30.9708 H   0  0  0  0  0  0  0  0  0  0  0  0
    6.3125   45.0671   32.5352 H   0  0  0  0  0  0  0  0  0  0  0  0
    4.9236   46.2750   30.9446 H   0  0  0  0  0  0  0  0  0  0  0  0
    6.2327   46.2968   29.7243 H   0  0  0  0  0  0  0  0  0  0  0  0
    6.3563   47.6918   32.4465 H   0  0  0  0  0  0  0  0  0  0  0  0
    7.1771   49.6307   33.2664 H   0  0  0  0  0  0  0  0  0  0  0  0
    7.5783   51.2584   32.6962 H   0  0  0  0  0  0  0  0  0  0  0  0
    4.8922   49.1071   33.5806 H   0  0  0  0  0  0  0  0  0  0  0  0
    2.5073   49.6292   33.3777 H   0  0  0  0  0  0  0  0  0  0  0  0
    3.3932   52.9265   30.8054 H   0  0  0  0  0  0  0  0  0  0  0  0
    1.7566   51.5355   31.9941 H   0  0  0  0  0  0  0  0  0  0  0  0
    9.7472   40.0378   31.9304 H   0  0  0  0  0  0  0  0  0  0  0  0
   11.2240   41.0428   31.8929 H   0  0  0  0  0  0  0  0  0  0  0  0
   11.5927   39.0434   30.5966 H   0  0  0  0  0  0  0  0  0  0  0  0
   10.7003   37.5444   33.1641 H   0  0  0  0  0  0  0  0  0  0  0  0
   14.2051   37.4477   31.5560 H   0  0  0  0  0  0  0  0  0  0  0  0
    9.1373   37.6722   31.5906 H   0  0  0  0  0  0  0  0  0  0  0  0
   12.1305   35.7856   32.5586 H   0  0  0  0  0  0  0  0  0  0  0  0
   12.4606   37.0186   29.9674 H   0  0  0  0  0  0  0  0  0  0  0  0
   12.4327   38.4001   34.8694 H   0  0  0  0  0  0  0  0  0  0  0  0
   17.2666   34.4146   33.1690 H   0  0  0  0  0  0  0  0  0  0  0  0
   15.3754   36.1866   37.9788 H   0  0  0  0  0  0  0  0  0  0  0  0
   16.7634   35.0601   37.7894 H   0  0  0  0  0  0  0  0  0  0  0  0
  1  2  2  0
  1  3  1  0
  3  4  1  0
  4  5  1  0
  6  1  1  0
  7  6  1  0
  6  8  1  0
  8  9  1  0
  9 10  1  0
 10 11  1  0
 11 12  1  0
 12 13  1  0
 13 14  1  0
 13 15  2  0
 14 16  1  0
 16 17  1  0
 17 18  2  0
 19 17  1  0
 18 20  1  0
 21 19  2  0
 19 22  1  0
 20 23  2  0
 23 21  1  0
 22 24  1  0
 22 25  2  0
  4 26  2  0
  4 27  1  0
 28 27  1  0
 28 29  1  0
 29 30  1  0
 29 31  1  0
 30 32  1  0
 31 33  1  0
 31 34  1  0
 34 32  1  0
 32 35  1  0
 34 36  1  0
 37 35  1  0
 38 35  1  0
 39 37  2  0
 37 40  1  0
 41 38  2  0
 42 39  1  0
 40 43  2  0
 40 41  1  0
 44 42  2  0
 44 43  1  0
 43 45  1  0
  6 46  1  6
  7 47  1  0
  7 48  1  0
  8 49  1  0
  8 50  1  0
  9 51  1  0
  9 52  1  0
 10 53  1  0
 10 54  1  0
 11 55  1  0
 11 56  1  0
 12 57  1  0
 16 58  1  0
 16 59  1  0
 18 60  1  0
 20 61  1  0
 21 62  1  0
 23 63  1  0
 28 64  1  0
 28 65  1  0
 29 66  1  0
 31 67  1  0
 32 68  1  0
 33 69  1  0
 34 70  1  0
 36 71  1  0
 38 72  1  0
 42 73  1  0
 45 74  1  0
 45 75  1  0
M  CHG  3   5  -1  22   1  24  -1
M  END
>  <EmbedRMS>  (210) 
0.0744876999114

$$$$

     RDKit          3D

 75 78  0  0  0  0  0  0  0  0999 V2000
    9.4333   42.9365   34.3461 C   0  0  0  0  0  0  0  0  0  0  0  0
   10.4907   43.0330   35.0319 O   0  0  0  0  0  0  0  0  0  0  0  0
    8.8563   41.7104   34.0296 O   0  0  0  0  0  0  0  0  0  0  0  0
    9.4945   40.2141   34.4680 P   0  0  0  0  0  0  0  0  0  0  0  0
    9.7308   40.1726   36.1291 O   0  0  0  0  0  0  0  0  0  0  0  0
    8.7506   44.1348   33.7741 C   0  0  1  0  0  0  0  0  0  0  0  0
    9.2963   45.3820   34.3133 N   0  0  0  0  0  0  0  0  0  0  0  0
    8.8893   44.0527   32.2358 C   0  0  0  0  0  0  0  0  0  0  0  0
    8.2028   45.1822   31.4614 C   0  0  0  0  0  0  0  0  0  0  0  0
    6.6654   45.1046   31.4854 C   0  0  0  0  0  0  0  0  0  0  0  0
    6.0272   46.3228   30.8108 C   0  0  0  0  0  0  0  0  0  0  0  0
    6.5071   47.5640   31.4183 N   0  0  0  0  0  0  0  0  0  0  0  0
    7.2415   48.5404   30.6827 C   0  0  0  0  0  0  0  0  0  0  0  0
    7.5830   49.7467   31.3034 O   0  0  0  0  0  0  0  0  0  0  0  0
    7.5943   48.3108   29.4942 O   0  0  0  0  0  0  0  0  0  0  0  0
    8.2901   50.7945   30.6421 C   0  0  0  0  0  0  0  0  0  0  0  0
    7.4255   51.4408   29.5834 C   0  0  0  0  0  0  0  0  0  0  0  0
    7.8908   51.4584   28.2555 C   0  0  0  0  0  0  0  0  0  0  0  0
    6.1445   51.9852   29.8770 C   0  0  0  0  0  0  0  0  0  0  0  0
    7.1058   51.9899   27.2319 C   0  0  0  0  0  0  0  0  0  0  0  0
    5.3646   52.5014   28.8265 C   0  0  0  0  0  0  0  0  0  0  0  0
    5.6077   52.0054   31.2128 N   0  0  0  0  0  0  0  0  0  0  0  0
    5.8438   52.5066   27.5161 C   0  0  0  0  0  0  0  0  0  0  0  0
    4.2464   51.9513   31.4062 O   0  0  0  0  0  0  0  0  0  0  0  0
    6.3429   52.2337   32.1947 O   0  0  0  0  0  0  0  0  0  0  0  0
    8.5372   39.1386   34.0124 O   0  0  0  0  0  0  0  0  0  0  0  0
   10.9804   40.0880   33.6837 O   0  0  0  0  0  0  0  0  0  0  0  0
   10.8025   40.0899   32.2839 C   0  0  0  0  0  0  0  0  0  0  0  0
   11.5888   38.9174   31.7007 C   0  0  0  0  0  0  0  0  0  0  0  0
   12.9219   38.9373   32.1692 O   0  0  0  0  0  0  0  0  0  0  0  0
   11.0028   37.5682   32.0980 C   0  0  0  0  0  0  0  0  0  0  0  0
   13.3496   37.5885   32.2601 C   0  0  0  0  0  0  0  0  0  0  0  0
    9.9343   37.1822   31.2756 O   0  0  0  0  0  0  0  0  0  0  0  0
   12.1891   36.6677   31.9049 C   0  0  0  0  0  0  0  0  0  0  0  0
   13.8025   37.2965   33.6186 N   0  0  0  0  0  0  0  0  0  0  0  0
   12.2991   36.2867   30.5567 O   0  0  0  0  0  0  0  0  0  0  0  0
   14.7929   36.4725   33.9858 C   0  0  0  0  0  0  0  0  0  0  0  0
   13.2749   37.7294   34.7935 C   0  0  0  0  0  0  0  0  0  0  0  0
   15.6240   35.7580   33.1858 N   0  0  0  0  0  0  0  0  0  0  0  0
   14.8727   36.4411   35.3327 C   0  0  0  0  0  0  0  0  0  0  0  0
   13.9208   37.2263   35.8803 N   0  0  0  0  0  0  0  0  0  0  0  0
   16.5871   34.9921   33.7801 C   0  0  0  0  0  0  0  0  0  0  0  0
   15.8576   35.6718   35.9441 C   0  0  0  0  0  0  0  0  0  0  0  0
   16.7024   34.9584   35.1438 N   0  0  0  0  0  0  0  0  0  0  0  0
   16.0099   35.6384   37.3562 N   0  0  0  0  0  0  0  0  0  0  0  0
    7.6771   44.0706   34.0504 H   0  0  0  0  0  0  0  0  0  0  0  0
   10.3192   45.4406   34.1000 H   0  0  0  0  0  0  0  0  0  0  0  0
    9.1827   45.3820   35.3534 H   0  0  0  0  0  0  0  0  0  0  0  0
    9.9711   44.0680   31.9738 H   0  0  0  0  0  0  0  0  0  0  0  0
    8.4815   43.0850   31.8668 H   0  0  0  0  0  0  0  0  0  0  0  0
    8.5554   46.1509   31.8741 H   0  0  0  0  0  0  0  0  0  0  0  0
    8.5385   45.1362   30.4021 H   0  0  0  0  0  0  0  0  0  0  0  0
    6.3020   45.0641   32.5333 H   0  0  0  0  0  0  0  0  0  0  0  0
    6.3296   44.1801   30.9675 H   0  0  0  0  0  0  0  0  0  0  0  0
    4.9238   46.2679   30.9271 H   0  0  0  0  0  0  0  0  0  0  0  0
    6.2463   46.2901   29.7219 H   0  0  0  0  0  0  0  0  0  0  0  0
    6.2817   47.7539   32.4207 H   0  0  0  0  0  0  0  0  0  0  0  0
    9.2312   50.3857   30.2126 H   0  0  0  0  0  0  0  0  0  0  0  0
    8.5936   51.5581   31.3869 H   0  0  0  0  0  0  0  0  0  0  0  0
    8.8619   51.0486   28.0062 H   0  0  0  0  0  0  0  0  0  0  0  0
    7.4748   51.9947   26.2143 H   0  0  0  0  0  0  0  0  0  0  0  0
    4.3848   52.9169   29.0249 H   0  0  0  0  0  0  0  0  0  0  0  0
    5.2352   52.9144   26.7194 H   0  0  0  0  0  0  0  0  0  0  0  0
    9.7476   40.0331   31.9256 H   0  0  0  0  0  0  0  0  0  0  0  0
   11.2258   41.0357   31.8830 H   0  0  0  0  0  0  0  0  0  0  0  0
   11.5974   39.0148   30.5904 H   0  0  0  0  0  0  0  0  0  0  0  0
   10.7024   37.5455   33.1719 H   0  0  0  0  0  0  0  0  0  0  0  0
   14.1957   37.4366   31.5528 H   0  0  0  0  0  0  0  0  0  0  0  0
    9.1340   37.6658   31.6069 H   0  0  0  0  0  0  0  0  0  0  0  0
   12.1381   35.7717   32.5697 H   0  0  0  0  0  0  0  0  0  0  0  0
   11.7707   35.4530   30.4496 H   0  0  0  0  0  0  0  0  0  0  0  0
   12.4314   38.3980   34.8694 H   0  0  0  0  0  0  0  0  0  0  0  0
   17.2665   34.4140   33.1691 H   0  0  0  0  0  0  0  0  0  0  0  0
   15.3757   36.1867   37.9789 H   0  0  0  0  0  0  0  0  0  0  0  0
   16.7633   35.0598   37.7895 H   0  0  0  0  0  0  0  0  0  0  0  0
  1  2  2  0
  1  3  1  0
  3  4  1  0
  4  5  1  0
  6  1  1  0
  7  6  1  0
  6  8  1  0
  8  9  1  0
  9 10  1  0
 10 11  1  0
 11 12  1  0
 12 13  1  0
 13 14  1  0
 13 15  2  0
 14 16  1  0
 16 17  1  0
 17 18  2  0
 19 17  1  0
 18 20  1  0
 21 19  2  0
 19 22  1  0
 20 23  2  0
 23 21  1  0
 22 24  1  0
 22 25  2  0
  4 26  2  0
  4 27  1  0
 28 27  1  0
 28 29  1  0
 29 30  1  0
 29 31  1  0
 30 32  1  0
 31 33  1  0
 31 34  1  0
 34 32  1  0
 32 35  1  0
 34 36  1  0
 37 35  1  0
 38 35  1  0
 39 37  2  0
 37 40  1  0
 41 38  2  0
 42 39  1  0
 40 43  2  0
 40 41  1  0
 44 42  2  0
 44 43  1  0
 43 45  1  0
  6 46  1  6
  7 47  1  0
  7 48  1  0
  8 49  1  0
  8 50  1  0
  9 51  1  0
  9 52  1  0
 10 53  1  0
 10 54  1  0
 11 55  1  0
 11 56  1  0
 12 57  1  0
 16 58  1  0
 16 59  1  0
 18 60  1  0
 20 61  1  0
 21 62  1  0
 23 63  1  0
 28 64  1  0
 28 65  1  0
 29 66  1  0
 31 67  1  0
 32 68  1  0
 33 69  1  0
 34 70  1  0
 36 71  1  0
 38 72  1  0
 42 73  1  0
 45 74  1  0
 45 75  1  0
M  CHG  3   5  -1  22   1  24  -1
M  END
>  <EmbedRMS>  (211) 
0.0741583793366

$$$$

     RDKit          3D

 75 78  0  0  0  0  0  0  0  0999 V2000
    9.4314   42.9406   34.3434 C   0  0  0  0  0  0  0  0  0  0  0  0
   10.4886   43.0413   35.0292 O   0  0  0  0  0  0  0  0  0  0  0  0
    8.8561   41.7122   34.0297 O   0  0  0  0  0  0  0  0  0  0  0  0
    9.4935   40.2158   34.4704 P   0  0  0  0  0  0  0  0  0  0  0  0
    9.7297   40.1741   36.1313 O   0  0  0  0  0  0  0  0  0  0  0  0
    8.7479   44.1339   33.7708 C   0  0  1  0  0  0  0  0  0  0  0  0
    9.2992   45.3652   34.3374 N   0  0  0  0  0  0  0  0  0  0  0  0
    8.8902   44.0515   32.2299 C   0  0  0  0  0  0  0  0  0  0  0  0
    8.2028   45.1726   31.4432 C   0  0  0  0  0  0  0  0  0  0  0  0
    6.6658   45.1075   31.4892 C   0  0  0  0  0  0  0  0  0  0  0  0
    6.0286   46.3263   30.8158 C   0  0  0  0  0  0  0  0  0  0  0  0
    6.5119   47.5660   31.4248 N   0  0  0  0  0  0  0  0  0  0  0  0
    7.2298   48.5520   30.6732 C   0  0  0  0  0  0  0  0  0  0  0  0
    7.5310   49.8119   31.2076 O   0  0  0  0  0  0  0  0  0  0  0  0
    7.6007   48.2985   29.4976 O   0  0  0  0  0  0  0  0  0  0  0  0
    7.1530   50.2560   32.5099 C   0  0  0  0  0  0  0  0  0  0  0  0
    8.0373   49.6431   33.5739 C   0  0  0  0  0  0  0  0  0  0  0  0
    9.4258   49.5976   33.3494 C   0  0  0  0  0  0  0  0  0  0  0  0
    7.5187   49.1276   34.7912 C   0  0  0  0  0  0  0  0  0  0  0  0
   10.2816   49.0185   34.2874 C   0  0  0  0  0  0  0  0  0  0  0  0
    8.3947   48.5368   35.7174 C   0  0  0  0  0  0  0  0  0  0  0  0
    6.1240   49.2163   35.1195 N   0  0  0  0  0  0  0  0  0  0  0  0
    9.7668   48.4860   35.4677 C   0  0  0  0  0  0  0  0  0  0  0  0
    5.5140   48.1819   35.7907 O   0  0  0  0  0  0  0  0  0  0  0  0
    5.5261   50.3078   35.0231 O   0  0  0  0  0  0  0  0  0  0  0  0
    8.5370   39.1397   34.0140 O   0  0  0  0  0  0  0  0  0  0  0  0
   10.9791   40.0873   33.6873 O   0  0  0  0  0  0  0  0  0  0  0  0
   10.7993   40.0946   32.2885 C   0  0  0  0  0  0  0  0  0  0  0  0
   11.5957   38.9351   31.6994 C   0  0  0  0  0  0  0  0  0  0  0  0
   12.9257   38.9478   32.1798 O   0  0  0  0  0  0  0  0  0  0  0  0
   11.0070   37.5758   32.0732 C   0  0  0  0  0  0  0  0  0  0  0  0
   13.3571   37.5980   32.2612 C   0  0  0  0  0  0  0  0  0  0  0  0
    9.9093   37.1808   31.2875 O   0  0  0  0  0  0  0  0  0  0  0  0
   12.1967   36.6764   31.8894 C   0  0  0  0  0  0  0  0  0  0  0  0
   13.8018   37.2956   33.6197 N   0  0  0  0  0  0  0  0  0  0  0  0
   12.3048   36.2360   30.5555 O   0  0  0  0  0  0  0  0  0  0  0  0
   14.7922   36.4716   33.9864 C   0  0  0  0  0  0  0  0  0  0  0  0
   13.2747   37.7291   34.7944 C   0  0  0  0  0  0  0  0  0  0  0  0
   15.6240   35.7581   33.1861 N   0  0  0  0  0  0  0  0  0  0  0  0
   14.8721   36.4402   35.3331 C   0  0  0  0  0  0  0  0  0  0  0  0
   13.9206   37.2257   35.8810 N   0  0  0  0  0  0  0  0  0  0  0  0
   16.5873   34.9924   33.7802 C   0  0  0  0  0  0  0  0  0  0  0  0
   15.8576   35.6714   35.9444 C   0  0  0  0  0  0  0  0  0  0  0  0
   16.7026   34.9585   35.1439 N   0  0  0  0  0  0  0  0  0  0  0  0
   16.0102   35.6382   37.3564 N   0  0  0  0  0  0  0  0  0  0  0  0
    7.6757   44.0593   34.0522 H   0  0  0  0  0  0  0  0  0  0  0  0
   10.2130   45.5869   33.8784 H   0  0  0  0  0  0  0  0  0  0  0  0
    8.6410   46.1491   34.1272 H   0  0  0  0  0  0  0  0  0  0  0  0
    9.9721   44.0649   31.9681 H   0  0  0  0  0  0  0  0  0  0  0  0
    8.4849   43.0816   31.8645 H   0  0  0  0  0  0  0  0  0  0  0  0
    8.5736   46.1495   31.8159 H   0  0  0  0  0  0  0  0  0  0  0  0
    8.5203   45.0960   30.3801 H   0  0  0  0  0  0  0  0  0  0  0  0
    6.3153   44.1820   30.9827 H   0  0  0  0  0  0  0  0  0  0  0  0
    6.3165   45.0779   32.5421 H   0  0  0  0  0  0  0  0  0  0  0  0
    6.2430   46.2933   29.7261 H   0  0  0  0  0  0  0  0  0  0  0  0
    4.9256   46.2728   30.9366 H   0  0  0  0  0  0  0  0  0  0  0  0
    6.2943   47.7260   32.4325 H   0  0  0  0  0  0  0  0  0  0  0  0
    6.0749   50.0498   32.6633 H   0  0  0  0  0  0  0  0  0  0  0  0
    7.2865   51.3572   32.5496 H   0  0  0  0  0  0  0  0  0  0  0  0
    9.8478   50.0044   32.4386 H   0  0  0  0  0  0  0  0  0  0  0  0
   11.3465   48.9812   34.0974 H   0  0  0  0  0  0  0  0  0  0  0  0
    8.0151   48.1345   36.6481 H   0  0  0  0  0  0  0  0  0  0  0  0
   10.4321   48.0349   36.1925 H   0  0  0  0  0  0  0  0  0  0  0  0
   11.2093   41.0481   31.8918 H   0  0  0  0  0  0  0  0  0  0  0  0
    9.7448   40.0201   31.9306 H   0  0  0  0  0  0  0  0  0  0  0  0
   11.6207   39.0685   30.5942 H   0  0  0  0  0  0  0  0  0  0  0  0
   10.7059   37.5564   33.1439 H   0  0  0  0  0  0  0  0  0  0  0  0
   14.2095   37.4543   31.5601 H   0  0  0  0  0  0  0  0  0  0  0  0
   10.0864   37.4210   30.3414 H   0  0  0  0  0  0  0  0  0  0  0  0
   12.1275   35.7872   32.5550 H   0  0  0  0  0  0  0  0  0  0  0  0
   12.5030   37.0109   29.9673 H   0  0  0  0  0  0  0  0  0  0  0  0
   12.4328   38.3996   34.8703 H   0  0  0  0  0  0  0  0  0  0  0  0
   17.2670   34.4149   33.1691 H   0  0  0  0  0  0  0  0  0  0  0  0
   16.7640   35.0601   37.7896 H   0  0  0  0  0  0  0  0  0  0  0  0
   15.3758   36.1862   37.9792 H   0  0  0  0  0  0  0  0  0  0  0  0
  1  2  2  0
  1  3  1  0
  3  4  1  0
  4  5  1  0
  6  1  1  0
  7  6  1  0
  6  8  1  0
  8  9  1  0
  9 10  1  0
 10 11  1  0
 11 12  1  0
 12 13  1  0
 13 14  1  0
 13 15  2  0
 14 16  1  0
 16 17  1  0
 17 18  2  0
 19 17  1  0
 18 20  1  0
 21 19  2  0
 19 22  1  0
 20 23  2  0
 23 21  1  0
 22 24  1  0
 22 25  2  0
  4 26  2  0
  4 27  1  0
 28 27  1  0
 28 29  1  0
 29 30  1  0
 29 31  1  0
 30 32  1  0
 31 33  1  0
 31 34  1  0
 34 32  1  0
 32 35  1  0
 34 36  1  0
 37 35  1  0
 38 35  1  0
 39 37  2  0
 37 40  1  0
 41 38  2  0
 42 39  1  0
 40 43  2  0
 40 41  1  0
 44 42  2  0
 44 43  1  0
 43 45  1  0
  6 46  1  6
  7 47  1  0
  7 48  1  0
  8 49  1  0
  8 50  1  0
  9 51  1  0
  9 52  1  0
 10 53  1  0
 10 54  1  0
 11 55  1  0
 11 56  1  0
 12 57  1  0
 16 58  1  0
 16 59  1  0
 18 60  1  0
 20 61  1  0
 21 62  1  0
 23 63  1  0
 28 64  1  0
 28 65  1  0
 29 66  1  0
 31 67  1  0
 32 68  1  0
 33 69  1  0
 34 70  1  0
 36 71  1  0
 38 72  1  0
 42 73  1  0
 45 74  1  0
 45 75  1  0
M  CHG  3   5  -1  22   1  24  -1
M  END
>  <EmbedRMS>  (212) 
0.0751899310303

$$$$

     RDKit          3D

 75 78  0  0  0  0  0  0  0  0999 V2000
    9.4332   42.9365   34.3463 C   0  0  0  0  0  0  0  0  0  0  0  0
   10.4907   43.0330   35.0319 O   0  0  0  0  0  0  0  0  0  0  0  0
    8.8559   41.7103   34.0304 O   0  0  0  0  0  0  0  0  0  0  0  0
    9.4931   40.2140   34.4703 P   0  0  0  0  0  0  0  0  0  0  0  0
    9.7293   40.1727   36.1313 O   0  0  0  0  0  0  0  0  0  0  0  0
    8.7506   44.1348   33.7741 C   0  0  1  0  0  0  0  0  0  0  0  0
    9.2963   45.3820   34.3133 N   0  0  0  0  0  0  0  0  0  0  0  0
    8.8893   44.0526   32.2358 C   0  0  0  0  0  0  0  0  0  0  0  0
    8.2029   45.1822   31.4614 C   0  0  0  0  0  0  0  0  0  0  0  0
    6.6654   45.1046   31.4854 C   0  0  0  0  0  0  0  0  0  0  0  0
    6.0272   46.3228   30.8107 C   0  0  0  0  0  0  0  0  0  0  0  0
    6.5069   47.5640   31.4183 N   0  0  0  0  0  0  0  0  0  0  0  0
    7.2417   48.5403   30.6828 C   0  0  0  0  0  0  0  0  0  0  0  0
    7.5840   49.7467   31.3033 O   0  0  0  0  0  0  0  0  0  0  0  0
    7.5944   48.3106   29.4942 O   0  0  0  0  0  0  0  0  0  0  0  0
    8.3057   50.7861   30.6440 C   0  0  0  0  0  0  0  0  0  0  0  0
    7.4430   51.4450   29.5907 C   0  0  0  0  0  0  0  0  0  0  0  0
    6.1737   51.9154   29.9731 C   0  0  0  0  0  0  0  0  0  0  0  0
    7.8433   51.5626   28.2336 C   0  0  0  0  0  0  0  0  0  0  0  0
    5.2985   52.4535   29.0284 C   0  0  0  0  0  0  0  0  0  0  0  0
    6.9404   52.0877   27.2936 C   0  0  0  0  0  0  0  0  0  0  0  0
    9.1545   51.1796   27.7933 N   0  0  0  0  0  0  0  0  0  0  0  0
    5.6774   52.5303   27.6894 C   0  0  0  0  0  0  0  0  0  0  0  0
    9.3125   50.5742   26.5680 O   0  0  0  0  0  0  0  0  0  0  0  0
   10.1637   51.6169   28.3835 O   0  0  0  0  0  0  0  0  0  0  0  0
    8.5366   39.1381   34.0136 O   0  0  0  0  0  0  0  0  0  0  0  0
   10.9788   40.0866   33.6873 O   0  0  0  0  0  0  0  0  0  0  0  0
   10.7993   40.0944   32.2886 C   0  0  0  0  0  0  0  0  0  0  0  0
   11.5957   38.9351   31.6994 C   0  0  0  0  0  0  0  0  0  0  0  0
   12.9257   38.9477   32.1798 O   0  0  0  0  0  0  0  0  0  0  0  0
   11.0070   37.5757   32.0732 C   0  0  0  0  0  0  0  0  0  0  0  0
   13.3571   37.5979   32.2612 C   0  0  0  0  0  0  0  0  0  0  0  0
    9.9093   37.1807   31.2875 O   0  0  0  0  0  0  0  0  0  0  0  0
   12.1967   36.6763   31.8894 C   0  0  0  0  0  0  0  0  0  0  0  0
   13.8018   37.2956   33.6197 N   0  0  0  0  0  0  0  0  0  0  0  0
   12.3049   36.2360   30.5555 O   0  0  0  0  0  0  0  0  0  0  0  0
   14.7922   36.4716   33.9864 C   0  0  0  0  0  0  0  0  0  0  0  0
   13.2747   37.7291   34.7944 C   0  0  0  0  0  0  0  0  0  0  0  0
   15.6240   35.7581   33.1861 N   0  0  0  0  0  0  0  0  0  0  0  0
   14.8721   36.4401   35.3331 C   0  0  0  0  0  0  0  0  0  0  0  0
   13.9206   37.2257   35.8810 N   0  0  0  0  0  0  0  0  0  0  0  0
   16.5873   34.9924   33.7802 C   0  0  0  0  0  0  0  0  0  0  0  0
   15.8576   35.6714   35.9444 C   0  0  0  0  0  0  0  0  0  0  0  0
   16.7026   34.9585   35.1439 N   0  0  0  0  0  0  0  0  0  0  0  0
   16.0102   35.6382   37.3564 N   0  0  0  0  0  0  0  0  0  0  0  0
    7.6770   44.0707   34.0504 H   0  0  0  0  0  0  0  0  0  0  0  0
   10.3192   45.4406   34.1000 H   0  0  0  0  0  0  0  0  0  0  0  0
    9.1827   45.3820   35.3534 H   0  0  0  0  0  0  0  0  0  0  0  0
    8.4816   43.0850   31.8669 H   0  0  0  0  0  0  0  0  0  0  0  0
    9.9711   44.0679   31.9739 H   0  0  0  0  0  0  0  0  0  0  0  0
    8.5385   45.1361   30.4021 H   0  0  0  0  0  0  0  0  0  0  0  0
    8.5554   46.1509   31.8740 H   0  0  0  0  0  0  0  0  0  0  0  0
    6.3296   44.1801   30.9675 H   0  0  0  0  0  0  0  0  0  0  0  0
    6.3021   45.0641   32.5333 H   0  0  0  0  0  0  0  0  0  0  0  0
    6.2464   46.2901   29.7218 H   0  0  0  0  0  0  0  0  0  0  0  0
    4.9238   46.2678   30.9270 H   0  0  0  0  0  0  0  0  0  0  0  0
    6.2818   47.7537   32.4209 H   0  0  0  0  0  0  0  0  0  0  0  0
    9.2430   50.3598   30.2354 H   0  0  0  0  0  0  0  0  0  0  0  0
    8.5880   51.5514   31.3971 H   0  0  0  0  0  0  0  0  0  0  0  0
    5.8532   51.8462   31.0056 H   0  0  0  0  0  0  0  0  0  0  0  0
    4.3208   52.8030   29.3343 H   0  0  0  0  0  0  0  0  0  0  0  0
    7.2268   52.1779   26.2533 H   0  0  0  0  0  0  0  0  0  0  0  0
    4.9951   52.9431   26.9575 H   0  0  0  0  0  0  0  0  0  0  0  0
    9.7448   40.0200   31.9304 H   0  0  0  0  0  0  0  0  0  0  0  0
   11.2094   41.0479   31.8922 H   0  0  0  0  0  0  0  0  0  0  0  0
   11.6206   39.0685   30.5942 H   0  0  0  0  0  0  0  0  0  0  0  0
   10.7059   37.5563   33.1438 H   0  0  0  0  0  0  0  0  0  0  0  0
   14.2095   37.4543   31.5601 H   0  0  0  0  0  0  0  0  0  0  0  0
   10.0865   37.4209   30.3413 H   0  0  0  0  0  0  0  0  0  0  0  0
   12.1276   35.7872   32.5549 H   0  0  0  0  0  0  0  0  0  0  0  0
   12.5031   37.0109   29.9672 H   0  0  0  0  0  0  0  0  0  0  0  0
   12.4328   38.3996   34.8703 H   0  0  0  0  0  0  0  0  0  0  0  0
   17.2670   34.4149   33.1691 H   0  0  0  0  0  0  0  0  0  0  0  0
   15.3758   36.1862   37.9791 H   0  0  0  0  0  0  0  0  0  0  0  0
   16.7640   35.0601   37.7896 H   0  0  0  0  0  0  0  0  0  0  0  0
  1  2  2  0
  1  3  1  0
  3  4  1  0
  4  5  1  0
  6  1  1  0
  7  6  1  0
  6  8  1  0
  8  9  1  0
  9 10  1  0
 10 11  1  0
 11 12  1  0
 12 13  1  0
 13 14  1  0
 13 15  2  0
 14 16  1  0
 16 17  1  0
 17 18  2  0
 19 17  1  0
 18 20  1  0
 21 19  2  0
 19 22  1  0
 20 23  2  0
 23 21  1  0
 22 24  1  0
 22 25  2  0
  4 26  2  0
  4 27  1  0
 28 27  1  0
 28 29  1  0
 29 30  1  0
 29 31  1  0
 30 32  1  0
 31 33  1  0
 31 34  1  0
 34 32  1  0
 32 35  1  0
 34 36  1  0
 37 35  1  0
 38 35  1  0
 39 37  2  0
 37 40  1  0
 41 38  2  0
 42 39  1  0
 40 43  2  0
 40 41  1  0
 44 42  2  0
 44 43  1  0
 43 45  1  0
  6 46  1  6
  7 47  1  0
  7 48  1  0
  8 49  1  0
  8 50  1  0
  9 51  1  0
  9 52  1  0
 10 53  1  0
 10 54  1  0
 11 55  1  0
 11 56  1  0
 12 57  1  0
 16 58  1  0
 16 59  1  0
 18 60  1  0
 20 61  1  0
 21 62  1  0
 23 63  1  0
 28 64  1  0
 28 65  1  0
 29 66  1  0
 31 67  1  0
 32 68  1  0
 33 69  1  0
 34 70  1  0
 36 71  1  0
 38 72  1  0
 42 73  1  0
 45 74  1  0
 45 75  1  0
M  CHG  3   5  -1  22   1  24  -1
M  END
>  <EmbedRMS>  (213) 
0.0761313129544

$$$$

     RDKit          3D

 75 78  0  0  0  0  0  0  0  0999 V2000
    9.4311   42.9411   34.3436 C   0  0  0  0  0  0  0  0  0  0  0  0
   10.4883   43.0411   35.0293 O   0  0  0  0  0  0  0  0  0  0  0  0
    8.8561   41.7128   34.0287 O   0  0  0  0  0  0  0  0  0  0  0  0
    9.4945   40.2161   34.4677 P   0  0  0  0  0  0  0  0  0  0  0  0
    9.7312   40.1740   36.1288 O   0  0  0  0  0  0  0  0  0  0  0  0
    8.7481   44.1360   33.7718 C   0  0  1  0  0  0  0  0  0  0  0  0
    9.3034   45.3666   34.3384 N   0  0  0  0  0  0  0  0  0  0  0  0
    8.8892   44.0516   32.2304 C   0  0  0  0  0  0  0  0  0  0  0  0
    8.2020   45.1719   31.4424 C   0  0  0  0  0  0  0  0  0  0  0  0
    6.6646   45.1045   31.4834 C   0  0  0  0  0  0  0  0  0  0  0  0
    6.0258   46.3265   30.8156 C   0  0  0  0  0  0  0  0  0  0  0  0
    6.5152   47.5631   31.4250 N   0  0  0  0  0  0  0  0  0  0  0  0
    7.2301   48.5512   30.6755 C   0  0  0  0  0  0  0  0  0  0  0  0
    7.5567   49.7994   31.2225 O   0  0  0  0  0  0  0  0  0  0  0  0
    7.6006   48.2999   29.4992 O   0  0  0  0  0  0  0  0  0  0  0  0
    7.0197   50.3390   32.4305 C   0  0  0  0  0  0  0  0  0  0  0  0
    5.5592   50.6962   32.2636 C   0  0  0  0  0  0  0  0  0  0  0  0
    4.5990   49.9338   32.9561 C   0  0  0  0  0  0  0  0  0  0  0  0
    5.1279   51.8071   31.4825 C   0  0  0  0  0  0  0  0  0  0  0  0
    3.2406   50.2335   32.8575 C   0  0  0  0  0  0  0  0  0  0  0  0
    3.7525   52.0953   31.4085 C   0  0  0  0  0  0  0  0  0  0  0  0
    6.0506   52.6828   30.8046 N   0  0  0  0  0  0  0  0  0  0  0  0
    2.8179   51.3095   32.0824 C   0  0  0  0  0  0  0  0  0  0  0  0
    5.7090   53.9971   30.5812 O   0  0  0  0  0  0  0  0  0  0  0  0
    7.0979   52.2446   30.2885 O   0  0  0  0  0  0  0  0  0  0  0  0
    8.5374   39.1400   34.0124 O   0  0  0  0  0  0  0  0  0  0  0  0
   10.9799   40.0879   33.6828 O   0  0  0  0  0  0  0  0  0  0  0  0
   10.8002   40.0907   32.2831 C   0  0  0  0  0  0  0  0  0  0  0  0
   11.5958   38.9271   31.6964 C   0  0  0  0  0  0  0  0  0  0  0  0
   12.9239   38.9409   32.1767 O   0  0  0  0  0  0  0  0  0  0  0  0
   11.0062   37.5720   32.0794 C   0  0  0  0  0  0  0  0  0  0  0  0
   13.3506   37.5906   32.2614 C   0  0  0  0  0  0  0  0  0  0  0  0
    9.9064   37.1793   31.2946 O   0  0  0  0  0  0  0  0  0  0  0  0
   12.1919   36.6672   31.9003 C   0  0  0  0  0  0  0  0  0  0  0  0
   13.8017   37.2948   33.6193 N   0  0  0  0  0  0  0  0  0  0  0  0
   12.3133   36.2788   30.5561 O   0  0  0  0  0  0  0  0  0  0  0  0
   14.7927   36.4717   33.9861 C   0  0  0  0  0  0  0  0  0  0  0  0
   13.2746   37.7284   34.7941 C   0  0  0  0  0  0  0  0  0  0  0  0
   15.6240   35.7576   33.1859 N   0  0  0  0  0  0  0  0  0  0  0  0
   14.8728   36.4406   35.3330 C   0  0  0  0  0  0  0  0  0  0  0  0
   13.9209   37.2258   35.8807 N   0  0  0  0  0  0  0  0  0  0  0  0
   16.5874   34.9920   33.7802 C   0  0  0  0  0  0  0  0  0  0  0  0
   15.8579   35.6716   35.9443 C   0  0  0  0  0  0  0  0  0  0  0  0
   16.7028   34.9584   35.1439 N   0  0  0  0  0  0  0  0  0  0  0  0
   16.0103   35.6383   37.3563 N   0  0  0  0  0  0  0  0  0  0  0  0
    7.6761   44.0634   34.0542 H   0  0  0  0  0  0  0  0  0  0  0  0
    8.6460   46.1559   34.1431 H   0  0  0  0  0  0  0  0  0  0  0  0
   10.2145   45.5885   33.8741 H   0  0  0  0  0  0  0  0  0  0  0  0
    9.9708   44.0637   31.9678 H   0  0  0  0  0  0  0  0  0  0  0  0
    8.4829   43.0815   31.8663 H   0  0  0  0  0  0  0  0  0  0  0  0
    8.5708   46.1482   31.8180 H   0  0  0  0  0  0  0  0  0  0  0  0
    8.5227   45.0971   30.3802 H   0  0  0  0  0  0  0  0  0  0  0  0
    6.3171   44.1815   30.9707 H   0  0  0  0  0  0  0  0  0  0  0  0
    6.3125   45.0671   32.5352 H   0  0  0  0  0  0  0  0  0  0  0  0
    6.2327   46.2969   29.7243 H   0  0  0  0  0  0  0  0  0  0  0  0
    4.9236   46.2751   30.9446 H   0  0  0  0  0  0  0  0  0  0  0  0
    6.3561   47.6918   32.4465 H   0  0  0  0  0  0  0  0  0  0  0  0
    7.5860   51.2553   32.6989 H   0  0  0  0  0  0  0  0  0  0  0  0
    7.1838   49.6274   33.2677 H   0  0  0  0  0  0  0  0  0  0  0  0
    4.8989   49.1078   33.5877 H   0  0  0  0  0  0  0  0  0  0  0  0
    2.5144   49.6339   33.3911 H   0  0  0  0  0  0  0  0  0  0  0  0
    3.3991   52.9318   30.8191 H   0  0  0  0  0  0  0  0  0  0  0  0
    1.7632   51.5424   32.0107 H   0  0  0  0  0  0  0  0  0  0  0  0
   11.2114   41.0421   31.8829 H   0  0  0  0  0  0  0  0  0  0  0  0
    9.7454   40.0168   31.9264 H   0  0  0  0  0  0  0  0  0  0  0  0
   11.6245   39.0449   30.5889 H   0  0  0  0  0  0  0  0  0  0  0  0
   10.7050   37.5581   33.1500 H   0  0  0  0  0  0  0  0  0  0  0  0
   14.1984   37.4426   31.5553 H   0  0  0  0  0  0  0  0  0  0  0  0
   10.0893   37.4057   30.3459 H   0  0  0  0  0  0  0  0  0  0  0  0
   12.1337   35.7755   32.5703 H   0  0  0  0  0  0  0  0  0  0  0  0
   11.7934   35.4394   30.4514 H   0  0  0  0  0  0  0  0  0  0  0  0
   12.4314   38.3973   34.8699 H   0  0  0  0  0  0  0  0  0  0  0  0
   17.2669   34.4142   33.1692 H   0  0  0  0  0  0  0  0  0  0  0  0
   15.3759   36.1864   37.9790 H   0  0  0  0  0  0  0  0  0  0  0  0
   16.7638   35.0599   37.7896 H   0  0  0  0  0  0  0  0  0  0  0  0
  1  2  2  0
  1  3  1  0
  3  4  1  0
  4  5  1  0
  6  1  1  0
  7  6  1  0
  6  8  1  0
  8  9  1  0
  9 10  1  0
 10 11  1  0
 11 12  1  0
 12 13  1  0
 13 14  1  0
 13 15  2  0
 14 16  1  0
 16 17  1  0
 17 18  2  0
 19 17  1  0
 18 20  1  0
 21 19  2  0
 19 22  1  0
 20 23  2  0
 23 21  1  0
 22 24  1  0
 22 25  2  0
  4 26  2  0
  4 27  1  0
 28 27  1  0
 28 29  1  0
 29 30  1  0
 29 31  1  0
 30 32  1  0
 31 33  1  0
 31 34  1  0
 34 32  1  0
 32 35  1  0
 34 36  1  0
 37 35  1  0
 38 35  1  0
 39 37  2  0
 37 40  1  0
 41 38  2  0
 42 39  1  0
 40 43  2  0
 40 41  1  0
 44 42  2  0
 44 43  1  0
 43 45  1  0
  6 46  1  6
  7 47  1  0
  7 48  1  0
  8 49  1  0
  8 50  1  0
  9 51  1  0
  9 52  1  0
 10 53  1  0
 10 54  1  0
 11 55  1  0
 11 56  1  0
 12 57  1  0
 16 58  1  0
 16 59  1  0
 18 60  1  0
 20 61  1  0
 21 62  1  0
 23 63  1  0
 28 64  1  0
 28 65  1  0
 29 66  1  0
 31 67  1  0
 32 68  1  0
 33 69  1  0
 34 70  1  0
 36 71  1  0
 38 72  1  0
 42 73  1  0
 45 74  1  0
 45 75  1  0
M  CHG  3   5  -1  22   1  24  -1
M  END
>  <EmbedRMS>  (214) 
0.0735533805466

$$$$

     RDKit          3D

 75 78  0  0  0  0  0  0  0  0999 V2000
    9.4332   42.9366   34.3464 C   0  0  0  0  0  0  0  0  0  0  0  0
   10.4908   43.0331   35.0319 O   0  0  0  0  0  0  0  0  0  0  0  0
    8.8559   41.7104   34.0306 O   0  0  0  0  0  0  0  0  0  0  0  0
    9.4931   40.2143   34.4708 P   0  0  0  0  0  0  0  0  0  0  0  0
    9.7288   40.1729   36.1318 O   0  0  0  0  0  0  0  0  0  0  0  0
    8.7506   44.1348   33.7741 C   0  0  1  0  0  0  0  0  0  0  0  0
    9.2963   45.3821   34.3132 N   0  0  0  0  0  0  0  0  0  0  0  0
    8.8893   44.0526   32.2358 C   0  0  0  0  0  0  0  0  0  0  0  0
    8.2029   45.1822   31.4613 C   0  0  0  0  0  0  0  0  0  0  0  0
    6.6654   45.1046   31.4854 C   0  0  0  0  0  0  0  0  0  0  0  0
    6.0272   46.3228   30.8107 C   0  0  0  0  0  0  0  0  0  0  0  0
    6.5069   47.5640   31.4184 N   0  0  0  0  0  0  0  0  0  0  0  0
    7.2417   48.5403   30.6829 C   0  0  0  0  0  0  0  0  0  0  0  0
    7.5841   49.7467   31.3035 O   0  0  0  0  0  0  0  0  0  0  0  0
    7.5943   48.3107   29.4942 O   0  0  0  0  0  0  0  0  0  0  0  0
    8.3043   50.7868   30.6437 C   0  0  0  0  0  0  0  0  0  0  0  0
    7.4402   51.4458   29.5922 C   0  0  0  0  0  0  0  0  0  0  0  0
    6.1694   51.9127   29.9737 C   0  0  0  0  0  0  0  0  0  0  0  0
    7.8424   51.5661   28.2369 C   0  0  0  0  0  0  0  0  0  0  0  0
    5.2947   52.4512   29.0288 C   0  0  0  0  0  0  0  0  0  0  0  0
    6.9406   52.0936   27.2960 C   0  0  0  0  0  0  0  0  0  0  0  0
    9.1585   51.1897   27.8052 N   0  0  0  0  0  0  0  0  0  0  0  0
    5.6760   52.5326   27.6906 C   0  0  0  0  0  0  0  0  0  0  0  0
   10.2623   51.6842   28.4609 O   0  0  0  0  0  0  0  0  0  0  0  0
    9.3149   50.6228   26.7040 O   0  0  0  0  0  0  0  0  0  0  0  0
    8.5366   39.1385   34.0140 O   0  0  0  0  0  0  0  0  0  0  0  0
   10.9795   40.0875   33.6890 O   0  0  0  0  0  0  0  0  0  0  0  0
   10.8017   40.0947   32.2902 C   0  0  0  0  0  0  0  0  0  0  0  0
   11.5885   38.9266   31.7041 C   0  0  0  0  0  0  0  0  0  0  0  0
   12.9237   38.9445   32.1721 O   0  0  0  0  0  0  0  0  0  0  0  0
   11.0029   37.5725   32.0908 C   0  0  0  0  0  0  0  0  0  0  0  0
   13.3555   37.5960   32.2594 C   0  0  0  0  0  0  0  0  0  0  0  0
    9.9380   37.1846   31.2656 O   0  0  0  0  0  0  0  0  0  0  0  0
   12.1932   36.6769   31.8952 C   0  0  0  0  0  0  0  0  0  0  0  0
   13.8028   37.2977   33.6186 N   0  0  0  0  0  0  0  0  0  0  0  0
   12.2918   36.2396   30.5587 O   0  0  0  0  0  0  0  0  0  0  0  0
   14.7926   36.4727   33.9858 C   0  0  0  0  0  0  0  0  0  0  0  0
   13.2750   37.7302   34.7935 C   0  0  0  0  0  0  0  0  0  0  0  0
   15.6241   35.7586   33.1857 N   0  0  0  0  0  0  0  0  0  0  0  0
   14.8721   36.4408   35.3326 C   0  0  0  0  0  0  0  0  0  0  0  0
   13.9204   37.2263   35.8802 N   0  0  0  0  0  0  0  0  0  0  0  0
   16.5870   34.9924   33.7800 C   0  0  0  0  0  0  0  0  0  0  0  0
   15.8572   35.6717   35.9441 C   0  0  0  0  0  0  0  0  0  0  0  0
   16.7022   34.9585   35.1437 N   0  0  0  0  0  0  0  0  0  0  0  0
   16.0097   35.6384   37.3561 N   0  0  0  0  0  0  0  0  0  0  0  0
    7.6770   44.0707   34.0504 H   0  0  0  0  0  0  0  0  0  0  0  0
    9.1827   45.3822   35.3534 H   0  0  0  0  0  0  0  0  0  0  0  0
   10.3192   45.4407   34.0999 H   0  0  0  0  0  0  0  0  0  0  0  0
    8.4816   43.0849   31.8669 H   0  0  0  0  0  0  0  0  0  0  0  0
    9.9711   44.0679   31.9740 H   0  0  0  0  0  0  0  0  0  0  0  0
    8.5554   46.1509   31.8739 H   0  0  0  0  0  0  0  0  0  0  0  0
    8.5385   45.1360   30.4021 H   0  0  0  0  0  0  0  0  0  0  0  0
    6.3296   44.1801   30.9675 H   0  0  0  0  0  0  0  0  0  0  0  0
    6.3021   45.0641   32.5332 H   0  0  0  0  0  0  0  0  0  0  0  0
    4.9238   46.2678   30.9269 H   0  0  0  0  0  0  0  0  0  0  0  0
    6.2464   46.2901   29.7218 H   0  0  0  0  0  0  0  0  0  0  0  0
    6.2819   47.7536   32.4209 H   0  0  0  0  0  0  0  0  0  0  0  0
    8.5878   51.5516   31.3968 H   0  0  0  0  0  0  0  0  0  0  0  0
    9.2405   50.3611   30.2317 H   0  0  0  0  0  0  0  0  0  0  0  0
    5.8475   51.8405   31.0056 H   0  0  0  0  0  0  0  0  0  0  0  0
    4.3158   52.7981   29.3339 H   0  0  0  0  0  0  0  0  0  0  0  0
    7.2293   52.1878   26.2566 H   0  0  0  0  0  0  0  0  0  0  0  0
    4.9943   52.9465   26.9587 H   0  0  0  0  0  0  0  0  0  0  0  0
   11.2242   41.0427   31.8934 H   0  0  0  0  0  0  0  0  0  0  0  0
    9.7472   40.0378   31.9304 H   0  0  0  0  0  0  0  0  0  0  0  0
   11.5927   39.0434   30.5965 H   0  0  0  0  0  0  0  0  0  0  0  0
   10.7003   37.5442   33.1640 H   0  0  0  0  0  0  0  0  0  0  0  0
   14.2052   37.4477   31.5560 H   0  0  0  0  0  0  0  0  0  0  0  0
    9.1374   37.6722   31.5905 H   0  0  0  0  0  0  0  0  0  0  0  0
   12.1305   35.7855   32.5585 H   0  0  0  0  0  0  0  0  0  0  0  0
   12.4606   37.0186   29.9674 H   0  0  0  0  0  0  0  0  0  0  0  0
   12.4327   38.4001   34.8694 H   0  0  0  0  0  0  0  0  0  0  0  0
   17.2666   34.4146   33.1690 H   0  0  0  0  0  0  0  0  0  0  0  0
   16.7633   35.0601   37.7894 H   0  0  0  0  0  0  0  0  0  0  0  0
   15.3754   36.1866   37.9788 H   0  0  0  0  0  0  0  0  0  0  0  0
  1  2  2  0
  1  3  1  0
  3  4  1  0
  4  5  1  0
  6  1  1  0
  7  6  1  0
  6  8  1  0
  8  9  1  0
  9 10  1  0
 10 11  1  0
 11 12  1  0
 12 13  1  0
 13 14  1  0
 13 15  2  0
 14 16  1  0
 16 17  1  0
 17 18  2  0
 19 17  1  0
 18 20  1  0
 21 19  2  0
 19 22  1  0
 20 23  2  0
 23 21  1  0
 22 24  1  0
 22 25  2  0
  4 26  2  0
  4 27  1  0
 28 27  1  0
 28 29  1  0
 29 30  1  0
 29 31  1  0
 30 32  1  0
 31 33  1  0
 31 34  1  0
 34 32  1  0
 32 35  1  0
 34 36  1  0
 37 35  1  0
 38 35  1  0
 39 37  2  0
 37 40  1  0
 41 38  2  0
 42 39  1  0
 40 43  2  0
 40 41  1  0
 44 42  2  0
 44 43  1  0
 43 45  1  0
  6 46  1  6
  7 47  1  0
  7 48  1  0
  8 49  1  0
  8 50  1  0
  9 51  1  0
  9 52  1  0
 10 53  1  0
 10 54  1  0
 11 55  1  0
 11 56  1  0
 12 57  1  0
 16 58  1  0
 16 59  1  0
 18 60  1  0
 20 61  1  0
 21 62  1  0
 23 63  1  0
 28 64  1  0
 28 65  1  0
 29 66  1  0
 31 67  1  0
 32 68  1  0
 33 69  1  0
 34 70  1  0
 36 71  1  0
 38 72  1  0
 42 73  1  0
 45 74  1  0
 45 75  1  0
M  CHG  3   5  -1  22   1  24  -1
M  END
>  <EmbedRMS>  (215) 
0.0756607331348

$$$$

     RDKit          3D

 75 78  0  0  0  0  0  0  0  0999 V2000
    9.4333   42.9368   34.3455 C   0  0  0  0  0  0  0  0  0  0  0  0
   10.4907   43.0331   35.0314 O   0  0  0  0  0  0  0  0  0  0  0  0
    8.8559   41.7107   34.0295 O   0  0  0  0  0  0  0  0  0  0  0  0
    9.4943   40.2144   34.4675 P   0  0  0  0  0  0  0  0  0  0  0  0
    9.7315   40.1726   36.1286 O   0  0  0  0  0  0  0  0  0  0  0  0
    8.7509   44.1355   33.7737 C   0  0  1  0  0  0  0  0  0  0  0  0
    9.2967   45.3821   34.3135 N   0  0  0  0  0  0  0  0  0  0  0  0
    8.8899   44.0552   32.2354 C   0  0  0  0  0  0  0  0  0  0  0  0
    8.2028   45.1859   31.4624 C   0  0  0  0  0  0  0  0  0  0  0  0
    6.6652   45.1062   31.4856 C   0  0  0  0  0  0  0  0  0  0  0  0
    6.0240   46.3220   30.8083 C   0  0  0  0  0  0  0  0  0  0  0  0
    6.4973   47.5657   31.4155 N   0  0  0  0  0  0  0  0  0  0  0  0
    7.2575   48.5294   30.6899 C   0  0  0  0  0  0  0  0  0  0  0  0
    7.6732   49.6967   31.3382 O   0  0  0  0  0  0  0  0  0  0  0  0
    7.5905   48.3103   29.4936 O   0  0  0  0  0  0  0  0  0  0  0  0
    8.6242   50.6010   30.7795 C   0  0  0  0  0  0  0  0  0  0  0  0
    9.9887   49.9528   30.7037 C   0  0  0  0  0  0  0  0  0  0  0  0
   10.6216   49.8646   29.4501 C   0  0  0  0  0  0  0  0  0  0  0  0
   10.6182   49.3744   31.8411 C   0  0  0  0  0  0  0  0  0  0  0  0
   11.8442   49.2066   29.3135 C   0  0  0  0  0  0  0  0  0  0  0  0
   11.8417   48.7008   31.6758 C   0  0  0  0  0  0  0  0  0  0  0  0
   10.0325   49.4349   33.1552 N   0  0  0  0  0  0  0  0  0  0  0  0
   12.4503   48.6214   30.4229 C   0  0  0  0  0  0  0  0  0  0  0  0
   10.2965   48.4425   34.0709 O   0  0  0  0  0  0  0  0  0  0  0  0
    9.4222   50.4538   33.5374 O   0  0  0  0  0  0  0  0  0  0  0  0
    8.5372   39.1384   34.0122 O   0  0  0  0  0  0  0  0  0  0  0  0
   10.9795   40.0889   33.6815 O   0  0  0  0  0  0  0  0  0  0  0  0
   10.7982   40.0849   32.2819 C   0  0  0  0  0  0  0  0  0  0  0  0
   11.5886   38.9142   31.7008 C   0  0  0  0  0  0  0  0  0  0  0  0
   12.9214   38.9367   32.1698 O   0  0  0  0  0  0  0  0  0  0  0  0
   11.0047   37.5660   32.0990 C   0  0  0  0  0  0  0  0  0  0  0  0
   13.3511   37.5885   32.2601 C   0  0  0  0  0  0  0  0  0  0  0  0
    9.9296   37.1961   31.2780 O   0  0  0  0  0  0  0  0  0  0  0  0
   12.1923   36.6659   31.9047 C   0  0  0  0  0  0  0  0  0  0  0  0
   13.8033   37.2966   33.6188 N   0  0  0  0  0  0  0  0  0  0  0  0
   12.3007   36.2865   30.5561 O   0  0  0  0  0  0  0  0  0  0  0  0
   14.7933   36.4724   33.9860 C   0  0  0  0  0  0  0  0  0  0  0  0
   13.2753   37.7296   34.7935 C   0  0  0  0  0  0  0  0  0  0  0  0
   15.6243   35.7579   33.1860 N   0  0  0  0  0  0  0  0  0  0  0  0
   14.8728   36.4410   35.3328 C   0  0  0  0  0  0  0  0  0  0  0  0
   13.9209   37.2263   35.8804 N   0  0  0  0  0  0  0  0  0  0  0  0
   16.5873   34.9919   33.7803 C   0  0  0  0  0  0  0  0  0  0  0  0
   15.8577   35.6716   35.9443 C   0  0  0  0  0  0  0  0  0  0  0  0
   16.7025   34.9583   35.1440 N   0  0  0  0  0  0  0  0  0  0  0  0
   16.0100   35.6384   37.3563 N   0  0  0  0  0  0  0  0  0  0  0  0
    7.6772   44.0715   34.0497 H   0  0  0  0  0  0  0  0  0  0  0  0
   10.3194   45.4412   34.0991 H   0  0  0  0  0  0  0  0  0  0  0  0
    9.1840   45.3819   35.3537 H   0  0  0  0  0  0  0  0  0  0  0  0
    8.4830   43.0877   31.8651 H   0  0  0  0  0  0  0  0  0  0  0  0
    9.9718   44.0720   31.9738 H   0  0  0  0  0  0  0  0  0  0  0  0
    8.5393   45.1423   30.4034 H   0  0  0  0  0  0  0  0  0  0  0  0
    8.5538   46.1547   31.8769 H   0  0  0  0  0  0  0  0  0  0  0  0
    6.3313   44.1802   30.9691 H   0  0  0  0  0  0  0  0  0  0  0  0
    6.3015   45.0666   32.5333 H   0  0  0  0  0  0  0  0  0  0  0  0
    6.2458   46.2890   29.7200 H   0  0  0  0  0  0  0  0  0  0  0  0
    4.9205   46.2631   30.9217 H   0  0  0  0  0  0  0  0  0  0  0  0
    6.2760   47.7521   32.4195 H   0  0  0  0  0  0  0  0  0  0  0  0
    8.6810   51.5105   31.4115 H   0  0  0  0  0  0  0  0  0  0  0  0
    8.2694   50.9341   29.7794 H   0  0  0  0  0  0  0  0  0  0  0  0
   10.1611   50.2941   28.5689 H   0  0  0  0  0  0  0  0  0  0  0  0
   12.3183   49.1426   28.3426 H   0  0  0  0  0  0  0  0  0  0  0  0
   12.3361   48.2467   32.5251 H   0  0  0  0  0  0  0  0  0  0  0  0
   13.3958   48.1062   30.3128 H   0  0  0  0  0  0  0  0  0  0  0  0
    9.7427   40.0141   31.9265 H   0  0  0  0  0  0  0  0  0  0  0  0
   11.2132   41.0320   31.8757 H   0  0  0  0  0  0  0  0  0  0  0  0
   11.5980   39.0108   30.5904 H   0  0  0  0  0  0  0  0  0  0  0  0
   10.7008   37.5602   33.1721 H   0  0  0  0  0  0  0  0  0  0  0  0
   14.1977   37.4380   31.5532 H   0  0  0  0  0  0  0  0  0  0  0  0
    9.5180   36.3961   31.6977 H   0  0  0  0  0  0  0  0  0  0  0  0
   12.1418   35.7697   32.5692 H   0  0  0  0  0  0  0  0  0  0  0  0
   11.7730   35.4523   30.4489 H   0  0  0  0  0  0  0  0  0  0  0  0
   12.4321   38.3984   34.8692 H   0  0  0  0  0  0  0  0  0  0  0  0
   17.2667   34.4138   33.1693 H   0  0  0  0  0  0  0  0  0  0  0  0
   16.7634   35.0598   37.7897 H   0  0  0  0  0  0  0  0  0  0  0  0
   15.3758   36.1867   37.9790 H   0  0  0  0  0  0  0  0  0  0  0  0
  1  2  2  0
  1  3  1  0
  3  4  1  0
  4  5  1  0
  6  1  1  0
  7  6  1  0
  6  8  1  0
  8  9  1  0
  9 10  1  0
 10 11  1  0
 11 12  1  0
 12 13  1  0
 13 14  1  0
 13 15  2  0
 14 16  1  0
 16 17  1  0
 17 18  2  0
 19 17  1  0
 18 20  1  0
 21 19  2  0
 19 22  1  0
 20 23  2  0
 23 21  1  0
 22 24  1  0
 22 25  2  0
  4 26  2  0
  4 27  1  0
 28 27  1  0
 28 29  1  0
 29 30  1  0
 29 31  1  0
 30 32  1  0
 31 33  1  0
 31 34  1  0
 34 32  1  0
 32 35  1  0
 34 36  1  0
 37 35  1  0
 38 35  1  0
 39 37  2  0
 37 40  1  0
 41 38  2  0
 42 39  1  0
 40 43  2  0
 40 41  1  0
 44 42  2  0
 44 43  1  0
 43 45  1  0
  6 46  1  6
  7 47  1  0
  7 48  1  0
  8 49  1  0
  8 50  1  0
  9 51  1  0
  9 52  1  0
 10 53  1  0
 10 54  1  0
 11 55  1  0
 11 56  1  0
 12 57  1  0
 16 58  1  0
 16 59  1  0
 18 60  1  0
 20 61  1  0
 21 62  1  0
 23 63  1  0
 28 64  1  0
 28 65  1  0
 29 66  1  0
 31 67  1  0
 32 68  1  0
 33 69  1  0
 34 70  1  0
 36 71  1  0
 38 72  1  0
 42 73  1  0
 45 74  1  0
 45 75  1  0
M  CHG  3   5  -1  22   1  24  -1
M  END
>  <EmbedRMS>  (216) 
0.0749207380704

$$$$

     RDKit          3D

 75 78  0  0  0  0  0  0  0  0999 V2000
    9.4316   42.9423   34.3430 C   0  0  0  0  0  0  0  0  0  0  0  0
   10.4887   43.0418   35.0290 O   0  0  0  0  0  0  0  0  0  0  0  0
    8.8558   41.7140   34.0291 O   0  0  0  0  0  0  0  0  0  0  0  0
    9.4931   40.2172   34.4704 P   0  0  0  0  0  0  0  0  0  0  0  0
    9.7288   40.1751   36.1314 O   0  0  0  0  0  0  0  0  0  0  0  0
    8.7493   44.1382   33.7714 C   0  0  1  0  0  0  0  0  0  0  0  0
    9.3058   45.3684   34.3381 N   0  0  0  0  0  0  0  0  0  0  0  0
    8.8896   44.0558   32.2300 C   0  0  0  0  0  0  0  0  0  0  0  0
    8.2004   45.1771   31.4442 C   0  0  0  0  0  0  0  0  0  0  0  0
    6.6628   45.1089   31.4883 C   0  0  0  0  0  0  0  0  0  0  0  0
    6.0203   46.3216   30.8062 C   0  0  0  0  0  0  0  0  0  0  0  0
    6.4885   47.5670   31.4130 N   0  0  0  0  0  0  0  0  0  0  0  0
    7.2756   48.5171   30.6987 C   0  0  0  0  0  0  0  0  0  0  0  0
    7.7702   49.6338   31.3784 O   0  0  0  0  0  0  0  0  0  0  0  0
    7.5863   48.3124   29.4945 O   0  0  0  0  0  0  0  0  0  0  0  0
    8.8764   50.4044   30.9127 C   0  0  0  0  0  0  0  0  0  0  0  0
   10.1403   49.5720   30.9344 C   0  0  0  0  0  0  0  0  0  0  0  0
   10.4962   48.9478   32.1446 C   0  0  0  0  0  0  0  0  0  0  0  0
   10.9974   49.4362   29.8102 C   0  0  0  0  0  0  0  0  0  0  0  0
   11.6697   48.1998   32.2444 C   0  0  0  0  0  0  0  0  0  0  0  0
   12.1868   48.6989   29.9376 C   0  0  0  0  0  0  0  0  0  0  0  0
   10.6932   50.0373   28.5433 N   0  0  0  0  0  0  0  0  0  0  0  0
   12.5159   48.0791   31.1439 C   0  0  0  0  0  0  0  0  0  0  0  0
   11.6969   50.6388   27.8198 O   0  0  0  0  0  0  0  0  0  0  0  0
    9.6117   49.7842   27.9748 O   0  0  0  0  0  0  0  0  0  0  0  0
    8.5367   39.1409   34.0142 O   0  0  0  0  0  0  0  0  0  0  0  0
   10.9794   40.0884   33.6888 O   0  0  0  0  0  0  0  0  0  0  0  0
   10.8017   40.0950   32.2900 C   0  0  0  0  0  0  0  0  0  0  0  0
   11.5885   38.9267   31.7041 C   0  0  0  0  0  0  0  0  0  0  0  0
   12.9237   38.9446   32.1722 O   0  0  0  0  0  0  0  0  0  0  0  0
   11.0029   37.5727   32.0908 C   0  0  0  0  0  0  0  0  0  0  0  0
   13.3555   37.5960   32.2595 C   0  0  0  0  0  0  0  0  0  0  0  0
    9.9379   37.1847   31.2657 O   0  0  0  0  0  0  0  0  0  0  0  0
   12.1931   36.6770   31.8952 C   0  0  0  0  0  0  0  0  0  0  0  0
   13.8028   37.2977   33.6186 N   0  0  0  0  0  0  0  0  0  0  0  0
   12.2917   36.2396   30.5587 O   0  0  0  0  0  0  0  0  0  0  0  0
   14.7926   36.4727   33.9858 C   0  0  0  0  0  0  0  0  0  0  0  0
   13.2750   37.7302   34.7935 C   0  0  0  0  0  0  0  0  0  0  0  0
   15.6241   35.7586   33.1857 N   0  0  0  0  0  0  0  0  0  0  0  0
   14.8721   36.4408   35.3326 C   0  0  0  0  0  0  0  0  0  0  0  0
   13.9204   37.2263   35.8802 N   0  0  0  0  0  0  0  0  0  0  0  0
   16.5870   34.9925   33.7800 C   0  0  0  0  0  0  0  0  0  0  0  0
   15.8572   35.6717   35.9441 C   0  0  0  0  0  0  0  0  0  0  0  0
   16.7022   34.9586   35.1437 N   0  0  0  0  0  0  0  0  0  0  0  0
   16.0097   35.6384   37.3561 N   0  0  0  0  0  0  0  0  0  0  0  0
    7.6773   44.0665   34.0540 H   0  0  0  0  0  0  0  0  0  0  0  0
    8.6502   46.1588   34.1418 H   0  0  0  0  0  0  0  0  0  0  0  0
   10.2174   45.5893   33.8741 H   0  0  0  0  0  0  0  0  0  0  0  0
    8.4845   43.0856   31.8649 H   0  0  0  0  0  0  0  0  0  0  0  0
    9.9712   44.0701   31.9669 H   0  0  0  0  0  0  0  0  0  0  0  0
    8.5680   46.1542   31.8197 H   0  0  0  0  0  0  0  0  0  0  0  0
    8.5199   45.1038   30.3816 H   0  0  0  0  0  0  0  0  0  0  0  0
    6.3162   44.1795   30.9866 H   0  0  0  0  0  0  0  0  0  0  0  0
    6.3124   45.0833   32.5409 H   0  0  0  0  0  0  0  0  0  0  0  0
    4.9167   46.2603   30.9170 H   0  0  0  0  0  0  0  0  0  0  0  0
    6.2451   46.2874   29.7186 H   0  0  0  0  0  0  0  0  0  0  0  0
    6.2698   47.7501   32.4182 H   0  0  0  0  0  0  0  0  0  0  0  0
    8.6428   50.8340   29.9198 H   0  0  0  0  0  0  0  0  0  0  0  0
    9.0153   51.2626   31.6033 H   0  0  0  0  0  0  0  0  0  0  0  0
    9.8604   49.0423   33.0167 H   0  0  0  0  0  0  0  0  0  0  0  0
   11.9271   47.7195   33.1796 H   0  0  0  0  0  0  0  0  0  0  0  0
   12.8524   48.5884   29.0907 H   0  0  0  0  0  0  0  0  0  0  0  0
   13.4290   47.5036   31.2249 H   0  0  0  0  0  0  0  0  0  0  0  0
   11.2241   41.0429   31.8929 H   0  0  0  0  0  0  0  0  0  0  0  0
    9.7472   40.0380   31.9302 H   0  0  0  0  0  0  0  0  0  0  0  0
   11.5928   39.0434   30.5966 H   0  0  0  0  0  0  0  0  0  0  0  0
   10.7003   37.5445   33.1641 H   0  0  0  0  0  0  0  0  0  0  0  0
   14.2051   37.4478   31.5560 H   0  0  0  0  0  0  0  0  0  0  0  0
    9.1374   37.6723   31.5905 H   0  0  0  0  0  0  0  0  0  0  0  0
   12.1304   35.7856   32.5586 H   0  0  0  0  0  0  0  0  0  0  0  0
   12.4606   37.0186   29.9674 H   0  0  0  0  0  0  0  0  0  0  0  0
   12.4327   38.4001   34.8694 H   0  0  0  0  0  0  0  0  0  0  0  0
   17.2666   34.4146   33.1690 H   0  0  0  0  0  0  0  0  0  0  0  0
   16.7634   35.0601   37.7894 H   0  0  0  0  0  0  0  0  0  0  0  0
   15.3754   36.1866   37.9788 H   0  0  0  0  0  0  0  0  0  0  0  0
  1  2  2  0
  1  3  1  0
  3  4  1  0
  4  5  1  0
  6  1  1  0
  7  6  1  0
  6  8  1  0
  8  9  1  0
  9 10  1  0
 10 11  1  0
 11 12  1  0
 12 13  1  0
 13 14  1  0
 13 15  2  0
 14 16  1  0
 16 17  1  0
 17 18  2  0
 19 17  1  0
 18 20  1  0
 21 19  2  0
 19 22  1  0
 20 23  2  0
 23 21  1  0
 22 24  1  0
 22 25  2  0
  4 26  2  0
  4 27  1  0
 28 27  1  0
 28 29  1  0
 29 30  1  0
 29 31  1  0
 30 32  1  0
 31 33  1  0
 31 34  1  0
 34 32  1  0
 32 35  1  0
 34 36  1  0
 37 35  1  0
 38 35  1  0
 39 37  2  0
 37 40  1  0
 41 38  2  0
 42 39  1  0
 40 43  2  0
 40 41  1  0
 44 42  2  0
 44 43  1  0
 43 45  1  0
  6 46  1  6
  7 47  1  0
  7 48  1  0
  8 49  1  0
  8 50  1  0
  9 51  1  0
  9 52  1  0
 10 53  1  0
 10 54  1  0
 11 55  1  0
 11 56  1  0
 12 57  1  0
 16 58  1  0
 16 59  1  0
 18 60  1  0
 20 61  1  0
 21 62  1  0
 23 63  1  0
 28 64  1  0
 28 65  1  0
 29 66  1  0
 31 67  1  0
 32 68  1  0
 33 69  1  0
 34 70  1  0
 36 71  1  0
 38 72  1  0
 42 73  1  0
 45 74  1  0
 45 75  1  0
M  CHG  3   5  -1  22   1  24  -1
M  END
>  <EmbedRMS>  (217) 
0.0761965238368

$$$$

     RDKit          3D

 75 78  0  0  0  0  0  0  0  0999 V2000
    9.4337   42.9374   34.3450 C   0  0  0  0  0  0  0  0  0  0  0  0
   10.4908   43.0336   35.0312 O   0  0  0  0  0  0  0  0  0  0  0  0
    8.8564   41.7112   34.0287 O   0  0  0  0  0  0  0  0  0  0  0  0
    9.4942   40.2146   34.4676 P   0  0  0  0  0  0  0  0  0  0  0  0
    9.7308   40.1730   36.1287 O   0  0  0  0  0  0  0  0  0  0  0  0
    8.7513   44.1366   33.7733 C   0  0  1  0  0  0  0  0  0  0  0  0
    9.2971   45.3834   34.3132 N   0  0  0  0  0  0  0  0  0  0  0  0
    8.8901   44.0569   32.2349 C   0  0  0  0  0  0  0  0  0  0  0  0
    8.2020   45.1876   31.4625 C   0  0  0  0  0  0  0  0  0  0  0  0
    6.6642   45.1069   31.4851 C   0  0  0  0  0  0  0  0  0  0  0  0
    6.0208   46.3211   30.8055 C   0  0  0  0  0  0  0  0  0  0  0  0
    6.4885   47.5667   31.4130 N   0  0  0  0  0  0  0  0  0  0  0  0
    7.2744   48.5173   30.6982 C   0  0  0  0  0  0  0  0  0  0  0  0
    7.7693   49.6356   31.3763 O   0  0  0  0  0  0  0  0  0  0  0  0
    7.5862   48.3123   29.4936 O   0  0  0  0  0  0  0  0  0  0  0  0
    8.8562   50.4182   30.8855 C   0  0  0  0  0  0  0  0  0  0  0  0
   10.1294   49.5989   30.8819 C   0  0  0  0  0  0  0  0  0  0  0  0
   10.4532   48.8651   32.0388 C   0  0  0  0  0  0  0  0  0  0  0  0
   10.9618   49.4881   29.7387 C   0  0  0  0  0  0  0  0  0  0  0  0
   11.5467   47.9985   32.0506 C   0  0  0  0  0  0  0  0  0  0  0  0
   12.0507   48.5986   29.7648 C   0  0  0  0  0  0  0  0  0  0  0  0
   10.7378   50.2834   28.5642 N   0  0  0  0  0  0  0  0  0  0  0  0
   12.3380   47.8577   30.9122 C   0  0  0  0  0  0  0  0  0  0  0  0
   10.5466   51.6410   28.6802 O   0  0  0  0  0  0  0  0  0  0  0  0
   10.9431   49.7979   27.4326 O   0  0  0  0  0  0  0  0  0  0  0  0
    8.5370   39.1388   34.0120 O   0  0  0  0  0  0  0  0  0  0  0  0
   10.9797   40.0871   33.6829 O   0  0  0  0  0  0  0  0  0  0  0  0
   10.8003   40.0906   32.2832 C   0  0  0  0  0  0  0  0  0  0  0  0
   11.5958   38.9271   31.6963 C   0  0  0  0  0  0  0  0  0  0  0  0
   12.9239   38.9409   32.1766 O   0  0  0  0  0  0  0  0  0  0  0  0
   11.0062   37.5719   32.0793 C   0  0  0  0  0  0  0  0  0  0  0  0
   13.3507   37.5905   32.2614 C   0  0  0  0  0  0  0  0  0  0  0  0
    9.9064   37.1793   31.2946 O   0  0  0  0  0  0  0  0  0  0  0  0
   12.1920   36.6672   31.9003 C   0  0  0  0  0  0  0  0  0  0  0  0
   13.8017   37.2948   33.6193 N   0  0  0  0  0  0  0  0  0  0  0  0
   12.3133   36.2788   30.5560 O   0  0  0  0  0  0  0  0  0  0  0  0
   14.7927   36.4717   33.9861 C   0  0  0  0  0  0  0  0  0  0  0  0
   13.2746   37.7284   34.7941 C   0  0  0  0  0  0  0  0  0  0  0  0
   15.6240   35.7576   33.1859 N   0  0  0  0  0  0  0  0  0  0  0  0
   14.8728   36.4406   35.3330 C   0  0  0  0  0  0  0  0  0  0  0  0
   13.9209   37.2258   35.8807 N   0  0  0  0  0  0  0  0  0  0  0  0
   16.5874   34.9920   33.7802 C   0  0  0  0  0  0  0  0  0  0  0  0
   15.8579   35.6716   35.9443 C   0  0  0  0  0  0  0  0  0  0  0  0
   16.7028   34.9584   35.1439 N   0  0  0  0  0  0  0  0  0  0  0  0
   16.0103   35.6383   37.3563 N   0  0  0  0  0  0  0  0  0  0  0  0
    7.6777   44.0726   34.0492 H   0  0  0  0  0  0  0  0  0  0  0  0
   10.3195   45.4431   34.0981 H   0  0  0  0  0  0  0  0  0  0  0  0
    9.1853   45.3824   35.3535 H   0  0  0  0  0  0  0  0  0  0  0  0
    9.9720   44.0750   31.9732 H   0  0  0  0  0  0  0  0  0  0  0  0
    8.4841   43.0892   31.8643 H   0  0  0  0  0  0  0  0  0  0  0  0
    8.5516   46.1565   31.8777 H   0  0  0  0  0  0  0  0  0  0  0  0
    8.5391   45.1455   30.4036 H   0  0  0  0  0  0  0  0  0  0  0  0
    6.3003   45.0682   32.5328 H   0  0  0  0  0  0  0  0  0  0  0  0
    6.3315   44.1798   30.9698 H   0  0  0  0  0  0  0  0  0  0  0  0
    6.2456   46.2883   29.7179 H   0  0  0  0  0  0  0  0  0  0  0  0
    4.9172   46.2590   30.9158 H   0  0  0  0  0  0  0  0  0  0  0  0
    6.2693   47.7497   32.4181 H   0  0  0  0  0  0  0  0  0  0  0  0
    8.9968   51.2891   31.5592 H   0  0  0  0  0  0  0  0  0  0  0  0
    8.5891   50.8036   29.8812 H   0  0  0  0  0  0  0  0  0  0  0  0
    9.8369   48.9417   32.9264 H   0  0  0  0  0  0  0  0  0  0  0  0
   11.7745   47.4274   32.9414 H   0  0  0  0  0  0  0  0  0  0  0  0
   12.6933   48.4964   28.8993 H   0  0  0  0  0  0  0  0  0  0  0  0
   13.1832   47.1815   30.9221 H   0  0  0  0  0  0  0  0  0  0  0  0
   11.2118   41.0421   31.8834 H   0  0  0  0  0  0  0  0  0  0  0  0
    9.7456   40.0169   31.9261 H   0  0  0  0  0  0  0  0  0  0  0  0
   11.6246   39.0450   30.5888 H   0  0  0  0  0  0  0  0  0  0  0  0
   10.7050   37.5580   33.1499 H   0  0  0  0  0  0  0  0  0  0  0  0
   14.1985   37.4426   31.5553 H   0  0  0  0  0  0  0  0  0  0  0  0
   10.0893   37.4057   30.3459 H   0  0  0  0  0  0  0  0  0  0  0  0
   12.1337   35.7754   32.5703 H   0  0  0  0  0  0  0  0  0  0  0  0
   11.7934   35.4394   30.4514 H   0  0  0  0  0  0  0  0  0  0  0  0
   12.4314   38.3973   34.8699 H   0  0  0  0  0  0  0  0  0  0  0  0
   17.2669   34.4141   33.1692 H   0  0  0  0  0  0  0  0  0  0  0  0
   16.7638   35.0599   37.7896 H   0  0  0  0  0  0  0  0  0  0  0  0
   15.3759   36.1864   37.9790 H   0  0  0  0  0  0  0  0  0  0  0  0
  1  2  2  0
  1  3  1  0
  3  4  1  0
  4  5  1  0
  6  1  1  0
  7  6  1  0
  6  8  1  0
  8  9  1  0
  9 10  1  0
 10 11  1  0
 11 12  1  0
 12 13  1  0
 13 14  1  0
 13 15  2  0
 14 16  1  0
 16 17  1  0
 17 18  2  0
 19 17  1  0
 18 20  1  0
 21 19  2  0
 19 22  1  0
 20 23  2  0
 23 21  1  0
 22 24  1  0
 22 25  2  0
  4 26  2  0
  4 27  1  0
 28 27  1  0
 28 29  1  0
 29 30  1  0
 29 31  1  0
 30 32  1  0
 31 33  1  0
 31 34  1  0
 34 32  1  0
 32 35  1  0
 34 36  1  0
 37 35  1  0
 38 35  1  0
 39 37  2  0
 37 40  1  0
 41 38  2  0
 42 39  1  0
 40 43  2  0
 40 41  1  0
 44 42  2  0
 44 43  1  0
 43 45  1  0
  6 46  1  6
  7 47  1  0
  7 48  1  0
  8 49  1  0
  8 50  1  0
  9 51  1  0
  9 52  1  0
 10 53  1  0
 10 54  1  0
 11 55  1  0
 11 56  1  0
 12 57  1  0
 16 58  1  0
 16 59  1  0
 18 60  1  0
 20 61  1  0
 21 62  1  0
 23 63  1  0
 28 64  1  0
 28 65  1  0
 29 66  1  0
 31 67  1  0
 32 68  1  0
 33 69  1  0
 34 70  1  0
 36 71  1  0
 38 72  1  0
 42 73  1  0
 45 74  1  0
 45 75  1  0
M  CHG  3   5  -1  22   1  24  -1
M  END
>  <EmbedRMS>  (218) 
0.076034693313

$$$$

     RDKit          3D

 75 78  0  0  0  0  0  0  0  0999 V2000
    9.4311   42.9411   34.3438 C   0  0  0  0  0  0  0  0  0  0  0  0
   10.4885   43.0409   35.0293 O   0  0  0  0  0  0  0  0  0  0  0  0
    8.8558   41.7128   34.0292 O   0  0  0  0  0  0  0  0  0  0  0  0
    9.4946   40.2163   34.4676 P   0  0  0  0  0  0  0  0  0  0  0  0
    9.7319   40.1739   36.1286 O   0  0  0  0  0  0  0  0  0  0  0  0
    8.7483   44.1360   33.7721 C   0  0  1  0  0  0  0  0  0  0  0  0
    9.3039   45.3665   34.3388 N   0  0  0  0  0  0  0  0  0  0  0  0
    8.8892   44.0519   32.2309 C   0  0  0  0  0  0  0  0  0  0  0  0
    8.2014   45.1722   31.4436 C   0  0  0  0  0  0  0  0  0  0  0  0
    6.6642   45.1065   31.4887 C   0  0  0  0  0  0  0  0  0  0  0  0
    6.0265   46.3234   30.8120 C   0  0  0  0  0  0  0  0  0  0  0  0
    6.5075   47.5645   31.4186 N   0  0  0  0  0  0  0  0  0  0  0  0
    7.2441   48.5394   30.6833 C   0  0  0  0  0  0  0  0  0  0  0  0
    7.5934   49.7407   31.3053 O   0  0  0  0  0  0  0  0  0  0  0  0
    7.5932   48.3116   29.4933 O   0  0  0  0  0  0  0  0  0  0  0  0
    8.3366   50.7617   30.6465 C   0  0  0  0  0  0  0  0  0  0  0  0
    8.5138   51.9395   31.5726 C   0  0  0  0  0  0  0  0  0  0  0  0
    9.8204   52.3487   31.8993 C   0  0  0  0  0  0  0  0  0  0  0  0
    7.4082   52.6187   32.1566 C   0  0  0  0  0  0  0  0  0  0  0  0
   10.0368   53.3991   32.7916 C   0  0  0  0  0  0  0  0  0  0  0  0
    7.6514   53.6644   33.0654 C   0  0  0  0  0  0  0  0  0  0  0  0
    6.0446   52.2568   31.8670 N   0  0  0  0  0  0  0  0  0  0  0  0
    8.9549   54.0530   33.3762 C   0  0  0  0  0  0  0  0  0  0  0  0
    5.0648   52.4624   32.8111 O   0  0  0  0  0  0  0  0  0  0  0  0
    5.7042   51.9085   30.7183 O   0  0  0  0  0  0  0  0  0  0  0  0
    8.5375   39.1400   34.0125 O   0  0  0  0  0  0  0  0  0  0  0  0
   10.9796   40.0897   33.6814 O   0  0  0  0  0  0  0  0  0  0  0  0
   10.7982   40.0850   32.2818 C   0  0  0  0  0  0  0  0  0  0  0  0
   11.5886   38.9143   31.7009 C   0  0  0  0  0  0  0  0  0  0  0  0
   12.9213   38.9368   32.1699 O   0  0  0  0  0  0  0  0  0  0  0  0
   11.0047   37.5661   32.0991 C   0  0  0  0  0  0  0  0  0  0  0  0
   13.3510   37.5885   32.2602 C   0  0  0  0  0  0  0  0  0  0  0  0
    9.9296   37.1961   31.2780 O   0  0  0  0  0  0  0  0  0  0  0  0
   12.1923   36.6659   31.9047 C   0  0  0  0  0  0  0  0  0  0  0  0
   13.8033   37.2967   33.6188 N   0  0  0  0  0  0  0  0  0  0  0  0
   12.3006   36.2865   30.5562 O   0  0  0  0  0  0  0  0  0  0  0  0
   14.7933   36.4724   33.9860 C   0  0  0  0  0  0  0  0  0  0  0  0
   13.2753   37.7296   34.7935 C   0  0  0  0  0  0  0  0  0  0  0  0
   15.6243   35.7579   33.1860 N   0  0  0  0  0  0  0  0  0  0  0  0
   14.8728   36.4410   35.3328 C   0  0  0  0  0  0  0  0  0  0  0  0
   13.9209   37.2263   35.8804 N   0  0  0  0  0  0  0  0  0  0  0  0
   16.5873   34.9919   33.7803 C   0  0  0  0  0  0  0  0  0  0  0  0
   15.8577   35.6716   35.9443 C   0  0  0  0  0  0  0  0  0  0  0  0
   16.7025   34.9583   35.1440 N   0  0  0  0  0  0  0  0  0  0  0  0
   16.0100   35.6384   37.3563 N   0  0  0  0  0  0  0  0  0  0  0  0
    7.6763   44.0635   34.0547 H   0  0  0  0  0  0  0  0  0  0  0  0
    8.6469   46.1559   34.1432 H   0  0  0  0  0  0  0  0  0  0  0  0
   10.2152   45.5879   33.8748 H   0  0  0  0  0  0  0  0  0  0  0  0
    8.4830   43.0818   31.8667 H   0  0  0  0  0  0  0  0  0  0  0  0
    9.9708   44.0644   31.9680 H   0  0  0  0  0  0  0  0  0  0  0  0
    8.5198   45.0960   30.3808 H   0  0  0  0  0  0  0  0  0  0  0  0
    8.5712   46.1488   31.8175 H   0  0  0  0  0  0  0  0  0  0  0  0
    6.3141   45.0785   32.5414 H   0  0  0  0  0  0  0  0  0  0  0  0
    6.3148   44.1799   30.9838 H   0  0  0  0  0  0  0  0  0  0  0  0
    6.2451   46.2894   29.7230 H   0  0  0  0  0  0  0  0  0  0  0  0
    4.9231   46.2693   30.9294 H   0  0  0  0  0  0  0  0  0  0  0  0
    6.2846   47.7539   32.4217 H   0  0  0  0  0  0  0  0  0  0  0  0
    7.8128   51.0861   29.7228 H   0  0  0  0  0  0  0  0  0  0  0  0
    9.3203   50.3458   30.3360 H   0  0  0  0  0  0  0  0  0  0  0  0
   10.6792   51.8482   31.4690 H   0  0  0  0  0  0  0  0  0  0  0  0
   11.0469   53.7023   33.0352 H   0  0  0  0  0  0  0  0  0  0  0  0
    6.8263   54.1934   33.5252 H   0  0  0  0  0  0  0  0  0  0  0  0
    9.1259   54.8649   34.0714 H   0  0  0  0  0  0  0  0  0  0  0  0
   11.2130   41.0321   31.8752 H   0  0  0  0  0  0  0  0  0  0  0  0
    9.7426   40.0141   31.9266 H   0  0  0  0  0  0  0  0  0  0  0  0
   11.5980   39.0107   30.5905 H   0  0  0  0  0  0  0  0  0  0  0  0
   10.7008   37.5603   33.1721 H   0  0  0  0  0  0  0  0  0  0  0  0
   14.1976   37.4380   31.5532 H   0  0  0  0  0  0  0  0  0  0  0  0
    9.5180   36.3962   31.6978 H   0  0  0  0  0  0  0  0  0  0  0  0
   12.1418   35.7698   32.5692 H   0  0  0  0  0  0  0  0  0  0  0  0
   11.7729   35.4524   30.4489 H   0  0  0  0  0  0  0  0  0  0  0  0
   12.4321   38.3985   34.8692 H   0  0  0  0  0  0  0  0  0  0  0  0
   17.2667   34.4138   33.1693 H   0  0  0  0  0  0  0  0  0  0  0  0
   16.7634   35.0598   37.7897 H   0  0  0  0  0  0  0  0  0  0  0  0
   15.3758   36.1867   37.9790 H   0  0  0  0  0  0  0  0  0  0  0  0
  1  2  2  0
  1  3  1  0
  3  4  1  0
  4  5  1  0
  6  1  1  0
  7  6  1  0
  6  8  1  0
  8  9  1  0
  9 10  1  0
 10 11  1  0
 11 12  1  0
 12 13  1  0
 13 14  1  0
 13 15  2  0
 14 16  1  0
 16 17  1  0
 17 18  2  0
 19 17  1  0
 18 20  1  0
 21 19  2  0
 19 22  1  0
 20 23  2  0
 23 21  1  0
 22 24  1  0
 22 25  2  0
  4 26  2  0
  4 27  1  0
 28 27  1  0
 28 29  1  0
 29 30  1  0
 29 31  1  0
 30 32  1  0
 31 33  1  0
 31 34  1  0
 34 32  1  0
 32 35  1  0
 34 36  1  0
 37 35  1  0
 38 35  1  0
 39 37  2  0
 37 40  1  0
 41 38  2  0
 42 39  1  0
 40 43  2  0
 40 41  1  0
 44 42  2  0
 44 43  1  0
 43 45  1  0
  6 46  1  6
  7 47  1  0
  7 48  1  0
  8 49  1  0
  8 50  1  0
  9 51  1  0
  9 52  1  0
 10 53  1  0
 10 54  1  0
 11 55  1  0
 11 56  1  0
 12 57  1  0
 16 58  1  0
 16 59  1  0
 18 60  1  0
 20 61  1  0
 21 62  1  0
 23 63  1  0
 28 64  1  0
 28 65  1  0
 29 66  1  0
 31 67  1  0
 32 68  1  0
 33 69  1  0
 34 70  1  0
 36 71  1  0
 38 72  1  0
 42 73  1  0
 45 74  1  0
 45 75  1  0
M  CHG  3   5  -1  22   1  24  -1
M  END
>  <EmbedRMS>  (219) 
0.0735839442199

$$$$

     RDKit          3D

 75 78  0  0  0  0  0  0  0  0999 V2000
    9.4330   42.9357   34.3459 C   0  0  0  0  0  0  0  0  0  0  0  0
   10.4907   43.0325   35.0313 O   0  0  0  0  0  0  0  0  0  0  0  0
    8.8553   41.7097   34.0306 O   0  0  0  0  0  0  0  0  0  0  0  0
    9.4930   40.2139   34.4706 P   0  0  0  0  0  0  0  0  0  0  0  0
    9.7296   40.1727   36.1315 O   0  0  0  0  0  0  0  0  0  0  0  0
    8.7503   44.1335   33.7738 C   0  0  1  0  0  0  0  0  0  0  0  0
    9.2955   45.3793   34.3141 N   0  0  0  0  0  0  0  0  0  0  0  0
    8.8900   44.0533   32.2358 C   0  0  0  0  0  0  0  0  0  0  0  0
    8.2042   45.1846   31.4637 C   0  0  0  0  0  0  0  0  0  0  0  0
    6.6671   45.1054   31.4855 C   0  0  0  0  0  0  0  0  0  0  0  0
    6.0295   46.3245   30.8124 C   0  0  0  0  0  0  0  0  0  0  0  0
    6.5097   47.5648   31.4224 N   0  0  0  0  0  0  0  0  0  0  0  0
    7.2295   48.5514   30.6732 C   0  0  0  0  0  0  0  0  0  0  0  0
    7.5340   49.8091   31.2109 O   0  0  0  0  0  0  0  0  0  0  0  0
    7.5990   48.3002   29.4966 O   0  0  0  0  0  0  0  0  0  0  0  0
    7.1906   50.2361   32.5282 C   0  0  0  0  0  0  0  0  0  0  0  0
    8.1010   49.6001   33.5552 C   0  0  0  0  0  0  0  0  0  0  0  0
    9.4882   49.6213   33.3209 C   0  0  0  0  0  0  0  0  0  0  0  0
    7.6105   48.9848   34.7371 C   0  0  0  0  0  0  0  0  0  0  0  0
   10.3720   49.0149   34.2145 C   0  0  0  0  0  0  0  0  0  0  0  0
    8.5144   48.3659   35.6164 C   0  0  0  0  0  0  0  0  0  0  0  0
    6.2160   48.9968   35.0762 N   0  0  0  0  0  0  0  0  0  0  0  0
    9.8857   48.3854   35.3584 C   0  0  0  0  0  0  0  0  0  0  0  0
    5.6476   47.8902   35.6636 O   0  0  0  0  0  0  0  0  0  0  0  0
    5.5809   50.0714   35.0744 O   0  0  0  0  0  0  0  0  0  0  0  0
    8.5367   39.1378   34.0140 O   0  0  0  0  0  0  0  0  0  0  0  0
   10.9785   40.0881   33.6869 O   0  0  0  0  0  0  0  0  0  0  0  0
   10.7974   40.0895   32.2883 C   0  0  0  0  0  0  0  0  0  0  0  0
   11.5882   38.9234   31.7042 C   0  0  0  0  0  0  0  0  0  0  0  0
   12.9231   38.9440   32.1728 O   0  0  0  0  0  0  0  0  0  0  0  0
   11.0048   37.5703   32.0916 C   0  0  0  0  0  0  0  0  0  0  0  0
   13.3570   37.5960   32.2595 C   0  0  0  0  0  0  0  0  0  0  0  0
    9.9332   37.1986   31.2676 O   0  0  0  0  0  0  0  0  0  0  0  0
   12.1965   36.6751   31.8949 C   0  0  0  0  0  0  0  0  0  0  0  0
   13.8037   37.2979   33.6187 N   0  0  0  0  0  0  0  0  0  0  0  0
   12.2934   36.2389   30.5581 O   0  0  0  0  0  0  0  0  0  0  0  0
   14.7929   36.4726   33.9860 C   0  0  0  0  0  0  0  0  0  0  0  0
   13.2755   37.7304   34.7934 C   0  0  0  0  0  0  0  0  0  0  0  0
   15.6244   35.7585   33.1859 N   0  0  0  0  0  0  0  0  0  0  0  0
   14.8722   36.4406   35.3328 C   0  0  0  0  0  0  0  0  0  0  0  0
   13.9205   37.2262   35.8803 N   0  0  0  0  0  0  0  0  0  0  0  0
   16.5872   34.9923   33.7802 C   0  0  0  0  0  0  0  0  0  0  0  0
   15.8573   35.6715   35.9442 C   0  0  0  0  0  0  0  0  0  0  0  0
   16.7023   34.9584   35.1439 N   0  0  0  0  0  0  0  0  0  0  0  0
   16.0098   35.6384   37.3563 N   0  0  0  0  0  0  0  0  0  0  0  0
    7.6766   44.0695   34.0497 H   0  0  0  0  0  0  0  0  0  0  0  0
   10.3172   45.4419   34.0965 H   0  0  0  0  0  0  0  0  0  0  0  0
    9.1865   45.3745   35.3547 H   0  0  0  0  0  0  0  0  0  0  0  0
    8.4824   43.0863   31.8653 H   0  0  0  0  0  0  0  0  0  0  0  0
    9.9720   44.0691   31.9747 H   0  0  0  0  0  0  0  0  0  0  0  0
    8.5551   46.1527   31.8803 H   0  0  0  0  0  0  0  0  0  0  0  0
    8.5416   45.1421   30.4049 H   0  0  0  0  0  0  0  0  0  0  0  0
    6.3325   44.1816   30.9654 H   0  0  0  0  0  0  0  0  0  0  0  0
    6.3026   45.0631   32.5329 H   0  0  0  0  0  0  0  0  0  0  0  0
    6.2467   46.2924   29.7232 H   0  0  0  0  0  0  0  0  0  0  0  0
    4.9262   46.2693   30.9300 H   0  0  0  0  0  0  0  0  0  0  0  0
    6.2845   47.7253   32.4280 H   0  0  0  0  0  0  0  0  0  0  0  0
    7.3316   51.3359   32.5815 H   0  0  0  0  0  0  0  0  0  0  0  0
    6.1154   50.0367   32.7051 H   0  0  0  0  0  0  0  0  0  0  0  0
    9.8868   50.1005   32.4350 H   0  0  0  0  0  0  0  0  0  0  0  0
   11.4362   49.0307   34.0175 H   0  0  0  0  0  0  0  0  0  0  0  0
    8.1564   47.8869   36.5190 H   0  0  0  0  0  0  0  0  0  0  0  0
   10.5726   47.9125   36.0484 H   0  0  0  0  0  0  0  0  0  0  0  0
   11.2114   41.0390   31.8863 H   0  0  0  0  0  0  0  0  0  0  0  0
    9.7422   40.0187   31.9315 H   0  0  0  0  0  0  0  0  0  0  0  0
   11.5931   39.0396   30.5966 H   0  0  0  0  0  0  0  0  0  0  0  0
   10.6986   37.5585   33.1639 H   0  0  0  0  0  0  0  0  0  0  0  0
   14.2072   37.4492   31.5564 H   0  0  0  0  0  0  0  0  0  0  0  0
    9.5321   36.3881   31.6771 H   0  0  0  0  0  0  0  0  0  0  0  0
   12.1344   35.7838   32.5583 H   0  0  0  0  0  0  0  0  0  0  0  0
   12.4642   37.0179   29.9674 H   0  0  0  0  0  0  0  0  0  0  0  0
   12.4333   38.4005   34.8692 H   0  0  0  0  0  0  0  0  0  0  0  0
   17.2668   34.4144   33.1692 H   0  0  0  0  0  0  0  0  0  0  0  0
   15.3755   36.1866   37.9789 H   0  0  0  0  0  0  0  0  0  0  0  0
   16.7634   35.0600   37.7896 H   0  0  0  0  0  0  0  0  0  0  0  0
  1  2  2  0
  1  3  1  0
  3  4  1  0
  4  5  1  0
  6  1  1  0
  7  6  1  0
  6  8  1  0
  8  9  1  0
  9 10  1  0
 10 11  1  0
 11 12  1  0
 12 13  1  0
 13 14  1  0
 13 15  2  0
 14 16  1  0
 16 17  1  0
 17 18  2  0
 19 17  1  0
 18 20  1  0
 21 19  2  0
 19 22  1  0
 20 23  2  0
 23 21  1  0
 22 24  1  0
 22 25  2  0
  4 26  2  0
  4 27  1  0
 28 27  1  0
 28 29  1  0
 29 30  1  0
 29 31  1  0
 30 32  1  0
 31 33  1  0
 31 34  1  0
 34 32  1  0
 32 35  1  0
 34 36  1  0
 37 35  1  0
 38 35  1  0
 39 37  2  0
 37 40  1  0
 41 38  2  0
 42 39  1  0
 40 43  2  0
 40 41  1  0
 44 42  2  0
 44 43  1  0
 43 45  1  0
  6 46  1  6
  7 47  1  0
  7 48  1  0
  8 49  1  0
  8 50  1  0
  9 51  1  0
  9 52  1  0
 10 53  1  0
 10 54  1  0
 11 55  1  0
 11 56  1  0
 12 57  1  0
 16 58  1  0
 16 59  1  0
 18 60  1  0
 20 61  1  0
 21 62  1  0
 23 63  1  0
 28 64  1  0
 28 65  1  0
 29 66  1  0
 31 67  1  0
 32 68  1  0
 33 69  1  0
 34 70  1  0
 36 71  1  0
 38 72  1  0
 42 73  1  0
 45 74  1  0
 45 75  1  0
M  CHG  3   5  -1  22   1  24  -1
M  END
>  <EmbedRMS>  (220) 
0.0757928820541

$$$$

     RDKit          3D

 75 78  0  0  0  0  0  0  0  0999 V2000
    9.4312   42.9411   34.3437 C   0  0  0  0  0  0  0  0  0  0  0  0
   10.4885   43.0410   35.0294 O   0  0  0  0  0  0  0  0  0  0  0  0
    8.8562   41.7128   34.0288 O   0  0  0  0  0  0  0  0  0  0  0  0
    9.4946   40.2162   34.4678 P   0  0  0  0  0  0  0  0  0  0  0  0
    9.7311   40.1742   36.1290 O   0  0  0  0  0  0  0  0  0  0  0  0
    8.7484   44.1360   33.7721 C   0  0  1  0  0  0  0  0  0  0  0  0
    9.3039   45.3665   34.3388 N   0  0  0  0  0  0  0  0  0  0  0  0
    8.8892   44.0519   32.2308 C   0  0  0  0  0  0  0  0  0  0  0  0
    8.2015   45.1721   31.4435 C   0  0  0  0  0  0  0  0  0  0  0  0
    6.6643   45.1066   31.4887 C   0  0  0  0  0  0  0  0  0  0  0  0
    6.0267   46.3237   30.8123 C   0  0  0  0  0  0  0  0  0  0  0  0
    6.5081   47.5646   31.4190 N   0  0  0  0  0  0  0  0  0  0  0  0
    7.2423   48.5405   30.6826 C   0  0  0  0  0  0  0  0  0  0  0  0
    7.5858   49.7468   31.3027 O   0  0  0  0  0  0  0  0  0  0  0  0
    7.5941   48.3103   29.4938 O   0  0  0  0  0  0  0  0  0  0  0  0
    8.3074   50.7858   30.6426 C   0  0  0  0  0  0  0  0  0  0  0  0
    7.4448   51.4445   29.5896 C   0  0  0  0  0  0  0  0  0  0  0  0
    6.1740   51.9128   29.9695 C   0  0  0  0  0  0  0  0  0  0  0  0
    7.8482   51.5628   28.2346 C   0  0  0  0  0  0  0  0  0  0  0  0
    5.3006   52.4510   29.0233 C   0  0  0  0  0  0  0  0  0  0  0  0
    6.9477   52.0899   27.2923 C   0  0  0  0  0  0  0  0  0  0  0  0
    9.1643   51.1847   27.8044 N   0  0  0  0  0  0  0  0  0  0  0  0
    5.6830   52.5305   27.6853 C   0  0  0  0  0  0  0  0  0  0  0  0
   10.2680   51.6791   28.4604 O   0  0  0  0  0  0  0  0  0  0  0  0
    9.3212   50.6163   26.7041 O   0  0  0  0  0  0  0  0  0  0  0  0
    8.5373   39.1403   34.0128 O   0  0  0  0  0  0  0  0  0  0  0  0
   10.9803   40.0887   33.6834 O   0  0  0  0  0  0  0  0  0  0  0  0
   10.8020   40.0896   32.2836 C   0  0  0  0  0  0  0  0  0  0  0  0
   11.5900   38.9179   31.7007 C   0  0  0  0  0  0  0  0  0  0  0  0
   12.9224   38.9391   32.1711 O   0  0  0  0  0  0  0  0  0  0  0  0
   11.0051   37.5677   32.0966 C   0  0  0  0  0  0  0  0  0  0  0  0
   13.3518   37.5910   32.2610 C   0  0  0  0  0  0  0  0  0  0  0  0
    9.9381   37.1796   31.2733 O   0  0  0  0  0  0  0  0  0  0  0  0
   12.1912   36.6690   31.9043 C   0  0  0  0  0  0  0  0  0  0  0  0
   13.8027   37.2968   33.6192 N   0  0  0  0  0  0  0  0  0  0  0  0
   12.2877   36.2854   30.5568 O   0  0  0  0  0  0  0  0  0  0  0  0
   14.7928   36.4724   33.9861 C   0  0  0  0  0  0  0  0  0  0  0  0
   13.2751   37.7297   34.7941 C   0  0  0  0  0  0  0  0  0  0  0  0
   15.6239   35.7581   33.1859 N   0  0  0  0  0  0  0  0  0  0  0  0
   14.8726   36.4408   35.3329 C   0  0  0  0  0  0  0  0  0  0  0  0
   13.9209   37.2262   35.8807 N   0  0  0  0  0  0  0  0  0  0  0  0
   16.5870   34.9922   33.7801 C   0  0  0  0  0  0  0  0  0  0  0  0
   15.8576   35.6716   35.9442 C   0  0  0  0  0  0  0  0  0  0  0  0
   16.7024   34.9584   35.1438 N   0  0  0  0  0  0  0  0  0  0  0  0
   16.0101   35.6383   37.3563 N   0  0  0  0  0  0  0  0  0  0  0  0
    7.6764   44.0634   34.0547 H   0  0  0  0  0  0  0  0  0  0  0  0
   10.2152   45.5879   33.8747 H   0  0  0  0  0  0  0  0  0  0  0  0
    8.6468   46.1558   34.1431 H   0  0  0  0  0  0  0  0  0  0  0  0
    9.9708   44.0643   31.9679 H   0  0  0  0  0  0  0  0  0  0  0  0
    8.4830   43.0818   31.8666 H   0  0  0  0  0  0  0  0  0  0  0  0
    8.5714   46.1488   31.8173 H   0  0  0  0  0  0  0  0  0  0  0  0
    8.5198   45.0959   30.3807 H   0  0  0  0  0  0  0  0  0  0  0  0
    6.3142   45.0783   32.5413 H   0  0  0  0  0  0  0  0  0  0  0  0
    6.3147   44.1801   30.9835 H   0  0  0  0  0  0  0  0  0  0  0  0
    6.2448   46.2897   29.7232 H   0  0  0  0  0  0  0  0  0  0  0  0
    4.9233   46.2698   30.9300 H   0  0  0  0  0  0  0  0  0  0  0  0
    6.2850   47.7542   32.4220 H   0  0  0  0  0  0  0  0  0  0  0  0
    8.5907   51.5511   31.3953 H   0  0  0  0  0  0  0  0  0  0  0  0
    9.2436   50.3590   30.2319 H   0  0  0  0  0  0  0  0  0  0  0  0
    5.8512   51.8421   31.0012 H   0  0  0  0  0  0  0  0  0  0  0  0
    4.3217   52.7990   29.3271 H   0  0  0  0  0  0  0  0  0  0  0  0
    7.2373   52.1826   26.2530 H   0  0  0  0  0  0  0  0  0  0  0  0
    5.0023   52.9440   26.9523 H   0  0  0  0  0  0  0  0  0  0  0  0
    9.7471   40.0309   31.9256 H   0  0  0  0  0  0  0  0  0  0  0  0
   11.2238   41.0358   31.8821 H   0  0  0  0  0  0  0  0  0  0  0  0
   11.5999   39.0159   30.5905 H   0  0  0  0  0  0  0  0  0  0  0  0
   10.7034   37.5451   33.1703 H   0  0  0  0  0  0  0  0  0  0  0  0
   14.1992   37.4424   31.5548 H   0  0  0  0  0  0  0  0  0  0  0  0
    9.1370   37.6634   31.6025 H   0  0  0  0  0  0  0  0  0  0  0  0
   12.1204   35.7713   32.5637 H   0  0  0  0  0  0  0  0  0  0  0  0
   12.9456   35.5426   30.5221 H   0  0  0  0  0  0  0  0  0  0  0  0
   12.4322   38.3989   34.8700 H   0  0  0  0  0  0  0  0  0  0  0  0
   17.2664   34.4142   33.1690 H   0  0  0  0  0  0  0  0  0  0  0  0
   15.3759   36.1865   37.9790 H   0  0  0  0  0  0  0  0  0  0  0  0
   16.7636   35.0598   37.7895 H   0  0  0  0  0  0  0  0  0  0  0  0
  1  2  2  0
  1  3  1  0
  3  4  1  0
  4  5  1  0
  6  1  1  0
  7  6  1  0
  6  8  1  0
  8  9  1  0
  9 10  1  0
 10 11  1  0
 11 12  1  0
 12 13  1  0
 13 14  1  0
 13 15  2  0
 14 16  1  0
 16 17  1  0
 17 18  2  0
 19 17  1  0
 18 20  1  0
 21 19  2  0
 19 22  1  0
 20 23  2  0
 23 21  1  0
 22 24  1  0
 22 25  2  0
  4 26  2  0
  4 27  1  0
 28 27  1  0
 28 29  1  0
 29 30  1  0
 29 31  1  0
 30 32  1  0
 31 33  1  0
 31 34  1  0
 34 32  1  0
 32 35  1  0
 34 36  1  0
 37 35  1  0
 38 35  1  0
 39 37  2  0
 37 40  1  0
 41 38  2  0
 42 39  1  0
 40 43  2  0
 40 41  1  0
 44 42  2  0
 44 43  1  0
 43 45  1  0
  6 46  1  6
  7 47  1  0
  7 48  1  0
  8 49  1  0
  8 50  1  0
  9 51  1  0
  9 52  1  0
 10 53  1  0
 10 54  1  0
 11 55  1  0
 11 56  1  0
 12 57  1  0
 16 58  1  0
 16 59  1  0
 18 60  1  0
 20 61  1  0
 21 62  1  0
 23 63  1  0
 28 64  1  0
 28 65  1  0
 29 66  1  0
 31 67  1  0
 32 68  1  0
 33 69  1  0
 34 70  1  0
 36 71  1  0
 38 72  1  0
 42 73  1  0
 45 74  1  0
 45 75  1  0
M  CHG  3   5  -1  22   1  24  -1
M  END
>  <EmbedRMS>  (221) 
0.0732203677051

$$$$

     RDKit          3D

 75 78  0  0  0  0  0  0  0  0999 V2000
    9.4330   42.9367   34.3464 C   0  0  0  0  0  0  0  0  0  0  0  0
   10.4906   43.0333   35.0319 O   0  0  0  0  0  0  0  0  0  0  0  0
    8.8558   41.7105   34.0306 O   0  0  0  0  0  0  0  0  0  0  0  0
    9.4931   40.2143   34.4708 P   0  0  0  0  0  0  0  0  0  0  0  0
    9.7288   40.1730   36.1318 O   0  0  0  0  0  0  0  0  0  0  0  0
    8.7504   44.1349   33.7740 C   0  0  1  0  0  0  0  0  0  0  0  0
    9.2960   45.3823   34.3131 N   0  0  0  0  0  0  0  0  0  0  0  0
    8.8892   44.0525   32.2357 C   0  0  0  0  0  0  0  0  0  0  0  0
    8.2032   45.1822   31.4610 C   0  0  0  0  0  0  0  0  0  0  0  0
    6.6657   45.1033   31.4817 C   0  0  0  0  0  0  0  0  0  0  0  0
    6.0276   46.3245   30.8115 C   0  0  0  0  0  0  0  0  0  0  0  0
    6.5106   47.5625   31.4231 N   0  0  0  0  0  0  0  0  0  0  0  0
    7.2372   48.5474   30.6789 C   0  0  0  0  0  0  0  0  0  0  0  0
    7.5828   49.7857   31.2372 O   0  0  0  0  0  0  0  0  0  0  0  0
    7.5953   48.3039   29.4971 O   0  0  0  0  0  0  0  0  0  0  0  0
    7.1732   50.2450   32.5251 C   0  0  0  0  0  0  0  0  0  0  0  0
    5.6846   50.5117   32.5600 C   0  0  0  0  0  0  0  0  0  0  0  0
    4.9122   49.8857   33.5559 C   0  0  0  0  0  0  0  0  0  0  0  0
    5.0396   51.3444   31.6043 C   0  0  0  0  0  0  0  0  0  0  0  0
    3.5274   50.0504   33.5933 C   0  0  0  0  0  0  0  0  0  0  0  0
    3.6409   51.4830   31.6515 C   0  0  0  0  0  0  0  0  0  0  0  0
    5.7706   52.0398   30.5777 N   0  0  0  0  0  0  0  0  0  0  0  0
    2.8924   50.8423   32.6394 C   0  0  0  0  0  0  0  0  0  0  0  0
    5.1690   52.3102   29.3700 O   0  0  0  0  0  0  0  0  0  0  0  0
    6.8822   52.5518   30.8209 O   0  0  0  0  0  0  0  0  0  0  0  0
    8.5366   39.1386   34.0140 O   0  0  0  0  0  0  0  0  0  0  0  0
   10.9794   40.0875   33.6890 O   0  0  0  0  0  0  0  0  0  0  0  0
   10.8017   40.0947   32.2902 C   0  0  0  0  0  0  0  0  0  0  0  0
   11.5885   38.9266   31.7041 C   0  0  0  0  0  0  0  0  0  0  0  0
   12.9237   38.9445   32.1721 O   0  0  0  0  0  0  0  0  0  0  0  0
   11.0029   37.5726   32.0908 C   0  0  0  0  0  0  0  0  0  0  0  0
   13.3555   37.5960   32.2594 C   0  0  0  0  0  0  0  0  0  0  0  0
    9.9380   37.1846   31.2656 O   0  0  0  0  0  0  0  0  0  0  0  0
   12.1932   36.6769   31.8952 C   0  0  0  0  0  0  0  0  0  0  0  0
   13.8028   37.2977   33.6186 N   0  0  0  0  0  0  0  0  0  0  0  0
   12.2918   36.2396   30.5587 O   0  0  0  0  0  0  0  0  0  0  0  0
   14.7926   36.4727   33.9858 C   0  0  0  0  0  0  0  0  0  0  0  0
   13.2750   37.7302   34.7935 C   0  0  0  0  0  0  0  0  0  0  0  0
   15.6241   35.7586   33.1857 N   0  0  0  0  0  0  0  0  0  0  0  0
   14.8721   36.4408   35.3326 C   0  0  0  0  0  0  0  0  0  0  0  0
   13.9204   37.2263   35.8802 N   0  0  0  0  0  0  0  0  0  0  0  0
   16.5870   34.9924   33.7800 C   0  0  0  0  0  0  0  0  0  0  0  0
   15.8572   35.6717   35.9441 C   0  0  0  0  0  0  0  0  0  0  0  0
   16.7022   34.9585   35.1437 N   0  0  0  0  0  0  0  0  0  0  0  0
   16.0097   35.6384   37.3561 N   0  0  0  0  0  0  0  0  0  0  0  0
    7.6767   44.0710   34.0501 H   0  0  0  0  0  0  0  0  0  0  0  0
    9.1820   45.3826   35.3532 H   0  0  0  0  0  0  0  0  0  0  0  0
   10.3189   45.4408   34.1000 H   0  0  0  0  0  0  0  0  0  0  0  0
    9.9711   44.0675   31.9740 H   0  0  0  0  0  0  0  0  0  0  0  0
    8.4814   43.0849   31.8669 H   0  0  0  0  0  0  0  0  0  0  0  0
    8.5408   45.1375   30.4024 H   0  0  0  0  0  0  0  0  0  0  0  0
    8.5546   46.1506   31.8753 H   0  0  0  0  0  0  0  0  0  0  0  0
    6.3005   45.0573   32.5287 H   0  0  0  0  0  0  0  0  0  0  0  0
    6.3315   44.1809   30.9589 H   0  0  0  0  0  0  0  0  0  0  0  0
    4.9245   46.2706   30.9322 H   0  0  0  0  0  0  0  0  0  0  0  0
    6.2421   46.2949   29.7217 H   0  0  0  0  0  0  0  0  0  0  0  0
    6.3129   47.7067   32.4365 H   0  0  0  0  0  0  0  0  0  0  0  0
    7.4872   49.5119   33.2996 H   0  0  0  0  0  0  0  0  0  0  0  0
    7.7121   51.1860   32.7581 H   0  0  0  0  0  0  0  0  0  0  0  0
    5.3810   49.2552   34.3015 H   0  0  0  0  0  0  0  0  0  0  0  0
    2.9448   49.5575   34.3609 H   0  0  0  0  0  0  0  0  0  0  0  0
    3.1277   52.1057   30.9298 H   0  0  0  0  0  0  0  0  0  0  0  0
    1.8174   50.9651   32.6683 H   0  0  0  0  0  0  0  0  0  0  0  0
    9.7472   40.0378   31.9304 H   0  0  0  0  0  0  0  0  0  0  0  0
   11.2241   41.0427   31.8934 H   0  0  0  0  0  0  0  0  0  0  0  0
   11.5927   39.0434   30.5966 H   0  0  0  0  0  0  0  0  0  0  0  0
   10.7003   37.5442   33.1640 H   0  0  0  0  0  0  0  0  0  0  0  0
   14.2052   37.4477   31.5560 H   0  0  0  0  0  0  0  0  0  0  0  0
    9.1374   37.6722   31.5905 H   0  0  0  0  0  0  0  0  0  0  0  0
   12.1305   35.7855   32.5585 H   0  0  0  0  0  0  0  0  0  0  0  0
   12.4606   37.0186   29.9674 H   0  0  0  0  0  0  0  0  0  0  0  0
   12.4327   38.4001   34.8694 H   0  0  0  0  0  0  0  0  0  0  0  0
   17.2666   34.4146   33.1690 H   0  0  0  0  0  0  0  0  0  0  0  0
   15.3754   36.1866   37.9788 H   0  0  0  0  0  0  0  0  0  0  0  0
   16.7633   35.0601   37.7894 H   0  0  0  0  0  0  0  0  0  0  0  0
  1  2  2  0
  1  3  1  0
  3  4  1  0
  4  5  1  0
  6  1  1  0
  7  6  1  0
  6  8  1  0
  8  9  1  0
  9 10  1  0
 10 11  1  0
 11 12  1  0
 12 13  1  0
 13 14  1  0
 13 15  2  0
 14 16  1  0
 16 17  1  0
 17 18  2  0
 19 17  1  0
 18 20  1  0
 21 19  2  0
 19 22  1  0
 20 23  2  0
 23 21  1  0
 22 24  1  0
 22 25  2  0
  4 26  2  0
  4 27  1  0
 28 27  1  0
 28 29  1  0
 29 30  1  0
 29 31  1  0
 30 32  1  0
 31 33  1  0
 31 34  1  0
 34 32  1  0
 32 35  1  0
 34 36  1  0
 37 35  1  0
 38 35  1  0
 39 37  2  0
 37 40  1  0
 41 38  2  0
 42 39  1  0
 40 43  2  0
 40 41  1  0
 44 42  2  0
 44 43  1  0
 43 45  1  0
  6 46  1  6
  7 47  1  0
  7 48  1  0
  8 49  1  0
  8 50  1  0
  9 51  1  0
  9 52  1  0
 10 53  1  0
 10 54  1  0
 11 55  1  0
 11 56  1  0
 12 57  1  0
 16 58  1  0
 16 59  1  0
 18 60  1  0
 20 61  1  0
 21 62  1  0
 23 63  1  0
 28 64  1  0
 28 65  1  0
 29 66  1  0
 31 67  1  0
 32 68  1  0
 33 69  1  0
 34 70  1  0
 36 71  1  0
 38 72  1  0
 42 73  1  0
 45 74  1  0
 45 75  1  0
M  CHG  3   5  -1  22   1  24  -1
M  END
>  <EmbedRMS>  (222) 
0.0754593582319

$$$$

     RDKit          3D

 75 78  0  0  0  0  0  0  0  0999 V2000
    9.4316   42.9423   34.3430 C   0  0  0  0  0  0  0  0  0  0  0  0
   10.4887   43.0418   35.0290 O   0  0  0  0  0  0  0  0  0  0  0  0
    8.8558   41.7140   34.0291 O   0  0  0  0  0  0  0  0  0  0  0  0
    9.4931   40.2172   34.4704 P   0  0  0  0  0  0  0  0  0  0  0  0
    9.7288   40.1751   36.1314 O   0  0  0  0  0  0  0  0  0  0  0  0
    8.7493   44.1382   33.7714 C   0  0  1  0  0  0  0  0  0  0  0  0
    9.3058   45.3684   34.3381 N   0  0  0  0  0  0  0  0  0  0  0  0
    8.8896   44.0558   32.2300 C   0  0  0  0  0  0  0  0  0  0  0  0
    8.2004   45.1771   31.4442 C   0  0  0  0  0  0  0  0  0  0  0  0
    6.6628   45.1089   31.4883 C   0  0  0  0  0  0  0  0  0  0  0  0
    6.0203   46.3216   30.8062 C   0  0  0  0  0  0  0  0  0  0  0  0
    6.4885   47.5671   31.4130 N   0  0  0  0  0  0  0  0  0  0  0  0
    7.2757   48.5170   30.6988 C   0  0  0  0  0  0  0  0  0  0  0  0
    7.7710   49.6333   31.3786 O   0  0  0  0  0  0  0  0  0  0  0  0
    7.5863   48.3124   29.4945 O   0  0  0  0  0  0  0  0  0  0  0  0
    8.8784   50.4026   30.9135 C   0  0  0  0  0  0  0  0  0  0  0  0
   10.1413   49.5688   30.9360 C   0  0  0  0  0  0  0  0  0  0  0  0
   10.4959   48.9445   32.1465 C   0  0  0  0  0  0  0  0  0  0  0  0
   10.9988   49.4319   29.8122 C   0  0  0  0  0  0  0  0  0  0  0  0
   11.6686   48.1951   32.2469 C   0  0  0  0  0  0  0  0  0  0  0  0
   12.1873   48.6933   29.9403 C   0  0  0  0  0  0  0  0  0  0  0  0
   10.6959   50.0332   28.5451 N   0  0  0  0  0  0  0  0  0  0  0  0
   12.5151   48.0733   31.1469 C   0  0  0  0  0  0  0  0  0  0  0  0
   11.7007   50.6333   27.8219 O   0  0  0  0  0  0  0  0  0  0  0  0
    9.6144   49.7813   27.9761 O   0  0  0  0  0  0  0  0  0  0  0  0
    8.5367   39.1409   34.0141 O   0  0  0  0  0  0  0  0  0  0  0  0
   10.9794   40.0884   33.6888 O   0  0  0  0  0  0  0  0  0  0  0  0
   10.8017   40.0950   32.2900 C   0  0  0  0  0  0  0  0  0  0  0  0
   11.5885   38.9267   31.7041 C   0  0  0  0  0  0  0  0  0  0  0  0
   12.9237   38.9446   32.1722 O   0  0  0  0  0  0  0  0  0  0  0  0
   11.0029   37.5727   32.0908 C   0  0  0  0  0  0  0  0  0  0  0  0
   13.3555   37.5960   32.2595 C   0  0  0  0  0  0  0  0  0  0  0  0
    9.9379   37.1847   31.2657 O   0  0  0  0  0  0  0  0  0  0  0  0
   12.1931   36.6770   31.8952 C   0  0  0  0  0  0  0  0  0  0  0  0
   13.8028   37.2977   33.6186 N   0  0  0  0  0  0  0  0  0  0  0  0
   12.2917   36.2396   30.5587 O   0  0  0  0  0  0  0  0  0  0  0  0
   14.7926   36.4727   33.9858 C   0  0  0  0  0  0  0  0  0  0  0  0
   13.2750   37.7302   34.7935 C   0  0  0  0  0  0  0  0  0  0  0  0
   15.6241   35.7586   33.1857 N   0  0  0  0  0  0  0  0  0  0  0  0
   14.8721   36.4408   35.3326 C   0  0  0  0  0  0  0  0  0  0  0  0
   13.9204   37.2263   35.8802 N   0  0  0  0  0  0  0  0  0  0  0  0
   16.5870   34.9925   33.7800 C   0  0  0  0  0  0  0  0  0  0  0  0
   15.8572   35.6717   35.9441 C   0  0  0  0  0  0  0  0  0  0  0  0
   16.7022   34.9586   35.1437 N   0  0  0  0  0  0  0  0  0  0  0  0
   16.0097   35.6384   37.3561 N   0  0  0  0  0  0  0  0  0  0  0  0
    7.6773   44.0665   34.0540 H   0  0  0  0  0  0  0  0  0  0  0  0
   10.2174   45.5892   33.8742 H   0  0  0  0  0  0  0  0  0  0  0  0
    8.6502   46.1589   34.1418 H   0  0  0  0  0  0  0  0  0  0  0  0
    9.9712   44.0701   31.9669 H   0  0  0  0  0  0  0  0  0  0  0  0
    8.4845   43.0856   31.8648 H   0  0  0  0  0  0  0  0  0  0  0  0
    8.5199   45.1038   30.3815 H   0  0  0  0  0  0  0  0  0  0  0  0
    8.5680   46.1542   31.8197 H   0  0  0  0  0  0  0  0  0  0  0  0
    6.3162   44.1795   30.9866 H   0  0  0  0  0  0  0  0  0  0  0  0
    6.3124   45.0833   32.5409 H   0  0  0  0  0  0  0  0  0  0  0  0
    4.9166   46.2603   30.9170 H   0  0  0  0  0  0  0  0  0  0  0  0
    6.2451   46.2874   29.7186 H   0  0  0  0  0  0  0  0  0  0  0  0
    6.2698   47.7501   32.4182 H   0  0  0  0  0  0  0  0  0  0  0  0
    8.6458   50.8325   29.9205 H   0  0  0  0  0  0  0  0  0  0  0  0
    9.0178   51.2607   31.6042 H   0  0  0  0  0  0  0  0  0  0  0  0
    9.8598   49.0398   33.0182 H   0  0  0  0  0  0  0  0  0  0  0  0
   11.9249   47.7147   33.1824 H   0  0  0  0  0  0  0  0  0  0  0  0
   12.8532   48.5819   29.0938 H   0  0  0  0  0  0  0  0  0  0  0  0
   13.4275   47.4967   31.2285 H   0  0  0  0  0  0  0  0  0  0  0  0
    9.7472   40.0380   31.9302 H   0  0  0  0  0  0  0  0  0  0  0  0
   11.2241   41.0429   31.8929 H   0  0  0  0  0  0  0  0  0  0  0  0
   11.5928   39.0434   30.5966 H   0  0  0  0  0  0  0  0  0  0  0  0
   10.7003   37.5445   33.1641 H   0  0  0  0  0  0  0  0  0  0  0  0
   14.2051   37.4478   31.5560 H   0  0  0  0  0  0  0  0  0  0  0  0
    9.1374   37.6723   31.5905 H   0  0  0  0  0  0  0  0  0  0  0  0
   12.1304   35.7856   32.5586 H   0  0  0  0  0  0  0  0  0  0  0  0
   12.4606   37.0186   29.9674 H   0  0  0  0  0  0  0  0  0  0  0  0
   12.4327   38.4001   34.8694 H   0  0  0  0  0  0  0  0  0  0  0  0
   17.2666   34.4146   33.1690 H   0  0  0  0  0  0  0  0  0  0  0  0
   16.7634   35.0601   37.7894 H   0  0  0  0  0  0  0  0  0  0  0  0
   15.3754   36.1866   37.9788 H   0  0  0  0  0  0  0  0  0  0  0  0
  1  2  2  0
  1  3  1  0
  3  4  1  0
  4  5  1  0
  6  1  1  0
  7  6  1  0
  6  8  1  0
  8  9  1  0
  9 10  1  0
 10 11  1  0
 11 12  1  0
 12 13  1  0
 13 14  1  0
 13 15  2  0
 14 16  1  0
 16 17  1  0
 17 18  2  0
 19 17  1  0
 18 20  1  0
 21 19  2  0
 19 22  1  0
 20 23  2  0
 23 21  1  0
 22 24  1  0
 22 25  2  0
  4 26  2  0
  4 27  1  0
 28 27  1  0
 28 29  1  0
 29 30  1  0
 29 31  1  0
 30 32  1  0
 31 33  1  0
 31 34  1  0
 34 32  1  0
 32 35  1  0
 34 36  1  0
 37 35  1  0
 38 35  1  0
 39 37  2  0
 37 40  1  0
 41 38  2  0
 42 39  1  0
 40 43  2  0
 40 41  1  0
 44 42  2  0
 44 43  1  0
 43 45  1  0
  6 46  1  6
  7 47  1  0
  7 48  1  0
  8 49  1  0
  8 50  1  0
  9 51  1  0
  9 52  1  0
 10 53  1  0
 10 54  1  0
 11 55  1  0
 11 56  1  0
 12 57  1  0
 16 58  1  0
 16 59  1  0
 18 60  1  0
 20 61  1  0
 21 62  1  0
 23 63  1  0
 28 64  1  0
 28 65  1  0
 29 66  1  0
 31 67  1  0
 32 68  1  0
 33 69  1  0
 34 70  1  0
 36 71  1  0
 38 72  1  0
 42 73  1  0
 45 74  1  0
 45 75  1  0
M  CHG  3   5  -1  22   1  24  -1
M  END
>  <EmbedRMS>  (223) 
0.076202903745

$$$$

     RDKit          3D

 75 78  0  0  0  0  0  0  0  0999 V2000
    9.4316   42.9426   34.3423 C   0  0  0  0  0  0  0  0  0  0  0  0
   10.4885   43.0418   35.0287 O   0  0  0  0  0  0  0  0  0  0  0  0
    8.8562   41.7142   34.0277 O   0  0  0  0  0  0  0  0  0  0  0  0
    9.4944   40.2173   34.4674 P   0  0  0  0  0  0  0  0  0  0  0  0
    9.7307   40.1751   36.1286 O   0  0  0  0  0  0  0  0  0  0  0  0
    8.7495   44.1390   33.7712 C   0  0  1  0  0  0  0  0  0  0  0  0
    9.3056   45.3686   34.3394 N   0  0  0  0  0  0  0  0  0  0  0  0
    8.8909   44.0584   32.2297 C   0  0  0  0  0  0  0  0  0  0  0  0
    8.2004   45.1796   31.4445 C   0  0  0  0  0  0  0  0  0  0  0  0
    6.6625   45.1100   31.4882 C   0  0  0  0  0  0  0  0  0  0  0  0
    6.0173   46.3211   30.8045 C   0  0  0  0  0  0  0  0  0  0  0  0
    6.4810   47.5684   31.4106 N   0  0  0  0  0  0  0  0  0  0  0  0
    7.2925   48.5039   30.7055 C   0  0  0  0  0  0  0  0  0  0  0  0
    7.8646   49.5660   31.4103 O   0  0  0  0  0  0  0  0  0  0  0  0
    7.5794   48.3158   29.4923 O   0  0  0  0  0  0  0  0  0  0  0  0
    9.1034   50.1634   31.0349 C   0  0  0  0  0  0  0  0  0  0  0  0
   10.2234   49.1525   31.1517 C   0  0  0  0  0  0  0  0  0  0  0  0
   10.7576   48.6094   29.9682 C   0  0  0  0  0  0  0  0  0  0  0  0
   10.7393   48.7215   32.4071 C   0  0  0  0  0  0  0  0  0  0  0  0
   11.7758   47.6574   30.0152 C   0  0  0  0  0  0  0  0  0  0  0  0
   11.7768   47.7714   32.4272 C   0  0  0  0  0  0  0  0  0  0  0  0
   10.2581   49.2427   33.6614 N   0  0  0  0  0  0  0  0  0  0  0  0
   12.2840   47.2390   31.2420 C   0  0  0  0  0  0  0  0  0  0  0  0
   11.0923   49.2732   34.7555 O   0  0  0  0  0  0  0  0  0  0  0  0
    9.0540   49.5252   33.8230 O   0  0  0  0  0  0  0  0  0  0  0  0
    8.5372   39.1412   34.0125 O   0  0  0  0  0  0  0  0  0  0  0  0
   10.9803   40.0891   33.6835 O   0  0  0  0  0  0  0  0  0  0  0  0
   10.8026   40.0904   32.2836 C   0  0  0  0  0  0  0  0  0  0  0  0
   11.5889   38.9175   31.7008 C   0  0  0  0  0  0  0  0  0  0  0  0
   12.9220   38.9374   32.1693 O   0  0  0  0  0  0  0  0  0  0  0  0
   11.0028   37.5684   32.0981 C   0  0  0  0  0  0  0  0  0  0  0  0
   13.3496   37.5886   32.2601 C   0  0  0  0  0  0  0  0  0  0  0  0
    9.9343   37.1824   31.2757 O   0  0  0  0  0  0  0  0  0  0  0  0
   12.1890   36.6678   31.9050 C   0  0  0  0  0  0  0  0  0  0  0  0
   13.8025   37.2965   33.6186 N   0  0  0  0  0  0  0  0  0  0  0  0
   12.2990   36.2868   30.5568 O   0  0  0  0  0  0  0  0  0  0  0  0
   14.7929   36.4725   33.9858 C   0  0  0  0  0  0  0  0  0  0  0  0
   13.2749   37.7295   34.7935 C   0  0  0  0  0  0  0  0  0  0  0  0
   15.6240   35.7580   33.1858 N   0  0  0  0  0  0  0  0  0  0  0  0
   14.8727   36.4411   35.3327 C   0  0  0  0  0  0  0  0  0  0  0  0
   13.9208   37.2263   35.8803 N   0  0  0  0  0  0  0  0  0  0  0  0
   16.5871   34.9921   33.7801 C   0  0  0  0  0  0  0  0  0  0  0  0
   15.8576   35.6718   35.9441 C   0  0  0  0  0  0  0  0  0  0  0  0
   16.7024   34.9585   35.1438 N   0  0  0  0  0  0  0  0  0  0  0  0
   16.0099   35.6384   37.3562 N   0  0  0  0  0  0  0  0  0  0  0  0
    7.6773   44.0673   34.0530 H   0  0  0  0  0  0  0  0  0  0  0  0
   10.2212   45.5847   33.8818 H   0  0  0  0  0  0  0  0  0  0  0  0
    8.6545   46.1613   34.1373 H   0  0  0  0  0  0  0  0  0  0  0  0
    9.9727   44.0753   31.9675 H   0  0  0  0  0  0  0  0  0  0  0  0
    8.4877   43.0880   31.8632 H   0  0  0  0  0  0  0  0  0  0  0  0
    8.5670   46.1569   31.8205 H   0  0  0  0  0  0  0  0  0  0  0  0
    8.5205   45.1077   30.3819 H   0  0  0  0  0  0  0  0  0  0  0  0
    6.3173   44.1795   30.9878 H   0  0  0  0  0  0  0  0  0  0  0  0
    6.3122   45.0851   32.5409 H   0  0  0  0  0  0  0  0  0  0  0  0
    4.9137   46.2568   30.9137 H   0  0  0  0  0  0  0  0  0  0  0  0
    6.2436   46.2868   29.7172 H   0  0  0  0  0  0  0  0  0  0  0  0
    6.2668   47.7482   32.4174 H   0  0  0  0  0  0  0  0  0  0  0  0
    9.3119   51.0325   31.6933 H   0  0  0  0  0  0  0  0  0  0  0  0
    9.0197   50.5608   29.9995 H   0  0  0  0  0  0  0  0  0  0  0  0
   10.3785   48.9171   29.0015 H   0  0  0  0  0  0  0  0  0  0  0  0
   12.1719   47.2435   29.0969 H   0  0  0  0  0  0  0  0  0  0  0  0
   12.1856   47.4265   33.3684 H   0  0  0  0  0  0  0  0  0  0  0  0
   13.0743   46.5002   31.2758 H   0  0  0  0  0  0  0  0  0  0  0  0
   11.2259   41.0360   31.8824 H   0  0  0  0  0  0  0  0  0  0  0  0
    9.7477   40.0334   31.9253 H   0  0  0  0  0  0  0  0  0  0  0  0
   11.5976   39.0148   30.5905 H   0  0  0  0  0  0  0  0  0  0  0  0
   10.7023   37.5458   33.1720 H   0  0  0  0  0  0  0  0  0  0  0  0
   14.1957   37.4366   31.5528 H   0  0  0  0  0  0  0  0  0  0  0  0
    9.1339   37.6660   31.6069 H   0  0  0  0  0  0  0  0  0  0  0  0
   12.1380   35.7718   32.5698 H   0  0  0  0  0  0  0  0  0  0  0  0
   11.7706   35.4531   30.4497 H   0  0  0  0  0  0  0  0  0  0  0  0
   12.4314   38.3981   34.8694 H   0  0  0  0  0  0  0  0  0  0  0  0
   17.2665   34.4140   33.1691 H   0  0  0  0  0  0  0  0  0  0  0  0
   16.7633   35.0599   37.7895 H   0  0  0  0  0  0  0  0  0  0  0  0
   15.3757   36.1868   37.9789 H   0  0  0  0  0  0  0  0  0  0  0  0
  1  2  2  0
  1  3  1  0
  3  4  1  0
  4  5  1  0
  6  1  1  0
  7  6  1  0
  6  8  1  0
  8  9  1  0
  9 10  1  0
 10 11  1  0
 11 12  1  0
 12 13  1  0
 13 14  1  0
 13 15  2  0
 14 16  1  0
 16 17  1  0
 17 18  2  0
 19 17  1  0
 18 20  1  0
 21 19  2  0
 19 22  1  0
 20 23  2  0
 23 21  1  0
 22 24  1  0
 22 25  2  0
  4 26  2  0
  4 27  1  0
 28 27  1  0
 28 29  1  0
 29 30  1  0
 29 31  1  0
 30 32  1  0
 31 33  1  0
 31 34  1  0
 34 32  1  0
 32 35  1  0
 34 36  1  0
 37 35  1  0
 38 35  1  0
 39 37  2  0
 37 40  1  0
 41 38  2  0
 42 39  1  0
 40 43  2  0
 40 41  1  0
 44 42  2  0
 44 43  1  0
 43 45  1  0
  6 46  1  6
  7 47  1  0
  7 48  1  0
  8 49  1  0
  8 50  1  0
  9 51  1  0
  9 52  1  0
 10 53  1  0
 10 54  1  0
 11 55  1  0
 11 56  1  0
 12 57  1  0
 16 58  1  0
 16 59  1  0
 18 60  1  0
 20 61  1  0
 21 62  1  0
 23 63  1  0
 28 64  1  0
 28 65  1  0
 29 66  1  0
 31 67  1  0
 32 68  1  0
 33 69  1  0
 34 70  1  0
 36 71  1  0
 38 72  1  0
 42 73  1  0
 45 74  1  0
 45 75  1  0
M  CHG  3   5  -1  22   1  24  -1
M  END
>  <EmbedRMS>  (224) 
0.0756647234143

$$$$

     RDKit          3D

 75 78  0  0  0  0  0  0  0  0999 V2000
    9.4313   42.9411   34.3437 C   0  0  0  0  0  0  0  0  0  0  0  0
   10.4886   43.0410   35.0294 O   0  0  0  0  0  0  0  0  0  0  0  0
    8.8562   41.7129   34.0288 O   0  0  0  0  0  0  0  0  0  0  0  0
    9.4947   40.2163   34.4679 P   0  0  0  0  0  0  0  0  0  0  0  0
    9.7311   40.1742   36.1290 O   0  0  0  0  0  0  0  0  0  0  0  0
    8.7484   44.1360   33.7721 C   0  0  1  0  0  0  0  0  0  0  0  0
    9.3039   45.3665   34.3388 N   0  0  0  0  0  0  0  0  0  0  0  0
    8.8892   44.0519   32.2309 C   0  0  0  0  0  0  0  0  0  0  0  0
    8.2014   45.1722   31.4436 C   0  0  0  0  0  0  0  0  0  0  0  0
    6.6642   45.1065   31.4887 C   0  0  0  0  0  0  0  0  0  0  0  0
    6.0265   46.3234   30.8120 C   0  0  0  0  0  0  0  0  0  0  0  0
    6.5075   47.5645   31.4187 N   0  0  0  0  0  0  0  0  0  0  0  0
    7.2441   48.5394   30.6833 C   0  0  0  0  0  0  0  0  0  0  0  0
    7.5937   49.7406   31.3053 O   0  0  0  0  0  0  0  0  0  0  0  0
    7.5931   48.3116   29.4933 O   0  0  0  0  0  0  0  0  0  0  0  0
    8.3358   50.7620   30.6460 C   0  0  0  0  0  0  0  0  0  0  0  0
    8.5145   51.9393   31.5725 C   0  0  0  0  0  0  0  0  0  0  0  0
    9.8216   52.3487   31.8969 C   0  0  0  0  0  0  0  0  0  0  0  0
    7.4097   52.6178   32.1591 C   0  0  0  0  0  0  0  0  0  0  0  0
   10.0394   53.3987   32.7894 C   0  0  0  0  0  0  0  0  0  0  0  0
    7.6545   53.6631   33.0680 C   0  0  0  0  0  0  0  0  0  0  0  0
    6.0458   52.2557   31.8719 N   0  0  0  0  0  0  0  0  0  0  0  0
    8.9584   54.0519   33.3765 C   0  0  0  0  0  0  0  0  0  0  0  0
    5.0677   52.4604   32.8180 O   0  0  0  0  0  0  0  0  0  0  0  0
    5.7032   51.9081   30.7235 O   0  0  0  0  0  0  0  0  0  0  0  0
    8.5375   39.1404   34.0127 O   0  0  0  0  0  0  0  0  0  0  0  0
   10.9805   40.0889   33.6836 O   0  0  0  0  0  0  0  0  0  0  0  0
   10.8025   40.0902   32.2837 C   0  0  0  0  0  0  0  0  0  0  0  0
   11.5888   38.9175   31.7008 C   0  0  0  0  0  0  0  0  0  0  0  0
   12.9219   38.9373   32.1692 O   0  0  0  0  0  0  0  0  0  0  0  0
   11.0028   37.5683   32.0981 C   0  0  0  0  0  0  0  0  0  0  0  0
   13.3496   37.5886   32.2601 C   0  0  0  0  0  0  0  0  0  0  0  0
    9.9343   37.1823   31.2757 O   0  0  0  0  0  0  0  0  0  0  0  0
   12.1891   36.6677   31.9050 C   0  0  0  0  0  0  0  0  0  0  0  0
   13.8025   37.2965   33.6186 N   0  0  0  0  0  0  0  0  0  0  0  0
   12.2990   36.2868   30.5568 O   0  0  0  0  0  0  0  0  0  0  0  0
   14.7929   36.4725   33.9858 C   0  0  0  0  0  0  0  0  0  0  0  0
   13.2749   37.7294   34.7935 C   0  0  0  0  0  0  0  0  0  0  0  0
   15.6240   35.7580   33.1858 N   0  0  0  0  0  0  0  0  0  0  0  0
   14.8727   36.4411   35.3327 C   0  0  0  0  0  0  0  0  0  0  0  0
   13.9208   37.2263   35.8803 N   0  0  0  0  0  0  0  0  0  0  0  0
   16.5871   34.9921   33.7801 C   0  0  0  0  0  0  0  0  0  0  0  0
   15.8576   35.6718   35.9441 C   0  0  0  0  0  0  0  0  0  0  0  0
   16.7024   34.9584   35.1438 N   0  0  0  0  0  0  0  0  0  0  0  0
   16.0099   35.6384   37.3562 N   0  0  0  0  0  0  0  0  0  0  0  0
    7.6764   44.0634   34.0548 H   0  0  0  0  0  0  0  0  0  0  0  0
   10.2152   45.5880   33.8747 H   0  0  0  0  0  0  0  0  0  0  0  0
    8.6468   46.1559   34.1432 H   0  0  0  0  0  0  0  0  0  0  0  0
    8.4831   43.0818   31.8666 H   0  0  0  0  0  0  0  0  0  0  0  0
    9.9708   44.0644   31.9679 H   0  0  0  0  0  0  0  0  0  0  0  0
    8.5712   46.1488   31.8175 H   0  0  0  0  0  0  0  0  0  0  0  0
    8.5198   45.0960   30.3808 H   0  0  0  0  0  0  0  0  0  0  0  0
    6.3141   45.0785   32.5414 H   0  0  0  0  0  0  0  0  0  0  0  0
    6.3148   44.1799   30.9839 H   0  0  0  0  0  0  0  0  0  0  0  0
    6.2450   46.2894   29.7231 H   0  0  0  0  0  0  0  0  0  0  0  0
    4.9232   46.2694   30.9295 H   0  0  0  0  0  0  0  0  0  0  0  0
    6.2848   47.7539   32.4218 H   0  0  0  0  0  0  0  0  0  0  0  0
    7.8105   51.0871   29.7233 H   0  0  0  0  0  0  0  0  0  0  0  0
    9.3191   50.3464   30.3337 H   0  0  0  0  0  0  0  0  0  0  0  0
   10.6797   51.8488   31.4646 H   0  0  0  0  0  0  0  0  0  0  0  0
   11.0499   53.7022   33.0311 H   0  0  0  0  0  0  0  0  0  0  0  0
    6.8301   54.1915   33.5298 H   0  0  0  0  0  0  0  0  0  0  0  0
    9.1305   54.8635   34.0718 H   0  0  0  0  0  0  0  0  0  0  0  0
    9.7476   40.0332   31.9256 H   0  0  0  0  0  0  0  0  0  0  0  0
   11.2257   41.0358   31.8825 H   0  0  0  0  0  0  0  0  0  0  0  0
   11.5975   39.0148   30.5905 H   0  0  0  0  0  0  0  0  0  0  0  0
   10.7023   37.5457   33.1720 H   0  0  0  0  0  0  0  0  0  0  0  0
   14.1957   37.4366   31.5528 H   0  0  0  0  0  0  0  0  0  0  0  0
    9.1339   37.6658   31.6070 H   0  0  0  0  0  0  0  0  0  0  0  0
   12.1380   35.7717   32.5698 H   0  0  0  0  0  0  0  0  0  0  0  0
   11.7706   35.4530   30.4496 H   0  0  0  0  0  0  0  0  0  0  0  0
   12.4314   38.3980   34.8694 H   0  0  0  0  0  0  0  0  0  0  0  0
   17.2665   34.4140   33.1691 H   0  0  0  0  0  0  0  0  0  0  0  0
   15.3757   36.1868   37.9789 H   0  0  0  0  0  0  0  0  0  0  0  0
   16.7633   35.0598   37.7895 H   0  0  0  0  0  0  0  0  0  0  0  0
  1  2  2  0
  1  3  1  0
  3  4  1  0
  4  5  1  0
  6  1  1  0
  7  6  1  0
  6  8  1  0
  8  9  1  0
  9 10  1  0
 10 11  1  0
 11 12  1  0
 12 13  1  0
 13 14  1  0
 13 15  2  0
 14 16  1  0
 16 17  1  0
 17 18  2  0
 19 17  1  0
 18 20  1  0
 21 19  2  0
 19 22  1  0
 20 23  2  0
 23 21  1  0
 22 24  1  0
 22 25  2  0
  4 26  2  0
  4 27  1  0
 28 27  1  0
 28 29  1  0
 29 30  1  0
 29 31  1  0
 30 32  1  0
 31 33  1  0
 31 34  1  0
 34 32  1  0
 32 35  1  0
 34 36  1  0
 37 35  1  0
 38 35  1  0
 39 37  2  0
 37 40  1  0
 41 38  2  0
 42 39  1  0
 40 43  2  0
 40 41  1  0
 44 42  2  0
 44 43  1  0
 43 45  1  0
  6 46  1  6
  7 47  1  0
  7 48  1  0
  8 49  1  0
  8 50  1  0
  9 51  1  0
  9 52  1  0
 10 53  1  0
 10 54  1  0
 11 55  1  0
 11 56  1  0
 12 57  1  0
 16 58  1  0
 16 59  1  0
 18 60  1  0
 20 61  1  0
 21 62  1  0
 23 63  1  0
 28 64  1  0
 28 65  1  0
 29 66  1  0
 31 67  1  0
 32 68  1  0
 33 69  1  0
 34 70  1  0
 36 71  1  0
 38 72  1  0
 42 73  1  0
 45 74  1  0
 45 75  1  0
M  CHG  3   5  -1  22   1  24  -1
M  END
>  <EmbedRMS>  (225) 
0.0733911880816

$$$$

     RDKit          3D

 75 78  0  0  0  0  0  0  0  0999 V2000
    9.4299   42.9397   34.3433 C   0  0  0  0  0  0  0  0  0  0  0  0
   10.4912   43.0382   35.0234 O   0  0  0  0  0  0  0  0  0  0  0  0
    8.8550   41.7118   34.0281 O   0  0  0  0  0  0  0  0  0  0  0  0
    9.4941   40.2156   34.4674 P   0  0  0  0  0  0  0  0  0  0  0  0
    9.7309   40.1739   36.1285 O   0  0  0  0  0  0  0  0  0  0  0  0
    8.7412   44.1383   33.7787 C   0  0  1  0  0  0  0  0  0  0  0  0
    9.3018   45.3724   34.3325 N   0  0  0  0  0  0  0  0  0  0  0  0
    8.8962   44.0601   32.2400 C   0  0  0  0  0  0  0  0  0  0  0  0
    8.2026   45.1700   31.4406 C   0  0  0  0  0  0  0  0  0  0  0  0
    6.6651   45.1062   31.4888 C   0  0  0  0  0  0  0  0  0  0  0  0
    6.0282   46.3219   30.8080 C   0  0  0  0  0  0  0  0  0  0  0  0
    6.5017   47.5635   31.4200 N   0  0  0  0  0  0  0  0  0  0  0  0
    7.2591   48.5349   30.6882 C   0  0  0  0  0  0  0  0  0  0  0  0
    7.6902   49.7259   31.2837 O   0  0  0  0  0  0  0  0  0  0  0  0
    7.5834   48.3109   29.4928 O   0  0  0  0  0  0  0  0  0  0  0  0
    7.4404   50.0724   32.6428 C   0  0  0  0  0  0  0  0  0  0  0  0
    8.1383   51.3681   32.9718 C   0  0  0  0  0  0  0  0  0  0  0  0
    7.3673   52.4529   33.4301 C   0  0  0  0  0  0  0  0  0  0  0  0
    9.5389   51.5379   32.7958 C   0  0  0  0  0  0  0  0  0  0  0  0
    7.9615   53.6860   33.7007 C   0  0  0  0  0  0  0  0  0  0  0  0
   10.1137   52.7950   33.0609 C   0  0  0  0  0  0  0  0  0  0  0  0
   10.3845   50.4676   32.3337 N   0  0  0  0  0  0  0  0  0  0  0  0
    9.3310   53.8577   33.5131 C   0  0  0  0  0  0  0  0  0  0  0  0
   10.2005   49.1802   32.7813 O   0  0  0  0  0  0  0  0  0  0  0  0
   11.3945   50.7225   31.6455 O   0  0  0  0  0  0  0  0  0  0  0  0
    8.5374   39.1392   34.0122 O   0  0  0  0  0  0  0  0  0  0  0  0
   10.9797   40.0879   33.6827 O   0  0  0  0  0  0  0  0  0  0  0  0
   10.8002   40.0907   32.2830 C   0  0  0  0  0  0  0  0  0  0  0  0
   11.5958   38.9271   31.6963 C   0  0  0  0  0  0  0  0  0  0  0  0
   12.9239   38.9409   32.1767 O   0  0  0  0  0  0  0  0  0  0  0  0
   11.0062   37.5719   32.0794 C   0  0  0  0  0  0  0  0  0  0  0  0
   13.3506   37.5905   32.2614 C   0  0  0  0  0  0  0  0  0  0  0  0
    9.9064   37.1793   31.2946 O   0  0  0  0  0  0  0  0  0  0  0  0
   12.1919   36.6672   31.9004 C   0  0  0  0  0  0  0  0  0  0  0  0
   13.8017   37.2948   33.6193 N   0  0  0  0  0  0  0  0  0  0  0  0
   12.3133   36.2788   30.5561 O   0  0  0  0  0  0  0  0  0  0  0  0
   14.7927   36.4716   33.9862 C   0  0  0  0  0  0  0  0  0  0  0  0
   13.2746   37.7284   34.7941 C   0  0  0  0  0  0  0  0  0  0  0  0
   15.6240   35.7576   33.1859 N   0  0  0  0  0  0  0  0  0  0  0  0
   14.8728   36.4406   35.3330 C   0  0  0  0  0  0  0  0  0  0  0  0
   13.9209   37.2258   35.8808 N   0  0  0  0  0  0  0  0  0  0  0  0
   16.5874   34.9920   33.7802 C   0  0  0  0  0  0  0  0  0  0  0  0
   15.8579   35.6716   35.9443 C   0  0  0  0  0  0  0  0  0  0  0  0
   16.7028   34.9584   35.1439 N   0  0  0  0  0  0  0  0  0  0  0  0
   16.0103   35.6383   37.3563 N   0  0  0  0  0  0  0  0  0  0  0  0
    7.6667   44.0662   34.0546 H   0  0  0  0  0  0  0  0  0  0  0  0
    8.6821   46.1681   34.0583 H   0  0  0  0  0  0  0  0  0  0  0  0
    9.2332   45.3283   35.3759 H   0  0  0  0  0  0  0  0  0  0  0  0
    9.9809   44.0917   31.9917 H   0  0  0  0  0  0  0  0  0  0  0  0
    8.5083   43.0849   31.8693 H   0  0  0  0  0  0  0  0  0  0  0  0
    8.5751   46.1527   31.7941 H   0  0  0  0  0  0  0  0  0  0  0  0
    8.5174   45.0783   30.3779 H   0  0  0  0  0  0  0  0  0  0  0  0
    6.3142   44.1778   30.9883 H   0  0  0  0  0  0  0  0  0  0  0  0
    6.3161   45.0831   32.5419 H   0  0  0  0  0  0  0  0  0  0  0  0
    4.9242   46.2646   30.9179 H   0  0  0  0  0  0  0  0  0  0  0  0
    6.2536   46.2884   29.7206 H   0  0  0  0  0  0  0  0  0  0  0  0
    6.2586   47.7297   32.4212 H   0  0  0  0  0  0  0  0  0  0  0  0
    7.8080   49.2756   33.3224 H   0  0  0  0  0  0  0  0  0  0  0  0
    6.3424   50.1603   32.7953 H   0  0  0  0  0  0  0  0  0  0  0  0
    6.2986   52.3492   33.5723 H   0  0  0  0  0  0  0  0  0  0  0  0
    7.3566   54.5124   34.0513 H   0  0  0  0  0  0  0  0  0  0  0  0
   11.1775   52.9487   32.9304 H   0  0  0  0  0  0  0  0  0  0  0  0
    9.7886   54.8166   33.7201 H   0  0  0  0  0  0  0  0  0  0  0  0
    9.7455   40.0169   31.9260 H   0  0  0  0  0  0  0  0  0  0  0  0
   11.2115   41.0421   31.8828 H   0  0  0  0  0  0  0  0  0  0  0  0
   11.6246   39.0448   30.5888 H   0  0  0  0  0  0  0  0  0  0  0  0
   10.7050   37.5581   33.1500 H   0  0  0  0  0  0  0  0  0  0  0  0
   14.1984   37.4426   31.5553 H   0  0  0  0  0  0  0  0  0  0  0  0
   10.0893   37.4057   30.3459 H   0  0  0  0  0  0  0  0  0  0  0  0
   12.1337   35.7754   32.5704 H   0  0  0  0  0  0  0  0  0  0  0  0
   11.7933   35.4394   30.4514 H   0  0  0  0  0  0  0  0  0  0  0  0
   12.4314   38.3973   34.8699 H   0  0  0  0  0  0  0  0  0  0  0  0
   17.2669   34.4141   33.1691 H   0  0  0  0  0  0  0  0  0  0  0  0
   16.7638   35.0599   37.7896 H   0  0  0  0  0  0  0  0  0  0  0  0
   15.3759   36.1865   37.9790 H   0  0  0  0  0  0  0  0  0  0  0  0
  1  2  2  0
  1  3  1  0
  3  4  1  0
  4  5  1  0
  6  1  1  0
  7  6  1  0
  6  8  1  0
  8  9  1  0
  9 10  1  0
 10 11  1  0
 11 12  1  0
 12 13  1  0
 13 14  1  0
 13 15  2  0
 14 16  1  0
 16 17  1  0
 17 18  2  0
 19 17  1  0
 18 20  1  0
 21 19  2  0
 19 22  1  0
 20 23  2  0
 23 21  1  0
 22 24  1  0
 22 25  2  0
  4 26  2  0
  4 27  1  0
 28 27  1  0
 28 29  1  0
 29 30  1  0
 29 31  1  0
 30 32  1  0
 31 33  1  0
 31 34  1  0
 34 32  1  0
 32 35  1  0
 34 36  1  0
 37 35  1  0
 38 35  1  0
 39 37  2  0
 37 40  1  0
 41 38  2  0
 42 39  1  0
 40 43  2  0
 40 41  1  0
 44 42  2  0
 44 43  1  0
 43 45  1  0
  6 46  1  6
  7 47  1  0
  7 48  1  0
  8 49  1  0
  8 50  1  0
  9 51  1  0
  9 52  1  0
 10 53  1  0
 10 54  1  0
 11 55  1  0
 11 56  1  0
 12 57  1  0
 16 58  1  0
 16 59  1  0
 18 60  1  0
 20 61  1  0
 21 62  1  0
 23 63  1  0
 28 64  1  0
 28 65  1  0
 29 66  1  0
 31 67  1  0
 32 68  1  0
 33 69  1  0
 34 70  1  0
 36 71  1  0
 38 72  1  0
 42 73  1  0
 45 74  1  0
 45 75  1  0
M  CHG  3   5  -1  22   1  24  -1
M  END
>  <EmbedRMS>  (226) 
0.074513669424

$$$$

     RDKit          3D

 75 78  0  0  0  0  0  0  0  0999 V2000
    9.4333   42.9365   34.3462 C   0  0  0  0  0  0  0  0  0  0  0  0
   10.4907   43.0330   35.0319 O   0  0  0  0  0  0  0  0  0  0  0  0
    8.8563   41.7104   34.0296 O   0  0  0  0  0  0  0  0  0  0  0  0
    9.4945   40.2142   34.4680 P   0  0  0  0  0  0  0  0  0  0  0  0
    9.7309   40.1726   36.1291 O   0  0  0  0  0  0  0  0  0  0  0  0
    8.7506   44.1348   33.7741 C   0  0  1  0  0  0  0  0  0  0  0  0
    9.2963   45.3821   34.3133 N   0  0  0  0  0  0  0  0  0  0  0  0
    8.8893   44.0528   32.2358 C   0  0  0  0  0  0  0  0  0  0  0  0
    8.2028   45.1823   31.4615 C   0  0  0  0  0  0  0  0  0  0  0  0
    6.6653   45.1046   31.4855 C   0  0  0  0  0  0  0  0  0  0  0  0
    6.0270   46.3226   30.8105 C   0  0  0  0  0  0  0  0  0  0  0  0
    6.5063   47.5640   31.4180 N   0  0  0  0  0  0  0  0  0  0  0  0
    7.2435   48.5393   30.6835 C   0  0  0  0  0  0  0  0  0  0  0  0
    7.5923   49.7406   31.3059 O   0  0  0  0  0  0  0  0  0  0  0  0
    7.5935   48.3117   29.4937 O   0  0  0  0  0  0  0  0  0  0  0  0
    8.3379   50.7596   30.6481 C   0  0  0  0  0  0  0  0  0  0  0  0
    8.5327   51.9241   31.5844 C   0  0  0  0  0  0  0  0  0  0  0  0
    9.7640   52.0473   32.2539 C   0  0  0  0  0  0  0  0  0  0  0  0
    7.5275   52.9086   31.7915 C   0  0  0  0  0  0  0  0  0  0  0  0
   10.0110   53.1305   33.0978 C   0  0  0  0  0  0  0  0  0  0  0  0
    7.8049   54.0002   32.6342 C   0  0  0  0  0  0  0  0  0  0  0  0
    6.2394   52.8363   31.1516 N   0  0  0  0  0  0  0  0  0  0  0  0
    9.0354   54.1075   33.2837 C   0  0  0  0  0  0  0  0  0  0  0  0
    5.5431   53.9913   30.8782 O   0  0  0  0  0  0  0  0  0  0  0  0
    5.6665   51.7400   30.9878 O   0  0  0  0  0  0  0  0  0  0  0  0
    8.5372   39.1386   34.0125 O   0  0  0  0  0  0  0  0  0  0  0  0
   10.9804   40.0880   33.6837 O   0  0  0  0  0  0  0  0  0  0  0  0
   10.8025   40.0899   32.2839 C   0  0  0  0  0  0  0  0  0  0  0  0
   11.5888   38.9174   31.7007 C   0  0  0  0  0  0  0  0  0  0  0  0
   12.9219   38.9373   32.1692 O   0  0  0  0  0  0  0  0  0  0  0  0
   11.0028   37.5682   32.0980 C   0  0  0  0  0  0  0  0  0  0  0  0
   13.3496   37.5885   32.2601 C   0  0  0  0  0  0  0  0  0  0  0  0
    9.9343   37.1822   31.2756 O   0  0  0  0  0  0  0  0  0  0  0  0
   12.1891   36.6677   31.9049 C   0  0  0  0  0  0  0  0  0  0  0  0
   13.8025   37.2965   33.6186 N   0  0  0  0  0  0  0  0  0  0  0  0
   12.2991   36.2867   30.5567 O   0  0  0  0  0  0  0  0  0  0  0  0
   14.7929   36.4725   33.9858 C   0  0  0  0  0  0  0  0  0  0  0  0
   13.2749   37.7294   34.7935 C   0  0  0  0  0  0  0  0  0  0  0  0
   15.6240   35.7580   33.1858 N   0  0  0  0  0  0  0  0  0  0  0  0
   14.8727   36.4411   35.3327 C   0  0  0  0  0  0  0  0  0  0  0  0
   13.9208   37.2263   35.8803 N   0  0  0  0  0  0  0  0  0  0  0  0
   16.5871   34.9921   33.7801 C   0  0  0  0  0  0  0  0  0  0  0  0
   15.8576   35.6718   35.9441 C   0  0  0  0  0  0  0  0  0  0  0  0
   16.7024   34.9584   35.1438 N   0  0  0  0  0  0  0  0  0  0  0  0
   16.0099   35.6384   37.3562 N   0  0  0  0  0  0  0  0  0  0  0  0
    7.6770   44.0707   34.0504 H   0  0  0  0  0  0  0  0  0  0  0  0
    9.1827   45.3821   35.3535 H   0  0  0  0  0  0  0  0  0  0  0  0
   10.3192   45.4407   34.0999 H   0  0  0  0  0  0  0  0  0  0  0  0
    8.4816   43.0851   31.8668 H   0  0  0  0  0  0  0  0  0  0  0  0
    9.9711   44.0682   31.9739 H   0  0  0  0  0  0  0  0  0  0  0  0
    8.5552   46.1510   31.8742 H   0  0  0  0  0  0  0  0  0  0  0  0
    8.5384   45.1363   30.4022 H   0  0  0  0  0  0  0  0  0  0  0  0
    6.3020   45.0643   32.5333 H   0  0  0  0  0  0  0  0  0  0  0  0
    6.3296   44.1800   30.9678 H   0  0  0  0  0  0  0  0  0  0  0  0
    6.2464   46.2898   29.7217 H   0  0  0  0  0  0  0  0  0  0  0  0
    4.9235   46.2673   30.9265 H   0  0  0  0  0  0  0  0  0  0  0  0
    6.2818   47.7532   32.4208 H   0  0  0  0  0  0  0  0  0  0  0  0
    9.3206   50.3436   30.3338 H   0  0  0  0  0  0  0  0  0  0  0  0
    7.8151   51.0913   29.7251 H   0  0  0  0  0  0  0  0  0  0  0  0
   10.5404   51.3042   32.1185 H   0  0  0  0  0  0  0  0  0  0  0  0
   10.9635   53.2148   33.6050 H   0  0  0  0  0  0  0  0  0  0  0  0
    7.0578   54.7652   32.8036 H   0  0  0  0  0  0  0  0  0  0  0  0
    9.2309   54.9488   33.9361 H   0  0  0  0  0  0  0  0  0  0  0  0
   11.2258   41.0357   31.8830 H   0  0  0  0  0  0  0  0  0  0  0  0
    9.7476   40.0331   31.9256 H   0  0  0  0  0  0  0  0  0  0  0  0
   11.5974   39.0148   30.5904 H   0  0  0  0  0  0  0  0  0  0  0  0
   10.7023   37.5455   33.1719 H   0  0  0  0  0  0  0  0  0  0  0  0
   14.1957   37.4366   31.5528 H   0  0  0  0  0  0  0  0  0  0  0  0
    9.1340   37.6658   31.6069 H   0  0  0  0  0  0  0  0  0  0  0  0
   12.1381   35.7717   32.5697 H   0  0  0  0  0  0  0  0  0  0  0  0
   11.7707   35.4530   30.4496 H   0  0  0  0  0  0  0  0  0  0  0  0
   12.4314   38.3980   34.8694 H   0  0  0  0  0  0  0  0  0  0  0  0
   17.2665   34.4140   33.1691 H   0  0  0  0  0  0  0  0  0  0  0  0
   16.7633   35.0598   37.7895 H   0  0  0  0  0  0  0  0  0  0  0  0
   15.3757   36.1867   37.9789 H   0  0  0  0  0  0  0  0  0  0  0  0
  1  2  2  0
  1  3  1  0
  3  4  1  0
  4  5  1  0
  6  1  1  0
  7  6  1  0
  6  8  1  0
  8  9  1  0
  9 10  1  0
 10 11  1  0
 11 12  1  0
 12 13  1  0
 13 14  1  0
 13 15  2  0
 14 16  1  0
 16 17  1  0
 17 18  2  0
 19 17  1  0
 18 20  1  0
 21 19  2  0
 19 22  1  0
 20 23  2  0
 23 21  1  0
 22 24  1  0
 22 25  2  0
  4 26  2  0
  4 27  1  0
 28 27  1  0
 28 29  1  0
 29 30  1  0
 29 31  1  0
 30 32  1  0
 31 33  1  0
 31 34  1  0
 34 32  1  0
 32 35  1  0
 34 36  1  0
 37 35  1  0
 38 35  1  0
 39 37  2  0
 37 40  1  0
 41 38  2  0
 42 39  1  0
 40 43  2  0
 40 41  1  0
 44 42  2  0
 44 43  1  0
 43 45  1  0
  6 46  1  6
  7 47  1  0
  7 48  1  0
  8 49  1  0
  8 50  1  0
  9 51  1  0
  9 52  1  0
 10 53  1  0
 10 54  1  0
 11 55  1  0
 11 56  1  0
 12 57  1  0
 16 58  1  0
 16 59  1  0
 18 60  1  0
 20 61  1  0
 21 62  1  0
 23 63  1  0
 28 64  1  0
 28 65  1  0
 29 66  1  0
 31 67  1  0
 32 68  1  0
 33 69  1  0
 34 70  1  0
 36 71  1  0
 38 72  1  0
 42 73  1  0
 45 74  1  0
 45 75  1  0
M  CHG  3   5  -1  22   1  24  -1
M  END
>  <EmbedRMS>  (227) 
0.0742102518149

$$$$

     RDKit          3D

 75 78  0  0  0  0  0  0  0  0999 V2000
    9.4316   42.9423   34.3427 C   0  0  0  0  0  0  0  0  0  0  0  0
   10.4886   43.0417   35.0289 O   0  0  0  0  0  0  0  0  0  0  0  0
    8.8563   41.7139   34.0281 O   0  0  0  0  0  0  0  0  0  0  0  0
    9.4945   40.2170   34.4676 P   0  0  0  0  0  0  0  0  0  0  0  0
    9.7308   40.1748   36.1287 O   0  0  0  0  0  0  0  0  0  0  0  0
    8.7493   44.1381   33.7713 C   0  0  1  0  0  0  0  0  0  0  0  0
    9.3058   45.3683   34.3382 N   0  0  0  0  0  0  0  0  0  0  0  0
    8.8896   44.0558   32.2299 C   0  0  0  0  0  0  0  0  0  0  0  0
    8.2004   45.1771   31.4442 C   0  0  0  0  0  0  0  0  0  0  0  0
    6.6628   45.1089   31.4883 C   0  0  0  0  0  0  0  0  0  0  0  0
    6.0203   46.3217   30.8063 C   0  0  0  0  0  0  0  0  0  0  0  0
    6.4888   47.5670   31.4131 N   0  0  0  0  0  0  0  0  0  0  0  0
    7.2752   48.5174   30.6985 C   0  0  0  0  0  0  0  0  0  0  0  0
    7.7685   49.6350   31.3777 O   0  0  0  0  0  0  0  0  0  0  0  0
    7.5864   48.3123   29.4945 O   0  0  0  0  0  0  0  0  0  0  0  0
    8.8690   50.4118   30.9083 C   0  0  0  0  0  0  0  0  0  0  0  0
   10.1362   49.5848   30.9147 C   0  0  0  0  0  0  0  0  0  0  0  0
   10.4938   48.9334   32.1101 C   0  0  0  0  0  0  0  0  0  0  0  0
   10.9960   49.4837   29.7903 C   0  0  0  0  0  0  0  0  0  0  0  0
   11.6704   48.1880   32.1927 C   0  0  0  0  0  0  0  0  0  0  0  0
   12.1880   48.7465   29.8996 C   0  0  0  0  0  0  0  0  0  0  0  0
   10.6865   50.1188   28.5414 N   0  0  0  0  0  0  0  0  0  0  0  0
   12.5181   48.0977   31.0903 C   0  0  0  0  0  0  0  0  0  0  0  0
    9.5081   49.8261   27.8957 O   0  0  0  0  0  0  0  0  0  0  0  0
   11.5811   50.7242   27.9158 O   0  0  0  0  0  0  0  0  0  0  0  0
    8.5373   39.1410   34.0126 O   0  0  0  0  0  0  0  0  0  0  0  0
   10.9804   40.0890   33.6835 O   0  0  0  0  0  0  0  0  0  0  0  0
   10.8025   40.0903   32.2837 C   0  0  0  0  0  0  0  0  0  0  0  0
   11.5889   38.9175   31.7008 C   0  0  0  0  0  0  0  0  0  0  0  0
   12.9219   38.9374   32.1693 O   0  0  0  0  0  0  0  0  0  0  0  0
   11.0028   37.5683   32.0981 C   0  0  0  0  0  0  0  0  0  0  0  0
   13.3496   37.5886   32.2601 C   0  0  0  0  0  0  0  0  0  0  0  0
    9.9343   37.1823   31.2757 O   0  0  0  0  0  0  0  0  0  0  0  0
   12.1890   36.6677   31.9050 C   0  0  0  0  0  0  0  0  0  0  0  0
   13.8025   37.2965   33.6187 N   0  0  0  0  0  0  0  0  0  0  0  0
   12.2990   36.2868   30.5568 O   0  0  0  0  0  0  0  0  0  0  0  0
   14.7929   36.4725   33.9858 C   0  0  0  0  0  0  0  0  0  0  0  0
   13.2749   37.7295   34.7936 C   0  0  0  0  0  0  0  0  0  0  0  0
   15.6240   35.7580   33.1858 N   0  0  0  0  0  0  0  0  0  0  0  0
   14.8727   36.4411   35.3327 C   0  0  0  0  0  0  0  0  0  0  0  0
   13.9208   37.2263   35.8803 N   0  0  0  0  0  0  0  0  0  0  0  0
   16.5871   34.9921   33.7801 C   0  0  0  0  0  0  0  0  0  0  0  0
   15.8576   35.6718   35.9441 C   0  0  0  0  0  0  0  0  0  0  0  0
   16.7024   34.9585   35.1438 N   0  0  0  0  0  0  0  0  0  0  0  0
   16.0099   35.6384   37.3562 N   0  0  0  0  0  0  0  0  0  0  0  0
    7.6773   44.0664   34.0540 H   0  0  0  0  0  0  0  0  0  0  0  0
    8.6501   46.1587   34.1419 H   0  0  0  0  0  0  0  0  0  0  0  0
   10.2173   45.5893   33.8741 H   0  0  0  0  0  0  0  0  0  0  0  0
    9.9712   44.0702   31.9669 H   0  0  0  0  0  0  0  0  0  0  0  0
    8.4845   43.0857   31.8647 H   0  0  0  0  0  0  0  0  0  0  0  0
    8.5679   46.1542   31.8198 H   0  0  0  0  0  0  0  0  0  0  0  0
    8.5199   45.1039   30.3816 H   0  0  0  0  0  0  0  0  0  0  0  0
    6.3124   45.0832   32.5409 H   0  0  0  0  0  0  0  0  0  0  0  0
    6.3162   44.1795   30.9865 H   0  0  0  0  0  0  0  0  0  0  0  0
    4.9167   46.2604   30.9171 H   0  0  0  0  0  0  0  0  0  0  0  0
    6.2451   46.2875   29.7186 H   0  0  0  0  0  0  0  0  0  0  0  0
    6.2701   47.7502   32.4183 H   0  0  0  0  0  0  0  0  0  0  0  0
    9.0101   51.2663   31.6030 H   0  0  0  0  0  0  0  0  0  0  0  0
    8.6273   50.8448   29.9188 H   0  0  0  0  0  0  0  0  0  0  0  0
    9.8566   49.0036   32.9834 H   0  0  0  0  0  0  0  0  0  0  0  0
   11.9288   47.6859   33.1161 H   0  0  0  0  0  0  0  0  0  0  0  0
   12.8551   48.6608   29.0509 H   0  0  0  0  0  0  0  0  0  0  0  0
   13.4332   47.5237   31.1580 H   0  0  0  0  0  0  0  0  0  0  0  0
    9.7477   40.0333   31.9254 H   0  0  0  0  0  0  0  0  0  0  0  0
   11.2258   41.0359   31.8824 H   0  0  0  0  0  0  0  0  0  0  0  0
   11.5975   39.0148   30.5905 H   0  0  0  0  0  0  0  0  0  0  0  0
   10.7023   37.5458   33.1720 H   0  0  0  0  0  0  0  0  0  0  0  0
   14.1957   37.4366   31.5528 H   0  0  0  0  0  0  0  0  0  0  0  0
    9.1339   37.6659   31.6069 H   0  0  0  0  0  0  0  0  0  0  0  0
   12.1380   35.7718   32.5698 H   0  0  0  0  0  0  0  0  0  0  0  0
   11.7706   35.4530   30.4497 H   0  0  0  0  0  0  0  0  0  0  0  0
   12.4315   38.3981   34.8694 H   0  0  0  0  0  0  0  0  0  0  0  0
   17.2665   34.4140   33.1691 H   0  0  0  0  0  0  0  0  0  0  0  0
   15.3757   36.1868   37.9789 H   0  0  0  0  0  0  0  0  0  0  0  0
   16.7633   35.0598   37.7895 H   0  0  0  0  0  0  0  0  0  0  0  0
  1  2  2  0
  1  3  1  0
  3  4  1  0
  4  5  1  0
  6  1  1  0
  7  6  1  0
  6  8  1  0
  8  9  1  0
  9 10  1  0
 10 11  1  0
 11 12  1  0
 12 13  1  0
 13 14  1  0
 13 15  2  0
 14 16  1  0
 16 17  1  0
 17 18  2  0
 19 17  1  0
 18 20  1  0
 21 19  2  0
 19 22  1  0
 20 23  2  0
 23 21  1  0
 22 24  1  0
 22 25  2  0
  4 26  2  0
  4 27  1  0
 28 27  1  0
 28 29  1  0
 29 30  1  0
 29 31  1  0
 30 32  1  0
 31 33  1  0
 31 34  1  0
 34 32  1  0
 32 35  1  0
 34 36  1  0
 37 35  1  0
 38 35  1  0
 39 37  2  0
 37 40  1  0
 41 38  2  0
 42 39  1  0
 40 43  2  0
 40 41  1  0
 44 42  2  0
 44 43  1  0
 43 45  1  0
  6 46  1  6
  7 47  1  0
  7 48  1  0
  8 49  1  0
  8 50  1  0
  9 51  1  0
  9 52  1  0
 10 53  1  0
 10 54  1  0
 11 55  1  0
 11 56  1  0
 12 57  1  0
 16 58  1  0
 16 59  1  0
 18 60  1  0
 20 61  1  0
 21 62  1  0
 23 63  1  0
 28 64  1  0
 28 65  1  0
 29 66  1  0
 31 67  1  0
 32 68  1  0
 33 69  1  0
 34 70  1  0
 36 71  1  0
 38 72  1  0
 42 73  1  0
 45 74  1  0
 45 75  1  0
M  CHG  3   5  -1  22   1  24  -1
M  END
>  <EmbedRMS>  (228) 
0.0746946359531

$$$$

     RDKit          3D

 75 78  0  0  0  0  0  0  0  0999 V2000
    9.4314   42.9420   34.3434 C   0  0  0  0  0  0  0  0  0  0  0  0
   10.4886   43.0416   35.0291 O   0  0  0  0  0  0  0  0  0  0  0  0
    8.8558   41.7136   34.0294 O   0  0  0  0  0  0  0  0  0  0  0  0
    9.4932   40.2169   34.4706 P   0  0  0  0  0  0  0  0  0  0  0  0
    9.7289   40.1749   36.1315 O   0  0  0  0  0  0  0  0  0  0  0  0
    8.7489   44.1374   33.7717 C   0  0  1  0  0  0  0  0  0  0  0  0
    9.3048   45.3679   34.3384 N   0  0  0  0  0  0  0  0  0  0  0  0
    8.8894   44.0544   32.2303 C   0  0  0  0  0  0  0  0  0  0  0  0
    8.2008   45.1754   31.4440 C   0  0  0  0  0  0  0  0  0  0  0  0
    6.6633   45.1080   31.4883 C   0  0  0  0  0  0  0  0  0  0  0  0
    6.0226   46.3222   30.8081 C   0  0  0  0  0  0  0  0  0  0  0  0
    6.4955   47.5659   31.4151 N   0  0  0  0  0  0  0  0  0  0  0  0
    7.2659   48.5246   30.6939 C   0  0  0  0  0  0  0  0  0  0  0  0
    7.7086   49.6745   31.3549 O   0  0  0  0  0  0  0  0  0  0  0  0
    7.5873   48.3125   29.4935 O   0  0  0  0  0  0  0  0  0  0  0  0
    8.7172   50.5392   30.8369 C   0  0  0  0  0  0  0  0  0  0  0  0
   10.0618   49.8491   30.8505 C   0  0  0  0  0  0  0  0  0  0  0  0
   10.5871   49.3796   29.6322 C   0  0  0  0  0  0  0  0  0  0  0  0
   10.8174   49.6794   32.0428 C   0  0  0  0  0  0  0  0  0  0  0  0
   11.8307   48.7494   29.5869 C   0  0  0  0  0  0  0  0  0  0  0  0
   12.0756   49.0525   31.9705 C   0  0  0  0  0  0  0  0  0  0  0  0
   10.3501   50.1569   33.3186 N   0  0  0  0  0  0  0  0  0  0  0  0
   12.5738   48.5867   30.7535 C   0  0  0  0  0  0  0  0  0  0  0  0
    9.0292   50.0323   33.6793 O   0  0  0  0  0  0  0  0  0  0  0  0
   11.1692   50.5442   34.1777 O   0  0  0  0  0  0  0  0  0  0  0  0
    8.5368   39.1407   34.0142 O   0  0  0  0  0  0  0  0  0  0  0  0
   10.9795   40.0884   33.6888 O   0  0  0  0  0  0  0  0  0  0  0  0
   10.8017   40.0950   32.2900 C   0  0  0  0  0  0  0  0  0  0  0  0
   11.5885   38.9267   31.7041 C   0  0  0  0  0  0  0  0  0  0  0  0
   12.9237   38.9446   32.1722 O   0  0  0  0  0  0  0  0  0  0  0  0
   11.0029   37.5727   32.0908 C   0  0  0  0  0  0  0  0  0  0  0  0
   13.3555   37.5960   32.2595 C   0  0  0  0  0  0  0  0  0  0  0  0
    9.9379   37.1847   31.2657 O   0  0  0  0  0  0  0  0  0  0  0  0
   12.1931   36.6770   31.8952 C   0  0  0  0  0  0  0  0  0  0  0  0
   13.8028   37.2977   33.6186 N   0  0  0  0  0  0  0  0  0  0  0  0
   12.2918   36.2396   30.5587 O   0  0  0  0  0  0  0  0  0  0  0  0
   14.7926   36.4727   33.9858 C   0  0  0  0  0  0  0  0  0  0  0  0
   13.2750   37.7302   34.7935 C   0  0  0  0  0  0  0  0  0  0  0  0
   15.6241   35.7586   33.1857 N   0  0  0  0  0  0  0  0  0  0  0  0
   14.8721   36.4408   35.3326 C   0  0  0  0  0  0  0  0  0  0  0  0
   13.9204   37.2263   35.8802 N   0  0  0  0  0  0  0  0  0  0  0  0
   16.5870   34.9925   33.7800 C   0  0  0  0  0  0  0  0  0  0  0  0
   15.8572   35.6717   35.9441 C   0  0  0  0  0  0  0  0  0  0  0  0
   16.7022   34.9585   35.1437 N   0  0  0  0  0  0  0  0  0  0  0  0
   16.0097   35.6384   37.3561 N   0  0  0  0  0  0  0  0  0  0  0  0
    7.6768   44.0653   34.0542 H   0  0  0  0  0  0  0  0  0  0  0  0
   10.2155   45.5902   33.8735 H   0  0  0  0  0  0  0  0  0  0  0  0
    8.6477   46.1575   34.1437 H   0  0  0  0  0  0  0  0  0  0  0  0
    8.4838   43.0843   31.8655 H   0  0  0  0  0  0  0  0  0  0  0  0
    9.9710   44.0678   31.9673 H   0  0  0  0  0  0  0  0  0  0  0  0
    8.5200   45.1012   30.3813 H   0  0  0  0  0  0  0  0  0  0  0  0
    8.5691   46.1524   31.8190 H   0  0  0  0  0  0  0  0  0  0  0  0
    6.3158   44.1796   30.9853 H   0  0  0  0  0  0  0  0  0  0  0  0
    6.3129   45.0814   32.5409 H   0  0  0  0  0  0  0  0  0  0  0  0
    4.9191   46.2635   30.9211 H   0  0  0  0  0  0  0  0  0  0  0  0
    6.2454   46.2881   29.7201 H   0  0  0  0  0  0  0  0  0  0  0  0
    6.2758   47.7509   32.4197 H   0  0  0  0  0  0  0  0  0  0  0  0
    8.4355   50.8607   29.8099 H   0  0  0  0  0  0  0  0  0  0  0  0
    8.7649   51.4612   31.4533 H   0  0  0  0  0  0  0  0  0  0  0  0
   10.0316   49.5007   28.7104 H   0  0  0  0  0  0  0  0  0  0  0  0
   12.2206   48.3896   28.6434 H   0  0  0  0  0  0  0  0  0  0  0  0
   12.6693   48.9124   32.8651 H   0  0  0  0  0  0  0  0  0  0  0  0
   13.5396   48.0996   30.7154 H   0  0  0  0  0  0  0  0  0  0  0  0
   11.2241   41.0429   31.8929 H   0  0  0  0  0  0  0  0  0  0  0  0
    9.7472   40.0379   31.9303 H   0  0  0  0  0  0  0  0  0  0  0  0
   11.5927   39.0434   30.5966 H   0  0  0  0  0  0  0  0  0  0  0  0
   10.7003   37.5444   33.1641 H   0  0  0  0  0  0  0  0  0  0  0  0
   14.2051   37.4477   31.5560 H   0  0  0  0  0  0  0  0  0  0  0  0
    9.1374   37.6723   31.5906 H   0  0  0  0  0  0  0  0  0  0  0  0
   12.1305   35.7856   32.5586 H   0  0  0  0  0  0  0  0  0  0  0  0
   12.4606   37.0186   29.9674 H   0  0  0  0  0  0  0  0  0  0  0  0
   12.4327   38.4001   34.8694 H   0  0  0  0  0  0  0  0  0  0  0  0
   17.2666   34.4146   33.1690 H   0  0  0  0  0  0  0  0  0  0  0  0
   16.7634   35.0601   37.7894 H   0  0  0  0  0  0  0  0  0  0  0  0
   15.3754   36.1866   37.9788 H   0  0  0  0  0  0  0  0  0  0  0  0
  1  2  2  0
  1  3  1  0
  3  4  1  0
  4  5  1  0
  6  1  1  0
  7  6  1  0
  6  8  1  0
  8  9  1  0
  9 10  1  0
 10 11  1  0
 11 12  1  0
 12 13  1  0
 13 14  1  0
 13 15  2  0
 14 16  1  0
 16 17  1  0
 17 18  2  0
 19 17  1  0
 18 20  1  0
 21 19  2  0
 19 22  1  0
 20 23  2  0
 23 21  1  0
 22 24  1  0
 22 25  2  0
  4 26  2  0
  4 27  1  0
 28 27  1  0
 28 29  1  0
 29 30  1  0
 29 31  1  0
 30 32  1  0
 31 33  1  0
 31 34  1  0
 34 32  1  0
 32 35  1  0
 34 36  1  0
 37 35  1  0
 38 35  1  0
 39 37  2  0
 37 40  1  0
 41 38  2  0
 42 39  1  0
 40 43  2  0
 40 41  1  0
 44 42  2  0
 44 43  1  0
 43 45  1  0
  6 46  1  6
  7 47  1  0
  7 48  1  0
  8 49  1  0
  8 50  1  0
  9 51  1  0
  9 52  1  0
 10 53  1  0
 10 54  1  0
 11 55  1  0
 11 56  1  0
 12 57  1  0
 16 58  1  0
 16 59  1  0
 18 60  1  0
 20 61  1  0
 21 62  1  0
 23 63  1  0
 28 64  1  0
 28 65  1  0
 29 66  1  0
 31 67  1  0
 32 68  1  0
 33 69  1  0
 34 70  1  0
 36 71  1  0
 38 72  1  0
 42 73  1  0
 45 74  1  0
 45 75  1  0
M  CHG  3   5  -1  22   1  24  -1
M  END
>  <EmbedRMS>  (229) 
0.0756642708194

$$$$

     RDKit          3D

 75 78  0  0  0  0  0  0  0  0999 V2000
    9.4316   42.9406   34.3431 C   0  0  0  0  0  0  0  0  0  0  0  0
   10.4885   43.0411   35.0292 O   0  0  0  0  0  0  0  0  0  0  0  0
    8.8565   41.7123   34.0287 O   0  0  0  0  0  0  0  0  0  0  0  0
    9.4947   40.2158   34.4679 P   0  0  0  0  0  0  0  0  0  0  0  0
    9.7313   40.1739   36.1290 O   0  0  0  0  0  0  0  0  0  0  0  0
    8.7485   44.1345   33.7707 C   0  0  1  0  0  0  0  0  0  0  0  0
    9.3010   45.3655   34.3367 N   0  0  0  0  0  0  0  0  0  0  0  0
    8.8902   44.0519   32.2297 C   0  0  0  0  0  0  0  0  0  0  0  0
    8.2024   45.1728   31.4428 C   0  0  0  0  0  0  0  0  0  0  0  0
    6.6654   45.1084   31.4899 C   0  0  0  0  0  0  0  0  0  0  0  0
    6.0283   46.3258   30.8139 C   0  0  0  0  0  0  0  0  0  0  0  0
    6.5071   47.5672   31.4233 N   0  0  0  0  0  0  0  0  0  0  0  0
    7.2320   48.5502   30.6753 C   0  0  0  0  0  0  0  0  0  0  0  0
    7.5436   49.8061   31.2123 O   0  0  0  0  0  0  0  0  0  0  0  0
    7.6023   48.2970   29.4994 O   0  0  0  0  0  0  0  0  0  0  0  0
    7.1507   50.2696   32.5034 C   0  0  0  0  0  0  0  0  0  0  0  0
    7.9936   49.6493   33.5951 C   0  0  0  0  0  0  0  0  0  0  0  0
    7.3414   49.0573   34.6926 C   0  0  0  0  0  0  0  0  0  0  0  0
    9.4150   49.6568   33.5566 C   0  0  0  0  0  0  0  0  0  0  0  0
    8.0729   48.4700   35.7254 C   0  0  0  0  0  0  0  0  0  0  0  0
   10.1315   49.0360   34.5951 C   0  0  0  0  0  0  0  0  0  0  0  0
   10.1475   50.2778   32.4853 N   0  0  0  0  0  0  0  0  0  0  0  0
    9.4651   48.4560   35.6749 C   0  0  0  0  0  0  0  0  0  0  0  0
   11.3726   49.7755   32.1109 O   0  0  0  0  0  0  0  0  0  0  0  0
    9.7763   51.3701   32.0094 O   0  0  0  0  0  0  0  0  0  0  0  0
    8.5375   39.1398   34.0125 O   0  0  0  0  0  0  0  0  0  0  0  0
   10.9800   40.0877   33.6829 O   0  0  0  0  0  0  0  0  0  0  0  0
   10.8003   40.0907   32.2832 C   0  0  0  0  0  0  0  0  0  0  0  0
   11.5958   38.9271   31.6964 C   0  0  0  0  0  0  0  0  0  0  0  0
   12.9239   38.9409   32.1767 O   0  0  0  0  0  0  0  0  0  0  0  0
   11.0062   37.5720   32.0794 C   0  0  0  0  0  0  0  0  0  0  0  0
   13.3506   37.5905   32.2614 C   0  0  0  0  0  0  0  0  0  0  0  0
    9.9064   37.1793   31.2946 O   0  0  0  0  0  0  0  0  0  0  0  0
   12.1920   36.6672   31.9003 C   0  0  0  0  0  0  0  0  0  0  0  0
   13.8017   37.2948   33.6193 N   0  0  0  0  0  0  0  0  0  0  0  0
   12.3133   36.2788   30.5561 O   0  0  0  0  0  0  0  0  0  0  0  0
   14.7927   36.4717   33.9862 C   0  0  0  0  0  0  0  0  0  0  0  0
   13.2746   37.7284   34.7941 C   0  0  0  0  0  0  0  0  0  0  0  0
   15.6240   35.7576   33.1859 N   0  0  0  0  0  0  0  0  0  0  0  0
   14.8728   36.4406   35.3330 C   0  0  0  0  0  0  0  0  0  0  0  0
   13.9209   37.2258   35.8808 N   0  0  0  0  0  0  0  0  0  0  0  0
   16.5874   34.9920   33.7802 C   0  0  0  0  0  0  0  0  0  0  0  0
   15.8579   35.6716   35.9443 C   0  0  0  0  0  0  0  0  0  0  0  0
   16.7028   34.9584   35.1439 N   0  0  0  0  0  0  0  0  0  0  0  0
   16.0103   35.6383   37.3563 N   0  0  0  0  0  0  0  0  0  0  0  0
    7.6763   44.0608   34.0526 H   0  0  0  0  0  0  0  0  0  0  0  0
    8.6477   46.1512   34.1193 H   0  0  0  0  0  0  0  0  0  0  0  0
   10.2183   45.5821   33.8823 H   0  0  0  0  0  0  0  0  0  0  0  0
    8.4847   43.0819   31.8646 H   0  0  0  0  0  0  0  0  0  0  0  0
    9.9719   44.0653   31.9676 H   0  0  0  0  0  0  0  0  0  0  0  0
    8.5736   46.1503   31.8138 H   0  0  0  0  0  0  0  0  0  0  0  0
    8.5190   45.0951   30.3796 H   0  0  0  0  0  0  0  0  0  0  0  0
    6.3167   45.0813   32.5431 H   0  0  0  0  0  0  0  0  0  0  0  0
    6.3145   44.1819   30.9858 H   0  0  0  0  0  0  0  0  0  0  0  0
    4.9249   46.2703   30.9307 H   0  0  0  0  0  0  0  0  0  0  0  0
    6.2462   46.2921   29.7249 H   0  0  0  0  0  0  0  0  0  0  0  0
    6.2734   47.7336   32.4257 H   0  0  0  0  0  0  0  0  0  0  0  0
    6.0644   50.0857   32.6540 H   0  0  0  0  0  0  0  0  0  0  0  0
    7.2854   51.3702   32.5394 H   0  0  0  0  0  0  0  0  0  0  0  0
    6.2600   49.0488   34.7514 H   0  0  0  0  0  0  0  0  0  0  0  0
    7.5583   48.0170   36.5630 H   0  0  0  0  0  0  0  0  0  0  0  0
   11.2139   49.0232   34.5817 H   0  0  0  0  0  0  0  0  0  0  0  0
   10.0299   47.9923   36.4733 H   0  0  0  0  0  0  0  0  0  0  0  0
   11.2115   41.0421   31.8830 H   0  0  0  0  0  0  0  0  0  0  0  0
    9.7455   40.0168   31.9264 H   0  0  0  0  0  0  0  0  0  0  0  0
   11.6245   39.0450   30.5889 H   0  0  0  0  0  0  0  0  0  0  0  0
   10.7050   37.5581   33.1500 H   0  0  0  0  0  0  0  0  0  0  0  0
   14.1985   37.4426   31.5553 H   0  0  0  0  0  0  0  0  0  0  0  0
   10.0893   37.4058   30.3459 H   0  0  0  0  0  0  0  0  0  0  0  0
   12.1337   35.7754   32.5703 H   0  0  0  0  0  0  0  0  0  0  0  0
   11.7933   35.4394   30.4514 H   0  0  0  0  0  0  0  0  0  0  0  0
   12.4314   38.3973   34.8700 H   0  0  0  0  0  0  0  0  0  0  0  0
   17.2669   34.4142   33.1692 H   0  0  0  0  0  0  0  0  0  0  0  0
   15.3759   36.1865   37.9790 H   0  0  0  0  0  0  0  0  0  0  0  0
   16.7638   35.0599   37.7896 H   0  0  0  0  0  0  0  0  0  0  0  0
  1  2  2  0
  1  3  1  0
  3  4  1  0
  4  5  1  0
  6  1  1  0
  7  6  1  0
  6  8  1  0
  8  9  1  0
  9 10  1  0
 10 11  1  0
 11 12  1  0
 12 13  1  0
 13 14  1  0
 13 15  2  0
 14 16  1  0
 16 17  1  0
 17 18  2  0
 19 17  1  0
 18 20  1  0
 21 19  2  0
 19 22  1  0
 20 23  2  0
 23 21  1  0
 22 24  1  0
 22 25  2  0
  4 26  2  0
  4 27  1  0
 28 27  1  0
 28 29  1  0
 29 30  1  0
 29 31  1  0
 30 32  1  0
 31 33  1  0
 31 34  1  0
 34 32  1  0
 32 35  1  0
 34 36  1  0
 37 35  1  0
 38 35  1  0
 39 37  2  0
 37 40  1  0
 41 38  2  0
 42 39  1  0
 40 43  2  0
 40 41  1  0
 44 42  2  0
 44 43  1  0
 43 45  1  0
  6 46  1  6
  7 47  1  0
  7 48  1  0
  8 49  1  0
  8 50  1  0
  9 51  1  0
  9 52  1  0
 10 53  1  0
 10 54  1  0
 11 55  1  0
 11 56  1  0
 12 57  1  0
 16 58  1  0
 16 59  1  0
 18 60  1  0
 20 61  1  0
 21 62  1  0
 23 63  1  0
 28 64  1  0
 28 65  1  0
 29 66  1  0
 31 67  1  0
 32 68  1  0
 33 69  1  0
 34 70  1  0
 36 71  1  0
 38 72  1  0
 42 73  1  0
 45 74  1  0
 45 75  1  0
M  CHG  3   5  -1  22   1  24  -1
M  END
>  <EmbedRMS>  (230) 
0.0739772604526

$$$$

     RDKit          3D

 75 78  0  0  0  0  0  0  0  0999 V2000
    9.4333   42.9364   34.3461 C   0  0  0  0  0  0  0  0  0  0  0  0
   10.4907   43.0329   35.0319 O   0  0  0  0  0  0  0  0  0  0  0  0
    8.8563   41.7103   34.0295 O   0  0  0  0  0  0  0  0  0  0  0  0
    9.4943   40.2139   34.4679 P   0  0  0  0  0  0  0  0  0  0  0  0
    9.7310   40.1724   36.1290 O   0  0  0  0  0  0  0  0  0  0  0  0
    8.7506   44.1348   33.7741 C   0  0  1  0  0  0  0  0  0  0  0  0
    9.2963   45.3820   34.3133 N   0  0  0  0  0  0  0  0  0  0  0  0
    8.8893   44.0528   32.2358 C   0  0  0  0  0  0  0  0  0  0  0  0
    8.2028   45.1824   31.4615 C   0  0  0  0  0  0  0  0  0  0  0  0
    6.6653   45.1046   31.4855 C   0  0  0  0  0  0  0  0  0  0  0  0
    6.0269   46.3226   30.8105 C   0  0  0  0  0  0  0  0  0  0  0  0
    6.5062   47.5640   31.4180 N   0  0  0  0  0  0  0  0  0  0  0  0
    7.2437   48.5391   30.6836 C   0  0  0  0  0  0  0  0  0  0  0  0
    7.5936   49.7399   31.3064 O   0  0  0  0  0  0  0  0  0  0  0  0
    7.5934   48.3117   29.4937 O   0  0  0  0  0  0  0  0  0  0  0  0
    8.3402   50.7585   30.6490 C   0  0  0  0  0  0  0  0  0  0  0  0
    8.5372   51.9218   31.5864 C   0  0  0  0  0  0  0  0  0  0  0  0
    9.7690   52.0424   32.2555 C   0  0  0  0  0  0  0  0  0  0  0  0
    7.5337   52.9077   31.7948 C   0  0  0  0  0  0  0  0  0  0  0  0
   10.0181   53.1245   33.1003 C   0  0  0  0  0  0  0  0  0  0  0  0
    7.8132   53.9981   32.6384 C   0  0  0  0  0  0  0  0  0  0  0  0
    6.2452   52.8380   31.1554 N   0  0  0  0  0  0  0  0  0  0  0  0
    9.0441   54.1028   33.2875 C   0  0  0  0  0  0  0  0  0  0  0  0
    5.5506   53.9944   30.8833 O   0  0  0  0  0  0  0  0  0  0  0  0
    5.6705   51.7427   30.9910 O   0  0  0  0  0  0  0  0  0  0  0  0
    8.5372   39.1382   34.0121 O   0  0  0  0  0  0  0  0  0  0  0  0
   10.9798   40.0870   33.6829 O   0  0  0  0  0  0  0  0  0  0  0  0
   10.8002   40.0905   32.2833 C   0  0  0  0  0  0  0  0  0  0  0  0
   11.5958   38.9271   31.6963 C   0  0  0  0  0  0  0  0  0  0  0  0
   12.9239   38.9408   32.1766 O   0  0  0  0  0  0  0  0  0  0  0  0
   11.0062   37.5719   32.0793 C   0  0  0  0  0  0  0  0  0  0  0  0
   13.3507   37.5905   32.2614 C   0  0  0  0  0  0  0  0  0  0  0  0
    9.9064   37.1792   31.2946 O   0  0  0  0  0  0  0  0  0  0  0  0
   12.1920   36.6671   31.9003 C   0  0  0  0  0  0  0  0  0  0  0  0
   13.8018   37.2948   33.6193 N   0  0  0  0  0  0  0  0  0  0  0  0
   12.3134   36.2787   30.5560 O   0  0  0  0  0  0  0  0  0  0  0  0
   14.7927   36.4716   33.9861 C   0  0  0  0  0  0  0  0  0  0  0  0
   13.2746   37.7284   34.7941 C   0  0  0  0  0  0  0  0  0  0  0  0
   15.6240   35.7576   33.1859 N   0  0  0  0  0  0  0  0  0  0  0  0
   14.8728   36.4406   35.3330 C   0  0  0  0  0  0  0  0  0  0  0  0
   13.9209   37.2258   35.8807 N   0  0  0  0  0  0  0  0  0  0  0  0
   16.5874   34.9920   33.7802 C   0  0  0  0  0  0  0  0  0  0  0  0
   15.8579   35.6716   35.9443 C   0  0  0  0  0  0  0  0  0  0  0  0
   16.7028   34.9584   35.1439 N   0  0  0  0  0  0  0  0  0  0  0  0
   16.0103   35.6383   37.3563 N   0  0  0  0  0  0  0  0  0  0  0  0
    7.6770   44.0706   34.0504 H   0  0  0  0  0  0  0  0  0  0  0  0
   10.3192   45.4406   34.1000 H   0  0  0  0  0  0  0  0  0  0  0  0
    9.1827   45.3820   35.3535 H   0  0  0  0  0  0  0  0  0  0  0  0
    8.4817   43.0851   31.8668 H   0  0  0  0  0  0  0  0  0  0  0  0
    9.9711   44.0682   31.9739 H   0  0  0  0  0  0  0  0  0  0  0  0
    8.5384   45.1364   30.4023 H   0  0  0  0  0  0  0  0  0  0  0  0
    8.5552   46.1510   31.8743 H   0  0  0  0  0  0  0  0  0  0  0  0
    6.3296   44.1800   30.9678 H   0  0  0  0  0  0  0  0  0  0  0  0
    6.3019   45.0643   32.5333 H   0  0  0  0  0  0  0  0  0  0  0  0
    6.2464   46.2898   29.7217 H   0  0  0  0  0  0  0  0  0  0  0  0
    4.9235   46.2673   30.9265 H   0  0  0  0  0  0  0  0  0  0  0  0
    6.2818   47.7532   32.4208 H   0  0  0  0  0  0  0  0  0  0  0  0
    7.8173   51.0917   29.7267 H   0  0  0  0  0  0  0  0  0  0  0  0
    9.3222   50.3414   30.3338 H   0  0  0  0  0  0  0  0  0  0  0  0
   10.5442   51.2982   32.1190 H   0  0  0  0  0  0  0  0  0  0  0  0
   10.9709   53.2068   33.6072 H   0  0  0  0  0  0  0  0  0  0  0  0
    7.0674   54.7641   32.8089 H   0  0  0  0  0  0  0  0  0  0  0  0
    9.2413   54.9431   33.9406 H   0  0  0  0  0  0  0  0  0  0  0  0
   11.2116   41.0420   31.8834 H   0  0  0  0  0  0  0  0  0  0  0  0
    9.7455   40.0168   31.9263 H   0  0  0  0  0  0  0  0  0  0  0  0
   11.6245   39.0449   30.5888 H   0  0  0  0  0  0  0  0  0  0  0  0
   10.7051   37.5580   33.1500 H   0  0  0  0  0  0  0  0  0  0  0  0
   14.1985   37.4426   31.5553 H   0  0  0  0  0  0  0  0  0  0  0  0
   10.0893   37.4056   30.3459 H   0  0  0  0  0  0  0  0  0  0  0  0
   12.1337   35.7754   32.5703 H   0  0  0  0  0  0  0  0  0  0  0  0
   11.7934   35.4394   30.4513 H   0  0  0  0  0  0  0  0  0  0  0  0
   12.4314   38.3973   34.8700 H   0  0  0  0  0  0  0  0  0  0  0  0
   17.2669   34.4142   33.1691 H   0  0  0  0  0  0  0  0  0  0  0  0
   15.3759   36.1865   37.9790 H   0  0  0  0  0  0  0  0  0  0  0  0
   16.7638   35.0599   37.7896 H   0  0  0  0  0  0  0  0  0  0  0  0
  1  2  2  0
  1  3  1  0
  3  4  1  0
  4  5  1  0
  6  1  1  0
  7  6  1  0
  6  8  1  0
  8  9  1  0
  9 10  1  0
 10 11  1  0
 11 12  1  0
 12 13  1  0
 13 14  1  0
 13 15  2  0
 14 16  1  0
 16 17  1  0
 17 18  2  0
 19 17  1  0
 18 20  1  0
 21 19  2  0
 19 22  1  0
 20 23  2  0
 23 21  1  0
 22 24  1  0
 22 25  2  0
  4 26  2  0
  4 27  1  0
 28 27  1  0
 28 29  1  0
 29 30  1  0
 29 31  1  0
 30 32  1  0
 31 33  1  0
 31 34  1  0
 34 32  1  0
 32 35  1  0
 34 36  1  0
 37 35  1  0
 38 35  1  0
 39 37  2  0
 37 40  1  0
 41 38  2  0
 42 39  1  0
 40 43  2  0
 40 41  1  0
 44 42  2  0
 44 43  1  0
 43 45  1  0
  6 46  1  6
  7 47  1  0
  7 48  1  0
  8 49  1  0
  8 50  1  0
  9 51  1  0
  9 52  1  0
 10 53  1  0
 10 54  1  0
 11 55  1  0
 11 56  1  0
 12 57  1  0
 16 58  1  0
 16 59  1  0
 18 60  1  0
 20 61  1  0
 21 62  1  0
 23 63  1  0
 28 64  1  0
 28 65  1  0
 29 66  1  0
 31 67  1  0
 32 68  1  0
 33 69  1  0
 34 70  1  0
 36 71  1  0
 38 72  1  0
 42 73  1  0
 45 74  1  0
 45 75  1  0
M  CHG  3   5  -1  22   1  24  -1
M  END
>  <EmbedRMS>  (231) 
0.074791628753

$$$$

     RDKit          3D

 75 78  0  0  0  0  0  0  0  0999 V2000
    9.4336   42.9375   34.3452 C   0  0  0  0  0  0  0  0  0  0  0  0
   10.4909   43.0337   35.0313 O   0  0  0  0  0  0  0  0  0  0  0  0
    8.8560   41.7113   34.0296 O   0  0  0  0  0  0  0  0  0  0  0  0
    9.4929   40.2147   34.4701 P   0  0  0  0  0  0  0  0  0  0  0  0
    9.7291   40.1733   36.1310 O   0  0  0  0  0  0  0  0  0  0  0  0
    8.7514   44.1366   33.7733 C   0  0  1  0  0  0  0  0  0  0  0  0
    9.2971   45.3835   34.3132 N   0  0  0  0  0  0  0  0  0  0  0  0
    8.8901   44.0569   32.2349 C   0  0  0  0  0  0  0  0  0  0  0  0
    8.2020   45.1876   31.4625 C   0  0  0  0  0  0  0  0  0  0  0  0
    6.6642   45.1069   31.4851 C   0  0  0  0  0  0  0  0  0  0  0  0
    6.0209   46.3211   30.8055 C   0  0  0  0  0  0  0  0  0  0  0  0
    6.4884   47.5667   31.4130 N   0  0  0  0  0  0  0  0  0  0  0  0
    7.2742   48.5174   30.6981 C   0  0  0  0  0  0  0  0  0  0  0  0
    7.7684   49.6362   31.3759 O   0  0  0  0  0  0  0  0  0  0  0  0
    7.5863   48.3123   29.4937 O   0  0  0  0  0  0  0  0  0  0  0  0
    8.8560   50.4182   30.8857 C   0  0  0  0  0  0  0  0  0  0  0  0
   10.1292   49.5984   30.8865 C   0  0  0  0  0  0  0  0  0  0  0  0
   10.4526   48.8735   32.0491 C   0  0  0  0  0  0  0  0  0  0  0  0
   10.9628   49.4776   29.7438 C   0  0  0  0  0  0  0  0  0  0  0  0
   11.5450   48.0057   32.0678 C   0  0  0  0  0  0  0  0  0  0  0  0
   12.0488   48.5860   29.7767 C   0  0  0  0  0  0  0  0  0  0  0  0
   10.7420   50.2568   28.5582 N   0  0  0  0  0  0  0  0  0  0  0  0
   12.3355   47.8543   30.9302 C   0  0  0  0  0  0  0  0  0  0  0  0
   10.9916   49.7064   27.3222 O   0  0  0  0  0  0  0  0  0  0  0  0
   10.5644   51.4894   28.6437 O   0  0  0  0  0  0  0  0  0  0  0  0
    8.5364   39.1387   34.0135 O   0  0  0  0  0  0  0  0  0  0  0  0
   10.9787   40.0867   33.6873 O   0  0  0  0  0  0  0  0  0  0  0  0
   10.7993   40.0945   32.2885 C   0  0  0  0  0  0  0  0  0  0  0  0
   11.5957   38.9351   31.6994 C   0  0  0  0  0  0  0  0  0  0  0  0
   12.9257   38.9478   32.1798 O   0  0  0  0  0  0  0  0  0  0  0  0
   11.0070   37.5758   32.0732 C   0  0  0  0  0  0  0  0  0  0  0  0
   13.3571   37.5980   32.2612 C   0  0  0  0  0  0  0  0  0  0  0  0
    9.9093   37.1808   31.2875 O   0  0  0  0  0  0  0  0  0  0  0  0
   12.1967   36.6764   31.8894 C   0  0  0  0  0  0  0  0  0  0  0  0
   13.8018   37.2956   33.6197 N   0  0  0  0  0  0  0  0  0  0  0  0
   12.3049   36.2360   30.5555 O   0  0  0  0  0  0  0  0  0  0  0  0
   14.7922   36.4716   33.9864 C   0  0  0  0  0  0  0  0  0  0  0  0
   13.2747   37.7291   34.7944 C   0  0  0  0  0  0  0  0  0  0  0  0
   15.6240   35.7581   33.1861 N   0  0  0  0  0  0  0  0  0  0  0  0
   14.8721   36.4401   35.3331 C   0  0  0  0  0  0  0  0  0  0  0  0
   13.9206   37.2257   35.8810 N   0  0  0  0  0  0  0  0  0  0  0  0
   16.5873   34.9924   33.7802 C   0  0  0  0  0  0  0  0  0  0  0  0
   15.8576   35.6714   35.9444 C   0  0  0  0  0  0  0  0  0  0  0  0
   16.7026   34.9585   35.1439 N   0  0  0  0  0  0  0  0  0  0  0  0
   16.0102   35.6382   37.3564 N   0  0  0  0  0  0  0  0  0  0  0  0
    7.6777   44.0727   34.0492 H   0  0  0  0  0  0  0  0  0  0  0  0
   10.3196   45.4432   34.0980 H   0  0  0  0  0  0  0  0  0  0  0  0
    9.1853   45.3826   35.3535 H   0  0  0  0  0  0  0  0  0  0  0  0
    9.9720   44.0749   31.9733 H   0  0  0  0  0  0  0  0  0  0  0  0
    8.4841   43.0892   31.8644 H   0  0  0  0  0  0  0  0  0  0  0  0
    8.5391   45.1454   30.4036 H   0  0  0  0  0  0  0  0  0  0  0  0
    8.5517   46.1564   31.8777 H   0  0  0  0  0  0  0  0  0  0  0  0
    6.3315   44.1798   30.9699 H   0  0  0  0  0  0  0  0  0  0  0  0
    6.3004   45.0682   32.5328 H   0  0  0  0  0  0  0  0  0  0  0  0
    4.9172   46.2590   30.9158 H   0  0  0  0  0  0  0  0  0  0  0  0
    6.2457   46.2883   29.7179 H   0  0  0  0  0  0  0  0  0  0  0  0
    6.2691   47.7498   32.4180 H   0  0  0  0  0  0  0  0  0  0  0  0
    8.9954   51.2900   31.5585 H   0  0  0  0  0  0  0  0  0  0  0  0
    8.5896   50.8030   29.8812 H   0  0  0  0  0  0  0  0  0  0  0  0
    9.8365   48.9578   32.9362 H   0  0  0  0  0  0  0  0  0  0  0  0
   11.7724   47.4416   32.9631 H   0  0  0  0  0  0  0  0  0  0  0  0
   12.6905   48.4750   28.9118 H   0  0  0  0  0  0  0  0  0  0  0  0
   13.1794   47.1767   30.9451 H   0  0  0  0  0  0  0  0  0  0  0  0
    9.7449   40.0201   31.9302 H   0  0  0  0  0  0  0  0  0  0  0  0
   11.2095   41.0480   31.8921 H   0  0  0  0  0  0  0  0  0  0  0  0
   11.6207   39.0685   30.5942 H   0  0  0  0  0  0  0  0  0  0  0  0
   10.7059   37.5563   33.1438 H   0  0  0  0  0  0  0  0  0  0  0  0
   14.2095   37.4543   31.5601 H   0  0  0  0  0  0  0  0  0  0  0  0
   10.0864   37.4210   30.3413 H   0  0  0  0  0  0  0  0  0  0  0  0
   12.1276   35.7872   32.5549 H   0  0  0  0  0  0  0  0  0  0  0  0
   12.5031   37.0109   29.9672 H   0  0  0  0  0  0  0  0  0  0  0  0
   12.4328   38.3997   34.8703 H   0  0  0  0  0  0  0  0  0  0  0  0
   17.2670   34.4149   33.1691 H   0  0  0  0  0  0  0  0  0  0  0  0
   15.3758   36.1862   37.9792 H   0  0  0  0  0  0  0  0  0  0  0  0
   16.7640   35.0601   37.7896 H   0  0  0  0  0  0  0  0  0  0  0  0
  1  2  2  0
  1  3  1  0
  3  4  1  0
  4  5  1  0
  6  1  1  0
  7  6  1  0
  6  8  1  0
  8  9  1  0
  9 10  1  0
 10 11  1  0
 11 12  1  0
 12 13  1  0
 13 14  1  0
 13 15  2  0
 14 16  1  0
 16 17  1  0
 17 18  2  0
 19 17  1  0
 18 20  1  0
 21 19  2  0
 19 22  1  0
 20 23  2  0
 23 21  1  0
 22 24  1  0
 22 25  2  0
  4 26  2  0
  4 27  1  0
 28 27  1  0
 28 29  1  0
 29 30  1  0
 29 31  1  0
 30 32  1  0
 31 33  1  0
 31 34  1  0
 34 32  1  0
 32 35  1  0
 34 36  1  0
 37 35  1  0
 38 35  1  0
 39 37  2  0
 37 40  1  0
 41 38  2  0
 42 39  1  0
 40 43  2  0
 40 41  1  0
 44 42  2  0
 44 43  1  0
 43 45  1  0
  6 46  1  6
  7 47  1  0
  7 48  1  0
  8 49  1  0
  8 50  1  0
  9 51  1  0
  9 52  1  0
 10 53  1  0
 10 54  1  0
 11 55  1  0
 11 56  1  0
 12 57  1  0
 16 58  1  0
 16 59  1  0
 18 60  1  0
 20 61  1  0
 21 62  1  0
 23 63  1  0
 28 64  1  0
 28 65  1  0
 29 66  1  0
 31 67  1  0
 32 68  1  0
 33 69  1  0
 34 70  1  0
 36 71  1  0
 38 72  1  0
 42 73  1  0
 45 74  1  0
 45 75  1  0
M  CHG  3   5  -1  22   1  24  -1
M  END
>  <EmbedRMS>  (232) 
0.0773922873458

$$$$

     RDKit          3D

 75 78  0  0  0  0  0  0  0  0999 V2000
    9.4311   42.9413   34.3437 C   0  0  0  0  0  0  0  0  0  0  0  0
   10.4884   43.0412   35.0293 O   0  0  0  0  0  0  0  0  0  0  0  0
    8.8561   41.7129   34.0288 O   0  0  0  0  0  0  0  0  0  0  0  0
    9.4947   40.2164   34.4679 P   0  0  0  0  0  0  0  0  0  0  0  0
    9.7311   40.1742   36.1290 O   0  0  0  0  0  0  0  0  0  0  0  0
    8.7481   44.1361   33.7720 C   0  0  1  0  0  0  0  0  0  0  0  0
    9.3033   45.3668   34.3386 N   0  0  0  0  0  0  0  0  0  0  0  0
    8.8891   44.0518   32.2307 C   0  0  0  0  0  0  0  0  0  0  0  0
    8.2018   45.1721   31.4431 C   0  0  0  0  0  0  0  0  0  0  0  0
    6.6645   45.1051   31.4847 C   0  0  0  0  0  0  0  0  0  0  0  0
    6.0271   46.3254   30.8129 C   0  0  0  0  0  0  0  0  0  0  0  0
    6.5119   47.5629   31.4238 N   0  0  0  0  0  0  0  0  0  0  0  0
    7.2390   48.5471   30.6792 C   0  0  0  0  0  0  0  0  0  0  0  0
    7.5899   49.7833   31.2387 O   0  0  0  0  0  0  0  0  0  0  0  0
    7.5941   48.3041   29.4965 O   0  0  0  0  0  0  0  0  0  0  0  0
    7.1902   50.2391   32.5309 C   0  0  0  0  0  0  0  0  0  0  0  0
    5.7028   50.5105   32.5767 C   0  0  0  0  0  0  0  0  0  0  0  0
    4.9351   49.8839   33.5761 C   0  0  0  0  0  0  0  0  0  0  0  0
    5.0540   51.3482   31.6280 C   0  0  0  0  0  0  0  0  0  0  0  0
    3.5512   50.0530   33.6234 C   0  0  0  0  0  0  0  0  0  0  0  0
    3.6561   51.4911   31.6851 C   0  0  0  0  0  0  0  0  0  0  0  0
    5.7802   52.0446   30.5988 N   0  0  0  0  0  0  0  0  0  0  0  0
    2.9122   50.8498   32.6762 C   0  0  0  0  0  0  0  0  0  0  0  0
    5.1714   52.3207   29.3960 O   0  0  0  0  0  0  0  0  0  0  0  0
    6.8951   52.5524   30.8362 O   0  0  0  0  0  0  0  0  0  0  0  0
    8.5375   39.1404   34.0127 O   0  0  0  0  0  0  0  0  0  0  0  0
   10.9805   40.0889   33.6836 O   0  0  0  0  0  0  0  0  0  0  0  0
   10.8025   40.0902   32.2837 C   0  0  0  0  0  0  0  0  0  0  0  0
   11.5888   38.9175   31.7008 C   0  0  0  0  0  0  0  0  0  0  0  0
   12.9219   38.9373   32.1692 O   0  0  0  0  0  0  0  0  0  0  0  0
   11.0028   37.5683   32.0981 C   0  0  0  0  0  0  0  0  0  0  0  0
   13.3496   37.5886   32.2601 C   0  0  0  0  0  0  0  0  0  0  0  0
    9.9343   37.1823   31.2757 O   0  0  0  0  0  0  0  0  0  0  0  0
   12.1890   36.6677   31.9050 C   0  0  0  0  0  0  0  0  0  0  0  0
   13.8025   37.2965   33.6187 N   0  0  0  0  0  0  0  0  0  0  0  0
   12.2990   36.2867   30.5568 O   0  0  0  0  0  0  0  0  0  0  0  0
   14.7929   36.4725   33.9858 C   0  0  0  0  0  0  0  0  0  0  0  0
   13.2749   37.7294   34.7936 C   0  0  0  0  0  0  0  0  0  0  0  0
   15.6240   35.7580   33.1858 N   0  0  0  0  0  0  0  0  0  0  0  0
   14.8727   36.4411   35.3327 C   0  0  0  0  0  0  0  0  0  0  0  0
   13.9208   37.2263   35.8803 N   0  0  0  0  0  0  0  0  0  0  0  0
   16.5871   34.9921   33.7801 C   0  0  0  0  0  0  0  0  0  0  0  0
   15.8576   35.6718   35.9441 C   0  0  0  0  0  0  0  0  0  0  0  0
   16.7024   34.9585   35.1438 N   0  0  0  0  0  0  0  0  0  0  0  0
   16.0099   35.6384   37.3562 N   0  0  0  0  0  0  0  0  0  0  0  0
    7.6760   44.0636   34.0544 H   0  0  0  0  0  0  0  0  0  0  0  0
    8.6458   46.1560   34.1436 H   0  0  0  0  0  0  0  0  0  0  0  0
   10.2143   45.5888   33.8741 H   0  0  0  0  0  0  0  0  0  0  0  0
    8.4828   43.0817   31.8665 H   0  0  0  0  0  0  0  0  0  0  0  0
    9.9707   44.0639   31.9680 H   0  0  0  0  0  0  0  0  0  0  0  0
    8.5223   45.0973   30.3808 H   0  0  0  0  0  0  0  0  0  0  0  0
    8.5705   46.1485   31.8186 H   0  0  0  0  0  0  0  0  0  0  0  0
    6.3124   45.0712   32.5366 H   0  0  0  0  0  0  0  0  0  0  0  0
    6.3166   44.1808   30.9746 H   0  0  0  0  0  0  0  0  0  0  0  0
    4.9241   46.2727   30.9351 H   0  0  0  0  0  0  0  0  0  0  0  0
    6.2406   46.2946   29.7230 H   0  0  0  0  0  0  0  0  0  0  0  0
    6.3165   47.7066   32.4377 H   0  0  0  0  0  0  0  0  0  0  0  0
    7.7335   51.1777   32.7638 H   0  0  0  0  0  0  0  0  0  0  0  0
    7.5070   49.5022   33.3007 H   0  0  0  0  0  0  0  0  0  0  0  0
    5.4069   49.2497   34.3165 H   0  0  0  0  0  0  0  0  0  0  0  0
    2.9722   49.5596   34.3934 H   0  0  0  0  0  0  0  0  0  0  0  0
    3.1400   52.1177   30.9689 H   0  0  0  0  0  0  0  0  0  0  0  0
    1.8378   50.9759   32.7127 H   0  0  0  0  0  0  0  0  0  0  0  0
    9.7476   40.0332   31.9256 H   0  0  0  0  0  0  0  0  0  0  0  0
   11.2257   41.0358   31.8825 H   0  0  0  0  0  0  0  0  0  0  0  0
   11.5975   39.0148   30.5905 H   0  0  0  0  0  0  0  0  0  0  0  0
   10.7023   37.5457   33.1720 H   0  0  0  0  0  0  0  0  0  0  0  0
   14.1957   37.4366   31.5528 H   0  0  0  0  0  0  0  0  0  0  0  0
    9.1339   37.6658   31.6070 H   0  0  0  0  0  0  0  0  0  0  0  0
   12.1380   35.7717   32.5698 H   0  0  0  0  0  0  0  0  0  0  0  0
   11.7706   35.4530   30.4497 H   0  0  0  0  0  0  0  0  0  0  0  0
   12.4314   38.3980   34.8694 H   0  0  0  0  0  0  0  0  0  0  0  0
   17.2665   34.4140   33.1691 H   0  0  0  0  0  0  0  0  0  0  0  0
   16.7633   35.0598   37.7895 H   0  0  0  0  0  0  0  0  0  0  0  0
   15.3757   36.1867   37.9789 H   0  0  0  0  0  0  0  0  0  0  0  0
  1  2  2  0
  1  3  1  0
  3  4  1  0
  4  5  1  0
  6  1  1  0
  7  6  1  0
  6  8  1  0
  8  9  1  0
  9 10  1  0
 10 11  1  0
 11 12  1  0
 12 13  1  0
 13 14  1  0
 13 15  2  0
 14 16  1  0
 16 17  1  0
 17 18  2  0
 19 17  1  0
 18 20  1  0
 21 19  2  0
 19 22  1  0
 20 23  2  0
 23 21  1  0
 22 24  1  0
 22 25  2  0
  4 26  2  0
  4 27  1  0
 28 27  1  0
 28 29  1  0
 29 30  1  0
 29 31  1  0
 30 32  1  0
 31 33  1  0
 31 34  1  0
 34 32  1  0
 32 35  1  0
 34 36  1  0
 37 35  1  0
 38 35  1  0
 39 37  2  0
 37 40  1  0
 41 38  2  0
 42 39  1  0
 40 43  2  0
 40 41  1  0
 44 42  2  0
 44 43  1  0
 43 45  1  0
  6 46  1  6
  7 47  1  0
  7 48  1  0
  8 49  1  0
  8 50  1  0
  9 51  1  0
  9 52  1  0
 10 53  1  0
 10 54  1  0
 11 55  1  0
 11 56  1  0
 12 57  1  0
 16 58  1  0
 16 59  1  0
 18 60  1  0
 20 61  1  0
 21 62  1  0
 23 63  1  0
 28 64  1  0
 28 65  1  0
 29 66  1  0
 31 67  1  0
 32 68  1  0
 33 69  1  0
 34 70  1  0
 36 71  1  0
 38 72  1  0
 42 73  1  0
 45 74  1  0
 45 75  1  0
M  CHG  3   5  -1  22   1  24  -1
M  END
>  <EmbedRMS>  (233) 
0.0731318803532

$$$$

     RDKit          3D

 75 78  0  0  0  0  0  0  0  0999 V2000
    9.4332   42.9357   34.3455 C   0  0  0  0  0  0  0  0  0  0  0  0
   10.4907   43.0325   35.0313 O   0  0  0  0  0  0  0  0  0  0  0  0
    8.8562   41.7097   34.0293 O   0  0  0  0  0  0  0  0  0  0  0  0
    9.4945   40.2138   34.4680 P   0  0  0  0  0  0  0  0  0  0  0  0
    9.7308   40.1726   36.1291 O   0  0  0  0  0  0  0  0  0  0  0  0
    8.7503   44.1335   33.7737 C   0  0  1  0  0  0  0  0  0  0  0  0
    9.2954   45.3793   34.3141 N   0  0  0  0  0  0  0  0  0  0  0  0
    8.8900   44.0534   32.2358 C   0  0  0  0  0  0  0  0  0  0  0  0
    8.2042   45.1847   31.4637 C   0  0  0  0  0  0  0  0  0  0  0  0
    6.6670   45.1054   31.4854 C   0  0  0  0  0  0  0  0  0  0  0  0
    6.0295   46.3245   30.8124 C   0  0  0  0  0  0  0  0  0  0  0  0
    6.5097   47.5649   31.4225 N   0  0  0  0  0  0  0  0  0  0  0  0
    7.2296   48.5513   30.6732 C   0  0  0  0  0  0  0  0  0  0  0  0
    7.5347   49.8089   31.2111 O   0  0  0  0  0  0  0  0  0  0  0  0
    7.5989   48.3002   29.4966 O   0  0  0  0  0  0  0  0  0  0  0  0
    7.1919   50.2359   32.5286 C   0  0  0  0  0  0  0  0  0  0  0  0
    8.1010   49.5988   33.5555 C   0  0  0  0  0  0  0  0  0  0  0  0
    9.4882   49.6125   33.3205 C   0  0  0  0  0  0  0  0  0  0  0  0
    7.6075   48.9896   34.7380 C   0  0  0  0  0  0  0  0  0  0  0  0
   10.3693   49.0050   34.2161 C   0  0  0  0  0  0  0  0  0  0  0  0
    8.5089   48.3703   35.6210 C   0  0  0  0  0  0  0  0  0  0  0  0
    6.2125   49.0180   35.0747 N   0  0  0  0  0  0  0  0  0  0  0  0
    9.8803   48.3822   35.3626 C   0  0  0  0  0  0  0  0  0  0  0  0
    5.5296   50.2123   35.0725 O   0  0  0  0  0  0  0  0  0  0  0  0
    5.6759   48.0169   35.5927 O   0  0  0  0  0  0  0  0  0  0  0  0
    8.5373   39.1382   34.0125 O   0  0  0  0  0  0  0  0  0  0  0  0
   10.9805   40.0879   33.6837 O   0  0  0  0  0  0  0  0  0  0  0  0
   10.8026   40.0899   32.2839 C   0  0  0  0  0  0  0  0  0  0  0  0
   11.5889   38.9174   31.7007 C   0  0  0  0  0  0  0  0  0  0  0  0
   12.9220   38.9373   32.1692 O   0  0  0  0  0  0  0  0  0  0  0  0
   11.0028   37.5682   32.0980 C   0  0  0  0  0  0  0  0  0  0  0  0
   13.3496   37.5885   32.2601 C   0  0  0  0  0  0  0  0  0  0  0  0
    9.9343   37.1822   31.2756 O   0  0  0  0  0  0  0  0  0  0  0  0
   12.1891   36.6677   31.9049 C   0  0  0  0  0  0  0  0  0  0  0  0
   13.8025   37.2965   33.6186 N   0  0  0  0  0  0  0  0  0  0  0  0
   12.2991   36.2867   30.5567 O   0  0  0  0  0  0  0  0  0  0  0  0
   14.7929   36.4725   33.9858 C   0  0  0  0  0  0  0  0  0  0  0  0
   13.2749   37.7294   34.7935 C   0  0  0  0  0  0  0  0  0  0  0  0
   15.6240   35.7580   33.1858 N   0  0  0  0  0  0  0  0  0  0  0  0
   14.8727   36.4411   35.3327 C   0  0  0  0  0  0  0  0  0  0  0  0
   13.9208   37.2263   35.8803 N   0  0  0  0  0  0  0  0  0  0  0  0
   16.5871   34.9921   33.7801 C   0  0  0  0  0  0  0  0  0  0  0  0
   15.8576   35.6718   35.9441 C   0  0  0  0  0  0  0  0  0  0  0  0
   16.7024   34.9584   35.1438 N   0  0  0  0  0  0  0  0  0  0  0  0
   16.0099   35.6384   37.3562 N   0  0  0  0  0  0  0  0  0  0  0  0
    7.6767   44.0693   34.0497 H   0  0  0  0  0  0  0  0  0  0  0  0
   10.3172   45.4419   34.0967 H   0  0  0  0  0  0  0  0  0  0  0  0
    9.1863   45.3745   35.3547 H   0  0  0  0  0  0  0  0  0  0  0  0
    8.4824   43.0864   31.8651 H   0  0  0  0  0  0  0  0  0  0  0  0
    9.9720   44.0693   31.9746 H   0  0  0  0  0  0  0  0  0  0  0  0
    8.5550   46.1528   31.8803 H   0  0  0  0  0  0  0  0  0  0  0  0
    8.5416   45.1423   30.4048 H   0  0  0  0  0  0  0  0  0  0  0  0
    6.3325   44.1817   30.9653 H   0  0  0  0  0  0  0  0  0  0  0  0
    6.3025   45.0630   32.5329 H   0  0  0  0  0  0  0  0  0  0  0  0
    6.2466   46.2925   29.7232 H   0  0  0  0  0  0  0  0  0  0  0  0
    4.9261   46.2693   30.9301 H   0  0  0  0  0  0  0  0  0  0  0  0
    6.2847   47.7252   32.4281 H   0  0  0  0  0  0  0  0  0  0  0  0
    6.1167   50.0359   32.7066 H   0  0  0  0  0  0  0  0  0  0  0  0
    7.3335   51.3355   32.5822 H   0  0  0  0  0  0  0  0  0  0  0  0
    9.8888   50.0870   32.4330 H   0  0  0  0  0  0  0  0  0  0  0  0
   11.4335   49.0150   34.0189 H   0  0  0  0  0  0  0  0  0  0  0  0
    8.1487   47.8971   36.5258 H   0  0  0  0  0  0  0  0  0  0  0  0
   10.5651   47.9091   36.0545 H   0  0  0  0  0  0  0  0  0  0  0  0
   11.2259   41.0357   31.8831 H   0  0  0  0  0  0  0  0  0  0  0  0
    9.7477   40.0332   31.9256 H   0  0  0  0  0  0  0  0  0  0  0  0
   11.5974   39.0148   30.5904 H   0  0  0  0  0  0  0  0  0  0  0  0
   10.7024   37.5455   33.1719 H   0  0  0  0  0  0  0  0  0  0  0  0
   14.1957   37.4366   31.5528 H   0  0  0  0  0  0  0  0  0  0  0  0
    9.1340   37.6659   31.6069 H   0  0  0  0  0  0  0  0  0  0  0  0
   12.1381   35.7717   32.5697 H   0  0  0  0  0  0  0  0  0  0  0  0
   11.7707   35.4530   30.4496 H   0  0  0  0  0  0  0  0  0  0  0  0
   12.4314   38.3980   34.8694 H   0  0  0  0  0  0  0  0  0  0  0  0
   17.2665   34.4140   33.1691 H   0  0  0  0  0  0  0  0  0  0  0  0
   15.3757   36.1868   37.9789 H   0  0  0  0  0  0  0  0  0  0  0  0
   16.7633   35.0599   37.7895 H   0  0  0  0  0  0  0  0  0  0  0  0
  1  2  2  0
  1  3  1  0
  3  4  1  0
  4  5  1  0
  6  1  1  0
  7  6  1  0
  6  8  1  0
  8  9  1  0
  9 10  1  0
 10 11  1  0
 11 12  1  0
 12 13  1  0
 13 14  1  0
 13 15  2  0
 14 16  1  0
 16 17  1  0
 17 18  2  0
 19 17  1  0
 18 20  1  0
 21 19  2  0
 19 22  1  0
 20 23  2  0
 23 21  1  0
 22 24  1  0
 22 25  2  0
  4 26  2  0
  4 27  1  0
 28 27  1  0
 28 29  1  0
 29 30  1  0
 29 31  1  0
 30 32  1  0
 31 33  1  0
 31 34  1  0
 34 32  1  0
 32 35  1  0
 34 36  1  0
 37 35  1  0
 38 35  1  0
 39 37  2  0
 37 40  1  0
 41 38  2  0
 42 39  1  0
 40 43  2  0
 40 41  1  0
 44 42  2  0
 44 43  1  0
 43 45  1  0
  6 46  1  6
  7 47  1  0
  7 48  1  0
  8 49  1  0
  8 50  1  0
  9 51  1  0
  9 52  1  0
 10 53  1  0
 10 54  1  0
 11 55  1  0
 11 56  1  0
 12 57  1  0
 16 58  1  0
 16 59  1  0
 18 60  1  0
 20 61  1  0
 21 62  1  0
 23 63  1  0
 28 64  1  0
 28 65  1  0
 29 66  1  0
 31 67  1  0
 32 68  1  0
 33 69  1  0
 34 70  1  0
 36 71  1  0
 38 72  1  0
 42 73  1  0
 45 74  1  0
 45 75  1  0
M  CHG  3   5  -1  22   1  24  -1
M  END
>  <EmbedRMS>  (234) 
0.0741198139389

$$$$

     RDKit          3D

 75 78  0  0  0  0  0  0  0  0999 V2000
    9.4312   42.9410   34.3437 C   0  0  0  0  0  0  0  0  0  0  0  0
   10.4885   43.0408   35.0294 O   0  0  0  0  0  0  0  0  0  0  0  0
    8.8562   41.7127   34.0287 O   0  0  0  0  0  0  0  0  0  0  0  0
    9.4944   40.2160   34.4677 P   0  0  0  0  0  0  0  0  0  0  0  0
    9.7313   40.1739   36.1288 O   0  0  0  0  0  0  0  0  0  0  0  0
    8.7484   44.1359   33.7721 C   0  0  1  0  0  0  0  0  0  0  0  0
    9.3039   45.3664   34.3388 N   0  0  0  0  0  0  0  0  0  0  0  0
    8.8892   44.0518   32.2308 C   0  0  0  0  0  0  0  0  0  0  0  0
    8.2015   45.1721   31.4435 C   0  0  0  0  0  0  0  0  0  0  0  0
    6.6642   45.1066   31.4887 C   0  0  0  0  0  0  0  0  0  0  0  0
    6.0267   46.3237   30.8123 C   0  0  0  0  0  0  0  0  0  0  0  0
    6.5083   47.5645   31.4190 N   0  0  0  0  0  0  0  0  0  0  0  0
    7.2421   48.5406   30.6825 C   0  0  0  0  0  0  0  0  0  0  0  0
    7.5847   49.7468   31.3027 O   0  0  0  0  0  0  0  0  0  0  0  0
    7.5940   48.3105   29.4938 O   0  0  0  0  0  0  0  0  0  0  0  0
    8.2920   50.7941   30.6407 C   0  0  0  0  0  0  0  0  0  0  0  0
    7.4270   51.4403   29.5823 C   0  0  0  0  0  0  0  0  0  0  0  0
    7.8914   51.4571   28.2540 C   0  0  0  0  0  0  0  0  0  0  0  0
    6.1464   51.9855   29.8764 C   0  0  0  0  0  0  0  0  0  0  0  0
    7.1060   51.9885   27.2307 C   0  0  0  0  0  0  0  0  0  0  0  0
    5.3660   52.5015   28.8262 C   0  0  0  0  0  0  0  0  0  0  0  0
    5.6104   52.0065   31.2125 N   0  0  0  0  0  0  0  0  0  0  0  0
    5.8444   52.5059   27.5155 C   0  0  0  0  0  0  0  0  0  0  0  0
    4.2492   51.9532   31.4069 O   0  0  0  0  0  0  0  0  0  0  0  0
    6.3463   52.2349   32.1939 O   0  0  0  0  0  0  0  0  0  0  0  0
    8.5373   39.1399   34.0125 O   0  0  0  0  0  0  0  0  0  0  0  0
   10.9796   40.0877   33.6826 O   0  0  0  0  0  0  0  0  0  0  0  0
   10.7997   40.0901   32.2829 C   0  0  0  0  0  0  0  0  0  0  0  0
   11.5968   38.9274   31.6963 C   0  0  0  0  0  0  0  0  0  0  0  0
   12.9242   38.9426   32.1785 O   0  0  0  0  0  0  0  0  0  0  0  0
   11.0086   37.5714   32.0780 C   0  0  0  0  0  0  0  0  0  0  0  0
   13.3528   37.5929   32.2623 C   0  0  0  0  0  0  0  0  0  0  0  0
    9.9098   37.1771   31.2926 O   0  0  0  0  0  0  0  0  0  0  0  0
   12.1942   36.6683   31.8995 C   0  0  0  0  0  0  0  0  0  0  0  0
   13.8019   37.2950   33.6199 N   0  0  0  0  0  0  0  0  0  0  0  0
   12.3026   36.2773   30.5559 O   0  0  0  0  0  0  0  0  0  0  0  0
   14.7926   36.4715   33.9865 C   0  0  0  0  0  0  0  0  0  0  0  0
   13.2749   37.7286   34.7946 C   0  0  0  0  0  0  0  0  0  0  0  0
   15.6239   35.7577   33.1860 N   0  0  0  0  0  0  0  0  0  0  0  0
   14.8727   36.4403   35.3332 C   0  0  0  0  0  0  0  0  0  0  0  0
   13.9210   37.2257   35.8812 N   0  0  0  0  0  0  0  0  0  0  0  0
   16.5873   34.9921   33.7802 C   0  0  0  0  0  0  0  0  0  0  0  0
   15.8579   35.6714   35.9444 C   0  0  0  0  0  0  0  0  0  0  0  0
   16.7028   34.9583   35.1439 N   0  0  0  0  0  0  0  0  0  0  0  0
   16.0104   35.6381   37.3564 N   0  0  0  0  0  0  0  0  0  0  0  0
    7.6764   44.0633   34.0547 H   0  0  0  0  0  0  0  0  0  0  0  0
   10.2152   45.5878   33.8748 H   0  0  0  0  0  0  0  0  0  0  0  0
    8.6468   46.1558   34.1431 H   0  0  0  0  0  0  0  0  0  0  0  0
    8.4830   43.0818   31.8666 H   0  0  0  0  0  0  0  0  0  0  0  0
    9.9708   44.0643   31.9679 H   0  0  0  0  0  0  0  0  0  0  0  0
    8.5198   45.0959   30.3807 H   0  0  0  0  0  0  0  0  0  0  0  0
    8.5714   46.1487   31.8174 H   0  0  0  0  0  0  0  0  0  0  0  0
    6.3147   44.1801   30.9835 H   0  0  0  0  0  0  0  0  0  0  0  0
    6.3142   45.0783   32.5413 H   0  0  0  0  0  0  0  0  0  0  0  0
    6.2448   46.2897   29.7232 H   0  0  0  0  0  0  0  0  0  0  0  0
    4.9234   46.2700   30.9301 H   0  0  0  0  0  0  0  0  0  0  0  0
    6.2849   47.7544   32.4218 H   0  0  0  0  0  0  0  0  0  0  0  0
    8.5962   51.5578   31.3850 H   0  0  0  0  0  0  0  0  0  0  0  0
    9.2326   50.3848   30.2108 H   0  0  0  0  0  0  0  0  0  0  0  0
    8.8621   51.0468   28.0043 H   0  0  0  0  0  0  0  0  0  0  0  0
    7.4743   51.9926   26.2129 H   0  0  0  0  0  0  0  0  0  0  0  0
    4.3865   52.9174   29.0250 H   0  0  0  0  0  0  0  0  0  0  0  0
    5.2354   52.9136   26.7189 H   0  0  0  0  0  0  0  0  0  0  0  0
   11.2095   41.0419   31.8825 H   0  0  0  0  0  0  0  0  0  0  0  0
    9.7449   40.0145   31.9263 H   0  0  0  0  0  0  0  0  0  0  0  0
   11.6265   39.0456   30.5888 H   0  0  0  0  0  0  0  0  0  0  0  0
   10.7064   37.5575   33.1485 H   0  0  0  0  0  0  0  0  0  0  0  0
   14.2021   37.4484   31.5574 H   0  0  0  0  0  0  0  0  0  0  0  0
   10.0952   37.3991   30.3433 H   0  0  0  0  0  0  0  0  0  0  0  0
   12.1163   35.7745   32.5634 H   0  0  0  0  0  0  0  0  0  0  0  0
   12.9614   35.5349   30.5312 H   0  0  0  0  0  0  0  0  0  0  0  0
   12.4321   38.3982   34.8705 H   0  0  0  0  0  0  0  0  0  0  0  0
   17.2669   34.4144   33.1690 H   0  0  0  0  0  0  0  0  0  0  0  0
   16.7641   35.0599   37.7897 H   0  0  0  0  0  0  0  0  0  0  0  0
   15.3761   36.1862   37.9792 H   0  0  0  0  0  0  0  0  0  0  0  0
  1  2  2  0
  1  3  1  0
  3  4  1  0
  4  5  1  0
  6  1  1  0
  7  6  1  0
  6  8  1  0
  8  9  1  0
  9 10  1  0
 10 11  1  0
 11 12  1  0
 12 13  1  0
 13 14  1  0
 13 15  2  0
 14 16  1  0
 16 17  1  0
 17 18  2  0
 19 17  1  0
 18 20  1  0
 21 19  2  0
 19 22  1  0
 20 23  2  0
 23 21  1  0
 22 24  1  0
 22 25  2  0
  4 26  2  0
  4 27  1  0
 28 27  1  0
 28 29  1  0
 29 30  1  0
 29 31  1  0
 30 32  1  0
 31 33  1  0
 31 34  1  0
 34 32  1  0
 32 35  1  0
 34 36  1  0
 37 35  1  0
 38 35  1  0
 39 37  2  0
 37 40  1  0
 41 38  2  0
 42 39  1  0
 40 43  2  0
 40 41  1  0
 44 42  2  0
 44 43  1  0
 43 45  1  0
  6 46  1  6
  7 47  1  0
  7 48  1  0
  8 49  1  0
  8 50  1  0
  9 51  1  0
  9 52  1  0
 10 53  1  0
 10 54  1  0
 11 55  1  0
 11 56  1  0
 12 57  1  0
 16 58  1  0
 16 59  1  0
 18 60  1  0
 20 61  1  0
 21 62  1  0
 23 63  1  0
 28 64  1  0
 28 65  1  0
 29 66  1  0
 31 67  1  0
 32 68  1  0
 33 69  1  0
 34 70  1  0
 36 71  1  0
 38 72  1  0
 42 73  1  0
 45 74  1  0
 45 75  1  0
M  CHG  3   5  -1  22   1  24  -1
M  END
>  <EmbedRMS>  (235) 
0.0737319886208

$$$$

     RDKit          3D

 75 78  0  0  0  0  0  0  0  0999 V2000
    9.4333   42.9366   34.3462 C   0  0  0  0  0  0  0  0  0  0  0  0
   10.4907   43.0330   35.0319 O   0  0  0  0  0  0  0  0  0  0  0  0
    8.8563   41.7104   34.0296 O   0  0  0  0  0  0  0  0  0  0  0  0
    9.4945   40.2142   34.4680 P   0  0  0  0  0  0  0  0  0  0  0  0
    9.7309   40.1726   36.1291 O   0  0  0  0  0  0  0  0  0  0  0  0
    8.7506   44.1348   33.7741 C   0  0  1  0  0  0  0  0  0  0  0  0
    9.2963   45.3821   34.3133 N   0  0  0  0  0  0  0  0  0  0  0  0
    8.8893   44.0528   32.2358 C   0  0  0  0  0  0  0  0  0  0  0  0
    8.2028   45.1824   31.4615 C   0  0  0  0  0  0  0  0  0  0  0  0
    6.6654   45.1046   31.4855 C   0  0  0  0  0  0  0  0  0  0  0  0
    6.0270   46.3225   30.8105 C   0  0  0  0  0  0  0  0  0  0  0  0
    6.5062   47.5640   31.4180 N   0  0  0  0  0  0  0  0  0  0  0  0
    7.2432   48.5394   30.6834 C   0  0  0  0  0  0  0  0  0  0  0  0
    7.5918   49.7409   31.3059 O   0  0  0  0  0  0  0  0  0  0  0  0
    7.5937   48.3116   29.4938 O   0  0  0  0  0  0  0  0  0  0  0  0
    8.3430   50.7591   30.6503 C   0  0  0  0  0  0  0  0  0  0  0  0
    8.5101   51.9406   31.5750 C   0  0  0  0  0  0  0  0  0  0  0  0
    7.3592   52.4764   32.1819 C   0  0  0  0  0  0  0  0  0  0  0  0
    9.7771   52.5061   31.8787 C   0  0  0  0  0  0  0  0  0  0  0  0
    7.4591   53.5171   33.1064 C   0  0  0  0  0  0  0  0  0  0  0  0
    9.8593   53.5390   32.8280 C   0  0  0  0  0  0  0  0  0  0  0  0
   10.9787   52.0738   31.2228 N   0  0  0  0  0  0  0  0  0  0  0  0
    8.7079   54.0402   33.4369 C   0  0  0  0  0  0  0  0  0  0  0  0
   12.1564   52.0069   31.9310 O   0  0  0  0  0  0  0  0  0  0  0  0
   11.0210   52.0079   29.9769 O   0  0  0  0  0  0  0  0  0  0  0  0
    8.5372   39.1386   34.0125 O   0  0  0  0  0  0  0  0  0  0  0  0
   10.9804   40.0880   33.6837 O   0  0  0  0  0  0  0  0  0  0  0  0
   10.8025   40.0899   32.2839 C   0  0  0  0  0  0  0  0  0  0  0  0
   11.5888   38.9174   31.7007 C   0  0  0  0  0  0  0  0  0  0  0  0
   12.9219   38.9373   32.1692 O   0  0  0  0  0  0  0  0  0  0  0  0
   11.0028   37.5682   32.0980 C   0  0  0  0  0  0  0  0  0  0  0  0
   13.3496   37.5885   32.2601 C   0  0  0  0  0  0  0  0  0  0  0  0
    9.9343   37.1822   31.2756 O   0  0  0  0  0  0  0  0  0  0  0  0
   12.1891   36.6677   31.9049 C   0  0  0  0  0  0  0  0  0  0  0  0
   13.8025   37.2965   33.6186 N   0  0  0  0  0  0  0  0  0  0  0  0
   12.2991   36.2867   30.5567 O   0  0  0  0  0  0  0  0  0  0  0  0
   14.7929   36.4725   33.9858 C   0  0  0  0  0  0  0  0  0  0  0  0
   13.2749   37.7294   34.7935 C   0  0  0  0  0  0  0  0  0  0  0  0
   15.6240   35.7580   33.1858 N   0  0  0  0  0  0  0  0  0  0  0  0
   14.8727   36.4411   35.3327 C   0  0  0  0  0  0  0  0  0  0  0  0
   13.9208   37.2263   35.8803 N   0  0  0  0  0  0  0  0  0  0  0  0
   16.5871   34.9921   33.7801 C   0  0  0  0  0  0  0  0  0  0  0  0
   15.8576   35.6718   35.9441 C   0  0  0  0  0  0  0  0  0  0  0  0
   16.7024   34.9584   35.1438 N   0  0  0  0  0  0  0  0  0  0  0  0
   16.0099   35.6384   37.3562 N   0  0  0  0  0  0  0  0  0  0  0  0
    7.6771   44.0707   34.0504 H   0  0  0  0  0  0  0  0  0  0  0  0
   10.3192   45.4407   34.0999 H   0  0  0  0  0  0  0  0  0  0  0  0
    9.1827   45.3821   35.3535 H   0  0  0  0  0  0  0  0  0  0  0  0
    9.9711   44.0682   31.9739 H   0  0  0  0  0  0  0  0  0  0  0  0
    8.4817   43.0851   31.8668 H   0  0  0  0  0  0  0  0  0  0  0  0
    8.5385   45.1364   30.4022 H   0  0  0  0  0  0  0  0  0  0  0  0
    8.5552   46.1511   31.8742 H   0  0  0  0  0  0  0  0  0  0  0  0
    6.3020   45.0643   32.5334 H   0  0  0  0  0  0  0  0  0  0  0  0
    6.3297   44.1799   30.9678 H   0  0  0  0  0  0  0  0  0  0  0  0
    4.9235   46.2671   30.9264 H   0  0  0  0  0  0  0  0  0  0  0  0
    6.2465   46.2897   29.7217 H   0  0  0  0  0  0  0  0  0  0  0  0
    6.2817   47.7531   32.4208 H   0  0  0  0  0  0  0  0  0  0  0  0
    9.3154   50.3269   30.3421 H   0  0  0  0  0  0  0  0  0  0  0  0
    7.7992   51.0926   29.7400 H   0  0  0  0  0  0  0  0  0  0  0  0
    6.3807   52.0727   31.9511 H   0  0  0  0  0  0  0  0  0  0  0  0
    6.5666   53.9131   33.5735 H   0  0  0  0  0  0  0  0  0  0  0  0
   10.8179   53.9769   33.0766 H   0  0  0  0  0  0  0  0  0  0  0  0
    8.7834   54.8441   34.1577 H   0  0  0  0  0  0  0  0  0  0  0  0
   11.2258   41.0357   31.8830 H   0  0  0  0  0  0  0  0  0  0  0  0
    9.7476   40.0331   31.9256 H   0  0  0  0  0  0  0  0  0  0  0  0
   11.5974   39.0148   30.5904 H   0  0  0  0  0  0  0  0  0  0  0  0
   10.7024   37.5455   33.1719 H   0  0  0  0  0  0  0  0  0  0  0  0
   14.1957   37.4366   31.5528 H   0  0  0  0  0  0  0  0  0  0  0  0
    9.1340   37.6658   31.6069 H   0  0  0  0  0  0  0  0  0  0  0  0
   12.1381   35.7717   32.5697 H   0  0  0  0  0  0  0  0  0  0  0  0
   11.7707   35.4530   30.4496 H   0  0  0  0  0  0  0  0  0  0  0  0
   12.4314   38.3980   34.8694 H   0  0  0  0  0  0  0  0  0  0  0  0
   17.2665   34.4140   33.1691 H   0  0  0  0  0  0  0  0  0  0  0  0
   15.3757   36.1867   37.9789 H   0  0  0  0  0  0  0  0  0  0  0  0
   16.7633   35.0598   37.7895 H   0  0  0  0  0  0  0  0  0  0  0  0
  1  2  2  0
  1  3  1  0
  3  4  1  0
  4  5  1  0
  6  1  1  0
  7  6  1  0
  6  8  1  0
  8  9  1  0
  9 10  1  0
 10 11  1  0
 11 12  1  0
 12 13  1  0
 13 14  1  0
 13 15  2  0
 14 16  1  0
 16 17  1  0
 17 18  2  0
 19 17  1  0
 18 20  1  0
 21 19  2  0
 19 22  1  0
 20 23  2  0
 23 21  1  0
 22 24  1  0
 22 25  2  0
  4 26  2  0
  4 27  1  0
 28 27  1  0
 28 29  1  0
 29 30  1  0
 29 31  1  0
 30 32  1  0
 31 33  1  0
 31 34  1  0
 34 32  1  0
 32 35  1  0
 34 36  1  0
 37 35  1  0
 38 35  1  0
 39 37  2  0
 37 40  1  0
 41 38  2  0
 42 39  1  0
 40 43  2  0
 40 41  1  0
 44 42  2  0
 44 43  1  0
 43 45  1  0
  6 46  1  6
  7 47  1  0
  7 48  1  0
  8 49  1  0
  8 50  1  0
  9 51  1  0
  9 52  1  0
 10 53  1  0
 10 54  1  0
 11 55  1  0
 11 56  1  0
 12 57  1  0
 16 58  1  0
 16 59  1  0
 18 60  1  0
 20 61  1  0
 21 62  1  0
 23 63  1  0
 28 64  1  0
 28 65  1  0
 29 66  1  0
 31 67  1  0
 32 68  1  0
 33 69  1  0
 34 70  1  0
 36 71  1  0
 38 72  1  0
 42 73  1  0
 45 74  1  0
 45 75  1  0
M  CHG  3   5  -1  22   1  24  -1
M  END
>  <EmbedRMS>  (236) 
0.0742152025767

$$$$

     RDKit          3D

 75 78  0  0  0  0  0  0  0  0999 V2000
    9.4336   42.9371   34.3454 C   0  0  0  0  0  0  0  0  0  0  0  0
   10.4908   43.0334   35.0314 O   0  0  0  0  0  0  0  0  0  0  0  0
    8.8564   41.7109   34.0290 O   0  0  0  0  0  0  0  0  0  0  0  0
    9.4941   40.2143   34.4677 P   0  0  0  0  0  0  0  0  0  0  0  0
    9.7310   40.1728   36.1288 O   0  0  0  0  0  0  0  0  0  0  0  0
    8.7511   44.1360   33.7736 C   0  0  1  0  0  0  0  0  0  0  0  0
    9.2970   45.3831   34.3131 N   0  0  0  0  0  0  0  0  0  0  0  0
    8.8895   44.0553   32.2352 C   0  0  0  0  0  0  0  0  0  0  0  0
    8.2022   45.1857   31.4620 C   0  0  0  0  0  0  0  0  0  0  0  0
    6.6645   45.1062   31.4851 C   0  0  0  0  0  0  0  0  0  0  0  0
    6.0231   46.3216   30.8069 C   0  0  0  0  0  0  0  0  0  0  0  0
    6.4946   47.5656   31.4145 N   0  0  0  0  0  0  0  0  0  0  0  0
    7.2637   48.5256   30.6932 C   0  0  0  0  0  0  0  0  0  0  0  0
    7.7051   49.6763   31.3536 O   0  0  0  0  0  0  0  0  0  0  0  0
    7.5887   48.3115   29.4945 O   0  0  0  0  0  0  0  0  0  0  0  0
    8.6865   50.5626   30.8179 C   0  0  0  0  0  0  0  0  0  0  0  0
   10.0314   49.8753   30.7318 C   0  0  0  0  0  0  0  0  0  0  0  0
   10.5413   49.2741   31.8975 C   0  0  0  0  0  0  0  0  0  0  0  0
   10.8186   49.8686   29.5509 C   0  0  0  0  0  0  0  0  0  0  0  0
   11.7988   48.6693   31.8972 C   0  0  0  0  0  0  0  0  0  0  0  0
   12.0916   49.2726   29.5760 C   0  0  0  0  0  0  0  0  0  0  0  0
   10.3555   50.4617   28.3290 N   0  0  0  0  0  0  0  0  0  0  0  0
   12.5743   48.6716   30.7394 C   0  0  0  0  0  0  0  0  0  0  0  0
    9.1723   50.0427   27.7671 O   0  0  0  0  0  0  0  0  0  0  0  0
   11.1332   51.1582   27.6446 O   0  0  0  0  0  0  0  0  0  0  0  0
    8.5369   39.1386   34.0122 O   0  0  0  0  0  0  0  0  0  0  0  0
   10.9795   40.0870   33.6827 O   0  0  0  0  0  0  0  0  0  0  0  0
   10.7997   40.0899   32.2830 C   0  0  0  0  0  0  0  0  0  0  0  0
   11.5968   38.9274   31.6962 C   0  0  0  0  0  0  0  0  0  0  0  0
   12.9242   38.9425   32.1784 O   0  0  0  0  0  0  0  0  0  0  0  0
   11.0086   37.5713   32.0780 C   0  0  0  0  0  0  0  0  0  0  0  0
   13.3529   37.5929   32.2623 C   0  0  0  0  0  0  0  0  0  0  0  0
    9.9098   37.1770   31.2925 O   0  0  0  0  0  0  0  0  0  0  0  0
   12.1943   36.6683   31.8995 C   0  0  0  0  0  0  0  0  0  0  0  0
   13.8019   37.2950   33.6199 N   0  0  0  0  0  0  0  0  0  0  0  0
   12.3027   36.2773   30.5558 O   0  0  0  0  0  0  0  0  0  0  0  0
   14.7926   36.4715   33.9864 C   0  0  0  0  0  0  0  0  0  0  0  0
   13.2749   37.7286   34.7946 C   0  0  0  0  0  0  0  0  0  0  0  0
   15.6239   35.7577   33.1860 N   0  0  0  0  0  0  0  0  0  0  0  0
   14.8727   36.4403   35.3332 C   0  0  0  0  0  0  0  0  0  0  0  0
   13.9210   37.2256   35.8811 N   0  0  0  0  0  0  0  0  0  0  0  0
   16.5873   34.9921   33.7802 C   0  0  0  0  0  0  0  0  0  0  0  0
   15.8579   35.6714   35.9444 C   0  0  0  0  0  0  0  0  0  0  0  0
   16.7028   34.9583   35.1439 N   0  0  0  0  0  0  0  0  0  0  0  0
   16.0104   35.6381   37.3564 N   0  0  0  0  0  0  0  0  0  0  0  0
    7.6775   44.0720   34.0498 H   0  0  0  0  0  0  0  0  0  0  0  0
    9.1865   45.3818   35.3535 H   0  0  0  0  0  0  0  0  0  0  0  0
   10.3191   45.4438   34.0964 H   0  0  0  0  0  0  0  0  0  0  0  0
    8.4825   43.0877   31.8654 H   0  0  0  0  0  0  0  0  0  0  0  0
    9.9713   44.0719   31.9732 H   0  0  0  0  0  0  0  0  0  0  0  0
    8.5386   45.1419   30.4029 H   0  0  0  0  0  0  0  0  0  0  0  0
    8.5530   46.1547   31.8760 H   0  0  0  0  0  0  0  0  0  0  0  0
    6.3009   45.0672   32.5329 H   0  0  0  0  0  0  0  0  0  0  0  0
    6.3307   44.1798   30.9692 H   0  0  0  0  0  0  0  0  0  0  0  0
    4.9195   46.2618   30.9188 H   0  0  0  0  0  0  0  0  0  0  0  0
    6.2465   46.2886   29.7189 H   0  0  0  0  0  0  0  0  0  0  0  0
    6.2732   47.7507   32.4187 H   0  0  0  0  0  0  0  0  0  0  0  0
    8.7844   51.4266   31.5083 H   0  0  0  0  0  0  0  0  0  0  0  0
    8.3347   50.9703   29.8509 H   0  0  0  0  0  0  0  0  0  0  0  0
    9.9621   49.2772   32.8130 H   0  0  0  0  0  0  0  0  0  0  0  0
   12.1758   48.2052   32.7996 H   0  0  0  0  0  0  0  0  0  0  0  0
   12.7050   49.2604   28.6837 H   0  0  0  0  0  0  0  0  0  0  0  0
   13.5519   48.2071   30.7427 H   0  0  0  0  0  0  0  0  0  0  0  0
    9.7450   40.0146   31.9262 H   0  0  0  0  0  0  0  0  0  0  0  0
   11.2097   41.0419   31.8829 H   0  0  0  0  0  0  0  0  0  0  0  0
   11.6265   39.0456   30.5888 H   0  0  0  0  0  0  0  0  0  0  0  0
   10.7064   37.5574   33.1484 H   0  0  0  0  0  0  0  0  0  0  0  0
   14.2021   37.4484   31.5574 H   0  0  0  0  0  0  0  0  0  0  0  0
   10.0952   37.3990   30.3433 H   0  0  0  0  0  0  0  0  0  0  0  0
   12.1163   35.7745   32.5633 H   0  0  0  0  0  0  0  0  0  0  0  0
   12.9615   35.5349   30.5312 H   0  0  0  0  0  0  0  0  0  0  0  0
   12.4321   38.3982   34.8705 H   0  0  0  0  0  0  0  0  0  0  0  0
   17.2669   34.4144   33.1690 H   0  0  0  0  0  0  0  0  0  0  0  0
   15.3761   36.1862   37.9792 H   0  0  0  0  0  0  0  0  0  0  0  0
   16.7641   35.0598   37.7896 H   0  0  0  0  0  0  0  0  0  0  0  0
  1  2  2  0
  1  3  1  0
  3  4  1  0
  4  5  1  0
  6  1  1  0
  7  6  1  0
  6  8  1  0
  8  9  1  0
  9 10  1  0
 10 11  1  0
 11 12  1  0
 12 13  1  0
 13 14  1  0
 13 15  2  0
 14 16  1  0
 16 17  1  0
 17 18  2  0
 19 17  1  0
 18 20  1  0
 21 19  2  0
 19 22  1  0
 20 23  2  0
 23 21  1  0
 22 24  1  0
 22 25  2  0
  4 26  2  0
  4 27  1  0
 28 27  1  0
 28 29  1  0
 29 30  1  0
 29 31  1  0
 30 32  1  0
 31 33  1  0
 31 34  1  0
 34 32  1  0
 32 35  1  0
 34 36  1  0
 37 35  1  0
 38 35  1  0
 39 37  2  0
 37 40  1  0
 41 38  2  0
 42 39  1  0
 40 43  2  0
 40 41  1  0
 44 42  2  0
 44 43  1  0
 43 45  1  0
  6 46  1  6
  7 47  1  0
  7 48  1  0
  8 49  1  0
  8 50  1  0
  9 51  1  0
  9 52  1  0
 10 53  1  0
 10 54  1  0
 11 55  1  0
 11 56  1  0
 12 57  1  0
 16 58  1  0
 16 59  1  0
 18 60  1  0
 20 61  1  0
 21 62  1  0
 23 63  1  0
 28 64  1  0
 28 65  1  0
 29 66  1  0
 31 67  1  0
 32 68  1  0
 33 69  1  0
 34 70  1  0
 36 71  1  0
 38 72  1  0
 42 73  1  0
 45 74  1  0
 45 75  1  0
M  CHG  3   5  -1  22   1  24  -1
M  END
>  <EmbedRMS>  (237) 
0.0753212542617

$$$$

     RDKit          3D

 75 78  0  0  0  0  0  0  0  0999 V2000
    9.4333   42.9365   34.3461 C   0  0  0  0  0  0  0  0  0  0  0  0
   10.4907   43.0330   35.0319 O   0  0  0  0  0  0  0  0  0  0  0  0
    8.8563   41.7104   34.0296 O   0  0  0  0  0  0  0  0  0  0  0  0
    9.4944   40.2141   34.4680 P   0  0  0  0  0  0  0  0  0  0  0  0
    9.7309   40.1726   36.1291 O   0  0  0  0  0  0  0  0  0  0  0  0
    8.7506   44.1348   33.7741 C   0  0  1  0  0  0  0  0  0  0  0  0
    9.2963   45.3821   34.3133 N   0  0  0  0  0  0  0  0  0  0  0  0
    8.8893   44.0528   32.2358 C   0  0  0  0  0  0  0  0  0  0  0  0
    8.2028   45.1824   31.4615 C   0  0  0  0  0  0  0  0  0  0  0  0
    6.6653   45.1046   31.4855 C   0  0  0  0  0  0  0  0  0  0  0  0
    6.0270   46.3226   30.8105 C   0  0  0  0  0  0  0  0  0  0  0  0
    6.5063   47.5640   31.4180 N   0  0  0  0  0  0  0  0  0  0  0  0
    7.2435   48.5392   30.6835 C   0  0  0  0  0  0  0  0  0  0  0  0
    7.5926   49.7404   31.3061 O   0  0  0  0  0  0  0  0  0  0  0  0
    7.5935   48.3117   29.4937 O   0  0  0  0  0  0  0  0  0  0  0  0
    8.3387   50.7593   30.6485 C   0  0  0  0  0  0  0  0  0  0  0  0
    8.5337   51.9235   31.5852 C   0  0  0  0  0  0  0  0  0  0  0  0
    9.7648   52.0459   32.2552 C   0  0  0  0  0  0  0  0  0  0  0  0
    7.5289   52.9084   31.7922 C   0  0  0  0  0  0  0  0  0  0  0  0
   10.0120   53.1288   33.0994 C   0  0  0  0  0  0  0  0  0  0  0  0
    7.8065   53.9997   32.6353 C   0  0  0  0  0  0  0  0  0  0  0  0
    6.2410   52.8368   31.1519 N   0  0  0  0  0  0  0  0  0  0  0  0
    9.0368   54.1062   33.2852 C   0  0  0  0  0  0  0  0  0  0  0  0
    5.5453   53.9922   30.8785 O   0  0  0  0  0  0  0  0  0  0  0  0
    5.6676   51.7408   30.9878 O   0  0  0  0  0  0  0  0  0  0  0  0
    8.5371   39.1386   34.0125 O   0  0  0  0  0  0  0  0  0  0  0  0
   10.9802   40.0879   33.6835 O   0  0  0  0  0  0  0  0  0  0  0  0
   10.8020   40.0894   32.2837 C   0  0  0  0  0  0  0  0  0  0  0  0
   11.5900   38.9178   31.7006 C   0  0  0  0  0  0  0  0  0  0  0  0
   12.9224   38.9390   32.1711 O   0  0  0  0  0  0  0  0  0  0  0  0
   11.0052   37.5676   32.0966 C   0  0  0  0  0  0  0  0  0  0  0  0
   13.3518   37.5909   32.2610 C   0  0  0  0  0  0  0  0  0  0  0  0
    9.9381   37.1795   31.2732 O   0  0  0  0  0  0  0  0  0  0  0  0
   12.1912   36.6689   31.9042 C   0  0  0  0  0  0  0  0  0  0  0  0
   13.8027   37.2968   33.6192 N   0  0  0  0  0  0  0  0  0  0  0  0
   12.2877   36.2853   30.5567 O   0  0  0  0  0  0  0  0  0  0  0  0
   14.7928   36.4724   33.9861 C   0  0  0  0  0  0  0  0  0  0  0  0
   13.2751   37.7297   34.7941 C   0  0  0  0  0  0  0  0  0  0  0  0
   15.6239   35.7581   33.1859 N   0  0  0  0  0  0  0  0  0  0  0  0
   14.8726   36.4408   35.3329 C   0  0  0  0  0  0  0  0  0  0  0  0
   13.9209   37.2262   35.8807 N   0  0  0  0  0  0  0  0  0  0  0  0
   16.5870   34.9921   33.7801 C   0  0  0  0  0  0  0  0  0  0  0  0
   15.8576   35.6716   35.9442 C   0  0  0  0  0  0  0  0  0  0  0  0
   16.7024   34.9584   35.1438 N   0  0  0  0  0  0  0  0  0  0  0  0
   16.0101   35.6383   37.3563 N   0  0  0  0  0  0  0  0  0  0  0  0
    7.6770   44.0707   34.0504 H   0  0  0  0  0  0  0  0  0  0  0  0
    9.1827   45.3821   35.3535 H   0  0  0  0  0  0  0  0  0  0  0  0
   10.3192   45.4407   34.0999 H   0  0  0  0  0  0  0  0  0  0  0  0
    9.9711   44.0682   31.9739 H   0  0  0  0  0  0  0  0  0  0  0  0
    8.4816   43.0851   31.8668 H   0  0  0  0  0  0  0  0  0  0  0  0
    8.5552   46.1510   31.8742 H   0  0  0  0  0  0  0  0  0  0  0  0
    8.5384   45.1363   30.4022 H   0  0  0  0  0  0  0  0  0  0  0  0
    6.3296   44.1800   30.9678 H   0  0  0  0  0  0  0  0  0  0  0  0
    6.3020   45.0643   32.5333 H   0  0  0  0  0  0  0  0  0  0  0  0
    4.9235   46.2673   30.9264 H   0  0  0  0  0  0  0  0  0  0  0  0
    6.2465   46.2898   29.7217 H   0  0  0  0  0  0  0  0  0  0  0  0
    6.2817   47.7532   32.4207 H   0  0  0  0  0  0  0  0  0  0  0  0
    9.3213   50.3430   30.3344 H   0  0  0  0  0  0  0  0  0  0  0  0
    7.8161   51.0913   29.7256 H   0  0  0  0  0  0  0  0  0  0  0  0
   10.5409   51.3025   32.1199 H   0  0  0  0  0  0  0  0  0  0  0  0
   10.9644   53.2125   33.6070 H   0  0  0  0  0  0  0  0  0  0  0  0
    7.0597   54.7649   32.8047 H   0  0  0  0  0  0  0  0  0  0  0  0
    9.2325   54.9472   33.9379 H   0  0  0  0  0  0  0  0  0  0  0  0
   11.2239   41.0357   31.8826 H   0  0  0  0  0  0  0  0  0  0  0  0
    9.7472   40.0309   31.9256 H   0  0  0  0  0  0  0  0  0  0  0  0
   11.5999   39.0159   30.5904 H   0  0  0  0  0  0  0  0  0  0  0  0
   10.7034   37.5449   33.1702 H   0  0  0  0  0  0  0  0  0  0  0  0
   14.1992   37.4424   31.5548 H   0  0  0  0  0  0  0  0  0  0  0  0
    9.1370   37.6634   31.6024 H   0  0  0  0  0  0  0  0  0  0  0  0
   12.1204   35.7712   32.5636 H   0  0  0  0  0  0  0  0  0  0  0  0
   12.9457   35.5426   30.5221 H   0  0  0  0  0  0  0  0  0  0  0  0
   12.4322   38.3989   34.8700 H   0  0  0  0  0  0  0  0  0  0  0  0
   17.2664   34.4142   33.1690 H   0  0  0  0  0  0  0  0  0  0  0  0
   16.7636   35.0598   37.7895 H   0  0  0  0  0  0  0  0  0  0  0  0
   15.3759   36.1865   37.9790 H   0  0  0  0  0  0  0  0  0  0  0  0
  1  2  2  0
  1  3  1  0
  3  4  1  0
  4  5  1  0
  6  1  1  0
  7  6  1  0
  6  8  1  0
  8  9  1  0
  9 10  1  0
 10 11  1  0
 11 12  1  0
 12 13  1  0
 13 14  1  0
 13 15  2  0
 14 16  1  0
 16 17  1  0
 17 18  2  0
 19 17  1  0
 18 20  1  0
 21 19  2  0
 19 22  1  0
 20 23  2  0
 23 21  1  0
 22 24  1  0
 22 25  2  0
  4 26  2  0
  4 27  1  0
 28 27  1  0
 28 29  1  0
 29 30  1  0
 29 31  1  0
 30 32  1  0
 31 33  1  0
 31 34  1  0
 34 32  1  0
 32 35  1  0
 34 36  1  0
 37 35  1  0
 38 35  1  0
 39 37  2  0
 37 40  1  0
 41 38  2  0
 42 39  1  0
 40 43  2  0
 40 41  1  0
 44 42  2  0
 44 43  1  0
 43 45  1  0
  6 46  1  6
  7 47  1  0
  7 48  1  0
  8 49  1  0
  8 50  1  0
  9 51  1  0
  9 52  1  0
 10 53  1  0
 10 54  1  0
 11 55  1  0
 11 56  1  0
 12 57  1  0
 16 58  1  0
 16 59  1  0
 18 60  1  0
 20 61  1  0
 21 62  1  0
 23 63  1  0
 28 64  1  0
 28 65  1  0
 29 66  1  0
 31 67  1  0
 32 68  1  0
 33 69  1  0
 34 70  1  0
 36 71  1  0
 38 72  1  0
 42 73  1  0
 45 74  1  0
 45 75  1  0
M  CHG  3   5  -1  22   1  24  -1
M  END
>  <EmbedRMS>  (238) 
0.0740860398584

$$$$

     RDKit          3D

 75 78  0  0  0  0  0  0  0  0999 V2000
    9.4332   42.9366   34.3464 C   0  0  0  0  0  0  0  0  0  0  0  0
   10.4908   43.0331   35.0319 O   0  0  0  0  0  0  0  0  0  0  0  0
    8.8559   41.7104   34.0306 O   0  0  0  0  0  0  0  0  0  0  0  0
    9.4931   40.2143   34.4708 P   0  0  0  0  0  0  0  0  0  0  0  0
    9.7288   40.1729   36.1318 O   0  0  0  0  0  0  0  0  0  0  0  0
    8.7506   44.1348   33.7741 C   0  0  1  0  0  0  0  0  0  0  0  0
    9.2963   45.3821   34.3132 N   0  0  0  0  0  0  0  0  0  0  0  0
    8.8893   44.0526   32.2358 C   0  0  0  0  0  0  0  0  0  0  0  0
    8.2029   45.1822   31.4614 C   0  0  0  0  0  0  0  0  0  0  0  0
    6.6654   45.1046   31.4855 C   0  0  0  0  0  0  0  0  0  0  0  0
    6.0272   46.3228   30.8107 C   0  0  0  0  0  0  0  0  0  0  0  0
    6.5069   47.5640   31.4183 N   0  0  0  0  0  0  0  0  0  0  0  0
    7.2417   48.5403   30.6828 C   0  0  0  0  0  0  0  0  0  0  0  0
    7.5840   49.7468   31.3032 O   0  0  0  0  0  0  0  0  0  0  0  0
    7.5944   48.3106   29.4942 O   0  0  0  0  0  0  0  0  0  0  0  0
    8.3055   50.7862   30.6438 C   0  0  0  0  0  0  0  0  0  0  0  0
    7.4427   51.4449   29.5905 C   0  0  0  0  0  0  0  0  0  0  0  0
    6.1733   51.9152   29.9729 C   0  0  0  0  0  0  0  0  0  0  0  0
    7.8429   51.5626   28.2334 C   0  0  0  0  0  0  0  0  0  0  0  0
    5.2980   52.4531   29.0283 C   0  0  0  0  0  0  0  0  0  0  0  0
    6.9399   52.0874   27.2934 C   0  0  0  0  0  0  0  0  0  0  0  0
    9.1541   51.1797   27.7930 N   0  0  0  0  0  0  0  0  0  0  0  0
    5.6768   52.5299   27.6892 C   0  0  0  0  0  0  0  0  0  0  0  0
    9.3122   50.5744   26.5677 O   0  0  0  0  0  0  0  0  0  0  0  0
   10.1633   51.6172   28.3832 O   0  0  0  0  0  0  0  0  0  0  0  0
    8.5366   39.1385   34.0140 O   0  0  0  0  0  0  0  0  0  0  0  0
   10.9795   40.0875   33.6890 O   0  0  0  0  0  0  0  0  0  0  0  0
   10.8017   40.0947   32.2902 C   0  0  0  0  0  0  0  0  0  0  0  0
   11.5885   38.9266   31.7041 C   0  0  0  0  0  0  0  0  0  0  0  0
   12.9237   38.9445   32.1721 O   0  0  0  0  0  0  0  0  0  0  0  0
   11.0029   37.5725   32.0908 C   0  0  0  0  0  0  0  0  0  0  0  0
   13.3555   37.5960   32.2594 C   0  0  0  0  0  0  0  0  0  0  0  0
    9.9380   37.1846   31.2656 O   0  0  0  0  0  0  0  0  0  0  0  0
   12.1932   36.6769   31.8952 C   0  0  0  0  0  0  0  0  0  0  0  0
   13.8028   37.2977   33.6186 N   0  0  0  0  0  0  0  0  0  0  0  0
   12.2918   36.2396   30.5587 O   0  0  0  0  0  0  0  0  0  0  0  0
   14.7926   36.4727   33.9858 C   0  0  0  0  0  0  0  0  0  0  0  0
   13.2750   37.7302   34.7935 C   0  0  0  0  0  0  0  0  0  0  0  0
   15.6241   35.7586   33.1857 N   0  0  0  0  0  0  0  0  0  0  0  0
   14.8721   36.4408   35.3326 C   0  0  0  0  0  0  0  0  0  0  0  0
   13.9204   37.2263   35.8802 N   0  0  0  0  0  0  0  0  0  0  0  0
   16.5870   34.9924   33.7800 C   0  0  0  0  0  0  0  0  0  0  0  0
   15.8572   35.6717   35.9441 C   0  0  0  0  0  0  0  0  0  0  0  0
   16.7022   34.9585   35.1437 N   0  0  0  0  0  0  0  0  0  0  0  0
   16.0097   35.6384   37.3561 N   0  0  0  0  0  0  0  0  0  0  0  0
    7.6770   44.0707   34.0504 H   0  0  0  0  0  0  0  0  0  0  0  0
   10.3192   45.4407   34.0999 H   0  0  0  0  0  0  0  0  0  0  0  0
    9.1827   45.3822   35.3534 H   0  0  0  0  0  0  0  0  0  0  0  0
    9.9711   44.0679   31.9739 H   0  0  0  0  0  0  0  0  0  0  0  0
    8.4816   43.0849   31.8670 H   0  0  0  0  0  0  0  0  0  0  0  0
    8.5554   46.1509   31.8739 H   0  0  0  0  0  0  0  0  0  0  0  0
    8.5385   45.1360   30.4021 H   0  0  0  0  0  0  0  0  0  0  0  0
    6.3296   44.1801   30.9676 H   0  0  0  0  0  0  0  0  0  0  0  0
    6.3021   45.0641   32.5333 H   0  0  0  0  0  0  0  0  0  0  0  0
    6.2463   46.2901   29.7219 H   0  0  0  0  0  0  0  0  0  0  0  0
    4.9238   46.2678   30.9270 H   0  0  0  0  0  0  0  0  0  0  0  0
    6.2818   47.7537   32.4209 H   0  0  0  0  0  0  0  0  0  0  0  0
    8.5878   51.5515   31.3968 H   0  0  0  0  0  0  0  0  0  0  0  0
    9.2428   50.3600   30.2351 H   0  0  0  0  0  0  0  0  0  0  0  0
    5.8529   51.8460   31.0055 H   0  0  0  0  0  0  0  0  0  0  0  0
    4.3203   52.8025   29.3342 H   0  0  0  0  0  0  0  0  0  0  0  0
    7.2262   52.1777   26.2531 H   0  0  0  0  0  0  0  0  0  0  0  0
    4.9944   52.9426   26.9574 H   0  0  0  0  0  0  0  0  0  0  0  0
    9.7472   40.0378   31.9304 H   0  0  0  0  0  0  0  0  0  0  0  0
   11.2242   41.0427   31.8934 H   0  0  0  0  0  0  0  0  0  0  0  0
   11.5927   39.0434   30.5965 H   0  0  0  0  0  0  0  0  0  0  0  0
   10.7003   37.5442   33.1640 H   0  0  0  0  0  0  0  0  0  0  0  0
   14.2052   37.4477   31.5560 H   0  0  0  0  0  0  0  0  0  0  0  0
    9.1374   37.6722   31.5905 H   0  0  0  0  0  0  0  0  0  0  0  0
   12.1305   35.7855   32.5585 H   0  0  0  0  0  0  0  0  0  0  0  0
   12.4607   37.0186   29.9674 H   0  0  0  0  0  0  0  0  0  0  0  0
   12.4327   38.4000   34.8694 H   0  0  0  0  0  0  0  0  0  0  0  0
   17.2666   34.4146   33.1690 H   0  0  0  0  0  0  0  0  0  0  0  0
   15.3754   36.1866   37.9788 H   0  0  0  0  0  0  0  0  0  0  0  0
   16.7633   35.0601   37.7894 H   0  0  0  0  0  0  0  0  0  0  0  0
  1  2  2  0
  1  3  1  0
  3  4  1  0
  4  5  1  0
  6  1  1  0
  7  6  1  0
  6  8  1  0
  8  9  1  0
  9 10  1  0
 10 11  1  0
 11 12  1  0
 12 13  1  0
 13 14  1  0
 13 15  2  0
 14 16  1  0
 16 17  1  0
 17 18  2  0
 19 17  1  0
 18 20  1  0
 21 19  2  0
 19 22  1  0
 20 23  2  0
 23 21  1  0
 22 24  1  0
 22 25  2  0
  4 26  2  0
  4 27  1  0
 28 27  1  0
 28 29  1  0
 29 30  1  0
 29 31  1  0
 30 32  1  0
 31 33  1  0
 31 34  1  0
 34 32  1  0
 32 35  1  0
 34 36  1  0
 37 35  1  0
 38 35  1  0
 39 37  2  0
 37 40  1  0
 41 38  2  0
 42 39  1  0
 40 43  2  0
 40 41  1  0
 44 42  2  0
 44 43  1  0
 43 45  1  0
  6 46  1  6
  7 47  1  0
  7 48  1  0
  8 49  1  0
  8 50  1  0
  9 51  1  0
  9 52  1  0
 10 53  1  0
 10 54  1  0
 11 55  1  0
 11 56  1  0
 12 57  1  0
 16 58  1  0
 16 59  1  0
 18 60  1  0
 20 61  1  0
 21 62  1  0
 23 63  1  0
 28 64  1  0
 28 65  1  0
 29 66  1  0
 31 67  1  0
 32 68  1  0
 33 69  1  0
 34 70  1  0
 36 71  1  0
 38 72  1  0
 42 73  1  0
 45 74  1  0
 45 75  1  0
M  CHG  3   5  -1  22   1  24  -1
M  END
>  <EmbedRMS>  (239) 
0.0756603341683

$$$$

     RDKit          3D

 75 78  0  0  0  0  0  0  0  0999 V2000
    9.4331   42.9366   34.3465 C   0  0  0  0  0  0  0  0  0  0  0  0
   10.4908   43.0331   35.0318 O   0  0  0  0  0  0  0  0  0  0  0  0
    8.8554   41.7105   34.0309 O   0  0  0  0  0  0  0  0  0  0  0  0
    9.4930   40.2143   34.4706 P   0  0  0  0  0  0  0  0  0  0  0  0
    9.7296   40.1727   36.1315 O   0  0  0  0  0  0  0  0  0  0  0  0
    8.7506   44.1349   33.7741 C   0  0  1  0  0  0  0  0  0  0  0  0
    9.2963   45.3821   34.3133 N   0  0  0  0  0  0  0  0  0  0  0  0
    8.8893   44.0527   32.2359 C   0  0  0  0  0  0  0  0  0  0  0  0
    8.2028   45.1823   31.4615 C   0  0  0  0  0  0  0  0  0  0  0  0
    6.6653   45.1046   31.4855 C   0  0  0  0  0  0  0  0  0  0  0  0
    6.0269   46.3225   30.8104 C   0  0  0  0  0  0  0  0  0  0  0  0
    6.5061   47.5640   31.4180 N   0  0  0  0  0  0  0  0  0  0  0  0
    7.2439   48.5390   30.6837 C   0  0  0  0  0  0  0  0  0  0  0  0
    7.5956   49.7391   31.3073 O   0  0  0  0  0  0  0  0  0  0  0  0
    7.5933   48.3118   29.4937 O   0  0  0  0  0  0  0  0  0  0  0  0
    8.3485   50.7563   30.6523 C   0  0  0  0  0  0  0  0  0  0  0  0
    8.5234   51.9344   31.5801 C   0  0  0  0  0  0  0  0  0  0  0  0
    7.3768   52.4725   32.1929 C   0  0  0  0  0  0  0  0  0  0  0  0
    9.7937   52.4941   31.8809 C   0  0  0  0  0  0  0  0  0  0  0  0
    7.4840   53.5098   33.1204 C   0  0  0  0  0  0  0  0  0  0  0  0
    9.8832   53.5236   32.8332 C   0  0  0  0  0  0  0  0  0  0  0  0
   10.9912   52.0595   31.2190 N   0  0  0  0  0  0  0  0  0  0  0  0
    8.7359   54.0271   33.4480 C   0  0  0  0  0  0  0  0  0  0  0  0
   12.1712   51.9860   31.9226 O   0  0  0  0  0  0  0  0  0  0  0  0
   11.0285   51.9974   29.9728 O   0  0  0  0  0  0  0  0  0  0  0  0
    8.5366   39.1382   34.0139 O   0  0  0  0  0  0  0  0  0  0  0  0
   10.9785   40.0883   33.6869 O   0  0  0  0  0  0  0  0  0  0  0  0
   10.7973   40.0895   32.2883 C   0  0  0  0  0  0  0  0  0  0  0  0
   11.5882   38.9234   31.7043 C   0  0  0  0  0  0  0  0  0  0  0  0
   12.9230   38.9440   32.1728 O   0  0  0  0  0  0  0  0  0  0  0  0
   11.0048   37.5703   32.0916 C   0  0  0  0  0  0  0  0  0  0  0  0
   13.3570   37.5960   32.2595 C   0  0  0  0  0  0  0  0  0  0  0  0
    9.9332   37.1986   31.2676 O   0  0  0  0  0  0  0  0  0  0  0  0
   12.1965   36.6751   31.8949 C   0  0  0  0  0  0  0  0  0  0  0  0
   13.8037   37.2979   33.6187 N   0  0  0  0  0  0  0  0  0  0  0  0
   12.2934   36.2389   30.5582 O   0  0  0  0  0  0  0  0  0  0  0  0
   14.7929   36.4726   33.9860 C   0  0  0  0  0  0  0  0  0  0  0  0
   13.2755   37.7304   34.7935 C   0  0  0  0  0  0  0  0  0  0  0  0
   15.6244   35.7585   33.1859 N   0  0  0  0  0  0  0  0  0  0  0  0
   14.8722   36.4406   35.3328 C   0  0  0  0  0  0  0  0  0  0  0  0
   13.9205   37.2262   35.8803 N   0  0  0  0  0  0  0  0  0  0  0  0
   16.5872   34.9923   33.7802 C   0  0  0  0  0  0  0  0  0  0  0  0
   15.8573   35.6715   35.9442 C   0  0  0  0  0  0  0  0  0  0  0  0
   16.7023   34.9584   35.1439 N   0  0  0  0  0  0  0  0  0  0  0  0
   16.0098   35.6384   37.3563 N   0  0  0  0  0  0  0  0  0  0  0  0
    7.6770   44.0708   34.0504 H   0  0  0  0  0  0  0  0  0  0  0  0
   10.3192   45.4407   34.0999 H   0  0  0  0  0  0  0  0  0  0  0  0
    9.1827   45.3822   35.3534 H   0  0  0  0  0  0  0  0  0  0  0  0
    8.4816   43.0850   31.8670 H   0  0  0  0  0  0  0  0  0  0  0  0
    9.9711   44.0681   31.9740 H   0  0  0  0  0  0  0  0  0  0  0  0
    8.5385   45.1362   30.4022 H   0  0  0  0  0  0  0  0  0  0  0  0
    8.5552   46.1510   31.8742 H   0  0  0  0  0  0  0  0  0  0  0  0
    6.3020   45.0643   32.5333 H   0  0  0  0  0  0  0  0  0  0  0  0
    6.3296   44.1799   30.9678 H   0  0  0  0  0  0  0  0  0  0  0  0
    6.2465   46.2897   29.7216 H   0  0  0  0  0  0  0  0  0  0  0  0
    4.9235   46.2671   30.9263 H   0  0  0  0  0  0  0  0  0  0  0  0
    6.2819   47.7530   32.4208 H   0  0  0  0  0  0  0  0  0  0  0  0
    7.8032   51.0945   29.7447 H   0  0  0  0  0  0  0  0  0  0  0  0
    9.3183   50.3214   30.3398 H   0  0  0  0  0  0  0  0  0  0  0  0
    6.3959   52.0732   31.9644 H   0  0  0  0  0  0  0  0  0  0  0  0
    6.5947   53.9075   33.5921 H   0  0  0  0  0  0  0  0  0  0  0  0
   10.8443   53.9572   33.0797 H   0  0  0  0  0  0  0  0  0  0  0  0
    8.8172   54.8284   34.1712 H   0  0  0  0  0  0  0  0  0  0  0  0
   11.2113   41.0390   31.8862 H   0  0  0  0  0  0  0  0  0  0  0  0
    9.7422   40.0186   31.9315 H   0  0  0  0  0  0  0  0  0  0  0  0
   11.5932   39.0396   30.5966 H   0  0  0  0  0  0  0  0  0  0  0  0
   10.6986   37.5585   33.1639 H   0  0  0  0  0  0  0  0  0  0  0  0
   14.2072   37.4492   31.5564 H   0  0  0  0  0  0  0  0  0  0  0  0
    9.5321   36.3881   31.6771 H   0  0  0  0  0  0  0  0  0  0  0  0
   12.1344   35.7838   32.5583 H   0  0  0  0  0  0  0  0  0  0  0  0
   12.4642   37.0179   29.9675 H   0  0  0  0  0  0  0  0  0  0  0  0
   12.4333   38.4005   34.8692 H   0  0  0  0  0  0  0  0  0  0  0  0
   17.2668   34.4144   33.1692 H   0  0  0  0  0  0  0  0  0  0  0  0
   16.7634   35.0600   37.7896 H   0  0  0  0  0  0  0  0  0  0  0  0
   15.3755   36.1866   37.9789 H   0  0  0  0  0  0  0  0  0  0  0  0
  1  2  2  0
  1  3  1  0
  3  4  1  0
  4  5  1  0
  6  1  1  0
  7  6  1  0
  6  8  1  0
  8  9  1  0
  9 10  1  0
 10 11  1  0
 11 12  1  0
 12 13  1  0
 13 14  1  0
 13 15  2  0
 14 16  1  0
 16 17  1  0
 17 18  2  0
 19 17  1  0
 18 20  1  0
 21 19  2  0
 19 22  1  0
 20 23  2  0
 23 21  1  0
 22 24  1  0
 22 25  2  0
  4 26  2  0
  4 27  1  0
 28 27  1  0
 28 29  1  0
 29 30  1  0
 29 31  1  0
 30 32  1  0
 31 33  1  0
 31 34  1  0
 34 32  1  0
 32 35  1  0
 34 36  1  0
 37 35  1  0
 38 35  1  0
 39 37  2  0
 37 40  1  0
 41 38  2  0
 42 39  1  0
 40 43  2  0
 40 41  1  0
 44 42  2  0
 44 43  1  0
 43 45  1  0
  6 46  1  6
  7 47  1  0
  7 48  1  0
  8 49  1  0
  8 50  1  0
  9 51  1  0
  9 52  1  0
 10 53  1  0
 10 54  1  0
 11 55  1  0
 11 56  1  0
 12 57  1  0
 16 58  1  0
 16 59  1  0
 18 60  1  0
 20 61  1  0
 21 62  1  0
 23 63  1  0
 28 64  1  0
 28 65  1  0
 29 66  1  0
 31 67  1  0
 32 68  1  0
 33 69  1  0
 34 70  1  0
 36 71  1  0
 38 72  1  0
 42 73  1  0
 45 74  1  0
 45 75  1  0
M  CHG  3   5  -1  22   1  24  -1
M  END
>  <EmbedRMS>  (240) 
0.075892196473

$$$$

     RDKit          3D

 75 78  0  0  0  0  0  0  0  0999 V2000
    9.4328   42.9368   34.3465 C   0  0  0  0  0  0  0  0  0  0  0  0
   10.4904   43.0333   35.0318 O   0  0  0  0  0  0  0  0  0  0  0  0
    8.8558   41.7105   34.0300 O   0  0  0  0  0  0  0  0  0  0  0  0
    9.4944   40.2143   34.4677 P   0  0  0  0  0  0  0  0  0  0  0  0
    9.7317   40.1724   36.1287 O   0  0  0  0  0  0  0  0  0  0  0  0
    8.7500   44.1351   33.7743 C   0  0  1  0  0  0  0  0  0  0  0  0
    9.2953   45.3826   34.3134 N   0  0  0  0  0  0  0  0  0  0  0  0
    8.8890   44.0528   32.2361 C   0  0  0  0  0  0  0  0  0  0  0  0
    8.2030   45.1825   31.4618 C   0  0  0  0  0  0  0  0  0  0  0  0
    6.6655   45.1037   31.4825 C   0  0  0  0  0  0  0  0  0  0  0  0
    6.0289   46.3231   30.8080 C   0  0  0  0  0  0  0  0  0  0  0  0
    6.5082   47.5617   31.4207 N   0  0  0  0  0  0  0  0  0  0  0  0
    7.2521   48.5399   30.6856 C   0  0  0  0  0  0  0  0  0  0  0  0
    7.6518   49.7513   31.2665 O   0  0  0  0  0  0  0  0  0  0  0  0
    7.5832   48.3112   29.4930 O   0  0  0  0  0  0  0  0  0  0  0  0
    7.4391   50.1180   32.6305 C   0  0  0  0  0  0  0  0  0  0  0  0
    5.9756   50.3782   32.9182 C   0  0  0  0  0  0  0  0  0  0  0  0
    5.2269   51.1094   31.9764 C   0  0  0  0  0  0  0  0  0  0  0  0
    5.3641   50.0106   34.1471 C   0  0  0  0  0  0  0  0  0  0  0  0
    3.8946   51.4417   32.2256 C   0  0  0  0  0  0  0  0  0  0  0  0
    4.0276   50.3707   34.3865 C   0  0  0  0  0  0  0  0  0  0  0  0
    6.0816   49.3146   35.1769 N   0  0  0  0  0  0  0  0  0  0  0  0
    3.2957   51.0724   33.4282 C   0  0  0  0  0  0  0  0  0  0  0  0
    5.9530   49.7233   36.4841 O   0  0  0  0  0  0  0  0  0  0  0  0
    6.5847   48.1966   34.9445 O   0  0  0  0  0  0  0  0  0  0  0  0
    8.5373   39.1384   34.0122 O   0  0  0  0  0  0  0  0  0  0  0  0
   10.9795   40.0890   33.6815 O   0  0  0  0  0  0  0  0  0  0  0  0
   10.7982   40.0848   32.2819 C   0  0  0  0  0  0  0  0  0  0  0  0
   11.5886   38.9142   31.7009 C   0  0  0  0  0  0  0  0  0  0  0  0
   12.9213   38.9367   32.1698 O   0  0  0  0  0  0  0  0  0  0  0  0
   11.0047   37.5660   32.0990 C   0  0  0  0  0  0  0  0  0  0  0  0
   13.3510   37.5885   32.2601 C   0  0  0  0  0  0  0  0  0  0  0  0
    9.9296   37.1961   31.2780 O   0  0  0  0  0  0  0  0  0  0  0  0
   12.1923   36.6659   31.9047 C   0  0  0  0  0  0  0  0  0  0  0  0
   13.8033   37.2966   33.6188 N   0  0  0  0  0  0  0  0  0  0  0  0
   12.3007   36.2865   30.5561 O   0  0  0  0  0  0  0  0  0  0  0  0
   14.7933   36.4724   33.9860 C   0  0  0  0  0  0  0  0  0  0  0  0
   13.2753   37.7296   34.7935 C   0  0  0  0  0  0  0  0  0  0  0  0
   15.6243   35.7579   33.1860 N   0  0  0  0  0  0  0  0  0  0  0  0
   14.8728   36.4410   35.3328 C   0  0  0  0  0  0  0  0  0  0  0  0
   13.9209   37.2263   35.8804 N   0  0  0  0  0  0  0  0  0  0  0  0
   16.5873   34.9919   33.7803 C   0  0  0  0  0  0  0  0  0  0  0  0
   15.8577   35.6716   35.9443 C   0  0  0  0  0  0  0  0  0  0  0  0
   16.7025   34.9583   35.1440 N   0  0  0  0  0  0  0  0  0  0  0  0
   16.0100   35.6384   37.3563 N   0  0  0  0  0  0  0  0  0  0  0  0
    7.6763   44.0710   34.0501 H   0  0  0  0  0  0  0  0  0  0  0  0
    9.1795   45.3838   35.3533 H   0  0  0  0  0  0  0  0  0  0  0  0
   10.3185   45.4409   34.1019 H   0  0  0  0  0  0  0  0  0  0  0  0
    9.9709   44.0681   31.9746 H   0  0  0  0  0  0  0  0  0  0  0  0
    8.4814   43.0852   31.8670 H   0  0  0  0  0  0  0  0  0  0  0  0
    8.5408   45.1381   30.4032 H   0  0  0  0  0  0  0  0  0  0  0  0
    8.5540   46.1509   31.8766 H   0  0  0  0  0  0  0  0  0  0  0  0
    6.3000   45.0614   32.5296 H   0  0  0  0  0  0  0  0  0  0  0  0
    6.3313   44.1800   30.9623 H   0  0  0  0  0  0  0  0  0  0  0  0
    6.2497   46.2921   29.7196 H   0  0  0  0  0  0  0  0  0  0  0  0
    4.9252   46.2684   30.9225 H   0  0  0  0  0  0  0  0  0  0  0  0
    6.2825   47.7174   32.4254 H   0  0  0  0  0  0  0  0  0  0  0  0
    7.8903   49.3516   33.2886 H   0  0  0  0  0  0  0  0  0  0  0  0
    7.9912   51.0623   32.8184 H   0  0  0  0  0  0  0  0  0  0  0  0
    5.6783   51.4310   31.0459 H   0  0  0  0  0  0  0  0  0  0  0  0
    3.3290   51.9974   31.4887 H   0  0  0  0  0  0  0  0  0  0  0  0
    3.5493   50.0982   35.3190 H   0  0  0  0  0  0  0  0  0  0  0  0
    2.2645   51.3376   33.6223 H   0  0  0  0  0  0  0  0  0  0  0  0
   11.2131   41.0320   31.8756 H   0  0  0  0  0  0  0  0  0  0  0  0
    9.7427   40.0140   31.9266 H   0  0  0  0  0  0  0  0  0  0  0  0
   11.5980   39.0108   30.5904 H   0  0  0  0  0  0  0  0  0  0  0  0
   10.7008   37.5602   33.1721 H   0  0  0  0  0  0  0  0  0  0  0  0
   14.1977   37.4380   31.5532 H   0  0  0  0  0  0  0  0  0  0  0  0
    9.5180   36.3961   31.6977 H   0  0  0  0  0  0  0  0  0  0  0  0
   12.1418   35.7697   32.5692 H   0  0  0  0  0  0  0  0  0  0  0  0
   11.7730   35.4523   30.4489 H   0  0  0  0  0  0  0  0  0  0  0  0
   12.4321   38.3984   34.8692 H   0  0  0  0  0  0  0  0  0  0  0  0
   17.2667   34.4138   33.1694 H   0  0  0  0  0  0  0  0  0  0  0  0
   15.3757   36.1867   37.9790 H   0  0  0  0  0  0  0  0  0  0  0  0
   16.7634   35.0598   37.7897 H   0  0  0  0  0  0  0  0  0  0  0  0
  1  2  2  0
  1  3  1  0
  3  4  1  0
  4  5  1  0
  6  1  1  0
  7  6  1  0
  6  8  1  0
  8  9  1  0
  9 10  1  0
 10 11  1  0
 11 12  1  0
 12 13  1  0
 13 14  1  0
 13 15  2  0
 14 16  1  0
 16 17  1  0
 17 18  2  0
 19 17  1  0
 18 20  1  0
 21 19  2  0
 19 22  1  0
 20 23  2  0
 23 21  1  0
 22 24  1  0
 22 25  2  0
  4 26  2  0
  4 27  1  0
 28 27  1  0
 28 29  1  0
 29 30  1  0
 29 31  1  0
 30 32  1  0
 31 33  1  0
 31 34  1  0
 34 32  1  0
 32 35  1  0
 34 36  1  0
 37 35  1  0
 38 35  1  0
 39 37  2  0
 37 40  1  0
 41 38  2  0
 42 39  1  0
 40 43  2  0
 40 41  1  0
 44 42  2  0
 44 43  1  0
 43 45  1  0
  6 46  1  6
  7 47  1  0
  7 48  1  0
  8 49  1  0
  8 50  1  0
  9 51  1  0
  9 52  1  0
 10 53  1  0
 10 54  1  0
 11 55  1  0
 11 56  1  0
 12 57  1  0
 16 58  1  0
 16 59  1  0
 18 60  1  0
 20 61  1  0
 21 62  1  0
 23 63  1  0
 28 64  1  0
 28 65  1  0
 29 66  1  0
 31 67  1  0
 32 68  1  0
 33 69  1  0
 34 70  1  0
 36 71  1  0
 38 72  1  0
 42 73  1  0
 45 74  1  0
 45 75  1  0
M  CHG  3   5  -1  22   1  24  -1
M  END
>  <EmbedRMS>  (241) 
0.0744355200533

$$$$

     RDKit          3D

 75 78  0  0  0  0  0  0  0  0999 V2000
    9.4313   42.9411   34.3437 C   0  0  0  0  0  0  0  0  0  0  0  0
   10.4886   43.0410   35.0294 O   0  0  0  0  0  0  0  0  0  0  0  0
    8.8562   41.7129   34.0288 O   0  0  0  0  0  0  0  0  0  0  0  0
    9.4947   40.2163   34.4679 P   0  0  0  0  0  0  0  0  0  0  0  0
    9.7311   40.1742   36.1290 O   0  0  0  0  0  0  0  0  0  0  0  0
    8.7484   44.1360   33.7721 C   0  0  1  0  0  0  0  0  0  0  0  0
    9.3039   45.3665   34.3388 N   0  0  0  0  0  0  0  0  0  0  0  0
    8.8892   44.0519   32.2309 C   0  0  0  0  0  0  0  0  0  0  0  0
    8.2014   45.1722   31.4436 C   0  0  0  0  0  0  0  0  0  0  0  0
    6.6642   45.1065   31.4888 C   0  0  0  0  0  0  0  0  0  0  0  0
    6.0265   46.3234   30.8120 C   0  0  0  0  0  0  0  0  0  0  0  0
    6.5075   47.5645   31.4187 N   0  0  0  0  0  0  0  0  0  0  0  0
    7.2441   48.5394   30.6833 C   0  0  0  0  0  0  0  0  0  0  0  0
    7.5935   49.7407   31.3052 O   0  0  0  0  0  0  0  0  0  0  0  0
    7.5931   48.3116   29.4933 O   0  0  0  0  0  0  0  0  0  0  0  0
    8.3351   50.7624   30.6457 C   0  0  0  0  0  0  0  0  0  0  0  0
    8.5132   51.9404   31.5708 C   0  0  0  0  0  0  0  0  0  0  0  0
    9.8195   52.3665   31.8766 C   0  0  0  0  0  0  0  0  0  0  0  0
    7.4092   52.6028   32.1738 C   0  0  0  0  0  0  0  0  0  0  0  0
   10.0365   53.4185   32.7671 C   0  0  0  0  0  0  0  0  0  0  0  0
    7.6526   53.6514   33.0804 C   0  0  0  0  0  0  0  0  0  0  0  0
    6.0486   52.2188   31.9005 N   0  0  0  0  0  0  0  0  0  0  0  0
    8.9556   54.0572   33.3705 C   0  0  0  0  0  0  0  0  0  0  0  0
    5.6548   51.8796   30.6272 O   0  0  0  0  0  0  0  0  0  0  0  0
    5.1747   52.3434   32.7835 O   0  0  0  0  0  0  0  0  0  0  0  0
    8.5375   39.1404   34.0127 O   0  0  0  0  0  0  0  0  0  0  0  0
   10.9805   40.0889   33.6836 O   0  0  0  0  0  0  0  0  0  0  0  0
   10.8025   40.0902   32.2838 C   0  0  0  0  0  0  0  0  0  0  0  0
   11.5888   38.9175   31.7008 C   0  0  0  0  0  0  0  0  0  0  0  0
   12.9219   38.9373   32.1692 O   0  0  0  0  0  0  0  0  0  0  0  0
   11.0028   37.5683   32.0981 C   0  0  0  0  0  0  0  0  0  0  0  0
   13.3496   37.5886   32.2601 C   0  0  0  0  0  0  0  0  0  0  0  0
    9.9343   37.1823   31.2757 O   0  0  0  0  0  0  0  0  0  0  0  0
   12.1891   36.6677   31.9050 C   0  0  0  0  0  0  0  0  0  0  0  0
   13.8025   37.2965   33.6186 N   0  0  0  0  0  0  0  0  0  0  0  0
   12.2990   36.2868   30.5568 O   0  0  0  0  0  0  0  0  0  0  0  0
   14.7929   36.4725   33.9858 C   0  0  0  0  0  0  0  0  0  0  0  0
   13.2749   37.7294   34.7935 C   0  0  0  0  0  0  0  0  0  0  0  0
   15.6240   35.7580   33.1858 N   0  0  0  0  0  0  0  0  0  0  0  0
   14.8727   36.4411   35.3327 C   0  0  0  0  0  0  0  0  0  0  0  0
   13.9208   37.2263   35.8803 N   0  0  0  0  0  0  0  0  0  0  0  0
   16.5871   34.9921   33.7801 C   0  0  0  0  0  0  0  0  0  0  0  0
   15.8576   35.6718   35.9441 C   0  0  0  0  0  0  0  0  0  0  0  0
   16.7024   34.9584   35.1438 N   0  0  0  0  0  0  0  0  0  0  0  0
   16.0099   35.6384   37.3562 N   0  0  0  0  0  0  0  0  0  0  0  0
    7.6764   44.0634   34.0548 H   0  0  0  0  0  0  0  0  0  0  0  0
   10.2152   45.5880   33.8747 H   0  0  0  0  0  0  0  0  0  0  0  0
    8.6468   46.1559   34.1432 H   0  0  0  0  0  0  0  0  0  0  0  0
    8.4831   43.0818   31.8666 H   0  0  0  0  0  0  0  0  0  0  0  0
    9.9708   44.0644   31.9679 H   0  0  0  0  0  0  0  0  0  0  0  0
    8.5198   45.0960   30.3808 H   0  0  0  0  0  0  0  0  0  0  0  0
    8.5712   46.1488   31.8175 H   0  0  0  0  0  0  0  0  0  0  0  0
    6.3148   44.1799   30.9839 H   0  0  0  0  0  0  0  0  0  0  0  0
    6.3141   45.0785   32.5414 H   0  0  0  0  0  0  0  0  0  0  0  0
    4.9232   46.2694   30.9295 H   0  0  0  0  0  0  0  0  0  0  0  0
    6.2450   46.2894   29.7231 H   0  0  0  0  0  0  0  0  0  0  0  0
    6.2847   47.7540   32.4218 H   0  0  0  0  0  0  0  0  0  0  0  0
    9.3187   50.3474   30.3335 H   0  0  0  0  0  0  0  0  0  0  0  0
    7.8098   51.0868   29.7231 H   0  0  0  0  0  0  0  0  0  0  0  0
   10.6776   51.8784   31.4310 H   0  0  0  0  0  0  0  0  0  0  0  0
   11.0464   53.7350   32.9944 H   0  0  0  0  0  0  0  0  0  0  0  0
    6.8274   54.1678   33.5544 H   0  0  0  0  0  0  0  0  0  0  0  0
    9.1271   54.8704   34.0640 H   0  0  0  0  0  0  0  0  0  0  0  0
    9.7476   40.0332   31.9256 H   0  0  0  0  0  0  0  0  0  0  0  0
   11.2257   41.0358   31.8825 H   0  0  0  0  0  0  0  0  0  0  0  0
   11.5975   39.0148   30.5905 H   0  0  0  0  0  0  0  0  0  0  0  0
   10.7023   37.5457   33.1720 H   0  0  0  0  0  0  0  0  0  0  0  0
   14.1957   37.4366   31.5528 H   0  0  0  0  0  0  0  0  0  0  0  0
    9.1339   37.6658   31.6070 H   0  0  0  0  0  0  0  0  0  0  0  0
   12.1380   35.7717   32.5698 H   0  0  0  0  0  0  0  0  0  0  0  0
   11.7706   35.4530   30.4496 H   0  0  0  0  0  0  0  0  0  0  0  0
   12.4314   38.3980   34.8694 H   0  0  0  0  0  0  0  0  0  0  0  0
   17.2665   34.4140   33.1691 H   0  0  0  0  0  0  0  0  0  0  0  0
   16.7633   35.0598   37.7895 H   0  0  0  0  0  0  0  0  0  0  0  0
   15.3757   36.1868   37.9789 H   0  0  0  0  0  0  0  0  0  0  0  0
  1  2  2  0
  1  3  1  0
  3  4  1  0
  4  5  1  0
  6  1  1  0
  7  6  1  0
  6  8  1  0
  8  9  1  0
  9 10  1  0
 10 11  1  0
 11 12  1  0
 12 13  1  0
 13 14  1  0
 13 15  2  0
 14 16  1  0
 16 17  1  0
 17 18  2  0
 19 17  1  0
 18 20  1  0
 21 19  2  0
 19 22  1  0
 20 23  2  0
 23 21  1  0
 22 24  1  0
 22 25  2  0
  4 26  2  0
  4 27  1  0
 28 27  1  0
 28 29  1  0
 29 30  1  0
 29 31  1  0
 30 32  1  0
 31 33  1  0
 31 34  1  0
 34 32  1  0
 32 35  1  0
 34 36  1  0
 37 35  1  0
 38 35  1  0
 39 37  2  0
 37 40  1  0
 41 38  2  0
 42 39  1  0
 40 43  2  0
 40 41  1  0
 44 42  2  0
 44 43  1  0
 43 45  1  0
  6 46  1  6
  7 47  1  0
  7 48  1  0
  8 49  1  0
  8 50  1  0
  9 51  1  0
  9 52  1  0
 10 53  1  0
 10 54  1  0
 11 55  1  0
 11 56  1  0
 12 57  1  0
 16 58  1  0
 16 59  1  0
 18 60  1  0
 20 61  1  0
 21 62  1  0
 23 63  1  0
 28 64  1  0
 28 65  1  0
 29 66  1  0
 31 67  1  0
 32 68  1  0
 33 69  1  0
 34 70  1  0
 36 71  1  0
 38 72  1  0
 42 73  1  0
 45 74  1  0
 45 75  1  0
M  CHG  3   5  -1  22   1  24  -1
M  END
>  <EmbedRMS>  (242) 
0.0733904531955

$$$$

     RDKit          3D

 75 78  0  0  0  0  0  0  0  0999 V2000
    9.4312   42.9412   34.3440 C   0  0  0  0  0  0  0  0  0  0  0  0
   10.4886   43.0411   35.0294 O   0  0  0  0  0  0  0  0  0  0  0  0
    8.8558   41.7129   34.0298 O   0  0  0  0  0  0  0  0  0  0  0  0
    9.4933   40.2164   34.4707 P   0  0  0  0  0  0  0  0  0  0  0  0
    9.7290   40.1745   36.1317 O   0  0  0  0  0  0  0  0  0  0  0  0
    8.7484   44.1360   33.7722 C   0  0  1  0  0  0  0  0  0  0  0  0
    9.3039   45.3665   34.3387 N   0  0  0  0  0  0  0  0  0  0  0  0
    8.8892   44.0518   32.2309 C   0  0  0  0  0  0  0  0  0  0  0  0
    8.2015   45.1720   31.4435 C   0  0  0  0  0  0  0  0  0  0  0  0
    6.6642   45.1065   31.4887 C   0  0  0  0  0  0  0  0  0  0  0  0
    6.0267   46.3237   30.8123 C   0  0  0  0  0  0  0  0  0  0  0  0
    6.5083   47.5645   31.4190 N   0  0  0  0  0  0  0  0  0  0  0  0
    7.2422   48.5405   30.6825 C   0  0  0  0  0  0  0  0  0  0  0  0
    7.5849   49.7467   31.3028 O   0  0  0  0  0  0  0  0  0  0  0  0
    7.5940   48.3105   29.4938 O   0  0  0  0  0  0  0  0  0  0  0  0
    8.2925   50.7937   30.6407 C   0  0  0  0  0  0  0  0  0  0  0  0
    7.4294   51.4392   29.5807 C   0  0  0  0  0  0  0  0  0  0  0  0
    7.9048   51.4750   28.2567 C   0  0  0  0  0  0  0  0  0  0  0  0
    6.1405   51.9639   29.8692 C   0  0  0  0  0  0  0  0  0  0  0  0
    7.1214   52.0069   27.2320 C   0  0  0  0  0  0  0  0  0  0  0  0
    5.3617   52.4817   28.8176 C   0  0  0  0  0  0  0  0  0  0  0  0
    5.5995   51.9622   31.2033 N   0  0  0  0  0  0  0  0  0  0  0  0
    5.8510   52.5057   27.5111 C   0  0  0  0  0  0  0  0  0  0  0  0
    6.3948   52.2589   32.2852 O   0  0  0  0  0  0  0  0  0  0  0  0
    4.3685   51.8487   31.3784 O   0  0  0  0  0  0  0  0  0  0  0  0
    8.5369   39.1403   34.0143 O   0  0  0  0  0  0  0  0  0  0  0  0
   10.9796   40.0883   33.6889 O   0  0  0  0  0  0  0  0  0  0  0  0
   10.8017   40.0949   32.2901 C   0  0  0  0  0  0  0  0  0  0  0  0
   11.5885   38.9267   31.7042 C   0  0  0  0  0  0  0  0  0  0  0  0
   12.9237   38.9445   32.1722 O   0  0  0  0  0  0  0  0  0  0  0  0
   11.0029   37.5726   32.0908 C   0  0  0  0  0  0  0  0  0  0  0  0
   13.3555   37.5960   32.2595 C   0  0  0  0  0  0  0  0  0  0  0  0
    9.9379   37.1847   31.2657 O   0  0  0  0  0  0  0  0  0  0  0  0
   12.1931   36.6769   31.8952 C   0  0  0  0  0  0  0  0  0  0  0  0
   13.8028   37.2977   33.6186 N   0  0  0  0  0  0  0  0  0  0  0  0
   12.2918   36.2396   30.5587 O   0  0  0  0  0  0  0  0  0  0  0  0
   14.7926   36.4727   33.9858 C   0  0  0  0  0  0  0  0  0  0  0  0
   13.2750   37.7302   34.7935 C   0  0  0  0  0  0  0  0  0  0  0  0
   15.6241   35.7586   33.1857 N   0  0  0  0  0  0  0  0  0  0  0  0
   14.8721   36.4408   35.3326 C   0  0  0  0  0  0  0  0  0  0  0  0
   13.9204   37.2263   35.8802 N   0  0  0  0  0  0  0  0  0  0  0  0
   16.5870   34.9925   33.7800 C   0  0  0  0  0  0  0  0  0  0  0  0
   15.8572   35.6717   35.9441 C   0  0  0  0  0  0  0  0  0  0  0  0
   16.7022   34.9585   35.1437 N   0  0  0  0  0  0  0  0  0  0  0  0
   16.0098   35.6384   37.3561 N   0  0  0  0  0  0  0  0  0  0  0  0
    7.6764   44.0635   34.0548 H   0  0  0  0  0  0  0  0  0  0  0  0
    8.6468   46.1559   34.1430 H   0  0  0  0  0  0  0  0  0  0  0  0
   10.2152   45.5879   33.8747 H   0  0  0  0  0  0  0  0  0  0  0  0
    8.4830   43.0816   31.8668 H   0  0  0  0  0  0  0  0  0  0  0  0
    9.9708   44.0641   31.9680 H   0  0  0  0  0  0  0  0  0  0  0  0
    8.5715   46.1486   31.8172 H   0  0  0  0  0  0  0  0  0  0  0  0
    8.5198   45.0956   30.3807 H   0  0  0  0  0  0  0  0  0  0  0  0
    6.3142   45.0783   32.5413 H   0  0  0  0  0  0  0  0  0  0  0  0
    6.3147   44.1801   30.9836 H   0  0  0  0  0  0  0  0  0  0  0  0
    6.2449   46.2897   29.7232 H   0  0  0  0  0  0  0  0  0  0  0  0
    4.9234   46.2700   30.9300 H   0  0  0  0  0  0  0  0  0  0  0  0
    6.2848   47.7545   32.4218 H   0  0  0  0  0  0  0  0  0  0  0  0
    8.5955   51.5581   31.3845 H   0  0  0  0  0  0  0  0  0  0  0  0
    9.2339   50.3845   30.2123 H   0  0  0  0  0  0  0  0  0  0  0  0
    8.8829   51.0798   28.0115 H   0  0  0  0  0  0  0  0  0  0  0  0
    7.4982   52.0260   26.2175 H   0  0  0  0  0  0  0  0  0  0  0  0
    4.3752   52.8828   29.0132 H   0  0  0  0  0  0  0  0  0  0  0  0
    5.2436   52.9139   26.7136 H   0  0  0  0  0  0  0  0  0  0  0  0
    9.7472   40.0378   31.9304 H   0  0  0  0  0  0  0  0  0  0  0  0
   11.2240   41.0428   31.8929 H   0  0  0  0  0  0  0  0  0  0  0  0
   11.5927   39.0434   30.5966 H   0  0  0  0  0  0  0  0  0  0  0  0
   10.7003   37.5444   33.1641 H   0  0  0  0  0  0  0  0  0  0  0  0
   14.2051   37.4477   31.5560 H   0  0  0  0  0  0  0  0  0  0  0  0
    9.1373   37.6722   31.5906 H   0  0  0  0  0  0  0  0  0  0  0  0
   12.1305   35.7856   32.5586 H   0  0  0  0  0  0  0  0  0  0  0  0
   12.4606   37.0186   29.9674 H   0  0  0  0  0  0  0  0  0  0  0  0
   12.4327   38.4001   34.8694 H   0  0  0  0  0  0  0  0  0  0  0  0
   17.2666   34.4146   33.1689 H   0  0  0  0  0  0  0  0  0  0  0  0
   16.7634   35.0601   37.7894 H   0  0  0  0  0  0  0  0  0  0  0  0
   15.3755   36.1866   37.9788 H   0  0  0  0  0  0  0  0  0  0  0  0
  1  2  2  0
  1  3  1  0
  3  4  1  0
  4  5  1  0
  6  1  1  0
  7  6  1  0
  6  8  1  0
  8  9  1  0
  9 10  1  0
 10 11  1  0
 11 12  1  0
 12 13  1  0
 13 14  1  0
 13 15  2  0
 14 16  1  0
 16 17  1  0
 17 18  2  0
 19 17  1  0
 18 20  1  0
 21 19  2  0
 19 22  1  0
 20 23  2  0
 23 21  1  0
 22 24  1  0
 22 25  2  0
  4 26  2  0
  4 27  1  0
 28 27  1  0
 28 29  1  0
 29 30  1  0
 29 31  1  0
 30 32  1  0
 31 33  1  0
 31 34  1  0
 34 32  1  0
 32 35  1  0
 34 36  1  0
 37 35  1  0
 38 35  1  0
 39 37  2  0
 37 40  1  0
 41 38  2  0
 42 39  1  0
 40 43  2  0
 40 41  1  0
 44 42  2  0
 44 43  1  0
 43 45  1  0
  6 46  1  6
  7 47  1  0
  7 48  1  0
  8 49  1  0
  8 50  1  0
  9 51  1  0
  9 52  1  0
 10 53  1  0
 10 54  1  0
 11 55  1  0
 11 56  1  0
 12 57  1  0
 16 58  1  0
 16 59  1  0
 18 60  1  0
 20 61  1  0
 21 62  1  0
 23 63  1  0
 28 64  1  0
 28 65  1  0
 29 66  1  0
 31 67  1  0
 32 68  1  0
 33 69  1  0
 34 70  1  0
 36 71  1  0
 38 72  1  0
 42 73  1  0
 45 74  1  0
 45 75  1  0
M  CHG  3   5  -1  22   1  24  -1
M  END
>  <EmbedRMS>  (243) 
0.0748490848647

$$$$

     RDKit          3D

 75 78  0  0  0  0  0  0  0  0999 V2000
    9.4333   42.9371   34.3456 C   0  0  0  0  0  0  0  0  0  0  0  0
   10.4907   43.0334   35.0314 O   0  0  0  0  0  0  0  0  0  0  0  0
    8.8559   41.7109   34.0295 O   0  0  0  0  0  0  0  0  0  0  0  0
    9.4942   40.2145   34.4676 P   0  0  0  0  0  0  0  0  0  0  0  0
    9.7316   40.1726   36.1286 O   0  0  0  0  0  0  0  0  0  0  0  0
    8.7509   44.1358   33.7737 C   0  0  1  0  0  0  0  0  0  0  0  0
    9.2966   45.3829   34.3132 N   0  0  0  0  0  0  0  0  0  0  0  0
    8.8895   44.0548   32.2353 C   0  0  0  0  0  0  0  0  0  0  0  0
    8.2023   45.1851   31.4619 C   0  0  0  0  0  0  0  0  0  0  0  0
    6.6647   45.1058   31.4851 C   0  0  0  0  0  0  0  0  0  0  0  0
    6.0239   46.3217   30.8075 C   0  0  0  0  0  0  0  0  0  0  0  0
    6.4970   47.5652   31.4152 N   0  0  0  0  0  0  0  0  0  0  0  0
    7.2609   48.5277   30.6919 C   0  0  0  0  0  0  0  0  0  0  0  0
    7.6831   49.6897   31.3453 O   0  0  0  0  0  0  0  0  0  0  0  0
    7.5886   48.3121   29.4937 O   0  0  0  0  0  0  0  0  0  0  0  0
    8.6453   50.5914   30.8021 C   0  0  0  0  0  0  0  0  0  0  0  0
   10.0154   49.9529   30.7781 C   0  0  0  0  0  0  0  0  0  0  0  0
   10.5372   49.5357   29.5394 C   0  0  0  0  0  0  0  0  0  0  0  0
   10.7990   49.7821   31.9541 C   0  0  0  0  0  0  0  0  0  0  0  0
   11.8038   48.9576   29.4565 C   0  0  0  0  0  0  0  0  0  0  0  0
   12.0790   49.2088   31.8429 C   0  0  0  0  0  0  0  0  0  0  0  0
   10.3432   50.2061   33.2534 N   0  0  0  0  0  0  0  0  0  0  0  0
   12.5735   48.7953   30.6056 C   0  0  0  0  0  0  0  0  0  0  0  0
   11.2573   50.5749   34.2137 O   0  0  0  0  0  0  0  0  0  0  0  0
    9.1443   50.1008   33.5810 O   0  0  0  0  0  0  0  0  0  0  0  0
    8.5370   39.1386   34.0123 O   0  0  0  0  0  0  0  0  0  0  0  0
   10.9792   40.0888   33.6813 O   0  0  0  0  0  0  0  0  0  0  0  0
   10.7977   40.0843   32.2817 C   0  0  0  0  0  0  0  0  0  0  0  0
   11.5897   38.9147   31.7008 C   0  0  0  0  0  0  0  0  0  0  0  0
   12.9218   38.9385   32.1717 O   0  0  0  0  0  0  0  0  0  0  0  0
   11.0070   37.5654   32.0975 C   0  0  0  0  0  0  0  0  0  0  0  0
   13.3533   37.5909   32.2610 C   0  0  0  0  0  0  0  0  0  0  0  0
    9.9333   37.1935   31.2754 O   0  0  0  0  0  0  0  0  0  0  0  0
   12.1945   36.6671   31.9040 C   0  0  0  0  0  0  0  0  0  0  0  0
   13.8036   37.2970   33.6193 N   0  0  0  0  0  0  0  0  0  0  0  0
   12.2893   36.2849   30.5562 O   0  0  0  0  0  0  0  0  0  0  0  0
   14.7931   36.4723   33.9863 C   0  0  0  0  0  0  0  0  0  0  0  0
   13.2756   37.7298   34.7940 C   0  0  0  0  0  0  0  0  0  0  0  0
   15.6242   35.7580   33.1861 N   0  0  0  0  0  0  0  0  0  0  0  0
   14.8727   36.4407   35.3331 C   0  0  0  0  0  0  0  0  0  0  0  0
   13.9210   37.2262   35.8807 N   0  0  0  0  0  0  0  0  0  0  0  0
   16.5872   34.9920   33.7803 C   0  0  0  0  0  0  0  0  0  0  0  0
   15.8577   35.6715   35.9444 C   0  0  0  0  0  0  0  0  0  0  0  0
   16.7025   34.9582   35.1440 N   0  0  0  0  0  0  0  0  0  0  0  0
   16.0101   35.6382   37.3564 N   0  0  0  0  0  0  0  0  0  0  0  0
    7.6773   44.0718   34.0499 H   0  0  0  0  0  0  0  0  0  0  0  0
    9.1848   45.3822   35.3535 H   0  0  0  0  0  0  0  0  0  0  0  0
   10.3191   45.4429   34.0980 H   0  0  0  0  0  0  0  0  0  0  0  0
    9.9713   44.0712   31.9735 H   0  0  0  0  0  0  0  0  0  0  0  0
    8.4823   43.0872   31.8657 H   0  0  0  0  0  0  0  0  0  0  0  0
    8.5534   46.1540   31.8757 H   0  0  0  0  0  0  0  0  0  0  0  0
    8.5387   45.1409   30.4028 H   0  0  0  0  0  0  0  0  0  0  0  0
    6.3306   44.1798   30.9688 H   0  0  0  0  0  0  0  0  0  0  0  0
    6.3011   45.0665   32.5329 H   0  0  0  0  0  0  0  0  0  0  0  0
    4.9204   46.2629   30.9201 H   0  0  0  0  0  0  0  0  0  0  0  0
    6.2466   46.2888   29.7194 H   0  0  0  0  0  0  0  0  0  0  0  0
    6.2752   47.7509   32.4193 H   0  0  0  0  0  0  0  0  0  0  0  0
    8.6755   51.5144   31.4181 H   0  0  0  0  0  0  0  0  0  0  0  0
    8.3231   50.9033   29.7841 H   0  0  0  0  0  0  0  0  0  0  0  0
    9.9610   49.6573   28.6304 H   0  0  0  0  0  0  0  0  0  0  0  0
   12.1908   48.6381   28.4975 H   0  0  0  0  0  0  0  0  0  0  0  0
   12.6947   49.0686   32.7223 H   0  0  0  0  0  0  0  0  0  0  0  0
   13.5572   48.3487   30.5382 H   0  0  0  0  0  0  0  0  0  0  0  0
    9.7422   40.0118   31.9266 H   0  0  0  0  0  0  0  0  0  0  0  0
   11.2112   41.0320   31.8753 H   0  0  0  0  0  0  0  0  0  0  0  0
   11.6005   39.0119   30.5904 H   0  0  0  0  0  0  0  0  0  0  0  0
   10.7015   37.5593   33.1701 H   0  0  0  0  0  0  0  0  0  0  0  0
   14.2012   37.4438   31.5551 H   0  0  0  0  0  0  0  0  0  0  0  0
    9.5289   36.3869   31.6895 H   0  0  0  0  0  0  0  0  0  0  0  0
   12.1244   35.7694   32.5633 H   0  0  0  0  0  0  0  0  0  0  0  0
   12.9478   35.5427   30.5202 H   0  0  0  0  0  0  0  0  0  0  0  0
   12.4328   38.3993   34.8697 H   0  0  0  0  0  0  0  0  0  0  0  0
   17.2667   34.4140   33.1692 H   0  0  0  0  0  0  0  0  0  0  0  0
   16.7636   35.0598   37.7897 H   0  0  0  0  0  0  0  0  0  0  0  0
   15.3759   36.1865   37.9791 H   0  0  0  0  0  0  0  0  0  0  0  0
  1  2  2  0
  1  3  1  0
  3  4  1  0
  4  5  1  0
  6  1  1  0
  7  6  1  0
  6  8  1  0
  8  9  1  0
  9 10  1  0
 10 11  1  0
 11 12  1  0
 12 13  1  0
 13 14  1  0
 13 15  2  0
 14 16  1  0
 16 17  1  0
 17 18  2  0
 19 17  1  0
 18 20  1  0
 21 19  2  0
 19 22  1  0
 20 23  2  0
 23 21  1  0
 22 24  1  0
 22 25  2  0
  4 26  2  0
  4 27  1  0
 28 27  1  0
 28 29  1  0
 29 30  1  0
 29 31  1  0
 30 32  1  0
 31 33  1  0
 31 34  1  0
 34 32  1  0
 32 35  1  0
 34 36  1  0
 37 35  1  0
 38 35  1  0
 39 37  2  0
 37 40  1  0
 41 38  2  0
 42 39  1  0
 40 43  2  0
 40 41  1  0
 44 42  2  0
 44 43  1  0
 43 45  1  0
  6 46  1  6
  7 47  1  0
  7 48  1  0
  8 49  1  0
  8 50  1  0
  9 51  1  0
  9 52  1  0
 10 53  1  0
 10 54  1  0
 11 55  1  0
 11 56  1  0
 12 57  1  0
 16 58  1  0
 16 59  1  0
 18 60  1  0
 20 61  1  0
 21 62  1  0
 23 63  1  0
 28 64  1  0
 28 65  1  0
 29 66  1  0
 31 67  1  0
 32 68  1  0
 33 69  1  0
 34 70  1  0
 36 71  1  0
 38 72  1  0
 42 73  1  0
 45 74  1  0
 45 75  1  0
M  CHG  3   5  -1  22   1  24  -1
M  END
>  <EmbedRMS>  (244) 
0.0748383418882

$$$$

     RDKit          3D

 75 78  0  0  0  0  0  0  0  0999 V2000
    9.4315   42.9405   34.3432 C   0  0  0  0  0  0  0  0  0  0  0  0
   10.4885   43.0412   35.0291 O   0  0  0  0  0  0  0  0  0  0  0  0
    8.8565   41.7122   34.0288 O   0  0  0  0  0  0  0  0  0  0  0  0
    9.4948   40.2157   34.4679 P   0  0  0  0  0  0  0  0  0  0  0  0
    9.7314   40.1738   36.1290 O   0  0  0  0  0  0  0  0  0  0  0  0
    8.7479   44.1339   33.7708 C   0  0  1  0  0  0  0  0  0  0  0  0
    9.2991   45.3652   34.3374 N   0  0  0  0  0  0  0  0  0  0  0  0
    8.8902   44.0516   32.2298 C   0  0  0  0  0  0  0  0  0  0  0  0
    8.2028   45.1727   31.4432 C   0  0  0  0  0  0  0  0  0  0  0  0
    6.6658   45.1075   31.4892 C   0  0  0  0  0  0  0  0  0  0  0  0
    6.0286   46.3263   30.8158 C   0  0  0  0  0  0  0  0  0  0  0  0
    6.5119   47.5661   31.4248 N   0  0  0  0  0  0  0  0  0  0  0  0
    7.2298   48.5520   30.6732 C   0  0  0  0  0  0  0  0  0  0  0  0
    7.5310   49.8119   31.2075 O   0  0  0  0  0  0  0  0  0  0  0  0
    7.6007   48.2985   29.4976 O   0  0  0  0  0  0  0  0  0  0  0  0
    7.1530   50.2560   32.5099 C   0  0  0  0  0  0  0  0  0  0  0  0
    8.0372   49.6432   33.5739 C   0  0  0  0  0  0  0  0  0  0  0  0
    9.4257   49.5976   33.3494 C   0  0  0  0  0  0  0  0  0  0  0  0
    7.5185   49.1277   34.7912 C   0  0  0  0  0  0  0  0  0  0  0  0
   10.2815   49.0184   34.2875 C   0  0  0  0  0  0  0  0  0  0  0  0
    8.3945   48.5368   35.7174 C   0  0  0  0  0  0  0  0  0  0  0  0
    6.1239   49.2165   35.1195 N   0  0  0  0  0  0  0  0  0  0  0  0
    9.7666   48.4860   35.4677 C   0  0  0  0  0  0  0  0  0  0  0  0
    5.5138   48.1821   35.7907 O   0  0  0  0  0  0  0  0  0  0  0  0
    5.5260   50.3080   35.0229 O   0  0  0  0  0  0  0  0  0  0  0  0
    8.5376   39.1397   34.0125 O   0  0  0  0  0  0  0  0  0  0  0  0
   10.9801   40.0877   33.6829 O   0  0  0  0  0  0  0  0  0  0  0  0
   10.8003   40.0907   32.2832 C   0  0  0  0  0  0  0  0  0  0  0  0
   11.5958   38.9271   31.6964 C   0  0  0  0  0  0  0  0  0  0  0  0
   12.9239   38.9409   32.1766 O   0  0  0  0  0  0  0  0  0  0  0  0
   11.0062   37.5719   32.0794 C   0  0  0  0  0  0  0  0  0  0  0  0
   13.3506   37.5905   32.2614 C   0  0  0  0  0  0  0  0  0  0  0  0
    9.9064   37.1793   31.2946 O   0  0  0  0  0  0  0  0  0  0  0  0
   12.1920   36.6672   31.9003 C   0  0  0  0  0  0  0  0  0  0  0  0
   13.8017   37.2948   33.6193 N   0  0  0  0  0  0  0  0  0  0  0  0
   12.3133   36.2788   30.5561 O   0  0  0  0  0  0  0  0  0  0  0  0
   14.7927   36.4717   33.9862 C   0  0  0  0  0  0  0  0  0  0  0  0
   13.2746   37.7284   34.7941 C   0  0  0  0  0  0  0  0  0  0  0  0
   15.6240   35.7576   33.1859 N   0  0  0  0  0  0  0  0  0  0  0  0
   14.8728   36.4406   35.3330 C   0  0  0  0  0  0  0  0  0  0  0  0
   13.9209   37.2258   35.8808 N   0  0  0  0  0  0  0  0  0  0  0  0
   16.5874   34.9920   33.7802 C   0  0  0  0  0  0  0  0  0  0  0  0
   15.8579   35.6716   35.9443 C   0  0  0  0  0  0  0  0  0  0  0  0
   16.7028   34.9584   35.1439 N   0  0  0  0  0  0  0  0  0  0  0  0
   16.0103   35.6383   37.3563 N   0  0  0  0  0  0  0  0  0  0  0  0
    7.6757   44.0592   34.0522 H   0  0  0  0  0  0  0  0  0  0  0  0
   10.2130   45.5869   33.8784 H   0  0  0  0  0  0  0  0  0  0  0  0
    8.6409   46.1491   34.1273 H   0  0  0  0  0  0  0  0  0  0  0  0
    9.9721   44.0650   31.9681 H   0  0  0  0  0  0  0  0  0  0  0  0
    8.4849   43.0817   31.8643 H   0  0  0  0  0  0  0  0  0  0  0  0
    8.5203   45.0961   30.3802 H   0  0  0  0  0  0  0  0  0  0  0  0
    8.5736   46.1496   31.8159 H   0  0  0  0  0  0  0  0  0  0  0  0
    6.3164   45.0779   32.5421 H   0  0  0  0  0  0  0  0  0  0  0  0
    6.3153   44.1821   30.9827 H   0  0  0  0  0  0  0  0  0  0  0  0
    6.2429   46.2933   29.7261 H   0  0  0  0  0  0  0  0  0  0  0  0
    4.9255   46.2728   30.9367 H   0  0  0  0  0  0  0  0  0  0  0  0
    6.2943   47.7261   32.4325 H   0  0  0  0  0  0  0  0  0  0  0  0
    6.0749   50.0499   32.6632 H   0  0  0  0  0  0  0  0  0  0  0  0
    7.2865   51.3572   32.5495 H   0  0  0  0  0  0  0  0  0  0  0  0
    9.8478   50.0044   32.4386 H   0  0  0  0  0  0  0  0  0  0  0  0
   11.3464   48.9811   34.0975 H   0  0  0  0  0  0  0  0  0  0  0  0
    8.0148   48.1345   36.6481 H   0  0  0  0  0  0  0  0  0  0  0  0
   10.4319   48.0349   36.1926 H   0  0  0  0  0  0  0  0  0  0  0  0
   11.2115   41.0421   31.8831 H   0  0  0  0  0  0  0  0  0  0  0  0
    9.7455   40.0168   31.9265 H   0  0  0  0  0  0  0  0  0  0  0  0
   11.6245   39.0450   30.5889 H   0  0  0  0  0  0  0  0  0  0  0  0
   10.7050   37.5581   33.1500 H   0  0  0  0  0  0  0  0  0  0  0  0
   14.1985   37.4426   31.5553 H   0  0  0  0  0  0  0  0  0  0  0  0
   10.0893   37.4058   30.3459 H   0  0  0  0  0  0  0  0  0  0  0  0
   12.1337   35.7754   32.5703 H   0  0  0  0  0  0  0  0  0  0  0  0
   11.7933   35.4394   30.4514 H   0  0  0  0  0  0  0  0  0  0  0  0
   12.4314   38.3973   34.8700 H   0  0  0  0  0  0  0  0  0  0  0  0
   17.2669   34.4142   33.1692 H   0  0  0  0  0  0  0  0  0  0  0  0
   15.3759   36.1865   37.9790 H   0  0  0  0  0  0  0  0  0  0  0  0
   16.7638   35.0599   37.7896 H   0  0  0  0  0  0  0  0  0  0  0  0
  1  2  2  0
  1  3  1  0
  3  4  1  0
  4  5  1  0
  6  1  1  0
  7  6  1  0
  6  8  1  0
  8  9  1  0
  9 10  1  0
 10 11  1  0
 11 12  1  0
 12 13  1  0
 13 14  1  0
 13 15  2  0
 14 16  1  0
 16 17  1  0
 17 18  2  0
 19 17  1  0
 18 20  1  0
 21 19  2  0
 19 22  1  0
 20 23  2  0
 23 21  1  0
 22 24  1  0
 22 25  2  0
  4 26  2  0
  4 27  1  0
 28 27  1  0
 28 29  1  0
 29 30  1  0
 29 31  1  0
 30 32  1  0
 31 33  1  0
 31 34  1  0
 34 32  1  0
 32 35  1  0
 34 36  1  0
 37 35  1  0
 38 35  1  0
 39 37  2  0
 37 40  1  0
 41 38  2  0
 42 39  1  0
 40 43  2  0
 40 41  1  0
 44 42  2  0
 44 43  1  0
 43 45  1  0
  6 46  1  6
  7 47  1  0
  7 48  1  0
  8 49  1  0
  8 50  1  0
  9 51  1  0
  9 52  1  0
 10 53  1  0
 10 54  1  0
 11 55  1  0
 11 56  1  0
 12 57  1  0
 16 58  1  0
 16 59  1  0
 18 60  1  0
 20 61  1  0
 21 62  1  0
 23 63  1  0
 28 64  1  0
 28 65  1  0
 29 66  1  0
 31 67  1  0
 32 68  1  0
 33 69  1  0
 34 70  1  0
 36 71  1  0
 38 72  1  0
 42 73  1  0
 45 74  1  0
 45 75  1  0
M  CHG  3   5  -1  22   1  24  -1
M  END
>  <EmbedRMS>  (245) 
0.0737872871421

$$$$

     RDKit          3D

 75 78  0  0  0  0  0  0  0  0999 V2000
    9.4333   42.9365   34.3462 C   0  0  0  0  0  0  0  0  0  0  0  0
   10.4907   43.0330   35.0318 O   0  0  0  0  0  0  0  0  0  0  0  0
    8.8563   41.7104   34.0296 O   0  0  0  0  0  0  0  0  0  0  0  0
    9.4945   40.2142   34.4680 P   0  0  0  0  0  0  0  0  0  0  0  0
    9.7309   40.1726   36.1291 O   0  0  0  0  0  0  0  0  0  0  0  0
    8.7506   44.1348   33.7741 C   0  0  1  0  0  0  0  0  0  0  0  0
    9.2963   45.3820   34.3133 N   0  0  0  0  0  0  0  0  0  0  0  0
    8.8893   44.0527   32.2358 C   0  0  0  0  0  0  0  0  0  0  0  0
    8.2029   45.1822   31.4613 C   0  0  0  0  0  0  0  0  0  0  0  0
    6.6654   45.1046   31.4854 C   0  0  0  0  0  0  0  0  0  0  0  0
    6.0272   46.3228   30.8107 C   0  0  0  0  0  0  0  0  0  0  0  0
    6.5071   47.5639   31.4183 N   0  0  0  0  0  0  0  0  0  0  0  0
    7.2418   48.5403   30.6829 C   0  0  0  0  0  0  0  0  0  0  0  0
    7.5842   49.7460   31.3041 O   0  0  0  0  0  0  0  0  0  0  0  0
    7.5941   48.3110   29.4941 O   0  0  0  0  0  0  0  0  0  0  0  0
    8.2905   50.7942   30.6424 C   0  0  0  0  0  0  0  0  0  0  0  0
    7.4251   51.4417   29.5856 C   0  0  0  0  0  0  0  0  0  0  0  0
    7.8974   51.4799   28.2606 C   0  0  0  0  0  0  0  0  0  0  0  0
    6.1369   51.9662   29.8780 C   0  0  0  0  0  0  0  0  0  0  0  0
    7.1118   52.0140   27.2387 C   0  0  0  0  0  0  0  0  0  0  0  0
    5.3560   52.4862   28.8292 C   0  0  0  0  0  0  0  0  0  0  0  0
    5.5990   51.9621   31.2133 N   0  0  0  0  0  0  0  0  0  0  0  0
    5.8422   52.5126   27.5217 C   0  0  0  0  0  0  0  0  0  0  0  0
    6.3968   52.2567   32.2940 O   0  0  0  0  0  0  0  0  0  0  0  0
    4.3684   51.8485   31.3911 O   0  0  0  0  0  0  0  0  0  0  0  0
    8.5372   39.1386   34.0125 O   0  0  0  0  0  0  0  0  0  0  0  0
   10.9804   40.0880   33.6837 O   0  0  0  0  0  0  0  0  0  0  0  0
   10.8025   40.0899   32.2839 C   0  0  0  0  0  0  0  0  0  0  0  0
   11.5888   38.9174   31.7007 C   0  0  0  0  0  0  0  0  0  0  0  0
   12.9219   38.9373   32.1692 O   0  0  0  0  0  0  0  0  0  0  0  0
   11.0028   37.5682   32.0980 C   0  0  0  0  0  0  0  0  0  0  0  0
   13.3496   37.5885   32.2601 C   0  0  0  0  0  0  0  0  0  0  0  0
    9.9343   37.1822   31.2756 O   0  0  0  0  0  0  0  0  0  0  0  0
   12.1891   36.6677   31.9049 C   0  0  0  0  0  0  0  0  0  0  0  0
   13.8025   37.2965   33.6186 N   0  0  0  0  0  0  0  0  0  0  0  0
   12.2991   36.2867   30.5567 O   0  0  0  0  0  0  0  0  0  0  0  0
   14.7929   36.4725   33.9858 C   0  0  0  0  0  0  0  0  0  0  0  0
   13.2749   37.7294   34.7935 C   0  0  0  0  0  0  0  0  0  0  0  0
   15.6240   35.7580   33.1858 N   0  0  0  0  0  0  0  0  0  0  0  0
   14.8727   36.4411   35.3327 C   0  0  0  0  0  0  0  0  0  0  0  0
   13.9208   37.2263   35.8803 N   0  0  0  0  0  0  0  0  0  0  0  0
   16.5871   34.9921   33.7801 C   0  0  0  0  0  0  0  0  0  0  0  0
   15.8576   35.6718   35.9441 C   0  0  0  0  0  0  0  0  0  0  0  0
   16.7024   34.9585   35.1438 N   0  0  0  0  0  0  0  0  0  0  0  0
   16.0099   35.6384   37.3562 N   0  0  0  0  0  0  0  0  0  0  0  0
    7.6770   44.0706   34.0504 H   0  0  0  0  0  0  0  0  0  0  0  0
   10.3192   45.4406   34.0999 H   0  0  0  0  0  0  0  0  0  0  0  0
    9.1827   45.3820   35.3534 H   0  0  0  0  0  0  0  0  0  0  0  0
    8.4816   43.0850   31.8668 H   0  0  0  0  0  0  0  0  0  0  0  0
    9.9711   44.0680   31.9739 H   0  0  0  0  0  0  0  0  0  0  0  0
    8.5385   45.1361   30.4021 H   0  0  0  0  0  0  0  0  0  0  0  0
    8.5554   46.1509   31.8740 H   0  0  0  0  0  0  0  0  0  0  0  0
    6.3020   45.0641   32.5332 H   0  0  0  0  0  0  0  0  0  0  0  0
    6.3296   44.1801   30.9674 H   0  0  0  0  0  0  0  0  0  0  0  0
    6.2464   46.2901   29.7218 H   0  0  0  0  0  0  0  0  0  0  0  0
    4.9238   46.2679   30.9269 H   0  0  0  0  0  0  0  0  0  0  0  0
    6.2818   47.7537   32.4208 H   0  0  0  0  0  0  0  0  0  0  0  0
    8.5952   51.5572   31.3870 H   0  0  0  0  0  0  0  0  0  0  0  0
    9.2310   50.3858   30.2112 H   0  0  0  0  0  0  0  0  0  0  0  0
    8.8749   51.0849   28.0124 H   0  0  0  0  0  0  0  0  0  0  0  0
    7.4863   52.0349   26.2234 H   0  0  0  0  0  0  0  0  0  0  0  0
    4.3700   52.8872   29.0279 H   0  0  0  0  0  0  0  0  0  0  0  0
    5.2331   52.9225   26.7263 H   0  0  0  0  0  0  0  0  0  0  0  0
   11.2258   41.0357   31.8830 H   0  0  0  0  0  0  0  0  0  0  0  0
    9.7476   40.0331   31.9256 H   0  0  0  0  0  0  0  0  0  0  0  0
   11.5974   39.0148   30.5904 H   0  0  0  0  0  0  0  0  0  0  0  0
   10.7023   37.5455   33.1719 H   0  0  0  0  0  0  0  0  0  0  0  0
   14.1957   37.4366   31.5528 H   0  0  0  0  0  0  0  0  0  0  0  0
    9.1339   37.6658   31.6069 H   0  0  0  0  0  0  0  0  0  0  0  0
   12.1381   35.7717   32.5697 H   0  0  0  0  0  0  0  0  0  0  0  0
   11.7707   35.4530   30.4496 H   0  0  0  0  0  0  0  0  0  0  0  0
   12.4314   38.3980   34.8694 H   0  0  0  0  0  0  0  0  0  0  0  0
   17.2665   34.4140   33.1691 H   0  0  0  0  0  0  0  0  0  0  0  0
   16.7633   35.0598   37.7895 H   0  0  0  0  0  0  0  0  0  0  0  0
   15.3757   36.1868   37.9789 H   0  0  0  0  0  0  0  0  0  0  0  0
  1  2  2  0
  1  3  1  0
  3  4  1  0
  4  5  1  0
  6  1  1  0
  7  6  1  0
  6  8  1  0
  8  9  1  0
  9 10  1  0
 10 11  1  0
 11 12  1  0
 12 13  1  0
 13 14  1  0
 13 15  2  0
 14 16  1  0
 16 17  1  0
 17 18  2  0
 19 17  1  0
 18 20  1  0
 21 19  2  0
 19 22  1  0
 20 23  2  0
 23 21  1  0
 22 24  1  0
 22 25  2  0
  4 26  2  0
  4 27  1  0
 28 27  1  0
 28 29  1  0
 29 30  1  0
 29 31  1  0
 30 32  1  0
 31 33  1  0
 31 34  1  0
 34 32  1  0
 32 35  1  0
 34 36  1  0
 37 35  1  0
 38 35  1  0
 39 37  2  0
 37 40  1  0
 41 38  2  0
 42 39  1  0
 40 43  2  0
 40 41  1  0
 44 42  2  0
 44 43  1  0
 43 45  1  0
  6 46  1  6
  7 47  1  0
  7 48  1  0
  8 49  1  0
  8 50  1  0
  9 51  1  0
  9 52  1  0
 10 53  1  0
 10 54  1  0
 11 55  1  0
 11 56  1  0
 12 57  1  0
 16 58  1  0
 16 59  1  0
 18 60  1  0
 20 61  1  0
 21 62  1  0
 23 63  1  0
 28 64  1  0
 28 65  1  0
 29 66  1  0
 31 67  1  0
 32 68  1  0
 33 69  1  0
 34 70  1  0
 36 71  1  0
 38 72  1  0
 42 73  1  0
 45 74  1  0
 45 75  1  0
M  CHG  3   5  -1  22   1  24  -1
M  END
>  <EmbedRMS>  (246) 
0.074161811695

$$$$

     RDKit          3D

 75 78  0  0  0  0  0  0  0  0999 V2000
    9.4315   42.9406   34.3432 C   0  0  0  0  0  0  0  0  0  0  0  0
   10.4886   43.0413   35.0291 O   0  0  0  0  0  0  0  0  0  0  0  0
    8.8565   41.7123   34.0289 O   0  0  0  0  0  0  0  0  0  0  0  0
    9.4949   40.2159   34.4680 P   0  0  0  0  0  0  0  0  0  0  0  0
    9.7313   40.1740   36.1291 O   0  0  0  0  0  0  0  0  0  0  0  0
    8.7479   44.1340   33.7708 C   0  0  1  0  0  0  0  0  0  0  0  0
    9.2991   45.3653   34.3374 N   0  0  0  0  0  0  0  0  0  0  0  0
    8.8902   44.0516   32.2298 C   0  0  0  0  0  0  0  0  0  0  0  0
    8.2028   45.1727   31.4432 C   0  0  0  0  0  0  0  0  0  0  0  0
    6.6657   45.1075   31.4891 C   0  0  0  0  0  0  0  0  0  0  0  0
    6.0286   46.3263   30.8158 C   0  0  0  0  0  0  0  0  0  0  0  0
    6.5119   47.5661   31.4248 N   0  0  0  0  0  0  0  0  0  0  0  0
    7.2299   48.5520   30.6732 C   0  0  0  0  0  0  0  0  0  0  0  0
    7.5316   49.8116   31.2078 O   0  0  0  0  0  0  0  0  0  0  0  0
    7.6006   48.2985   29.4976 O   0  0  0  0  0  0  0  0  0  0  0  0
    7.1542   50.2558   32.5103 C   0  0  0  0  0  0  0  0  0  0  0  0
    8.0376   49.6422   33.5741 C   0  0  0  0  0  0  0  0  0  0  0  0
    9.4260   49.5924   33.3502 C   0  0  0  0  0  0  0  0  0  0  0  0
    7.5164   49.1295   34.7903 C   0  0  0  0  0  0  0  0  0  0  0  0
   10.2797   49.0126   34.2898 C   0  0  0  0  0  0  0  0  0  0  0  0
    8.3906   48.5390   35.7197 C   0  0  0  0  0  0  0  0  0  0  0  0
    6.1213   49.2302   35.1138 N   0  0  0  0  0  0  0  0  0  0  0  0
    9.7627   48.4840   35.4710 C   0  0  0  0  0  0  0  0  0  0  0  0
    5.4770   50.4413   35.0095 O   0  0  0  0  0  0  0  0  0  0  0  0
    5.5488   48.2909   35.7040 O   0  0  0  0  0  0  0  0  0  0  0  0
    8.5375   39.1401   34.0129 O   0  0  0  0  0  0  0  0  0  0  0  0
   10.9805   40.0886   33.6834 O   0  0  0  0  0  0  0  0  0  0  0  0
   10.8021   40.0896   32.2836 C   0  0  0  0  0  0  0  0  0  0  0  0
   11.5900   38.9179   31.7007 C   0  0  0  0  0  0  0  0  0  0  0  0
   12.9224   38.9391   32.1711 O   0  0  0  0  0  0  0  0  0  0  0  0
   11.0052   37.5677   32.0966 C   0  0  0  0  0  0  0  0  0  0  0  0
   13.3518   37.5910   32.2610 C   0  0  0  0  0  0  0  0  0  0  0  0
    9.9381   37.1796   31.2733 O   0  0  0  0  0  0  0  0  0  0  0  0
   12.1912   36.6690   31.9043 C   0  0  0  0  0  0  0  0  0  0  0  0
   13.8027   37.2968   33.6192 N   0  0  0  0  0  0  0  0  0  0  0  0
   12.2877   36.2854   30.5568 O   0  0  0  0  0  0  0  0  0  0  0  0
   14.7928   36.4724   33.9861 C   0  0  0  0  0  0  0  0  0  0  0  0
   13.2751   37.7297   34.7941 C   0  0  0  0  0  0  0  0  0  0  0  0
   15.6239   35.7581   33.1859 N   0  0  0  0  0  0  0  0  0  0  0  0
   14.8726   36.4408   35.3329 C   0  0  0  0  0  0  0  0  0  0  0  0
   13.9209   37.2262   35.8807 N   0  0  0  0  0  0  0  0  0  0  0  0
   16.5870   34.9921   33.7801 C   0  0  0  0  0  0  0  0  0  0  0  0
   15.8576   35.6716   35.9442 C   0  0  0  0  0  0  0  0  0  0  0  0
   16.7024   34.9584   35.1438 N   0  0  0  0  0  0  0  0  0  0  0  0
   16.0101   35.6383   37.3563 N   0  0  0  0  0  0  0  0  0  0  0  0
    7.6757   44.0592   34.0522 H   0  0  0  0  0  0  0  0  0  0  0  0
   10.2129   45.5870   33.8783 H   0  0  0  0  0  0  0  0  0  0  0  0
    8.6408   46.1491   34.1275 H   0  0  0  0  0  0  0  0  0  0  0  0
    8.4849   43.0817   31.8643 H   0  0  0  0  0  0  0  0  0  0  0  0
    9.9721   44.0651   31.9681 H   0  0  0  0  0  0  0  0  0  0  0  0
    8.5735   46.1496   31.8160 H   0  0  0  0  0  0  0  0  0  0  0  0
    8.5203   45.0962   30.3802 H   0  0  0  0  0  0  0  0  0  0  0  0
    6.3164   45.0779   32.5420 H   0  0  0  0  0  0  0  0  0  0  0  0
    6.3154   44.1821   30.9827 H   0  0  0  0  0  0  0  0  0  0  0  0
    4.9255   46.2728   30.9366 H   0  0  0  0  0  0  0  0  0  0  0  0
    6.2429   46.2933   29.7261 H   0  0  0  0  0  0  0  0  0  0  0  0
    6.2943   47.7260   32.4325 H   0  0  0  0  0  0  0  0  0  0  0  0
    6.0762   50.0492   32.6649 H   0  0  0  0  0  0  0  0  0  0  0  0
    7.2880   51.3569   32.5502 H   0  0  0  0  0  0  0  0  0  0  0  0
    9.8495   49.9967   32.4389 H   0  0  0  0  0  0  0  0  0  0  0  0
   11.3446   48.9721   34.1006 H   0  0  0  0  0  0  0  0  0  0  0  0
    8.0090   48.1402   36.6512 H   0  0  0  0  0  0  0  0  0  0  0  0
   10.4264   48.0330   36.1973 H   0  0  0  0  0  0  0  0  0  0  0  0
   11.2238   41.0358   31.8822 H   0  0  0  0  0  0  0  0  0  0  0  0
    9.7472   40.0309   31.9257 H   0  0  0  0  0  0  0  0  0  0  0  0
   11.5999   39.0159   30.5905 H   0  0  0  0  0  0  0  0  0  0  0  0
   10.7034   37.5451   33.1703 H   0  0  0  0  0  0  0  0  0  0  0  0
   14.1992   37.4424   31.5548 H   0  0  0  0  0  0  0  0  0  0  0  0
    9.1370   37.6635   31.6025 H   0  0  0  0  0  0  0  0  0  0  0  0
   12.1204   35.7713   32.5637 H   0  0  0  0  0  0  0  0  0  0  0  0
   12.9456   35.5426   30.5221 H   0  0  0  0  0  0  0  0  0  0  0  0
   12.4322   38.3989   34.8700 H   0  0  0  0  0  0  0  0  0  0  0  0
   17.2664   34.4142   33.1690 H   0  0  0  0  0  0  0  0  0  0  0  0
   16.7636   35.0598   37.7895 H   0  0  0  0  0  0  0  0  0  0  0  0
   15.3759   36.1865   37.9790 H   0  0  0  0  0  0  0  0  0  0  0  0
  1  2  2  0
  1  3  1  0
  3  4  1  0
  4  5  1  0
  6  1  1  0
  7  6  1  0
  6  8  1  0
  8  9  1  0
  9 10  1  0
 10 11  1  0
 11 12  1  0
 12 13  1  0
 13 14  1  0
 13 15  2  0
 14 16  1  0
 16 17  1  0
 17 18  2  0
 19 17  1  0
 18 20  1  0
 21 19  2  0
 19 22  1  0
 20 23  2  0
 23 21  1  0
 22 24  1  0
 22 25  2  0
  4 26  2  0
  4 27  1  0
 28 27  1  0
 28 29  1  0
 29 30  1  0
 29 31  1  0
 30 32  1  0
 31 33  1  0
 31 34  1  0
 34 32  1  0
 32 35  1  0
 34 36  1  0
 37 35  1  0
 38 35  1  0
 39 37  2  0
 37 40  1  0
 41 38  2  0
 42 39  1  0
 40 43  2  0
 40 41  1  0
 44 42  2  0
 44 43  1  0
 43 45  1  0
  6 46  1  6
  7 47  1  0
  7 48  1  0
  8 49  1  0
  8 50  1  0
  9 51  1  0
  9 52  1  0
 10 53  1  0
 10 54  1  0
 11 55  1  0
 11 56  1  0
 12 57  1  0
 16 58  1  0
 16 59  1  0
 18 60  1  0
 20 61  1  0
 21 62  1  0
 23 63  1  0
 28 64  1  0
 28 65  1  0
 29 66  1  0
 31 67  1  0
 32 68  1  0
 33 69  1  0
 34 70  1  0
 36 71  1  0
 38 72  1  0
 42 73  1  0
 45 74  1  0
 45 75  1  0
M  CHG  3   5  -1  22   1  24  -1
M  END
>  <EmbedRMS>  (247) 
0.0730734395724

$$$$

     RDKit          3D

 75 78  0  0  0  0  0  0  0  0999 V2000
    9.4337   42.9358   34.3453 C   0  0  0  0  0  0  0  0  0  0  0  0
   10.4911   43.0321   35.0311 O   0  0  0  0  0  0  0  0  0  0  0  0
    8.8562   41.7099   34.0291 O   0  0  0  0  0  0  0  0  0  0  0  0
    9.4944   40.2139   34.4679 P   0  0  0  0  0  0  0  0  0  0  0  0
    9.7307   40.1727   36.1290 O   0  0  0  0  0  0  0  0  0  0  0  0
    8.7513   44.1343   33.7741 C   0  0  1  0  0  0  0  0  0  0  0  0
    9.2988   45.3795   34.3141 N   0  0  0  0  0  0  0  0  0  0  0  0
    8.8892   44.0541   32.2359 C   0  0  0  0  0  0  0  0  0  0  0  0
    8.2033   45.1860   31.4645 C   0  0  0  0  0  0  0  0  0  0  0  0
    6.6662   45.1074   31.4872 C   0  0  0  0  0  0  0  0  0  0  0  0
    6.0295   46.3233   30.8071 C   0  0  0  0  0  0  0  0  0  0  0  0
    6.4994   47.5672   31.4181 N   0  0  0  0  0  0  0  0  0  0  0  0
    7.2381   48.5462   30.6789 C   0  0  0  0  0  0  0  0  0  0  0  0
    7.5778   49.7905   31.2264 O   0  0  0  0  0  0  0  0  0  0  0  0
    7.5983   48.2991   29.4984 O   0  0  0  0  0  0  0  0  0  0  0  0
    7.2754   50.2354   32.5477 C   0  0  0  0  0  0  0  0  0  0  0  0
    8.1795   49.5931   33.5767 C   0  0  0  0  0  0  0  0  0  0  0  0
    7.6018   48.7741   34.5659 C   0  0  0  0  0  0  0  0  0  0  0  0
    9.5688   49.8842   33.6498 C   0  0  0  0  0  0  0  0  0  0  0  0
    8.3810   48.2245   35.5837 C   0  0  0  0  0  0  0  0  0  0  0  0
   10.3354   49.3206   34.6856 C   0  0  0  0  0  0  0  0  0  0  0  0
   10.2048   50.7936   32.7359 N   0  0  0  0  0  0  0  0  0  0  0  0
    9.7468   48.4906   35.6392 C   0  0  0  0  0  0  0  0  0  0  0  0
   10.0530   50.6426   31.3784 O   0  0  0  0  0  0  0  0  0  0  0  0
   11.0647   51.5950   33.1564 O   0  0  0  0  0  0  0  0  0  0  0  0
    8.5372   39.1383   34.0124 O   0  0  0  0  0  0  0  0  0  0  0  0
   10.9804   40.0879   33.6837 O   0  0  0  0  0  0  0  0  0  0  0  0
   10.8026   40.0899   32.2839 C   0  0  0  0  0  0  0  0  0  0  0  0
   11.5889   38.9174   31.7007 C   0  0  0  0  0  0  0  0  0  0  0  0
   12.9220   38.9373   32.1692 O   0  0  0  0  0  0  0  0  0  0  0  0
   11.0028   37.5682   32.0980 C   0  0  0  0  0  0  0  0  0  0  0  0
   13.3496   37.5885   32.2601 C   0  0  0  0  0  0  0  0  0  0  0  0
    9.9343   37.1822   31.2756 O   0  0  0  0  0  0  0  0  0  0  0  0
   12.1891   36.6677   31.9049 C   0  0  0  0  0  0  0  0  0  0  0  0
   13.8025   37.2965   33.6186 N   0  0  0  0  0  0  0  0  0  0  0  0
   12.2991   36.2867   30.5567 O   0  0  0  0  0  0  0  0  0  0  0  0
   14.7929   36.4725   33.9858 C   0  0  0  0  0  0  0  0  0  0  0  0
   13.2749   37.7294   34.7935 C   0  0  0  0  0  0  0  0  0  0  0  0
   15.6240   35.7580   33.1858 N   0  0  0  0  0  0  0  0  0  0  0  0
   14.8727   36.4411   35.3327 C   0  0  0  0  0  0  0  0  0  0  0  0
   13.9208   37.2263   35.8803 N   0  0  0  0  0  0  0  0  0  0  0  0
   16.5871   34.9921   33.7801 C   0  0  0  0  0  0  0  0  0  0  0  0
   15.8576   35.6718   35.9441 C   0  0  0  0  0  0  0  0  0  0  0  0
   16.7024   34.9584   35.1438 N   0  0  0  0  0  0  0  0  0  0  0  0
   16.0099   35.6384   37.3562 N   0  0  0  0  0  0  0  0  0  0  0  0
    7.6779   44.0716   34.0513 H   0  0  0  0  0  0  0  0  0  0  0  0
    9.2008   45.3693   35.3558 H   0  0  0  0  0  0  0  0  0  0  0  0
   10.3184   45.4447   34.0878 H   0  0  0  0  0  0  0  0  0  0  0  0
    8.4805   43.0873   31.8658 H   0  0  0  0  0  0  0  0  0  0  0  0
    9.9708   44.0690   31.9734 H   0  0  0  0  0  0  0  0  0  0  0  0
    8.5535   46.1543   31.8810 H   0  0  0  0  0  0  0  0  0  0  0  0
    8.5402   45.1435   30.4056 H   0  0  0  0  0  0  0  0  0  0  0  0
    6.3314   44.1812   30.9717 H   0  0  0  0  0  0  0  0  0  0  0  0
    6.3019   45.0707   32.5349 H   0  0  0  0  0  0  0  0  0  0  0  0
    6.2562   46.2891   29.7200 H   0  0  0  0  0  0  0  0  0  0  0  0
    4.9253   46.2640   30.9141 H   0  0  0  0  0  0  0  0  0  0  0  0
    6.2285   47.7456   32.4070 H   0  0  0  0  0  0  0  0  0  0  0  0
    7.4225   51.3350   32.5908 H   0  0  0  0  0  0  0  0  0  0  0  0
    6.1998   50.0572   32.7651 H   0  0  0  0  0  0  0  0  0  0  0  0
    6.5378   48.5751   34.5674 H   0  0  0  0  0  0  0  0  0  0  0  0
    7.9227   47.5942   36.3349 H   0  0  0  0  0  0  0  0  0  0  0  0
   11.3958   49.5289   34.7547 H   0  0  0  0  0  0  0  0  0  0  0  0
   10.3492   48.0619   36.4297 H   0  0  0  0  0  0  0  0  0  0  0  0
    9.7477   40.0332   31.9255 H   0  0  0  0  0  0  0  0  0  0  0  0
   11.2260   41.0357   31.8831 H   0  0  0  0  0  0  0  0  0  0  0  0
   11.5975   39.0148   30.5904 H   0  0  0  0  0  0  0  0  0  0  0  0
   10.7024   37.5455   33.1719 H   0  0  0  0  0  0  0  0  0  0  0  0
   14.1957   37.4365   31.5528 H   0  0  0  0  0  0  0  0  0  0  0  0
    9.1340   37.6659   31.6069 H   0  0  0  0  0  0  0  0  0  0  0  0
   12.1381   35.7717   32.5697 H   0  0  0  0  0  0  0  0  0  0  0  0
   11.7707   35.4530   30.4496 H   0  0  0  0  0  0  0  0  0  0  0  0
   12.4315   38.3980   34.8694 H   0  0  0  0  0  0  0  0  0  0  0  0
   17.2665   34.4140   33.1691 H   0  0  0  0  0  0  0  0  0  0  0  0
   16.7633   35.0599   37.7895 H   0  0  0  0  0  0  0  0  0  0  0  0
   15.3757   36.1868   37.9789 H   0  0  0  0  0  0  0  0  0  0  0  0
  1  2  2  0
  1  3  1  0
  3  4  1  0
  4  5  1  0
  6  1  1  0
  7  6  1  0
  6  8  1  0
  8  9  1  0
  9 10  1  0
 10 11  1  0
 11 12  1  0
 12 13  1  0
 13 14  1  0
 13 15  2  0
 14 16  1  0
 16 17  1  0
 17 18  2  0
 19 17  1  0
 18 20  1  0
 21 19  2  0
 19 22  1  0
 20 23  2  0
 23 21  1  0
 22 24  1  0
 22 25  2  0
  4 26  2  0
  4 27  1  0
 28 27  1  0
 28 29  1  0
 29 30  1  0
 29 31  1  0
 30 32  1  0
 31 33  1  0
 31 34  1  0
 34 32  1  0
 32 35  1  0
 34 36  1  0
 37 35  1  0
 38 35  1  0
 39 37  2  0
 37 40  1  0
 41 38  2  0
 42 39  1  0
 40 43  2  0
 40 41  1  0
 44 42  2  0
 44 43  1  0
 43 45  1  0
  6 46  1  6
  7 47  1  0
  7 48  1  0
  8 49  1  0
  8 50  1  0
  9 51  1  0
  9 52  1  0
 10 53  1  0
 10 54  1  0
 11 55  1  0
 11 56  1  0
 12 57  1  0
 16 58  1  0
 16 59  1  0
 18 60  1  0
 20 61  1  0
 21 62  1  0
 23 63  1  0
 28 64  1  0
 28 65  1  0
 29 66  1  0
 31 67  1  0
 32 68  1  0
 33 69  1  0
 34 70  1  0
 36 71  1  0
 38 72  1  0
 42 73  1  0
 45 74  1  0
 45 75  1  0
M  CHG  3   5  -1  22   1  24  -1
M  END
>  <EmbedRMS>  (248) 
0.0745435410649

$$$$

     RDKit          3D

 75 78  0  0  0  0  0  0  0  0999 V2000
    9.4315   42.9418   34.3430 C   0  0  0  0  0  0  0  0  0  0  0  0
   10.4886   43.0414   35.0291 O   0  0  0  0  0  0  0  0  0  0  0  0
    8.8562   41.7134   34.0282 O   0  0  0  0  0  0  0  0  0  0  0  0
    9.4943   40.2165   34.4675 P   0  0  0  0  0  0  0  0  0  0  0  0
    9.7311   40.1744   36.1286 O   0  0  0  0  0  0  0  0  0  0  0  0
    8.7489   44.1373   33.7716 C   0  0  1  0  0  0  0  0  0  0  0  0
    9.3048   45.3677   34.3385 N   0  0  0  0  0  0  0  0  0  0  0  0
    8.8894   44.0545   32.2302 C   0  0  0  0  0  0  0  0  0  0  0  0
    8.2008   45.1755   31.4440 C   0  0  0  0  0  0  0  0  0  0  0  0
    6.6633   45.1080   31.4882 C   0  0  0  0  0  0  0  0  0  0  0  0
    6.0226   46.3222   30.8081 C   0  0  0  0  0  0  0  0  0  0  0  0
    6.4953   47.5659   31.4150 N   0  0  0  0  0  0  0  0  0  0  0  0
    7.2662   48.5244   30.6941 C   0  0  0  0  0  0  0  0  0  0  0  0
    7.7101   49.6736   31.3554 O   0  0  0  0  0  0  0  0  0  0  0  0
    7.5873   48.3125   29.4936 O   0  0  0  0  0  0  0  0  0  0  0  0
    8.7213   50.5361   30.8389 C   0  0  0  0  0  0  0  0  0  0  0  0
   10.0643   49.8430   30.8550 C   0  0  0  0  0  0  0  0  0  0  0  0
   10.5905   49.3717   29.6378 C   0  0  0  0  0  0  0  0  0  0  0  0
   10.8176   49.6721   32.0486 C   0  0  0  0  0  0  0  0  0  0  0  0
   11.8328   48.7387   29.5948 C   0  0  0  0  0  0  0  0  0  0  0  0
   12.0744   49.0423   31.9787 C   0  0  0  0  0  0  0  0  0  0  0  0
   10.3492   50.1511   33.3235 N   0  0  0  0  0  0  0  0  0  0  0  0
   12.5736   48.5748   30.7627 C   0  0  0  0  0  0  0  0  0  0  0  0
    9.0275   50.0295   33.6821 O   0  0  0  0  0  0  0  0  0  0  0  0
   11.1677   50.5369   34.1838 O   0  0  0  0  0  0  0  0  0  0  0  0
    8.5372   39.1404   34.0124 O   0  0  0  0  0  0  0  0  0  0  0  0
   10.9795   40.0878   33.6825 O   0  0  0  0  0  0  0  0  0  0  0  0
   10.7997   40.0901   32.2829 C   0  0  0  0  0  0  0  0  0  0  0  0
   11.5968   38.9275   31.6963 C   0  0  0  0  0  0  0  0  0  0  0  0
   12.9242   38.9426   32.1785 O   0  0  0  0  0  0  0  0  0  0  0  0
   11.0086   37.5714   32.0781 C   0  0  0  0  0  0  0  0  0  0  0  0
   13.3528   37.5929   32.2623 C   0  0  0  0  0  0  0  0  0  0  0  0
    9.9098   37.1771   31.2926 O   0  0  0  0  0  0  0  0  0  0  0  0
   12.1942   36.6684   31.8995 C   0  0  0  0  0  0  0  0  0  0  0  0
   13.8019   37.2950   33.6199 N   0  0  0  0  0  0  0  0  0  0  0  0
   12.3026   36.2773   30.5559 O   0  0  0  0  0  0  0  0  0  0  0  0
   14.7926   36.4715   33.9865 C   0  0  0  0  0  0  0  0  0  0  0  0
   13.2749   37.7286   34.7946 C   0  0  0  0  0  0  0  0  0  0  0  0
   15.6239   35.7577   33.1860 N   0  0  0  0  0  0  0  0  0  0  0  0
   14.8727   36.4403   35.3332 C   0  0  0  0  0  0  0  0  0  0  0  0
   13.9210   37.2257   35.8812 N   0  0  0  0  0  0  0  0  0  0  0  0
   16.5873   34.9921   33.7802 C   0  0  0  0  0  0  0  0  0  0  0  0
   15.8579   35.6714   35.9444 C   0  0  0  0  0  0  0  0  0  0  0  0
   16.7028   34.9583   35.1439 N   0  0  0  0  0  0  0  0  0  0  0  0
   16.0104   35.6382   37.3564 N   0  0  0  0  0  0  0  0  0  0  0  0
    7.6768   44.0651   34.0542 H   0  0  0  0  0  0  0  0  0  0  0  0
    8.6477   46.1574   34.1438 H   0  0  0  0  0  0  0  0  0  0  0  0
   10.2155   45.5901   33.8736 H   0  0  0  0  0  0  0  0  0  0  0  0
    8.4838   43.0844   31.8653 H   0  0  0  0  0  0  0  0  0  0  0  0
    9.9710   44.0680   31.9672 H   0  0  0  0  0  0  0  0  0  0  0  0
    8.5690   46.1525   31.8191 H   0  0  0  0  0  0  0  0  0  0  0  0
    8.5200   45.1014   30.3813 H   0  0  0  0  0  0  0  0  0  0  0  0
    6.3129   45.0814   32.5409 H   0  0  0  0  0  0  0  0  0  0  0  0
    6.3158   44.1796   30.9852 H   0  0  0  0  0  0  0  0  0  0  0  0
    4.9190   46.2635   30.9210 H   0  0  0  0  0  0  0  0  0  0  0  0
    6.2453   46.2881   29.7200 H   0  0  0  0  0  0  0  0  0  0  0  0
    6.2757   47.7509   32.4197 H   0  0  0  0  0  0  0  0  0  0  0  0
    8.7699   51.4581   31.4553 H   0  0  0  0  0  0  0  0  0  0  0  0
    8.4420   50.8579   29.8114 H   0  0  0  0  0  0  0  0  0  0  0  0
   10.0368   49.4936   28.7151 H   0  0  0  0  0  0  0  0  0  0  0  0
   12.2235   48.3776   28.6521 H   0  0  0  0  0  0  0  0  0  0  0  0
   12.6663   48.9011   32.8743 H   0  0  0  0  0  0  0  0  0  0  0  0
   13.5384   48.0855   30.7264 H   0  0  0  0  0  0  0  0  0  0  0  0
    9.7449   40.0146   31.9262 H   0  0  0  0  0  0  0  0  0  0  0  0
   11.2095   41.0420   31.8824 H   0  0  0  0  0  0  0  0  0  0  0  0
   11.6266   39.0456   30.5888 H   0  0  0  0  0  0  0  0  0  0  0  0
   10.7064   37.5576   33.1485 H   0  0  0  0  0  0  0  0  0  0  0  0
   14.2020   37.4484   31.5574 H   0  0  0  0  0  0  0  0  0  0  0  0
   10.0952   37.3992   30.3433 H   0  0  0  0  0  0  0  0  0  0  0  0
   12.1162   35.7745   32.5634 H   0  0  0  0  0  0  0  0  0  0  0  0
   12.9614   35.5350   30.5312 H   0  0  0  0  0  0  0  0  0  0  0  0
   12.4321   38.3982   34.8705 H   0  0  0  0  0  0  0  0  0  0  0  0
   17.2669   34.4144   33.1690 H   0  0  0  0  0  0  0  0  0  0  0  0
   16.7641   35.0599   37.7896 H   0  0  0  0  0  0  0  0  0  0  0  0
   15.3761   36.1862   37.9791 H   0  0  0  0  0  0  0  0  0  0  0  0
  1  2  2  0
  1  3  1  0
  3  4  1  0
  4  5  1  0
  6  1  1  0
  7  6  1  0
  6  8  1  0
  8  9  1  0
  9 10  1  0
 10 11  1  0
 11 12  1  0
 12 13  1  0
 13 14  1  0
 13 15  2  0
 14 16  1  0
 16 17  1  0
 17 18  2  0
 19 17  1  0
 18 20  1  0
 21 19  2  0
 19 22  1  0
 20 23  2  0
 23 21  1  0
 22 24  1  0
 22 25  2  0
  4 26  2  0
  4 27  1  0
 28 27  1  0
 28 29  1  0
 29 30  1  0
 29 31  1  0
 30 32  1  0
 31 33  1  0
 31 34  1  0
 34 32  1  0
 32 35  1  0
 34 36  1  0
 37 35  1  0
 38 35  1  0
 39 37  2  0
 37 40  1  0
 41 38  2  0
 42 39  1  0
 40 43  2  0
 40 41  1  0
 44 42  2  0
 44 43  1  0
 43 45  1  0
  6 46  1  6
  7 47  1  0
  7 48  1  0
  8 49  1  0
  8 50  1  0
  9 51  1  0
  9 52  1  0
 10 53  1  0
 10 54  1  0
 11 55  1  0
 11 56  1  0
 12 57  1  0
 16 58  1  0
 16 59  1  0
 18 60  1  0
 20 61  1  0
 21 62  1  0
 23 63  1  0
 28 64  1  0
 28 65  1  0
 29 66  1  0
 31 67  1  0
 32 68  1  0
 33 69  1  0
 34 70  1  0
 36 71  1  0
 38 72  1  0
 42 73  1  0
 45 74  1  0
 45 75  1  0
M  CHG  3   5  -1  22   1  24  -1
M  END
>  <EmbedRMS>  (249) 
0.0745686560541

$$$$

     RDKit          3D

 75 78  0  0  0  0  0  0  0  0999 V2000
    9.4330   42.9366   34.3462 C   0  0  0  0  0  0  0  0  0  0  0  0
   10.4906   43.0331   35.0318 O   0  0  0  0  0  0  0  0  0  0  0  0
    8.8558   41.7104   34.0299 O   0  0  0  0  0  0  0  0  0  0  0  0
    9.4944   40.2142   34.4677 P   0  0  0  0  0  0  0  0  0  0  0  0
    9.7317   40.1724   36.1287 O   0  0  0  0  0  0  0  0  0  0  0  0
    8.7504   44.1350   33.7741 C   0  0  1  0  0  0  0  0  0  0  0  0
    9.2961   45.3823   34.3134 N   0  0  0  0  0  0  0  0  0  0  0  0
    8.8892   44.0530   32.2359 C   0  0  0  0  0  0  0  0  0  0  0  0
    8.2030   45.1829   31.4618 C   0  0  0  0  0  0  0  0  0  0  0  0
    6.6656   45.1042   31.4833 C   0  0  0  0  0  0  0  0  0  0  0  0
    6.0283   46.3232   30.8085 C   0  0  0  0  0  0  0  0  0  0  0  0
    6.5048   47.5635   31.4211 N   0  0  0  0  0  0  0  0  0  0  0  0
    7.2488   48.5412   30.6836 C   0  0  0  0  0  0  0  0  0  0  0  0
    7.6363   49.7555   31.2625 O   0  0  0  0  0  0  0  0  0  0  0  0
    7.5887   48.3085   29.4943 O   0  0  0  0  0  0  0  0  0  0  0  0
    7.3447   50.1255   32.6075 C   0  0  0  0  0  0  0  0  0  0  0  0
    7.9550   51.4733   32.9059 C   0  0  0  0  0  0  0  0  0  0  0  0
    9.3150   51.6701   32.6033 C   0  0  0  0  0  0  0  0  0  0  0  0
    7.2059   52.5497   33.4491 C   0  0  0  0  0  0  0  0  0  0  0  0
    9.9131   52.9177   32.7867 C   0  0  0  0  0  0  0  0  0  0  0  0
    7.8207   53.8043   33.6081 C   0  0  0  0  0  0  0  0  0  0  0  0
    5.8457   52.3818   33.8770 N   0  0  0  0  0  0  0  0  0  0  0  0
    9.1645   53.9857   33.2779 C   0  0  0  0  0  0  0  0  0  0  0  0
    5.5146   51.3450   34.7188 O   0  0  0  0  0  0  0  0  0  0  0  0
    5.0162   53.2961   33.6917 O   0  0  0  0  0  0  0  0  0  0  0  0
    8.5373   39.1383   34.0122 O   0  0  0  0  0  0  0  0  0  0  0  0
   10.9795   40.0890   33.6815 O   0  0  0  0  0  0  0  0  0  0  0  0
   10.7982   40.0848   32.2819 C   0  0  0  0  0  0  0  0  0  0  0  0
   11.5886   38.9142   31.7009 C   0  0  0  0  0  0  0  0  0  0  0  0
   12.9213   38.9367   32.1698 O   0  0  0  0  0  0  0  0  0  0  0  0
   11.0047   37.5660   32.0990 C   0  0  0  0  0  0  0  0  0  0  0  0
   13.3510   37.5885   32.2601 C   0  0  0  0  0  0  0  0  0  0  0  0
    9.9296   37.1961   31.2780 O   0  0  0  0  0  0  0  0  0  0  0  0
   12.1923   36.6658   31.9047 C   0  0  0  0  0  0  0  0  0  0  0  0
   13.8033   37.2966   33.6188 N   0  0  0  0  0  0  0  0  0  0  0  0
   12.3007   36.2865   30.5561 O   0  0  0  0  0  0  0  0  0  0  0  0
   14.7933   36.4724   33.9860 C   0  0  0  0  0  0  0  0  0  0  0  0
   13.2753   37.7296   34.7935 C   0  0  0  0  0  0  0  0  0  0  0  0
   15.6243   35.7579   33.1860 N   0  0  0  0  0  0  0  0  0  0  0  0
   14.8728   36.4410   35.3328 C   0  0  0  0  0  0  0  0  0  0  0  0
   13.9209   37.2263   35.8804 N   0  0  0  0  0  0  0  0  0  0  0  0
   16.5873   34.9919   33.7803 C   0  0  0  0  0  0  0  0  0  0  0  0
   15.8577   35.6716   35.9443 C   0  0  0  0  0  0  0  0  0  0  0  0
   16.7025   34.9583   35.1440 N   0  0  0  0  0  0  0  0  0  0  0  0
   16.0100   35.6384   37.3563 N   0  0  0  0  0  0  0  0  0  0  0  0
    7.6767   44.0710   34.0502 H   0  0  0  0  0  0  0  0  0  0  0  0
   10.3190   45.4409   34.1002 H   0  0  0  0  0  0  0  0  0  0  0  0
    9.1823   45.3824   35.3535 H   0  0  0  0  0  0  0  0  0  0  0  0
    8.4815   43.0854   31.8668 H   0  0  0  0  0  0  0  0  0  0  0  0
    9.9711   44.0683   31.9742 H   0  0  0  0  0  0  0  0  0  0  0  0
    8.5541   46.1514   31.8760 H   0  0  0  0  0  0  0  0  0  0  0  0
    8.5403   45.1381   30.4030 H   0  0  0  0  0  0  0  0  0  0  0  0
    6.3005   45.0620   32.5304 H   0  0  0  0  0  0  0  0  0  0  0  0
    6.3313   44.1802   30.9635 H   0  0  0  0  0  0  0  0  0  0  0  0
    4.9245   46.2666   30.9214 H   0  0  0  0  0  0  0  0  0  0  0  0
    6.2501   46.2921   29.7203 H   0  0  0  0  0  0  0  0  0  0  0  0
    6.2721   47.7257   32.4255 H   0  0  0  0  0  0  0  0  0  0  0  0
    7.7854   49.3781   33.3022 H   0  0  0  0  0  0  0  0  0  0  0  0
    6.2441   50.1323   32.7342 H   0  0  0  0  0  0  0  0  0  0  0  0
    9.9104   50.8568   32.2062 H   0  0  0  0  0  0  0  0  0  0  0  0
   10.9576   53.0582   32.5400 H   0  0  0  0  0  0  0  0  0  0  0  0
    7.2629   54.6379   34.0162 H   0  0  0  0  0  0  0  0  0  0  0  0
    9.6294   54.9535   33.4156 H   0  0  0  0  0  0  0  0  0  0  0  0
    9.7427   40.0141   31.9266 H   0  0  0  0  0  0  0  0  0  0  0  0
   11.2131   41.0320   31.8756 H   0  0  0  0  0  0  0  0  0  0  0  0
   11.5980   39.0107   30.5904 H   0  0  0  0  0  0  0  0  0  0  0  0
   10.7009   37.5602   33.1721 H   0  0  0  0  0  0  0  0  0  0  0  0
   14.1977   37.4380   31.5532 H   0  0  0  0  0  0  0  0  0  0  0  0
    9.5181   36.3960   31.6977 H   0  0  0  0  0  0  0  0  0  0  0  0
   12.1419   35.7697   32.5692 H   0  0  0  0  0  0  0  0  0  0  0  0
   11.7730   35.4523   30.4489 H   0  0  0  0  0  0  0  0  0  0  0  0
   12.4321   38.3984   34.8692 H   0  0  0  0  0  0  0  0  0  0  0  0
   17.2667   34.4138   33.1693 H   0  0  0  0  0  0  0  0  0  0  0  0
   15.3758   36.1867   37.9790 H   0  0  0  0  0  0  0  0  0  0  0  0
   16.7634   35.0598   37.7897 H   0  0  0  0  0  0  0  0  0  0  0  0
  1  2  2  0
  1  3  1  0
  3  4  1  0
  4  5  1  0
  6  1  1  0
  7  6  1  0
  6  8  1  0
  8  9  1  0
  9 10  1  0
 10 11  1  0
 11 12  1  0
 12 13  1  0
 13 14  1  0
 13 15  2  0
 14 16  1  0
 16 17  1  0
 17 18  2  0
 19 17  1  0
 18 20  1  0
 21 19  2  0
 19 22  1  0
 20 23  2  0
 23 21  1  0
 22 24  1  0
 22 25  2  0
  4 26  2  0
  4 27  1  0
 28 27  1  0
 28 29  1  0
 29 30  1  0
 29 31  1  0
 30 32  1  0
 31 33  1  0
 31 34  1  0
 34 32  1  0
 32 35  1  0
 34 36  1  0
 37 35  1  0
 38 35  1  0
 39 37  2  0
 37 40  1  0
 41 38  2  0
 42 39  1  0
 40 43  2  0
 40 41  1  0
 44 42  2  0
 44 43  1  0
 43 45  1  0
  6 46  1  6
  7 47  1  0
  7 48  1  0
  8 49  1  0
  8 50  1  0
  9 51  1  0
  9 52  1  0
 10 53  1  0
 10 54  1  0
 11 55  1  0
 11 56  1  0
 12 57  1  0
 16 58  1  0
 16 59  1  0
 18 60  1  0
 20 61  1  0
 21 62  1  0
 23 63  1  0
 28 64  1  0
 28 65  1  0
 29 66  1  0
 31 67  1  0
 32 68  1  0
 33 69  1  0
 34 70  1  0
 36 71  1  0
 38 72  1  0
 42 73  1  0
 45 74  1  0
 45 75  1  0
M  CHG  3   5  -1  22   1  24  -1
M  END
>  <EmbedRMS>  (250) 
0.0744844619879

$$$$

     RDKit          3D

 75 78  0  0  0  0  0  0  0  0999 V2000
    9.4333   42.9372   34.3459 C   0  0  0  0  0  0  0  0  0  0  0  0
   10.4908   43.0335   35.0315 O   0  0  0  0  0  0  0  0  0  0  0  0
    8.8555   41.7110   34.0306 O   0  0  0  0  0  0  0  0  0  0  0  0
    9.4929   40.2146   34.4705 P   0  0  0  0  0  0  0  0  0  0  0  0
    9.7295   40.1730   36.1314 O   0  0  0  0  0  0  0  0  0  0  0  0
    8.7509   44.1358   33.7737 C   0  0  1  0  0  0  0  0  0  0  0  0
    9.2966   45.3830   34.3132 N   0  0  0  0  0  0  0  0  0  0  0  0
    8.8895   44.0548   32.2354 C   0  0  0  0  0  0  0  0  0  0  0  0
    8.2023   45.1850   31.4619 C   0  0  0  0  0  0  0  0  0  0  0  0
    6.6647   45.1058   31.4852 C   0  0  0  0  0  0  0  0  0  0  0  0
    6.0239   46.3217   30.8075 C   0  0  0  0  0  0  0  0  0  0  0  0
    6.4969   47.5652   31.4152 N   0  0  0  0  0  0  0  0  0  0  0  0
    7.2611   48.5275   30.6919 C   0  0  0  0  0  0  0  0  0  0  0  0
    7.6842   49.6891   31.3457 O   0  0  0  0  0  0  0  0  0  0  0  0
    7.5885   48.3121   29.4937 O   0  0  0  0  0  0  0  0  0  0  0  0
    8.6477   50.5897   30.8030 C   0  0  0  0  0  0  0  0  0  0  0  0
   10.0170   49.9493   30.7790 C   0  0  0  0  0  0  0  0  0  0  0  0
   10.5383   49.5319   29.5402 C   0  0  0  0  0  0  0  0  0  0  0  0
   10.8001   49.7767   31.9550 C   0  0  0  0  0  0  0  0  0  0  0  0
   11.8041   48.9518   29.4573 C   0  0  0  0  0  0  0  0  0  0  0  0
   12.0792   49.2014   31.8438 C   0  0  0  0  0  0  0  0  0  0  0  0
   10.3447   50.2009   33.2544 N   0  0  0  0  0  0  0  0  0  0  0  0
   12.5732   48.7877   30.6065 C   0  0  0  0  0  0  0  0  0  0  0  0
   11.2592   50.5678   34.2151 O   0  0  0  0  0  0  0  0  0  0  0  0
    9.1455   50.0973   33.5818 O   0  0  0  0  0  0  0  0  0  0  0  0
    8.5365   39.1385   34.0139 O   0  0  0  0  0  0  0  0  0  0  0  0
   10.9785   40.0883   33.6869 O   0  0  0  0  0  0  0  0  0  0  0  0
   10.7974   40.0896   32.2882 C   0  0  0  0  0  0  0  0  0  0  0  0
   11.5882   38.9234   31.7043 C   0  0  0  0  0  0  0  0  0  0  0  0
   12.9230   38.9440   32.1728 O   0  0  0  0  0  0  0  0  0  0  0  0
   11.0048   37.5703   32.0916 C   0  0  0  0  0  0  0  0  0  0  0  0
   13.3570   37.5960   32.2595 C   0  0  0  0  0  0  0  0  0  0  0  0
    9.9332   37.1987   31.2676 O   0  0  0  0  0  0  0  0  0  0  0  0
   12.1965   36.6751   31.8949 C   0  0  0  0  0  0  0  0  0  0  0  0
   13.8037   37.2979   33.6187 N   0  0  0  0  0  0  0  0  0  0  0  0
   12.2934   36.2389   30.5581 O   0  0  0  0  0  0  0  0  0  0  0  0
   14.7929   36.4726   33.9860 C   0  0  0  0  0  0  0  0  0  0  0  0
   13.2755   37.7304   34.7934 C   0  0  0  0  0  0  0  0  0  0  0  0
   15.6244   35.7585   33.1859 N   0  0  0  0  0  0  0  0  0  0  0  0
   14.8722   36.4406   35.3328 C   0  0  0  0  0  0  0  0  0  0  0  0
   13.9205   37.2262   35.8803 N   0  0  0  0  0  0  0  0  0  0  0  0
   16.5872   34.9923   33.7802 C   0  0  0  0  0  0  0  0  0  0  0  0
   15.8573   35.6715   35.9442 C   0  0  0  0  0  0  0  0  0  0  0  0
   16.7023   34.9584   35.1439 N   0  0  0  0  0  0  0  0  0  0  0  0
   16.0098   35.6384   37.3563 N   0  0  0  0  0  0  0  0  0  0  0  0
    7.6773   44.0719   34.0499 H   0  0  0  0  0  0  0  0  0  0  0  0
   10.3191   45.4429   34.0979 H   0  0  0  0  0  0  0  0  0  0  0  0
    9.1848   45.3824   35.3535 H   0  0  0  0  0  0  0  0  0  0  0  0
    8.4823   43.0871   31.8658 H   0  0  0  0  0  0  0  0  0  0  0  0
    9.9713   44.0710   31.9735 H   0  0  0  0  0  0  0  0  0  0  0  0
    8.5535   46.1540   31.8756 H   0  0  0  0  0  0  0  0  0  0  0  0
    8.5387   45.1407   30.4028 H   0  0  0  0  0  0  0  0  0  0  0  0
    6.3011   45.0665   32.5329 H   0  0  0  0  0  0  0  0  0  0  0  0
    6.3306   44.1798   30.9689 H   0  0  0  0  0  0  0  0  0  0  0  0
    4.9203   46.2628   30.9201 H   0  0  0  0  0  0  0  0  0  0  0  0
    6.2467   46.2888   29.7194 H   0  0  0  0  0  0  0  0  0  0  0  0
    6.2752   47.7509   32.4193 H   0  0  0  0  0  0  0  0  0  0  0  0
    8.3261   50.9024   29.7851 H   0  0  0  0  0  0  0  0  0  0  0  0
    8.6791   51.5124   31.4194 H   0  0  0  0  0  0  0  0  0  0  0  0
    9.9625   49.6548   28.6311 H   0  0  0  0  0  0  0  0  0  0  0  0
   12.1907   48.6321   28.4981 H   0  0  0  0  0  0  0  0  0  0  0  0
   12.6945   49.0598   32.7232 H   0  0  0  0  0  0  0  0  0  0  0  0
   13.5563   48.3396   30.5390 H   0  0  0  0  0  0  0  0  0  0  0  0
   11.2114   41.0391   31.8862 H   0  0  0  0  0  0  0  0  0  0  0  0
    9.7422   40.0187   31.9314 H   0  0  0  0  0  0  0  0  0  0  0  0
   11.5932   39.0396   30.5966 H   0  0  0  0  0  0  0  0  0  0  0  0
   10.6986   37.5585   33.1640 H   0  0  0  0  0  0  0  0  0  0  0  0
   14.2072   37.4493   31.5564 H   0  0  0  0  0  0  0  0  0  0  0  0
    9.5321   36.3881   31.6771 H   0  0  0  0  0  0  0  0  0  0  0  0
   12.1344   35.7838   32.5583 H   0  0  0  0  0  0  0  0  0  0  0  0
   12.4641   37.0179   29.9674 H   0  0  0  0  0  0  0  0  0  0  0  0
   12.4333   38.4005   34.8692 H   0  0  0  0  0  0  0  0  0  0  0  0
   17.2668   34.4144   33.1692 H   0  0  0  0  0  0  0  0  0  0  0  0
   15.3755   36.1866   37.9789 H   0  0  0  0  0  0  0  0  0  0  0  0
   16.7634   35.0600   37.7896 H   0  0  0  0  0  0  0  0  0  0  0  0
  1  2  2  0
  1  3  1  0
  3  4  1  0
  4  5  1  0
  6  1  1  0
  7  6  1  0
  6  8  1  0
  8  9  1  0
  9 10  1  0
 10 11  1  0
 11 12  1  0
 12 13  1  0
 13 14  1  0
 13 15  2  0
 14 16  1  0
 16 17  1  0
 17 18  2  0
 19 17  1  0
 18 20  1  0
 21 19  2  0
 19 22  1  0
 20 23  2  0
 23 21  1  0
 22 24  1  0
 22 25  2  0
  4 26  2  0
  4 27  1  0
 28 27  1  0
 28 29  1  0
 29 30  1  0
 29 31  1  0
 30 32  1  0
 31 33  1  0
 31 34  1  0
 34 32  1  0
 32 35  1  0
 34 36  1  0
 37 35  1  0
 38 35  1  0
 39 37  2  0
 37 40  1  0
 41 38  2  0
 42 39  1  0
 40 43  2  0
 40 41  1  0
 44 42  2  0
 44 43  1  0
 43 45  1  0
  6 46  1  6
  7 47  1  0
  7 48  1  0
  8 49  1  0
  8 50  1  0
  9 51  1  0
  9 52  1  0
 10 53  1  0
 10 54  1  0
 11 55  1  0
 11 56  1  0
 12 57  1  0
 16 58  1  0
 16 59  1  0
 18 60  1  0
 20 61  1  0
 21 62  1  0
 23 63  1  0
 28 64  1  0
 28 65  1  0
 29 66  1  0
 31 67  1  0
 32 68  1  0
 33 69  1  0
 34 70  1  0
 36 71  1  0
 38 72  1  0
 42 73  1  0
 45 74  1  0
 45 75  1  0
M  CHG  3   5  -1  22   1  24  -1
M  END
>  <EmbedRMS>  (251) 
0.0764527198435

$$$$

     RDKit          3D

 75 78  0  0  0  0  0  0  0  0999 V2000
    9.4313   42.9413   34.3431 C   0  0  0  0  0  0  0  0  0  0  0  0
   10.4886   43.0411   35.0289 O   0  0  0  0  0  0  0  0  0  0  0  0
    8.8558   41.7130   34.0287 O   0  0  0  0  0  0  0  0  0  0  0  0
    9.4945   40.2164   34.4675 P   0  0  0  0  0  0  0  0  0  0  0  0
    9.7318   40.1742   36.1285 O   0  0  0  0  0  0  0  0  0  0  0  0
    8.7485   44.1364   33.7716 C   0  0  1  0  0  0  0  0  0  0  0  0
    9.3035   45.3665   34.3392 N   0  0  0  0  0  0  0  0  0  0  0  0
    8.8898   44.0541   32.2303 C   0  0  0  0  0  0  0  0  0  0  0  0
    8.2015   45.1755   31.4445 C   0  0  0  0  0  0  0  0  0  0  0  0
    6.6641   45.1081   31.4889 C   0  0  0  0  0  0  0  0  0  0  0  0
    6.0238   46.3231   30.8104 C   0  0  0  0  0  0  0  0  0  0  0  0
    6.4997   47.5663   31.4167 N   0  0  0  0  0  0  0  0  0  0  0  0
    7.2565   48.5309   30.6887 C   0  0  0  0  0  0  0  0  0  0  0  0
    7.6651   49.7031   31.3327 O   0  0  0  0  0  0  0  0  0  0  0  0
    7.5904   48.3097   29.4931 O   0  0  0  0  0  0  0  0  0  0  0  0
    8.5948   50.6216   30.7613 C   0  0  0  0  0  0  0  0  0  0  0  0
    9.9696   49.9980   30.6731 C   0  0  0  0  0  0  0  0  0  0  0  0
   10.5966   49.9288   29.4153 C   0  0  0  0  0  0  0  0  0  0  0  0
   10.6152   49.4245   31.8026 C   0  0  0  0  0  0  0  0  0  0  0  0
   11.8305   49.2947   29.2676 C   0  0  0  0  0  0  0  0  0  0  0  0
   11.8515   48.7753   31.6266 C   0  0  0  0  0  0  0  0  0  0  0  0
   10.0319   49.4707   33.1184 N   0  0  0  0  0  0  0  0  0  0  0  0
   12.4542   48.7147   30.3699 C   0  0  0  0  0  0  0  0  0  0  0  0
    9.3720   50.5948   33.5566 O   0  0  0  0  0  0  0  0  0  0  0  0
   10.2612   48.5559   33.9364 O   0  0  0  0  0  0  0  0  0  0  0  0
    8.5373   39.1401   34.0126 O   0  0  0  0  0  0  0  0  0  0  0  0
   10.9793   40.0895   33.6812 O   0  0  0  0  0  0  0  0  0  0  0  0
   10.7977   40.0845   32.2816 C   0  0  0  0  0  0  0  0  0  0  0  0
   11.5897   38.9147   31.7008 C   0  0  0  0  0  0  0  0  0  0  0  0
   12.9218   38.9385   32.1718 O   0  0  0  0  0  0  0  0  0  0  0  0
   11.0070   37.5655   32.0976 C   0  0  0  0  0  0  0  0  0  0  0  0
   13.3533   37.5910   32.2611 C   0  0  0  0  0  0  0  0  0  0  0  0
    9.9333   37.1935   31.2754 O   0  0  0  0  0  0  0  0  0  0  0  0
   12.1945   36.6672   31.9041 C   0  0  0  0  0  0  0  0  0  0  0  0
   13.8036   37.2970   33.6193 N   0  0  0  0  0  0  0  0  0  0  0  0
   12.2893   36.2849   30.5563 O   0  0  0  0  0  0  0  0  0  0  0  0
   14.7931   36.4723   33.9863 C   0  0  0  0  0  0  0  0  0  0  0  0
   13.2756   37.7298   34.7940 C   0  0  0  0  0  0  0  0  0  0  0  0
   15.6242   35.7580   33.1861 N   0  0  0  0  0  0  0  0  0  0  0  0
   14.8727   36.4407   35.3331 C   0  0  0  0  0  0  0  0  0  0  0  0
   13.9210   37.2262   35.8808 N   0  0  0  0  0  0  0  0  0  0  0  0
   16.5872   34.9920   33.7803 C   0  0  0  0  0  0  0  0  0  0  0  0
   15.8577   35.6715   35.9444 C   0  0  0  0  0  0  0  0  0  0  0  0
   16.7025   34.9582   35.1440 N   0  0  0  0  0  0  0  0  0  0  0  0
   16.0101   35.6382   37.3564 N   0  0  0  0  0  0  0  0  0  0  0  0
    7.6764   44.0634   34.0537 H   0  0  0  0  0  0  0  0  0  0  0  0
    8.6441   46.1546   34.1463 H   0  0  0  0  0  0  0  0  0  0  0  0
   10.2132   45.5904   33.8731 H   0  0  0  0  0  0  0  0  0  0  0  0
    9.9715   44.0679   31.9678 H   0  0  0  0  0  0  0  0  0  0  0  0
    8.4844   43.0842   31.8648 H   0  0  0  0  0  0  0  0  0  0  0  0
    8.5701   46.1523   31.8202 H   0  0  0  0  0  0  0  0  0  0  0  0
    8.5207   45.1018   30.3818 H   0  0  0  0  0  0  0  0  0  0  0  0
    6.3138   45.0806   32.5415 H   0  0  0  0  0  0  0  0  0  0  0  0
    6.3164   44.1803   30.9850 H   0  0  0  0  0  0  0  0  0  0  0  0
    6.2441   46.2888   29.7218 H   0  0  0  0  0  0  0  0  0  0  0  0
    4.9205   46.2658   30.9259 H   0  0  0  0  0  0  0  0  0  0  0  0
    6.2805   47.7531   32.4210 H   0  0  0  0  0  0  0  0  0  0  0  0
    8.2241   50.9450   29.7637 H   0  0  0  0  0  0  0  0  0  0  0  0
    8.6419   51.5349   31.3881 H   0  0  0  0  0  0  0  0  0  0  0  0
   10.1232   50.3552   28.5395 H   0  0  0  0  0  0  0  0  0  0  0  0
   12.3000   49.2454   28.2935 H   0  0  0  0  0  0  0  0  0  0  0  0
   12.3589   48.3255   32.4708 H   0  0  0  0  0  0  0  0  0  0  0  0
   13.4087   48.2183   30.2513 H   0  0  0  0  0  0  0  0  0  0  0  0
   11.2111   41.0321   31.8748 H   0  0  0  0  0  0  0  0  0  0  0  0
    9.7422   40.0119   31.9266 H   0  0  0  0  0  0  0  0  0  0  0  0
   11.6005   39.0119   30.5905 H   0  0  0  0  0  0  0  0  0  0  0  0
   10.7015   37.5595   33.1702 H   0  0  0  0  0  0  0  0  0  0  0  0
   14.2012   37.4438   31.5552 H   0  0  0  0  0  0  0  0  0  0  0  0
    9.5288   36.3870   31.6896 H   0  0  0  0  0  0  0  0  0  0  0  0
   12.1243   35.7694   32.5633 H   0  0  0  0  0  0  0  0  0  0  0  0
   12.9477   35.5427   30.5202 H   0  0  0  0  0  0  0  0  0  0  0  0
   12.4328   38.3994   34.8697 H   0  0  0  0  0  0  0  0  0  0  0  0
   17.2666   34.4140   33.1692 H   0  0  0  0  0  0  0  0  0  0  0  0
   15.3759   36.1865   37.9791 H   0  0  0  0  0  0  0  0  0  0  0  0
   16.7637   35.0598   37.7897 H   0  0  0  0  0  0  0  0  0  0  0  0
  1  2  2  0
  1  3  1  0
  3  4  1  0
  4  5  1  0
  6  1  1  0
  7  6  1  0
  6  8  1  0
  8  9  1  0
  9 10  1  0
 10 11  1  0
 11 12  1  0
 12 13  1  0
 13 14  1  0
 13 15  2  0
 14 16  1  0
 16 17  1  0
 17 18  2  0
 19 17  1  0
 18 20  1  0
 21 19  2  0
 19 22  1  0
 20 23  2  0
 23 21  1  0
 22 24  1  0
 22 25  2  0
  4 26  2  0
  4 27  1  0
 28 27  1  0
 28 29  1  0
 29 30  1  0
 29 31  1  0
 30 32  1  0
 31 33  1  0
 31 34  1  0
 34 32  1  0
 32 35  1  0
 34 36  1  0
 37 35  1  0
 38 35  1  0
 39 37  2  0
 37 40  1  0
 41 38  2  0
 42 39  1  0
 40 43  2  0
 40 41  1  0
 44 42  2  0
 44 43  1  0
 43 45  1  0
  6 46  1  6
  7 47  1  0
  7 48  1  0
  8 49  1  0
  8 50  1  0
  9 51  1  0
  9 52  1  0
 10 53  1  0
 10 54  1  0
 11 55  1  0
 11 56  1  0
 12 57  1  0
 16 58  1  0
 16 59  1  0
 18 60  1  0
 20 61  1  0
 21 62  1  0
 23 63  1  0
 28 64  1  0
 28 65  1  0
 29 66  1  0
 31 67  1  0
 32 68  1  0
 33 69  1  0
 34 70  1  0
 36 71  1  0
 38 72  1  0
 42 73  1  0
 45 74  1  0
 45 75  1  0
M  CHG  3   5  -1  22   1  24  -1
M  END
>  <EmbedRMS>  (252) 
0.073859104641

$$$$

     RDKit          3D

 75 78  0  0  0  0  0  0  0  0999 V2000
    9.4314   42.9420   34.3434 C   0  0  0  0  0  0  0  0  0  0  0  0
   10.4886   43.0416   35.0291 O   0  0  0  0  0  0  0  0  0  0  0  0
    8.8558   41.7136   34.0294 O   0  0  0  0  0  0  0  0  0  0  0  0
    9.4932   40.2169   34.4706 P   0  0  0  0  0  0  0  0  0  0  0  0
    9.7289   40.1749   36.1315 O   0  0  0  0  0  0  0  0  0  0  0  0
    8.7489   44.1374   33.7717 C   0  0  1  0  0  0  0  0  0  0  0  0
    9.3048   45.3679   34.3384 N   0  0  0  0  0  0  0  0  0  0  0  0
    8.8894   44.0544   32.2303 C   0  0  0  0  0  0  0  0  0  0  0  0
    8.2008   45.1754   31.4440 C   0  0  0  0  0  0  0  0  0  0  0  0
    6.6633   45.1080   31.4883 C   0  0  0  0  0  0  0  0  0  0  0  0
    6.0226   46.3222   30.8081 C   0  0  0  0  0  0  0  0  0  0  0  0
    6.4955   47.5659   31.4151 N   0  0  0  0  0  0  0  0  0  0  0  0
    7.2659   48.5247   30.6939 C   0  0  0  0  0  0  0  0  0  0  0  0
    7.7083   49.6747   31.3547 O   0  0  0  0  0  0  0  0  0  0  0  0
    7.5874   48.3124   29.4936 O   0  0  0  0  0  0  0  0  0  0  0  0
    8.7167   50.5396   30.8366 C   0  0  0  0  0  0  0  0  0  0  0  0
   10.0615   49.8500   30.8508 C   0  0  0  0  0  0  0  0  0  0  0  0
   10.5872   49.3799   29.6329 C   0  0  0  0  0  0  0  0  0  0  0  0
   10.8170   49.6814   32.0434 C   0  0  0  0  0  0  0  0  0  0  0  0
   11.8311   48.7502   29.5881 C   0  0  0  0  0  0  0  0  0  0  0  0
   12.0755   49.0549   31.9716 C   0  0  0  0  0  0  0  0  0  0  0  0
   10.3493   50.1594   33.3188 N   0  0  0  0  0  0  0  0  0  0  0  0
   12.5741   48.5886   30.7550 C   0  0  0  0  0  0  0  0  0  0  0  0
    9.0285   50.0345   33.6793 O   0  0  0  0  0  0  0  0  0  0  0  0
   11.1681   50.5475   34.1778 O   0  0  0  0  0  0  0  0  0  0  0  0
    8.5368   39.1407   34.0142 O   0  0  0  0  0  0  0  0  0  0  0  0
   10.9795   40.0884   33.6888 O   0  0  0  0  0  0  0  0  0  0  0  0
   10.8017   40.0950   32.2900 C   0  0  0  0  0  0  0  0  0  0  0  0
   11.5885   38.9267   31.7041 C   0  0  0  0  0  0  0  0  0  0  0  0
   12.9237   38.9446   32.1722 O   0  0  0  0  0  0  0  0  0  0  0  0
   11.0029   37.5727   32.0908 C   0  0  0  0  0  0  0  0  0  0  0  0
   13.3555   37.5960   32.2595 C   0  0  0  0  0  0  0  0  0  0  0  0
    9.9379   37.1847   31.2657 O   0  0  0  0  0  0  0  0  0  0  0  0
   12.1931   36.6770   31.8952 C   0  0  0  0  0  0  0  0  0  0  0  0
   13.8028   37.2977   33.6186 N   0  0  0  0  0  0  0  0  0  0  0  0
   12.2917   36.2396   30.5587 O   0  0  0  0  0  0  0  0  0  0  0  0
   14.7926   36.4727   33.9858 C   0  0  0  0  0  0  0  0  0  0  0  0
   13.2750   37.7302   34.7935 C   0  0  0  0  0  0  0  0  0  0  0  0
   15.6241   35.7586   33.1857 N   0  0  0  0  0  0  0  0  0  0  0  0
   14.8721   36.4408   35.3326 C   0  0  0  0  0  0  0  0  0  0  0  0
   13.9204   37.2263   35.8802 N   0  0  0  0  0  0  0  0  0  0  0  0
   16.5870   34.9925   33.7800 C   0  0  0  0  0  0  0  0  0  0  0  0
   15.8572   35.6717   35.9441 C   0  0  0  0  0  0  0  0  0  0  0  0
   16.7022   34.9586   35.1437 N   0  0  0  0  0  0  0  0  0  0  0  0
   16.0097   35.6384   37.3561 N   0  0  0  0  0  0  0  0  0  0  0  0
    7.6768   44.0653   34.0542 H   0  0  0  0  0  0  0  0  0  0  0  0
   10.2155   45.5902   33.8735 H   0  0  0  0  0  0  0  0  0  0  0  0
    8.6477   46.1575   34.1437 H   0  0  0  0  0  0  0  0  0  0  0  0
    8.4838   43.0843   31.8655 H   0  0  0  0  0  0  0  0  0  0  0  0
    9.9710   44.0678   31.9673 H   0  0  0  0  0  0  0  0  0  0  0  0
    8.5691   46.1524   31.8190 H   0  0  0  0  0  0  0  0  0  0  0  0
    8.5200   45.1012   30.3813 H   0  0  0  0  0  0  0  0  0  0  0  0
    6.3129   45.0814   32.5409 H   0  0  0  0  0  0  0  0  0  0  0  0
    6.3158   44.1796   30.9853 H   0  0  0  0  0  0  0  0  0  0  0  0
    6.2454   46.2881   29.7201 H   0  0  0  0  0  0  0  0  0  0  0  0
    4.9191   46.2635   30.9211 H   0  0  0  0  0  0  0  0  0  0  0  0
    6.2758   47.7509   32.4197 H   0  0  0  0  0  0  0  0  0  0  0  0
    8.4351   50.8606   29.8095 H   0  0  0  0  0  0  0  0  0  0  0  0
    8.7639   51.4619   31.4528 H   0  0  0  0  0  0  0  0  0  0  0  0
   10.0317   49.5002   28.7110 H   0  0  0  0  0  0  0  0  0  0  0  0
   12.2213   48.3901   28.6449 H   0  0  0  0  0  0  0  0  0  0  0  0
   12.6691   48.9156   32.8664 H   0  0  0  0  0  0  0  0  0  0  0  0
   13.5402   48.1019   30.7173 H   0  0  0  0  0  0  0  0  0  0  0  0
   11.2241   41.0429   31.8929 H   0  0  0  0  0  0  0  0  0  0  0  0
    9.7472   40.0379   31.9303 H   0  0  0  0  0  0  0  0  0  0  0  0
   11.5928   39.0434   30.5966 H   0  0  0  0  0  0  0  0  0  0  0  0
   10.7003   37.5444   33.1641 H   0  0  0  0  0  0  0  0  0  0  0  0
   14.2051   37.4477   31.5560 H   0  0  0  0  0  0  0  0  0  0  0  0
    9.1374   37.6723   31.5906 H   0  0  0  0  0  0  0  0  0  0  0  0
   12.1305   35.7856   32.5586 H   0  0  0  0  0  0  0  0  0  0  0  0
   12.4606   37.0186   29.9674 H   0  0  0  0  0  0  0  0  0  0  0  0
   12.4327   38.4001   34.8694 H   0  0  0  0  0  0  0  0  0  0  0  0
   17.2666   34.4146   33.1690 H   0  0  0  0  0  0  0  0  0  0  0  0
   15.3754   36.1866   37.9788 H   0  0  0  0  0  0  0  0  0  0  0  0
   16.7634   35.0601   37.7894 H   0  0  0  0  0  0  0  0  0  0  0  0
  1  2  2  0
  1  3  1  0
  3  4  1  0
  4  5  1  0
  6  1  1  0
  7  6  1  0
  6  8  1  0
  8  9  1  0
  9 10  1  0
 10 11  1  0
 11 12  1  0
 12 13  1  0
 13 14  1  0
 13 15  2  0
 14 16  1  0
 16 17  1  0
 17 18  2  0
 19 17  1  0
 18 20  1  0
 21 19  2  0
 19 22  1  0
 20 23  2  0
 23 21  1  0
 22 24  1  0
 22 25  2  0
  4 26  2  0
  4 27  1  0
 28 27  1  0
 28 29  1  0
 29 30  1  0
 29 31  1  0
 30 32  1  0
 31 33  1  0
 31 34  1  0
 34 32  1  0
 32 35  1  0
 34 36  1  0
 37 35  1  0
 38 35  1  0
 39 37  2  0
 37 40  1  0
 41 38  2  0
 42 39  1  0
 40 43  2  0
 40 41  1  0
 44 42  2  0
 44 43  1  0
 43 45  1  0
  6 46  1  6
  7 47  1  0
  7 48  1  0
  8 49  1  0
  8 50  1  0
  9 51  1  0
  9 52  1  0
 10 53  1  0
 10 54  1  0
 11 55  1  0
 11 56  1  0
 12 57  1  0
 16 58  1  0
 16 59  1  0
 18 60  1  0
 20 61  1  0
 21 62  1  0
 23 63  1  0
 28 64  1  0
 28 65  1  0
 29 66  1  0
 31 67  1  0
 32 68  1  0
 33 69  1  0
 34 70  1  0
 36 71  1  0
 38 72  1  0
 42 73  1  0
 45 74  1  0
 45 75  1  0
M  CHG  3   5  -1  22   1  24  -1
M  END
>  <EmbedRMS>  (253) 
0.075662441166

$$$$

     RDKit          3D

 75 78  0  0  0  0  0  0  0  0999 V2000
    9.4334   42.9371   34.3458 C   0  0  0  0  0  0  0  0  0  0  0  0
   10.4908   43.0335   35.0316 O   0  0  0  0  0  0  0  0  0  0  0  0
    8.8559   41.7109   34.0300 O   0  0  0  0  0  0  0  0  0  0  0  0
    9.4930   40.2144   34.4702 P   0  0  0  0  0  0  0  0  0  0  0  0
    9.7292   40.1730   36.1311 O   0  0  0  0  0  0  0  0  0  0  0  0
    8.7510   44.1358   33.7737 C   0  0  1  0  0  0  0  0  0  0  0  0
    9.2966   45.3830   34.3132 N   0  0  0  0  0  0  0  0  0  0  0  0
    8.8895   44.0548   32.2354 C   0  0  0  0  0  0  0  0  0  0  0  0
    8.2024   45.1850   31.4619 C   0  0  0  0  0  0  0  0  0  0  0  0
    6.6647   45.1058   31.4852 C   0  0  0  0  0  0  0  0  0  0  0  0
    6.0240   46.3217   30.8075 C   0  0  0  0  0  0  0  0  0  0  0  0
    6.4970   47.5652   31.4152 N   0  0  0  0  0  0  0  0  0  0  0  0
    7.2609   48.5277   30.6919 C   0  0  0  0  0  0  0  0  0  0  0  0
    7.6831   49.6897   31.3453 O   0  0  0  0  0  0  0  0  0  0  0  0
    7.5886   48.3121   29.4937 O   0  0  0  0  0  0  0  0  0  0  0  0
    8.6456   50.5912   30.8023 C   0  0  0  0  0  0  0  0  0  0  0  0
   10.0156   49.9525   30.7788 C   0  0  0  0  0  0  0  0  0  0  0  0
   10.5377   49.5349   29.5403 C   0  0  0  0  0  0  0  0  0  0  0  0
   10.7988   49.7816   31.9550 C   0  0  0  0  0  0  0  0  0  0  0  0
   11.8042   48.9566   29.4579 C   0  0  0  0  0  0  0  0  0  0  0  0
   12.0787   49.2081   31.8443 C   0  0  0  0  0  0  0  0  0  0  0  0
   10.3427   50.2060   33.2541 N   0  0  0  0  0  0  0  0  0  0  0  0
   12.5735   48.7943   30.6073 C   0  0  0  0  0  0  0  0  0  0  0  0
   11.2566   50.5747   34.2146 O   0  0  0  0  0  0  0  0  0  0  0  0
    9.1436   50.1010   33.5814 O   0  0  0  0  0  0  0  0  0  0  0  0
    8.5365   39.1385   34.0135 O   0  0  0  0  0  0  0  0  0  0  0  0
   10.9788   40.0867   33.6873 O   0  0  0  0  0  0  0  0  0  0  0  0
   10.7993   40.0944   32.2885 C   0  0  0  0  0  0  0  0  0  0  0  0
   11.5957   38.9351   31.6994 C   0  0  0  0  0  0  0  0  0  0  0  0
   12.9257   38.9478   32.1798 O   0  0  0  0  0  0  0  0  0  0  0  0
   11.0070   37.5757   32.0732 C   0  0  0  0  0  0  0  0  0  0  0  0
   13.3571   37.5979   32.2612 C   0  0  0  0  0  0  0  0  0  0  0  0
    9.9093   37.1807   31.2875 O   0  0  0  0  0  0  0  0  0  0  0  0
   12.1967   36.6763   31.8894 C   0  0  0  0  0  0  0  0  0  0  0  0
   13.8018   37.2956   33.6197 N   0  0  0  0  0  0  0  0  0  0  0  0
   12.3049   36.2360   30.5554 O   0  0  0  0  0  0  0  0  0  0  0  0
   14.7922   36.4716   33.9864 C   0  0  0  0  0  0  0  0  0  0  0  0
   13.2747   37.7291   34.7944 C   0  0  0  0  0  0  0  0  0  0  0  0
   15.6240   35.7581   33.1861 N   0  0  0  0  0  0  0  0  0  0  0  0
   14.8721   36.4402   35.3331 C   0  0  0  0  0  0  0  0  0  0  0  0
   13.9206   37.2257   35.8810 N   0  0  0  0  0  0  0  0  0  0  0  0
   16.5873   34.9924   33.7802 C   0  0  0  0  0  0  0  0  0  0  0  0
   15.8576   35.6714   35.9444 C   0  0  0  0  0  0  0  0  0  0  0  0
   16.7026   34.9585   35.1439 N   0  0  0  0  0  0  0  0  0  0  0  0
   16.0102   35.6382   37.3564 N   0  0  0  0  0  0  0  0  0  0  0  0
    7.6773   44.0718   34.0499 H   0  0  0  0  0  0  0  0  0  0  0  0
   10.3191   45.4429   34.0980 H   0  0  0  0  0  0  0  0  0  0  0  0
    9.1848   45.3823   35.3535 H   0  0  0  0  0  0  0  0  0  0  0  0
    9.9713   44.0711   31.9735 H   0  0  0  0  0  0  0  0  0  0  0  0
    8.4824   43.0871   31.8658 H   0  0  0  0  0  0  0  0  0  0  0  0
    8.5387   45.1408   30.4028 H   0  0  0  0  0  0  0  0  0  0  0  0
    8.5535   46.1540   31.8756 H   0  0  0  0  0  0  0  0  0  0  0  0
    6.3306   44.1798   30.9688 H   0  0  0  0  0  0  0  0  0  0  0  0
    6.3011   45.0665   32.5329 H   0  0  0  0  0  0  0  0  0  0  0  0
    6.2467   46.2888   29.7194 H   0  0  0  0  0  0  0  0  0  0  0  0
    4.9204   46.2628   30.9201 H   0  0  0  0  0  0  0  0  0  0  0  0
    6.2751   47.7509   32.4192 H   0  0  0  0  0  0  0  0  0  0  0  0
    8.6758   51.5143   31.4182 H   0  0  0  0  0  0  0  0  0  0  0  0
    8.3237   50.9030   29.7841 H   0  0  0  0  0  0  0  0  0  0  0  0
    9.9618   49.6565   28.6311 H   0  0  0  0  0  0  0  0  0  0  0  0
   12.1914   48.6369   28.4990 H   0  0  0  0  0  0  0  0  0  0  0  0
   12.6941   49.0679   32.7239 H   0  0  0  0  0  0  0  0  0  0  0  0
   13.5571   48.3476   30.5402 H   0  0  0  0  0  0  0  0  0  0  0  0
    9.7449   40.0201   31.9303 H   0  0  0  0  0  0  0  0  0  0  0  0
   11.2095   41.0480   31.8921 H   0  0  0  0  0  0  0  0  0  0  0  0
   11.6207   39.0685   30.5942 H   0  0  0  0  0  0  0  0  0  0  0  0
   10.7059   37.5563   33.1438 H   0  0  0  0  0  0  0  0  0  0  0  0
   14.2095   37.4543   31.5601 H   0  0  0  0  0  0  0  0  0  0  0  0
   10.0864   37.4210   30.3413 H   0  0  0  0  0  0  0  0  0  0  0  0
   12.1276   35.7872   32.5549 H   0  0  0  0  0  0  0  0  0  0  0  0
   12.5031   37.0109   29.9672 H   0  0  0  0  0  0  0  0  0  0  0  0
   12.4328   38.3996   34.8703 H   0  0  0  0  0  0  0  0  0  0  0  0
   17.2670   34.4149   33.1691 H   0  0  0  0  0  0  0  0  0  0  0  0
   15.3758   36.1862   37.9792 H   0  0  0  0  0  0  0  0  0  0  0  0
   16.7640   35.0601   37.7896 H   0  0  0  0  0  0  0  0  0  0  0  0
  1  2  2  0
  1  3  1  0
  3  4  1  0
  4  5  1  0
  6  1  1  0
  7  6  1  0
  6  8  1  0
  8  9  1  0
  9 10  1  0
 10 11  1  0
 11 12  1  0
 12 13  1  0
 13 14  1  0
 13 15  2  0
 14 16  1  0
 16 17  1  0
 17 18  2  0
 19 17  1  0
 18 20  1  0
 21 19  2  0
 19 22  1  0
 20 23  2  0
 23 21  1  0
 22 24  1  0
 22 25  2  0
  4 26  2  0
  4 27  1  0
 28 27  1  0
 28 29  1  0
 29 30  1  0
 29 31  1  0
 30 32  1  0
 31 33  1  0
 31 34  1  0
 34 32  1  0
 32 35  1  0
 34 36  1  0
 37 35  1  0
 38 35  1  0
 39 37  2  0
 37 40  1  0
 41 38  2  0
 42 39  1  0
 40 43  2  0
 40 41  1  0
 44 42  2  0
 44 43  1  0
 43 45  1  0
  6 46  1  6
  7 47  1  0
  7 48  1  0
  8 49  1  0
  8 50  1  0
  9 51  1  0
  9 52  1  0
 10 53  1  0
 10 54  1  0
 11 55  1  0
 11 56  1  0
 12 57  1  0
 16 58  1  0
 16 59  1  0
 18 60  1  0
 20 61  1  0
 21 62  1  0
 23 63  1  0
 28 64  1  0
 28 65  1  0
 29 66  1  0
 31 67  1  0
 32 68  1  0
 33 69  1  0
 34 70  1  0
 36 71  1  0
 38 72  1  0
 42 73  1  0
 45 74  1  0
 45 75  1  0
M  CHG  3   5  -1  22   1  24  -1
M  END
>  <EmbedRMS>  (254) 
0.0767397039949

$$$$

     RDKit          3D

 75 78  0  0  0  0  0  0  0  0999 V2000
    9.4312   42.9411   34.3437 C   0  0  0  0  0  0  0  0  0  0  0  0
   10.4886   43.0410   35.0294 O   0  0  0  0  0  0  0  0  0  0  0  0
    8.8562   41.7128   34.0289 O   0  0  0  0  0  0  0  0  0  0  0  0
    9.4947   40.2163   34.4679 P   0  0  0  0  0  0  0  0  0  0  0  0
    9.7311   40.1742   36.1290 O   0  0  0  0  0  0  0  0  0  0  0  0
    8.7484   44.1359   33.7721 C   0  0  1  0  0  0  0  0  0  0  0  0
    9.3039   45.3664   34.3388 N   0  0  0  0  0  0  0  0  0  0  0  0
    8.8892   44.0518   32.2308 C   0  0  0  0  0  0  0  0  0  0  0  0
    8.2015   45.1721   31.4435 C   0  0  0  0  0  0  0  0  0  0  0  0
    6.6643   45.1066   31.4887 C   0  0  0  0  0  0  0  0  0  0  0  0
    6.0268   46.3236   30.8121 C   0  0  0  0  0  0  0  0  0  0  0  0
    6.5081   47.5645   31.4189 N   0  0  0  0  0  0  0  0  0  0  0  0
    7.2426   48.5405   30.6827 C   0  0  0  0  0  0  0  0  0  0  0  0
    7.5790   49.7507   31.3014 O   0  0  0  0  0  0  0  0  0  0  0  0
    7.5937   48.3107   29.4937 O   0  0  0  0  0  0  0  0  0  0  0  0
    8.3279   50.7823   30.6563 C   0  0  0  0  0  0  0  0  0  0  0  0
    7.4657   51.7162   29.8253 C   0  0  0  0  0  0  0  0  0  0  0  0
    6.0866   51.4644   29.6552 C   0  0  0  0  0  0  0  0  0  0  0  0
    8.0207   52.8940   29.2519 C   0  0  0  0  0  0  0  0  0  0  0  0
    5.2819   52.3448   28.9314 C   0  0  0  0  0  0  0  0  0  0  0  0
    7.1857   53.7739   28.5389 C   0  0  0  0  0  0  0  0  0  0  0  0
    9.4117   53.2318   29.4066 N   0  0  0  0  0  0  0  0  0  0  0  0
    5.8296   53.4970   28.3752 C   0  0  0  0  0  0  0  0  0  0  0  0
   10.3881   52.2730   29.2711 O   0  0  0  0  0  0  0  0  0  0  0  0
    9.7569   54.4285   29.4937 O   0  0  0  0  0  0  0  0  0  0  0  0
    8.5375   39.1404   34.0127 O   0  0  0  0  0  0  0  0  0  0  0  0
   10.9805   40.0889   33.6836 O   0  0  0  0  0  0  0  0  0  0  0  0
   10.8025   40.0902   32.2838 C   0  0  0  0  0  0  0  0  0  0  0  0
   11.5888   38.9175   31.7008 C   0  0  0  0  0  0  0  0  0  0  0  0
   12.9219   38.9373   32.1692 O   0  0  0  0  0  0  0  0  0  0  0  0
   11.0028   37.5683   32.0981 C   0  0  0  0  0  0  0  0  0  0  0  0
   13.3496   37.5886   32.2601 C   0  0  0  0  0  0  0  0  0  0  0  0
    9.9343   37.1823   31.2757 O   0  0  0  0  0  0  0  0  0  0  0  0
   12.1891   36.6677   31.9050 C   0  0  0  0  0  0  0  0  0  0  0  0
   13.8025   37.2965   33.6186 N   0  0  0  0  0  0  0  0  0  0  0  0
   12.2990   36.2868   30.5568 O   0  0  0  0  0  0  0  0  0  0  0  0
   14.7929   36.4725   33.9858 C   0  0  0  0  0  0  0  0  0  0  0  0
   13.2749   37.7294   34.7935 C   0  0  0  0  0  0  0  0  0  0  0  0
   15.6240   35.7580   33.1858 N   0  0  0  0  0  0  0  0  0  0  0  0
   14.8727   36.4411   35.3327 C   0  0  0  0  0  0  0  0  0  0  0  0
   13.9208   37.2263   35.8803 N   0  0  0  0  0  0  0  0  0  0  0  0
   16.5871   34.9921   33.7801 C   0  0  0  0  0  0  0  0  0  0  0  0
   15.8576   35.6718   35.9441 C   0  0  0  0  0  0  0  0  0  0  0  0
   16.7024   34.9584   35.1438 N   0  0  0  0  0  0  0  0  0  0  0  0
   16.0099   35.6384   37.3562 N   0  0  0  0  0  0  0  0  0  0  0  0
    7.6764   44.0634   34.0548 H   0  0  0  0  0  0  0  0  0  0  0  0
   10.2152   45.5879   33.8747 H   0  0  0  0  0  0  0  0  0  0  0  0
    8.6468   46.1558   34.1431 H   0  0  0  0  0  0  0  0  0  0  0  0
    8.4830   43.0817   31.8666 H   0  0  0  0  0  0  0  0  0  0  0  0
    9.9708   44.0642   31.9679 H   0  0  0  0  0  0  0  0  0  0  0  0
    8.5714   46.1487   31.8173 H   0  0  0  0  0  0  0  0  0  0  0  0
    8.5198   45.0958   30.3807 H   0  0  0  0  0  0  0  0  0  0  0  0
    6.3142   45.0785   32.5414 H   0  0  0  0  0  0  0  0  0  0  0  0
    6.3147   44.1801   30.9837 H   0  0  0  0  0  0  0  0  0  0  0  0
    4.9234   46.2699   30.9296 H   0  0  0  0  0  0  0  0  0  0  0  0
    6.2451   46.2896   29.7231 H   0  0  0  0  0  0  0  0  0  0  0  0
    6.2839   47.7547   32.4215 H   0  0  0  0  0  0  0  0  0  0  0  0
    8.8258   51.3803   31.4484 H   0  0  0  0  0  0  0  0  0  0  0  0
    9.1178   50.3233   30.0255 H   0  0  0  0  0  0  0  0  0  0  0  0
    5.6137   50.5948   30.0883 H   0  0  0  0  0  0  0  0  0  0  0  0
    4.2268   52.1362   28.8091 H   0  0  0  0  0  0  0  0  0  0  0  0
    7.5916   54.6753   28.0971 H   0  0  0  0  0  0  0  0  0  0  0  0
    5.2010   54.1800   27.8184 H   0  0  0  0  0  0  0  0  0  0  0  0
   11.2257   41.0358   31.8825 H   0  0  0  0  0  0  0  0  0  0  0  0
    9.7476   40.0332   31.9256 H   0  0  0  0  0  0  0  0  0  0  0  0
   11.5975   39.0148   30.5905 H   0  0  0  0  0  0  0  0  0  0  0  0
   10.7023   37.5457   33.1720 H   0  0  0  0  0  0  0  0  0  0  0  0
   14.1957   37.4366   31.5528 H   0  0  0  0  0  0  0  0  0  0  0  0
    9.1339   37.6658   31.6070 H   0  0  0  0  0  0  0  0  0  0  0  0
   12.1380   35.7717   32.5698 H   0  0  0  0  0  0  0  0  0  0  0  0
   11.7706   35.4530   30.4497 H   0  0  0  0  0  0  0  0  0  0  0  0
   12.4315   38.3981   34.8694 H   0  0  0  0  0  0  0  0  0  0  0  0
   17.2665   34.4140   33.1691 H   0  0  0  0  0  0  0  0  0  0  0  0
   15.3757   36.1868   37.9789 H   0  0  0  0  0  0  0  0  0  0  0  0
   16.7633   35.0598   37.7895 H   0  0  0  0  0  0  0  0  0  0  0  0
  1  2  2  0
  1  3  1  0
  3  4  1  0
  4  5  1  0
  6  1  1  0
  7  6  1  0
  6  8  1  0
  8  9  1  0
  9 10  1  0
 10 11  1  0
 11 12  1  0
 12 13  1  0
 13 14  1  0
 13 15  2  0
 14 16  1  0
 16 17  1  0
 17 18  2  0
 19 17  1  0
 18 20  1  0
 21 19  2  0
 19 22  1  0
 20 23  2  0
 23 21  1  0
 22 24  1  0
 22 25  2  0
  4 26  2  0
  4 27  1  0
 28 27  1  0
 28 29  1  0
 29 30  1  0
 29 31  1  0
 30 32  1  0
 31 33  1  0
 31 34  1  0
 34 32  1  0
 32 35  1  0
 34 36  1  0
 37 35  1  0
 38 35  1  0
 39 37  2  0
 37 40  1  0
 41 38  2  0
 42 39  1  0
 40 43  2  0
 40 41  1  0
 44 42  2  0
 44 43  1  0
 43 45  1  0
  6 46  1  6
  7 47  1  0
  7 48  1  0
  8 49  1  0
  8 50  1  0
  9 51  1  0
  9 52  1  0
 10 53  1  0
 10 54  1  0
 11 55  1  0
 11 56  1  0
 12 57  1  0
 16 58  1  0
 16 59  1  0
 18 60  1  0
 20 61  1  0
 21 62  1  0
 23 63  1  0
 28 64  1  0
 28 65  1  0
 29 66  1  0
 31 67  1  0
 32 68  1  0
 33 69  1  0
 34 70  1  0
 36 71  1  0
 38 72  1  0
 42 73  1  0
 45 74  1  0
 45 75  1  0
M  CHG  3   5  -1  22   1  24  -1
M  END
>  <EmbedRMS>  (255) 
0.0733530106968

$$$$

     RDKit          3D

 75 78  0  0  0  0  0  0  0  0999 V2000
    9.4333   42.9364   34.3461 C   0  0  0  0  0  0  0  0  0  0  0  0
   10.4907   43.0329   35.0319 O   0  0  0  0  0  0  0  0  0  0  0  0
    8.8563   41.7102   34.0295 O   0  0  0  0  0  0  0  0  0  0  0  0
    9.4943   40.2139   34.4679 P   0  0  0  0  0  0  0  0  0  0  0  0
    9.7310   40.1724   36.1290 O   0  0  0  0  0  0  0  0  0  0  0  0
    8.7506   44.1347   33.7741 C   0  0  1  0  0  0  0  0  0  0  0  0
    9.2963   45.3819   34.3133 N   0  0  0  0  0  0  0  0  0  0  0  0
    8.8893   44.0526   32.2358 C   0  0  0  0  0  0  0  0  0  0  0  0
    8.2029   45.1822   31.4613 C   0  0  0  0  0  0  0  0  0  0  0  0
    6.6654   45.1046   31.4853 C   0  0  0  0  0  0  0  0  0  0  0  0
    6.0273   46.3229   30.8107 C   0  0  0  0  0  0  0  0  0  0  0  0
    6.5075   47.5640   31.4182 N   0  0  0  0  0  0  0  0  0  0  0  0
    7.2411   48.5412   30.6827 C   0  0  0  0  0  0  0  0  0  0  0  0
    7.5883   49.7440   31.3087 O   0  0  0  0  0  0  0  0  0  0  0  0
    7.5942   48.3100   29.4946 O   0  0  0  0  0  0  0  0  0  0  0  0
    8.2581   50.8225   30.6550 C   0  0  0  0  0  0  0  0  0  0  0  0
    7.2565   51.8637   30.2071 C   0  0  0  0  0  0  0  0  0  0  0  0
    6.2827   51.4943   29.2609 C   0  0  0  0  0  0  0  0  0  0  0  0
    7.2315   53.1791   30.7413 C   0  0  0  0  0  0  0  0  0  0  0  0
    5.2828   52.3896   28.8778 C   0  0  0  0  0  0  0  0  0  0  0  0
    6.2057   54.0603   30.3579 C   0  0  0  0  0  0  0  0  0  0  0  0
    8.2436   53.6460   31.6448 N   0  0  0  0  0  0  0  0  0  0  0  0
    5.2384   53.6670   29.4326 C   0  0  0  0  0  0  0  0  0  0  0  0
    9.5677   53.5867   31.2758 O   0  0  0  0  0  0  0  0  0  0  0  0
    7.9235   54.3379   32.6332 O   0  0  0  0  0  0  0  0  0  0  0  0
    8.5372   39.1382   34.0121 O   0  0  0  0  0  0  0  0  0  0  0  0
   10.9798   40.0870   33.6829 O   0  0  0  0  0  0  0  0  0  0  0  0
   10.8002   40.0905   32.2832 C   0  0  0  0  0  0  0  0  0  0  0  0
   11.5958   38.9271   31.6963 C   0  0  0  0  0  0  0  0  0  0  0  0
   12.9239   38.9409   32.1766 O   0  0  0  0  0  0  0  0  0  0  0  0
   11.0062   37.5719   32.0793 C   0  0  0  0  0  0  0  0  0  0  0  0
   13.3507   37.5905   32.2614 C   0  0  0  0  0  0  0  0  0  0  0  0
    9.9064   37.1792   31.2946 O   0  0  0  0  0  0  0  0  0  0  0  0
   12.1920   36.6671   31.9003 C   0  0  0  0  0  0  0  0  0  0  0  0
   13.8017   37.2948   33.6193 N   0  0  0  0  0  0  0  0  0  0  0  0
   12.3134   36.2788   30.5560 O   0  0  0  0  0  0  0  0  0  0  0  0
   14.7927   36.4716   33.9861 C   0  0  0  0  0  0  0  0  0  0  0  0
   13.2746   37.7284   34.7941 C   0  0  0  0  0  0  0  0  0  0  0  0
   15.6240   35.7576   33.1859 N   0  0  0  0  0  0  0  0  0  0  0  0
   14.8728   36.4406   35.3330 C   0  0  0  0  0  0  0  0  0  0  0  0
   13.9209   37.2258   35.8807 N   0  0  0  0  0  0  0  0  0  0  0  0
   16.5874   34.9920   33.7802 C   0  0  0  0  0  0  0  0  0  0  0  0
   15.8579   35.6716   35.9443 C   0  0  0  0  0  0  0  0  0  0  0  0
   16.7028   34.9584   35.1439 N   0  0  0  0  0  0  0  0  0  0  0  0
   16.0103   35.6383   37.3563 N   0  0  0  0  0  0  0  0  0  0  0  0
    7.6770   44.0706   34.0504 H   0  0  0  0  0  0  0  0  0  0  0  0
   10.3192   45.4405   34.1000 H   0  0  0  0  0  0  0  0  0  0  0  0
    9.1827   45.3819   35.3534 H   0  0  0  0  0  0  0  0  0  0  0  0
    9.9711   44.0679   31.9739 H   0  0  0  0  0  0  0  0  0  0  0  0
    8.4816   43.0850   31.8668 H   0  0  0  0  0  0  0  0  0  0  0  0
    8.5386   45.1361   30.4021 H   0  0  0  0  0  0  0  0  0  0  0  0
    8.5554   46.1508   31.8741 H   0  0  0  0  0  0  0  0  0  0  0  0
    6.3020   45.0639   32.5331 H   0  0  0  0  0  0  0  0  0  0  0  0
    6.3296   44.1802   30.9672 H   0  0  0  0  0  0  0  0  0  0  0  0
    4.9239   46.2681   30.9273 H   0  0  0  0  0  0  0  0  0  0  0  0
    6.2461   46.2902   29.7217 H   0  0  0  0  0  0  0  0  0  0  0  0
    6.2835   47.7528   32.4212 H   0  0  0  0  0  0  0  0  0  0  0  0
    8.9832   51.2352   31.3799 H   0  0  0  0  0  0  0  0  0  0  0  0
    8.8494   50.4653   29.7842 H   0  0  0  0  0  0  0  0  0  0  0  0
    6.2879   50.5055   28.8228 H   0  0  0  0  0  0  0  0  0  0  0  0
    4.5363   52.0890   28.1539 H   0  0  0  0  0  0  0  0  0  0  0  0
    6.1709   55.0649   30.7607 H   0  0  0  0  0  0  0  0  0  0  0  0
    4.4595   54.3581   29.1372 H   0  0  0  0  0  0  0  0  0  0  0  0
   11.2116   41.0420   31.8834 H   0  0  0  0  0  0  0  0  0  0  0  0
    9.7455   40.0168   31.9263 H   0  0  0  0  0  0  0  0  0  0  0  0
   11.6245   39.0449   30.5888 H   0  0  0  0  0  0  0  0  0  0  0  0
   10.7051   37.5579   33.1499 H   0  0  0  0  0  0  0  0  0  0  0  0
   14.1985   37.4426   31.5553 H   0  0  0  0  0  0  0  0  0  0  0  0
   10.0893   37.4056   30.3459 H   0  0  0  0  0  0  0  0  0  0  0  0
   12.1337   35.7754   32.5703 H   0  0  0  0  0  0  0  0  0  0  0  0
   11.7934   35.4394   30.4513 H   0  0  0  0  0  0  0  0  0  0  0  0
   12.4314   38.3973   34.8700 H   0  0  0  0  0  0  0  0  0  0  0  0
   17.2669   34.4142   33.1692 H   0  0  0  0  0  0  0  0  0  0  0  0
   16.7638   35.0599   37.7896 H   0  0  0  0  0  0  0  0  0  0  0  0
   15.3759   36.1864   37.9790 H   0  0  0  0  0  0  0  0  0  0  0  0
  1  2  2  0
  1  3  1  0
  3  4  1  0
  4  5  1  0
  6  1  1  0
  7  6  1  0
  6  8  1  0
  8  9  1  0
  9 10  1  0
 10 11  1  0
 11 12  1  0
 12 13  1  0
 13 14  1  0
 13 15  2  0
 14 16  1  0
 16 17  1  0
 17 18  2  0
 19 17  1  0
 18 20  1  0
 21 19  2  0
 19 22  1  0
 20 23  2  0
 23 21  1  0
 22 24  1  0
 22 25  2  0
  4 26  2  0
  4 27  1  0
 28 27  1  0
 28 29  1  0
 29 30  1  0
 29 31  1  0
 30 32  1  0
 31 33  1  0
 31 34  1  0
 34 32  1  0
 32 35  1  0
 34 36  1  0
 37 35  1  0
 38 35  1  0
 39 37  2  0
 37 40  1  0
 41 38  2  0
 42 39  1  0
 40 43  2  0
 40 41  1  0
 44 42  2  0
 44 43  1  0
 43 45  1  0
  6 46  1  6
  7 47  1  0
  7 48  1  0
  8 49  1  0
  8 50  1  0
  9 51  1  0
  9 52  1  0
 10 53  1  0
 10 54  1  0
 11 55  1  0
 11 56  1  0
 12 57  1  0
 16 58  1  0
 16 59  1  0
 18 60  1  0
 20 61  1  0
 21 62  1  0
 23 63  1  0
 28 64  1  0
 28 65  1  0
 29 66  1  0
 31 67  1  0
 32 68  1  0
 33 69  1  0
 34 70  1  0
 36 71  1  0
 38 72  1  0
 42 73  1  0
 45 74  1  0
 45 75  1  0
M  CHG  3   5  -1  22   1  24  -1
M  END
>  <EmbedRMS>  (256) 
0.0747208404971

$$$$

     RDKit          3D

 75 78  0  0  0  0  0  0  0  0999 V2000
    9.4300   42.9398   34.3432 C   0  0  0  0  0  0  0  0  0  0  0  0
   10.4912   43.0381   35.0233 O   0  0  0  0  0  0  0  0  0  0  0  0
    8.8546   41.7119   34.0284 O   0  0  0  0  0  0  0  0  0  0  0  0
    9.4942   40.2158   34.4672 P   0  0  0  0  0  0  0  0  0  0  0  0
    9.7315   40.1739   36.1282 O   0  0  0  0  0  0  0  0  0  0  0  0
    8.7416   44.1384   33.7783 C   0  0  1  0  0  0  0  0  0  0  0  0
    9.3028   45.3723   34.3320 N   0  0  0  0  0  0  0  0  0  0  0  0
    8.8964   44.0601   32.2395 C   0  0  0  0  0  0  0  0  0  0  0  0
    8.2020   45.1694   31.4399 C   0  0  0  0  0  0  0  0  0  0  0  0
    6.6647   45.1067   31.4908 C   0  0  0  0  0  0  0  0  0  0  0  0
    6.0258   46.3218   30.8106 C   0  0  0  0  0  0  0  0  0  0  0  0
    6.5018   47.5649   31.4171 N   0  0  0  0  0  0  0  0  0  0  0  0
    7.2510   48.5344   30.6874 C   0  0  0  0  0  0  0  0  0  0  0  0
    7.6425   49.7161   31.3283 O   0  0  0  0  0  0  0  0  0  0  0  0
    7.5928   48.3101   29.4946 O   0  0  0  0  0  0  0  0  0  0  0  0
    8.4973   50.6896   30.7266 C   0  0  0  0  0  0  0  0  0  0  0  0
    9.9722   50.3579   30.8766 C   0  0  0  0  0  0  0  0  0  0  0  0
   10.3814   49.1564   31.4965 C   0  0  0  0  0  0  0  0  0  0  0  0
   10.9686   51.2808   30.4531 C   0  0  0  0  0  0  0  0  0  0  0  0
   11.7342   48.8675   31.6764 C   0  0  0  0  0  0  0  0  0  0  0  0
   12.3261   50.9736   30.6591 C   0  0  0  0  0  0  0  0  0  0  0  0
   10.6282   52.5418   29.8477 N   0  0  0  0  0  0  0  0  0  0  0  0
   12.7044   49.7734   31.2586 C   0  0  0  0  0  0  0  0  0  0  0  0
    9.6499   52.6185   28.8844 O   0  0  0  0  0  0  0  0  0  0  0  0
   11.3366   53.5473   30.0619 O   0  0  0  0  0  0  0  0  0  0  0  0
    8.5375   39.1392   34.0123 O   0  0  0  0  0  0  0  0  0  0  0  0
   10.9794   40.0898   33.6813 O   0  0  0  0  0  0  0  0  0  0  0  0
   10.7982   40.0850   32.2816 C   0  0  0  0  0  0  0  0  0  0  0  0
   11.5886   38.9143   31.7009 C   0  0  0  0  0  0  0  0  0  0  0  0
   12.9213   38.9368   32.1699 O   0  0  0  0  0  0  0  0  0  0  0  0
   11.0047   37.5661   32.0991 C   0  0  0  0  0  0  0  0  0  0  0  0
   13.3510   37.5885   32.2602 C   0  0  0  0  0  0  0  0  0  0  0  0
    9.9296   37.1962   31.2780 O   0  0  0  0  0  0  0  0  0  0  0  0
   12.1923   36.6659   31.9047 C   0  0  0  0  0  0  0  0  0  0  0  0
   13.8033   37.2967   33.6188 N   0  0  0  0  0  0  0  0  0  0  0  0
   12.3007   36.2865   30.5562 O   0  0  0  0  0  0  0  0  0  0  0  0
   14.7933   36.4724   33.9860 C   0  0  0  0  0  0  0  0  0  0  0  0
   13.2753   37.7296   34.7935 C   0  0  0  0  0  0  0  0  0  0  0  0
   15.6243   35.7579   33.1860 N   0  0  0  0  0  0  0  0  0  0  0  0
   14.8728   36.4410   35.3328 C   0  0  0  0  0  0  0  0  0  0  0  0
   13.9209   37.2263   35.8804 N   0  0  0  0  0  0  0  0  0  0  0  0
   16.5873   34.9919   33.7803 C   0  0  0  0  0  0  0  0  0  0  0  0
   15.8577   35.6716   35.9443 C   0  0  0  0  0  0  0  0  0  0  0  0
   16.7025   34.9583   35.1440 N   0  0  0  0  0  0  0  0  0  0  0  0
   16.0100   35.6384   37.3563 N   0  0  0  0  0  0  0  0  0  0  0  0
    7.6672   44.0666   34.0545 H   0  0  0  0  0  0  0  0  0  0  0  0
    8.6846   46.1684   34.0562 H   0  0  0  0  0  0  0  0  0  0  0  0
    9.2327   45.3289   35.3753 H   0  0  0  0  0  0  0  0  0  0  0  0
    8.5091   43.0846   31.8690 H   0  0  0  0  0  0  0  0  0  0  0  0
    9.9810   44.0925   31.9911 H   0  0  0  0  0  0  0  0  0  0  0  0
    8.5748   46.1514   31.7928 H   0  0  0  0  0  0  0  0  0  0  0  0
    8.5156   45.0776   30.3769 H   0  0  0  0  0  0  0  0  0  0  0  0
    6.3176   45.0848   32.5444 H   0  0  0  0  0  0  0  0  0  0  0  0
    6.3124   44.1779   30.9920 H   0  0  0  0  0  0  0  0  0  0  0  0
    6.2472   46.2869   29.7223 H   0  0  0  0  0  0  0  0  0  0  0  0
    4.9223   46.2652   30.9251 H   0  0  0  0  0  0  0  0  0  0  0  0
    6.2809   47.7520   32.4210 H   0  0  0  0  0  0  0  0  0  0  0  0
    8.2319   50.7953   29.6541 H   0  0  0  0  0  0  0  0  0  0  0  0
    8.3058   51.6629   31.2255 H   0  0  0  0  0  0  0  0  0  0  0  0
    9.6641   48.4364   31.8620 H   0  0  0  0  0  0  0  0  0  0  0  0
   12.0301   47.9406   32.1511 H   0  0  0  0  0  0  0  0  0  0  0  0
   13.0970   51.6651   30.3428 H   0  0  0  0  0  0  0  0  0  0  0  0
   13.7530   49.5482   31.4044 H   0  0  0  0  0  0  0  0  0  0  0  0
    9.7427   40.0142   31.9263 H   0  0  0  0  0  0  0  0  0  0  0  0
   11.2131   41.0321   31.8751 H   0  0  0  0  0  0  0  0  0  0  0  0
   11.5981   39.0107   30.5904 H   0  0  0  0  0  0  0  0  0  0  0  0
   10.7008   37.5604   33.1721 H   0  0  0  0  0  0  0  0  0  0  0  0
   14.1977   37.4380   31.5532 H   0  0  0  0  0  0  0  0  0  0  0  0
    9.5180   36.3962   31.6978 H   0  0  0  0  0  0  0  0  0  0  0  0
   12.1418   35.7698   32.5692 H   0  0  0  0  0  0  0  0  0  0  0  0
   11.7729   35.4524   30.4489 H   0  0  0  0  0  0  0  0  0  0  0  0
   12.4321   38.3985   34.8692 H   0  0  0  0  0  0  0  0  0  0  0  0
   17.2667   34.4138   33.1694 H   0  0  0  0  0  0  0  0  0  0  0  0
   15.3757   36.1867   37.9790 H   0  0  0  0  0  0  0  0  0  0  0  0
   16.7634   35.0598   37.7897 H   0  0  0  0  0  0  0  0  0  0  0  0
  1  2  2  0
  1  3  1  0
  3  4  1  0
  4  5  1  0
  6  1  1  0
  7  6  1  0
  6  8  1  0
  8  9  1  0
  9 10  1  0
 10 11  1  0
 11 12  1  0
 12 13  1  0
 13 14  1  0
 13 15  2  0
 14 16  1  0
 16 17  1  0
 17 18  2  0
 19 17  1  0
 18 20  1  0
 21 19  2  0
 19 22  1  0
 20 23  2  0
 23 21  1  0
 22 24  1  0
 22 25  2  0
  4 26  2  0
  4 27  1  0
 28 27  1  0
 28 29  1  0
 29 30  1  0
 29 31  1  0
 30 32  1  0
 31 33  1  0
 31 34  1  0
 34 32  1  0
 32 35  1  0
 34 36  1  0
 37 35  1  0
 38 35  1  0
 39 37  2  0
 37 40  1  0
 41 38  2  0
 42 39  1  0
 40 43  2  0
 40 41  1  0
 44 42  2  0
 44 43  1  0
 43 45  1  0
  6 46  1  6
  7 47  1  0
  7 48  1  0
  8 49  1  0
  8 50  1  0
  9 51  1  0
  9 52  1  0
 10 53  1  0
 10 54  1  0
 11 55  1  0
 11 56  1  0
 12 57  1  0
 16 58  1  0
 16 59  1  0
 18 60  1  0
 20 61  1  0
 21 62  1  0
 23 63  1  0
 28 64  1  0
 28 65  1  0
 29 66  1  0
 31 67  1  0
 32 68  1  0
 33 69  1  0
 34 70  1  0
 36 71  1  0
 38 72  1  0
 42 73  1  0
 45 74  1  0
 45 75  1  0
M  CHG  3   5  -1  22   1  24  -1
M  END
>  <EmbedRMS>  (257) 
0.0739920781703

$$$$

     RDKit          3D

 75 78  0  0  0  0  0  0  0  0999 V2000
    9.4311   42.9413   34.3438 C   0  0  0  0  0  0  0  0  0  0  0  0
   10.4884   43.0412   35.0293 O   0  0  0  0  0  0  0  0  0  0  0  0
    8.8561   41.7130   34.0288 O   0  0  0  0  0  0  0  0  0  0  0  0
    9.4946   40.2164   34.4678 P   0  0  0  0  0  0  0  0  0  0  0  0
    9.7311   40.1742   36.1289 O   0  0  0  0  0  0  0  0  0  0  0  0
    8.7482   44.1363   33.7722 C   0  0  1  0  0  0  0  0  0  0  0  0
    9.3036   45.3669   34.3389 N   0  0  0  0  0  0  0  0  0  0  0  0
    8.8891   44.0522   32.2309 C   0  0  0  0  0  0  0  0  0  0  0  0
    8.2016   45.1727   31.4438 C   0  0  0  0  0  0  0  0  0  0  0  0
    6.6644   45.1060   31.4863 C   0  0  0  0  0  0  0  0  0  0  0  0
    6.0277   46.3240   30.8100 C   0  0  0  0  0  0  0  0  0  0  0  0
    6.5061   47.5638   31.4218 N   0  0  0  0  0  0  0  0  0  0  0  0
    7.2504   48.5408   30.6839 C   0  0  0  0  0  0  0  0  0  0  0  0
    7.6419   49.7533   31.2633 O   0  0  0  0  0  0  0  0  0  0  0  0
    7.5877   48.3086   29.4938 O   0  0  0  0  0  0  0  0  0  0  0  0
    7.3537   50.1224   32.6087 C   0  0  0  0  0  0  0  0  0  0  0  0
    7.8948   51.5034   32.8839 C   0  0  0  0  0  0  0  0  0  0  0  0
    8.8239   51.6680   33.9286 C   0  0  0  0  0  0  0  0  0  0  0  0
    7.5289   52.6303   32.0979 C   0  0  0  0  0  0  0  0  0  0  0  0
    9.3905   52.9162   34.1892 C   0  0  0  0  0  0  0  0  0  0  0  0
    8.1246   53.8761   32.3696 C   0  0  0  0  0  0  0  0  0  0  0  0
    6.5818   52.5307   31.0179 N   0  0  0  0  0  0  0  0  0  0  0  0
    9.0444   54.0170   33.4091 C   0  0  0  0  0  0  0  0  0  0  0  0
    5.4526   51.7554   31.1404 O   0  0  0  0  0  0  0  0  0  0  0  0
    6.6923   53.2726   30.0197 O   0  0  0  0  0  0  0  0  0  0  0  0
    8.5373   39.1404   34.0128 O   0  0  0  0  0  0  0  0  0  0  0  0
   10.9803   40.0888   33.6834 O   0  0  0  0  0  0  0  0  0  0  0  0
   10.8020   40.0896   32.2836 C   0  0  0  0  0  0  0  0  0  0  0  0
   11.5900   38.9179   31.7007 C   0  0  0  0  0  0  0  0  0  0  0  0
   12.9224   38.9391   32.1711 O   0  0  0  0  0  0  0  0  0  0  0  0
   11.0051   37.5677   32.0967 C   0  0  0  0  0  0  0  0  0  0  0  0
   13.3518   37.5910   32.2610 C   0  0  0  0  0  0  0  0  0  0  0  0
    9.9381   37.1796   31.2733 O   0  0  0  0  0  0  0  0  0  0  0  0
   12.1912   36.6690   31.9043 C   0  0  0  0  0  0  0  0  0  0  0  0
   13.8027   37.2968   33.6192 N   0  0  0  0  0  0  0  0  0  0  0  0
   12.2877   36.2854   30.5568 O   0  0  0  0  0  0  0  0  0  0  0  0
   14.7928   36.4724   33.9861 C   0  0  0  0  0  0  0  0  0  0  0  0
   13.2751   37.7297   34.7941 C   0  0  0  0  0  0  0  0  0  0  0  0
   15.6239   35.7581   33.1859 N   0  0  0  0  0  0  0  0  0  0  0  0
   14.8726   36.4408   35.3329 C   0  0  0  0  0  0  0  0  0  0  0  0
   13.9209   37.2262   35.8807 N   0  0  0  0  0  0  0  0  0  0  0  0
   16.5870   34.9922   33.7801 C   0  0  0  0  0  0  0  0  0  0  0  0
   15.8576   35.6716   35.9442 C   0  0  0  0  0  0  0  0  0  0  0  0
   16.7024   34.9584   35.1438 N   0  0  0  0  0  0  0  0  0  0  0  0
   16.0101   35.6383   37.3563 N   0  0  0  0  0  0  0  0  0  0  0  0
    7.6761   44.0638   34.0546 H   0  0  0  0  0  0  0  0  0  0  0  0
   10.2147   45.5887   33.8745 H   0  0  0  0  0  0  0  0  0  0  0  0
    8.6463   46.1563   34.1438 H   0  0  0  0  0  0  0  0  0  0  0  0
    9.9708   44.0645   31.9682 H   0  0  0  0  0  0  0  0  0  0  0  0
    8.4828   43.0821   31.8666 H   0  0  0  0  0  0  0  0  0  0  0  0
    8.5217   45.0977   30.3814 H   0  0  0  0  0  0  0  0  0  0  0  0
    8.5702   46.1492   31.8192 H   0  0  0  0  0  0  0  0  0  0  0  0
    6.3125   45.0758   32.5384 H   0  0  0  0  0  0  0  0  0  0  0  0
    6.3164   44.1801   30.9792 H   0  0  0  0  0  0  0  0  0  0  0  0
    4.9240   46.2687   30.9245 H   0  0  0  0  0  0  0  0  0  0  0  0
    6.2483   46.2918   29.7216 H   0  0  0  0  0  0  0  0  0  0  0  0
    6.2767   47.7251   32.4271 H   0  0  0  0  0  0  0  0  0  0  0  0
    6.2585   50.1112   32.7882 H   0  0  0  0  0  0  0  0  0  0  0  0
    7.8118   49.3746   33.2927 H   0  0  0  0  0  0  0  0  0  0  0  0
    9.1196   50.8258   34.5420 H   0  0  0  0  0  0  0  0  0  0  0  0
   10.1047   53.0282   34.9948 H   0  0  0  0  0  0  0  0  0  0  0  0
    7.8638   54.7472   31.7818 H   0  0  0  0  0  0  0  0  0  0  0  0
    9.4885   54.9833   33.6111 H   0  0  0  0  0  0  0  0  0  0  0  0
    9.7471   40.0309   31.9256 H   0  0  0  0  0  0  0  0  0  0  0  0
   11.2238   41.0358   31.8821 H   0  0  0  0  0  0  0  0  0  0  0  0
   11.5999   39.0159   30.5905 H   0  0  0  0  0  0  0  0  0  0  0  0
   10.7034   37.5451   33.1703 H   0  0  0  0  0  0  0  0  0  0  0  0
   14.1992   37.4424   31.5548 H   0  0  0  0  0  0  0  0  0  0  0  0
    9.1370   37.6634   31.6025 H   0  0  0  0  0  0  0  0  0  0  0  0
   12.1204   35.7713   32.5637 H   0  0  0  0  0  0  0  0  0  0  0  0
   12.9457   35.5426   30.5221 H   0  0  0  0  0  0  0  0  0  0  0  0
   12.4322   38.3989   34.8700 H   0  0  0  0  0  0  0  0  0  0  0  0
   17.2664   34.4142   33.1690 H   0  0  0  0  0  0  0  0  0  0  0  0
   15.3759   36.1865   37.9790 H   0  0  0  0  0  0  0  0  0  0  0  0
   16.7636   35.0598   37.7895 H   0  0  0  0  0  0  0  0  0  0  0  0
  1  2  2  0
  1  3  1  0
  3  4  1  0
  4  5  1  0
  6  1  1  0
  7  6  1  0
  6  8  1  0
  8  9  1  0
  9 10  1  0
 10 11  1  0
 11 12  1  0
 12 13  1  0
 13 14  1  0
 13 15  2  0
 14 16  1  0
 16 17  1  0
 17 18  2  0
 19 17  1  0
 18 20  1  0
 21 19  2  0
 19 22  1  0
 20 23  2  0
 23 21  1  0
 22 24  1  0
 22 25  2  0
  4 26  2  0
  4 27  1  0
 28 27  1  0
 28 29  1  0
 29 30  1  0
 29 31  1  0
 30 32  1  0
 31 33  1  0
 31 34  1  0
 34 32  1  0
 32 35  1  0
 34 36  1  0
 37 35  1  0
 38 35  1  0
 39 37  2  0
 37 40  1  0
 41 38  2  0
 42 39  1  0
 40 43  2  0
 40 41  1  0
 44 42  2  0
 44 43  1  0
 43 45  1  0
  6 46  1  6
  7 47  1  0
  7 48  1  0
  8 49  1  0
  8 50  1  0
  9 51  1  0
  9 52  1  0
 10 53  1  0
 10 54  1  0
 11 55  1  0
 11 56  1  0
 12 57  1  0
 16 58  1  0
 16 59  1  0
 18 60  1  0
 20 61  1  0
 21 62  1  0
 23 63  1  0
 28 64  1  0
 28 65  1  0
 29 66  1  0
 31 67  1  0
 32 68  1  0
 33 69  1  0
 34 70  1  0
 36 71  1  0
 38 72  1  0
 42 73  1  0
 45 74  1  0
 45 75  1  0
M  CHG  3   5  -1  22   1  24  -1
M  END
>  <EmbedRMS>  (258) 
0.0733447704064

$$$$

     RDKit          3D

 75 78  0  0  0  0  0  0  0  0999 V2000
    9.4314   42.9421   34.3430 C   0  0  0  0  0  0  0  0  0  0  0  0
   10.4886   43.0415   35.0289 O   0  0  0  0  0  0  0  0  0  0  0  0
    8.8558   41.7137   34.0289 O   0  0  0  0  0  0  0  0  0  0  0  0
    9.4931   40.2169   34.4699 P   0  0  0  0  0  0  0  0  0  0  0  0
    9.7293   40.1748   36.1309 O   0  0  0  0  0  0  0  0  0  0  0  0
    8.7492   44.1379   33.7714 C   0  0  1  0  0  0  0  0  0  0  0  0
    9.3053   45.3680   34.3386 N   0  0  0  0  0  0  0  0  0  0  0  0
    8.8901   44.0558   32.2300 C   0  0  0  0  0  0  0  0  0  0  0  0
    8.2007   45.1769   31.4441 C   0  0  0  0  0  0  0  0  0  0  0  0
    6.6632   45.1088   31.4884 C   0  0  0  0  0  0  0  0  0  0  0  0
    6.0207   46.3219   30.8071 C   0  0  0  0  0  0  0  0  0  0  0  0
    6.4902   47.5669   31.4139 N   0  0  0  0  0  0  0  0  0  0  0  0
    7.2729   48.5189   30.6973 C   0  0  0  0  0  0  0  0  0  0  0  0
    7.7592   49.6430   31.3720 O   0  0  0  0  0  0  0  0  0  0  0  0
    7.5867   48.3120   29.4936 O   0  0  0  0  0  0  0  0  0  0  0  0
    8.8327   50.4392   30.8738 C   0  0  0  0  0  0  0  0  0  0  0  0
   10.1177   49.6382   30.8684 C   0  0  0  0  0  0  0  0  0  0  0  0
   10.4584   48.9195   32.0298 C   0  0  0  0  0  0  0  0  0  0  0  0
   10.9479   49.5307   29.7219 C   0  0  0  0  0  0  0  0  0  0  0  0
   11.5661   48.0711   32.0442 C   0  0  0  0  0  0  0  0  0  0  0  0
   12.0491   48.6577   29.7504 C   0  0  0  0  0  0  0  0  0  0  0  0
   10.7089   50.3055   28.5370 N   0  0  0  0  0  0  0  0  0  0  0  0
   12.3538   47.9323   30.9032 C   0  0  0  0  0  0  0  0  0  0  0  0
   10.9612   49.7583   27.3001 O   0  0  0  0  0  0  0  0  0  0  0  0
   10.5124   51.5352   28.6227 O   0  0  0  0  0  0  0  0  0  0  0  0
    8.5367   39.1405   34.0137 O   0  0  0  0  0  0  0  0  0  0  0  0
   10.9788   40.0876   33.6872 O   0  0  0  0  0  0  0  0  0  0  0  0
   10.7993   40.0947   32.2884 C   0  0  0  0  0  0  0  0  0  0  0  0
   11.5957   38.9352   31.6994 C   0  0  0  0  0  0  0  0  0  0  0  0
   12.9257   38.9478   32.1799 O   0  0  0  0  0  0  0  0  0  0  0  0
   11.0070   37.5758   32.0732 C   0  0  0  0  0  0  0  0  0  0  0  0
   13.3571   37.5980   32.2612 C   0  0  0  0  0  0  0  0  0  0  0  0
    9.9093   37.1808   31.2875 O   0  0  0  0  0  0  0  0  0  0  0  0
   12.1967   36.6764   31.8894 C   0  0  0  0  0  0  0  0  0  0  0  0
   13.8018   37.2956   33.6197 N   0  0  0  0  0  0  0  0  0  0  0  0
   12.3048   36.2360   30.5555 O   0  0  0  0  0  0  0  0  0  0  0  0
   14.7922   36.4716   33.9864 C   0  0  0  0  0  0  0  0  0  0  0  0
   13.2747   37.7291   34.7944 C   0  0  0  0  0  0  0  0  0  0  0  0
   15.6240   35.7582   33.1861 N   0  0  0  0  0  0  0  0  0  0  0  0
   14.8721   36.4402   35.3331 C   0  0  0  0  0  0  0  0  0  0  0  0
   13.9206   37.2257   35.8810 N   0  0  0  0  0  0  0  0  0  0  0  0
   16.5873   34.9924   33.7802 C   0  0  0  0  0  0  0  0  0  0  0  0
   15.8576   35.6714   35.9444 C   0  0  0  0  0  0  0  0  0  0  0  0
   16.7026   34.9585   35.1439 N   0  0  0  0  0  0  0  0  0  0  0  0
   16.0102   35.6383   37.3564 N   0  0  0  0  0  0  0  0  0  0  0  0
    7.6771   44.0661   34.0537 H   0  0  0  0  0  0  0  0  0  0  0  0
    8.6514   46.1591   34.1395 H   0  0  0  0  0  0  0  0  0  0  0  0
   10.2186   45.5866   33.8773 H   0  0  0  0  0  0  0  0  0  0  0  0
    8.4855   43.0856   31.8646 H   0  0  0  0  0  0  0  0  0  0  0  0
    9.9718   44.0708   31.9674 H   0  0  0  0  0  0  0  0  0  0  0  0
    8.5685   46.1541   31.8191 H   0  0  0  0  0  0  0  0  0  0  0  0
    8.5201   45.1033   30.3814 H   0  0  0  0  0  0  0  0  0  0  0  0
    6.3164   44.1796   30.9863 H   0  0  0  0  0  0  0  0  0  0  0  0
    6.3129   45.0828   32.5411 H   0  0  0  0  0  0  0  0  0  0  0  0
    6.2446   46.2878   29.7193 H   0  0  0  0  0  0  0  0  0  0  0  0
    4.9172   46.2611   30.9188 H   0  0  0  0  0  0  0  0  0  0  0  0
    6.2721   47.7504   32.4191 H   0  0  0  0  0  0  0  0  0  0  0  0
    8.5549   50.8184   29.8702 H   0  0  0  0  0  0  0  0  0  0  0  0
    8.9637   51.3142   31.5441 H   0  0  0  0  0  0  0  0  0  0  0  0
    9.8452   48.9940   32.9198 H   0  0  0  0  0  0  0  0  0  0  0  0
   11.8080   47.5126   32.9392 H   0  0  0  0  0  0  0  0  0  0  0  0
   12.6887   48.5571   28.8826 H   0  0  0  0  0  0  0  0  0  0  0  0
   13.2096   47.2697   30.9149 H   0  0  0  0  0  0  0  0  0  0  0  0
    9.7449   40.0202   31.9302 H   0  0  0  0  0  0  0  0  0  0  0  0
   11.2093   41.0481   31.8916 H   0  0  0  0  0  0  0  0  0  0  0  0
   11.6207   39.0685   30.5942 H   0  0  0  0  0  0  0  0  0  0  0  0
   10.7059   37.5565   33.1439 H   0  0  0  0  0  0  0  0  0  0  0  0
   14.2095   37.4544   31.5601 H   0  0  0  0  0  0  0  0  0  0  0  0
   10.0864   37.4211   30.3414 H   0  0  0  0  0  0  0  0  0  0  0  0
   12.1275   35.7873   32.5550 H   0  0  0  0  0  0  0  0  0  0  0  0
   12.5030   37.0109   29.9673 H   0  0  0  0  0  0  0  0  0  0  0  0
   12.4328   38.3997   34.8703 H   0  0  0  0  0  0  0  0  0  0  0  0
   17.2670   34.4149   33.1691 H   0  0  0  0  0  0  0  0  0  0  0  0
   16.7640   35.0601   37.7896 H   0  0  0  0  0  0  0  0  0  0  0  0
   15.3758   36.1862   37.9792 H   0  0  0  0  0  0  0  0  0  0  0  0
  1  2  2  0
  1  3  1  0
  3  4  1  0
  4  5  1  0
  6  1  1  0
  7  6  1  0
  6  8  1  0
  8  9  1  0
  9 10  1  0
 10 11  1  0
 11 12  1  0
 12 13  1  0
 13 14  1  0
 13 15  2  0
 14 16  1  0
 16 17  1  0
 17 18  2  0
 19 17  1  0
 18 20  1  0
 21 19  2  0
 19 22  1  0
 20 23  2  0
 23 21  1  0
 22 24  1  0
 22 25  2  0
  4 26  2  0
  4 27  1  0
 28 27  1  0
 28 29  1  0
 29 30  1  0
 29 31  1  0
 30 32  1  0
 31 33  1  0
 31 34  1  0
 34 32  1  0
 32 35  1  0
 34 36  1  0
 37 35  1  0
 38 35  1  0
 39 37  2  0
 37 40  1  0
 41 38  2  0
 42 39  1  0
 40 43  2  0
 40 41  1  0
 44 42  2  0
 44 43  1  0
 43 45  1  0
  6 46  1  6
  7 47  1  0
  7 48  1  0
  8 49  1  0
  8 50  1  0
  9 51  1  0
  9 52  1  0
 10 53  1  0
 10 54  1  0
 11 55  1  0
 11 56  1  0
 12 57  1  0
 16 58  1  0
 16 59  1  0
 18 60  1  0
 20 61  1  0
 21 62  1  0
 23 63  1  0
 28 64  1  0
 28 65  1  0
 29 66  1  0
 31 67  1  0
 32 68  1  0
 33 69  1  0
 34 70  1  0
 36 71  1  0
 38 72  1  0
 42 73  1  0
 45 74  1  0
 45 75  1  0
M  CHG  3   5  -1  22   1  24  -1
M  END
>  <EmbedRMS>  (259) 
0.0765204743092

$$$$

     RDKit          3D

 75 78  0  0  0  0  0  0  0  0999 V2000
    9.4312   42.9410   34.3437 C   0  0  0  0  0  0  0  0  0  0  0  0
   10.4885   43.0408   35.0293 O   0  0  0  0  0  0  0  0  0  0  0  0
    8.8561   41.7127   34.0287 O   0  0  0  0  0  0  0  0  0  0  0  0
    9.4944   40.2160   34.4677 P   0  0  0  0  0  0  0  0  0  0  0  0
    9.7313   40.1739   36.1288 O   0  0  0  0  0  0  0  0  0  0  0  0
    8.7484   44.1359   33.7721 C   0  0  1  0  0  0  0  0  0  0  0  0
    9.3039   45.3664   34.3388 N   0  0  0  0  0  0  0  0  0  0  0  0
    8.8892   44.0518   32.2308 C   0  0  0  0  0  0  0  0  0  0  0  0
    8.2015   45.1721   31.4435 C   0  0  0  0  0  0  0  0  0  0  0  0
    6.6642   45.1066   31.4887 C   0  0  0  0  0  0  0  0  0  0  0  0
    6.0267   46.3237   30.8123 C   0  0  0  0  0  0  0  0  0  0  0  0
    6.5083   47.5645   31.4190 N   0  0  0  0  0  0  0  0  0  0  0  0
    7.2422   48.5406   30.6825 C   0  0  0  0  0  0  0  0  0  0  0  0
    7.5847   49.7468   31.3027 O   0  0  0  0  0  0  0  0  0  0  0  0
    7.5940   48.3105   29.4938 O   0  0  0  0  0  0  0  0  0  0  0  0
    8.2922   50.7938   30.6405 C   0  0  0  0  0  0  0  0  0  0  0  0
    7.4290   51.4392   29.5805 C   0  0  0  0  0  0  0  0  0  0  0  0
    7.9042   51.4751   28.2565 C   0  0  0  0  0  0  0  0  0  0  0  0
    6.1400   51.9638   29.8691 C   0  0  0  0  0  0  0  0  0  0  0  0
    7.1207   52.0069   27.2318 C   0  0  0  0  0  0  0  0  0  0  0  0
    5.3611   52.4815   28.8175 C   0  0  0  0  0  0  0  0  0  0  0  0
    5.5990   51.9621   31.2032 N   0  0  0  0  0  0  0  0  0  0  0  0
    5.8503   52.5055   27.5110 C   0  0  0  0  0  0  0  0  0  0  0  0
    6.3944   52.2589   32.2851 O   0  0  0  0  0  0  0  0  0  0  0  0
    4.3681   51.8484   31.3784 O   0  0  0  0  0  0  0  0  0  0  0  0
    8.5373   39.1399   34.0125 O   0  0  0  0  0  0  0  0  0  0  0  0
   10.9796   40.0877   33.6826 O   0  0  0  0  0  0  0  0  0  0  0  0
   10.7997   40.0900   32.2829 C   0  0  0  0  0  0  0  0  0  0  0  0
   11.5968   38.9274   31.6963 C   0  0  0  0  0  0  0  0  0  0  0  0
   12.9242   38.9426   32.1785 O   0  0  0  0  0  0  0  0  0  0  0  0
   11.0086   37.5714   32.0780 C   0  0  0  0  0  0  0  0  0  0  0  0
   13.3528   37.5929   32.2623 C   0  0  0  0  0  0  0  0  0  0  0  0
    9.9098   37.1771   31.2926 O   0  0  0  0  0  0  0  0  0  0  0  0
   12.1942   36.6683   31.8995 C   0  0  0  0  0  0  0  0  0  0  0  0
   13.8019   37.2950   33.6199 N   0  0  0  0  0  0  0  0  0  0  0  0
   12.3026   36.2773   30.5559 O   0  0  0  0  0  0  0  0  0  0  0  0
   14.7926   36.4715   33.9865 C   0  0  0  0  0  0  0  0  0  0  0  0
   13.2749   37.7286   34.7946 C   0  0  0  0  0  0  0  0  0  0  0  0
   15.6239   35.7577   33.1860 N   0  0  0  0  0  0  0  0  0  0  0  0
   14.8727   36.4403   35.3332 C   0  0  0  0  0  0  0  0  0  0  0  0
   13.9210   37.2257   35.8811 N   0  0  0  0  0  0  0  0  0  0  0  0
   16.5873   34.9921   33.7802 C   0  0  0  0  0  0  0  0  0  0  0  0
   15.8579   35.6714   35.9444 C   0  0  0  0  0  0  0  0  0  0  0  0
   16.7028   34.9583   35.1439 N   0  0  0  0  0  0  0  0  0  0  0  0
   16.0104   35.6381   37.3564 N   0  0  0  0  0  0  0  0  0  0  0  0
    7.6764   44.0633   34.0547 H   0  0  0  0  0  0  0  0  0  0  0  0
    8.6468   46.1558   34.1431 H   0  0  0  0  0  0  0  0  0  0  0  0
   10.2152   45.5878   33.8748 H   0  0  0  0  0  0  0  0  0  0  0  0
    8.4830   43.0818   31.8666 H   0  0  0  0  0  0  0  0  0  0  0  0
    9.9708   44.0642   31.9679 H   0  0  0  0  0  0  0  0  0  0  0  0
    8.5714   46.1487   31.8174 H   0  0  0  0  0  0  0  0  0  0  0  0
    8.5198   45.0959   30.3807 H   0  0  0  0  0  0  0  0  0  0  0  0
    6.3142   45.0783   32.5413 H   0  0  0  0  0  0  0  0  0  0  0  0
    6.3147   44.1801   30.9835 H   0  0  0  0  0  0  0  0  0  0  0  0
    4.9234   46.2700   30.9301 H   0  0  0  0  0  0  0  0  0  0  0  0
    6.2448   46.2897   29.7232 H   0  0  0  0  0  0  0  0  0  0  0  0
    6.2848   47.7545   32.4218 H   0  0  0  0  0  0  0  0  0  0  0  0
    9.2336   50.3847   30.2121 H   0  0  0  0  0  0  0  0  0  0  0  0
    8.5951   51.5583   31.3843 H   0  0  0  0  0  0  0  0  0  0  0  0
    8.8824   51.0799   28.0113 H   0  0  0  0  0  0  0  0  0  0  0  0
    7.4975   52.0260   26.2173 H   0  0  0  0  0  0  0  0  0  0  0  0
    4.3746   52.8824   29.0132 H   0  0  0  0  0  0  0  0  0  0  0  0
    5.2428   52.9136   26.7135 H   0  0  0  0  0  0  0  0  0  0  0  0
   11.2095   41.0419   31.8824 H   0  0  0  0  0  0  0  0  0  0  0  0
    9.7449   40.0145   31.9263 H   0  0  0  0  0  0  0  0  0  0  0  0
   11.6265   39.0456   30.5888 H   0  0  0  0  0  0  0  0  0  0  0  0
   10.7063   37.5575   33.1485 H   0  0  0  0  0  0  0  0  0  0  0  0
   14.2020   37.4484   31.5574 H   0  0  0  0  0  0  0  0  0  0  0  0
   10.0952   37.3991   30.3433 H   0  0  0  0  0  0  0  0  0  0  0  0
   12.1162   35.7745   32.5634 H   0  0  0  0  0  0  0  0  0  0  0  0
   12.9614   35.5349   30.5312 H   0  0  0  0  0  0  0  0  0  0  0  0
   12.4321   38.3982   34.8705 H   0  0  0  0  0  0  0  0  0  0  0  0
   17.2669   34.4144   33.1690 H   0  0  0  0  0  0  0  0  0  0  0  0
   16.7641   35.0599   37.7897 H   0  0  0  0  0  0  0  0  0  0  0  0
   15.3761   36.1862   37.9792 H   0  0  0  0  0  0  0  0  0  0  0  0
  1  2  2  0
  1  3  1  0
  3  4  1  0
  4  5  1  0
  6  1  1  0
  7  6  1  0
  6  8  1  0
  8  9  1  0
  9 10  1  0
 10 11  1  0
 11 12  1  0
 12 13  1  0
 13 14  1  0
 13 15  2  0
 14 16  1  0
 16 17  1  0
 17 18  2  0
 19 17  1  0
 18 20  1  0
 21 19  2  0
 19 22  1  0
 20 23  2  0
 23 21  1  0
 22 24  1  0
 22 25  2  0
  4 26  2  0
  4 27  1  0
 28 27  1  0
 28 29  1  0
 29 30  1  0
 29 31  1  0
 30 32  1  0
 31 33  1  0
 31 34  1  0
 34 32  1  0
 32 35  1  0
 34 36  1  0
 37 35  1  0
 38 35  1  0
 39 37  2  0
 37 40  1  0
 41 38  2  0
 42 39  1  0
 40 43  2  0
 40 41  1  0
 44 42  2  0
 44 43  1  0
 43 45  1  0
  6 46  1  6
  7 47  1  0
  7 48  1  0
  8 49  1  0
  8 50  1  0
  9 51  1  0
  9 52  1  0
 10 53  1  0
 10 54  1  0
 11 55  1  0
 11 56  1  0
 12 57  1  0
 16 58  1  0
 16 59  1  0
 18 60  1  0
 20 61  1  0
 21 62  1  0
 23 63  1  0
 28 64  1  0
 28 65  1  0
 29 66  1  0
 31 67  1  0
 32 68  1  0
 33 69  1  0
 34 70  1  0
 36 71  1  0
 38 72  1  0
 42 73  1  0
 45 74  1  0
 45 75  1  0
M  CHG  3   5  -1  22   1  24  -1
M  END
>  <EmbedRMS>  (260) 
0.0737332663188

$$$$

     RDKit          3D

 75 78  0  0  0  0  0  0  0  0999 V2000
    9.4313   42.9412   34.3437 C   0  0  0  0  0  0  0  0  0  0  0  0
   10.4886   43.0410   35.0294 O   0  0  0  0  0  0  0  0  0  0  0  0
    8.8562   41.7129   34.0288 O   0  0  0  0  0  0  0  0  0  0  0  0
    9.4947   40.2163   34.4679 P   0  0  0  0  0  0  0  0  0  0  0  0
    9.7311   40.1742   36.1290 O   0  0  0  0  0  0  0  0  0  0  0  0
    8.7484   44.1360   33.7721 C   0  0  1  0  0  0  0  0  0  0  0  0
    9.3039   45.3666   34.3388 N   0  0  0  0  0  0  0  0  0  0  0  0
    8.8892   44.0520   32.2309 C   0  0  0  0  0  0  0  0  0  0  0  0
    8.2014   45.1722   31.4436 C   0  0  0  0  0  0  0  0  0  0  0  0
    6.6642   45.1065   31.4887 C   0  0  0  0  0  0  0  0  0  0  0  0
    6.0264   46.3234   30.8120 C   0  0  0  0  0  0  0  0  0  0  0  0
    6.5073   47.5645   31.4186 N   0  0  0  0  0  0  0  0  0  0  0  0
    7.2447   48.5391   30.6836 C   0  0  0  0  0  0  0  0  0  0  0  0
    7.5986   49.7383   31.3072 O   0  0  0  0  0  0  0  0  0  0  0  0
    7.5928   48.3117   29.4932 O   0  0  0  0  0  0  0  0  0  0  0  0
    8.3516   50.7558   30.6510 C   0  0  0  0  0  0  0  0  0  0  0  0
    8.6129   51.9370   31.5618 C   0  0  0  0  0  0  0  0  0  0  0  0
    8.4197   51.8134   32.9539 C   0  0  0  0  0  0  0  0  0  0  0  0
    9.0450   53.1865   31.0362 C   0  0  0  0  0  0  0  0  0  0  0  0
    8.6125   52.9051   33.8012 C   0  0  0  0  0  0  0  0  0  0  0  0
    9.2158   54.2766   31.9080 C   0  0  0  0  0  0  0  0  0  0  0  0
    9.3033   53.3761   29.6323 N   0  0  0  0  0  0  0  0  0  0  0  0
    9.0021   54.1355   33.2789 C   0  0  0  0  0  0  0  0  0  0  0  0
    9.1321   54.6177   29.0641 O   0  0  0  0  0  0  0  0  0  0  0  0
    9.8425   52.4772   28.9550 O   0  0  0  0  0  0  0  0  0  0  0  0
    8.5375   39.1404   34.0127 O   0  0  0  0  0  0  0  0  0  0  0  0
   10.9805   40.0889   33.6836 O   0  0  0  0  0  0  0  0  0  0  0  0
   10.8025   40.0902   32.2837 C   0  0  0  0  0  0  0  0  0  0  0  0
   11.5888   38.9175   31.7008 C   0  0  0  0  0  0  0  0  0  0  0  0
   12.9219   38.9373   32.1692 O   0  0  0  0  0  0  0  0  0  0  0  0
   11.0028   37.5683   32.0981 C   0  0  0  0  0  0  0  0  0  0  0  0
   13.3496   37.5886   32.2601 C   0  0  0  0  0  0  0  0  0  0  0  0
    9.9343   37.1823   31.2757 O   0  0  0  0  0  0  0  0  0  0  0  0
   12.1891   36.6677   31.9050 C   0  0  0  0  0  0  0  0  0  0  0  0
   13.8025   37.2965   33.6186 N   0  0  0  0  0  0  0  0  0  0  0  0
   12.2990   36.2867   30.5568 O   0  0  0  0  0  0  0  0  0  0  0  0
   14.7929   36.4725   33.9858 C   0  0  0  0  0  0  0  0  0  0  0  0
   13.2749   37.7294   34.7935 C   0  0  0  0  0  0  0  0  0  0  0  0
   15.6240   35.7580   33.1858 N   0  0  0  0  0  0  0  0  0  0  0  0
   14.8727   36.4411   35.3327 C   0  0  0  0  0  0  0  0  0  0  0  0
   13.9208   37.2263   35.8803 N   0  0  0  0  0  0  0  0  0  0  0  0
   16.5871   34.9921   33.7801 C   0  0  0  0  0  0  0  0  0  0  0  0
   15.8576   35.6718   35.9441 C   0  0  0  0  0  0  0  0  0  0  0  0
   16.7024   34.9584   35.1438 N   0  0  0  0  0  0  0  0  0  0  0  0
   16.0099   35.6384   37.3562 N   0  0  0  0  0  0  0  0  0  0  0  0
    7.6764   44.0635   34.0548 H   0  0  0  0  0  0  0  0  0  0  0  0
   10.2152   45.5881   33.8747 H   0  0  0  0  0  0  0  0  0  0  0  0
    8.6468   46.1559   34.1432 H   0  0  0  0  0  0  0  0  0  0  0  0
    8.4831   43.0819   31.8666 H   0  0  0  0  0  0  0  0  0  0  0  0
    9.9708   44.0645   31.9679 H   0  0  0  0  0  0  0  0  0  0  0  0
    8.5198   45.0961   30.3808 H   0  0  0  0  0  0  0  0  0  0  0  0
    8.5712   46.1489   31.8176 H   0  0  0  0  0  0  0  0  0  0  0  0
    6.3141   45.0785   32.5414 H   0  0  0  0  0  0  0  0  0  0  0  0
    6.3148   44.1799   30.9838 H   0  0  0  0  0  0  0  0  0  0  0  0
    6.2449   46.2893   29.7230 H   0  0  0  0  0  0  0  0  0  0  0  0
    4.9231   46.2692   30.9294 H   0  0  0  0  0  0  0  0  0  0  0  0
    6.2857   47.7533   32.4221 H   0  0  0  0  0  0  0  0  0  0  0  0
    9.3240   50.3354   30.3155 H   0  0  0  0  0  0  0  0  0  0  0  0
    7.7724   51.0981   29.7659 H   0  0  0  0  0  0  0  0  0  0  0  0
    8.1162   50.8731   33.3955 H   0  0  0  0  0  0  0  0  0  0  0  0
    8.4557   52.7966   34.8668 H   0  0  0  0  0  0  0  0  0  0  0  0
    9.5363   55.2379   31.5268 H   0  0  0  0  0  0  0  0  0  0  0  0
    9.1473   54.9811   33.9388 H   0  0  0  0  0  0  0  0  0  0  0  0
    9.7476   40.0332   31.9256 H   0  0  0  0  0  0  0  0  0  0  0  0
   11.2257   41.0358   31.8825 H   0  0  0  0  0  0  0  0  0  0  0  0
   11.5975   39.0148   30.5905 H   0  0  0  0  0  0  0  0  0  0  0  0
   10.7023   37.5457   33.1720 H   0  0  0  0  0  0  0  0  0  0  0  0
   14.1957   37.4366   31.5528 H   0  0  0  0  0  0  0  0  0  0  0  0
    9.1339   37.6658   31.6070 H   0  0  0  0  0  0  0  0  0  0  0  0
   12.1380   35.7717   32.5698 H   0  0  0  0  0  0  0  0  0  0  0  0
   11.7706   35.4530   30.4497 H   0  0  0  0  0  0  0  0  0  0  0  0
   12.4314   38.3980   34.8694 H   0  0  0  0  0  0  0  0  0  0  0  0
   17.2665   34.4140   33.1691 H   0  0  0  0  0  0  0  0  0  0  0  0
   15.3757   36.1868   37.9789 H   0  0  0  0  0  0  0  0  0  0  0  0
   16.7633   35.0599   37.7895 H   0  0  0  0  0  0  0  0  0  0  0  0
  1  2  2  0
  1  3  1  0
  3  4  1  0
  4  5  1  0
  6  1  1  0
  7  6  1  0
  6  8  1  0
  8  9  1  0
  9 10  1  0
 10 11  1  0
 11 12  1  0
 12 13  1  0
 13 14  1  0
 13 15  2  0
 14 16  1  0
 16 17  1  0
 17 18  2  0
 19 17  1  0
 18 20  1  0
 21 19  2  0
 19 22  1  0
 20 23  2  0
 23 21  1  0
 22 24  1  0
 22 25  2  0
  4 26  2  0
  4 27  1  0
 28 27  1  0
 28 29  1  0
 29 30  1  0
 29 31  1  0
 30 32  1  0
 31 33  1  0
 31 34  1  0
 34 32  1  0
 32 35  1  0
 34 36  1  0
 37 35  1  0
 38 35  1  0
 39 37  2  0
 37 40  1  0
 41 38  2  0
 42 39  1  0
 40 43  2  0
 40 41  1  0
 44 42  2  0
 44 43  1  0
 43 45  1  0
  6 46  1  6
  7 47  1  0
  7 48  1  0
  8 49  1  0
  8 50  1  0
  9 51  1  0
  9 52  1  0
 10 53  1  0
 10 54  1  0
 11 55  1  0
 11 56  1  0
 12 57  1  0
 16 58  1  0
 16 59  1  0
 18 60  1  0
 20 61  1  0
 21 62  1  0
 23 63  1  0
 28 64  1  0
 28 65  1  0
 29 66  1  0
 31 67  1  0
 32 68  1  0
 33 69  1  0
 34 70  1  0
 36 71  1  0
 38 72  1  0
 42 73  1  0
 45 74  1  0
 45 75  1  0
M  CHG  3   5  -1  22   1  24  -1
M  END
>  <EmbedRMS>  (261) 
0.0734035461103

$$$$

     RDKit          3D

 75 78  0  0  0  0  0  0  0  0999 V2000
    9.4333   42.9368   34.3460 C   0  0  0  0  0  0  0  0  0  0  0  0
   10.4907   43.0332   35.0318 O   0  0  0  0  0  0  0  0  0  0  0  0
    8.8564   41.7106   34.0294 O   0  0  0  0  0  0  0  0  0  0  0  0
    9.4943   40.2141   34.4678 P   0  0  0  0  0  0  0  0  0  0  0  0
    9.7310   40.1725   36.1289 O   0  0  0  0  0  0  0  0  0  0  0  0
    8.7507   44.1353   33.7741 C   0  0  1  0  0  0  0  0  0  0  0  0
    9.2964   45.3826   34.3133 N   0  0  0  0  0  0  0  0  0  0  0  0
    8.8892   44.0536   32.2358 C   0  0  0  0  0  0  0  0  0  0  0  0
    8.2024   45.1834   31.4618 C   0  0  0  0  0  0  0  0  0  0  0  0
    6.6649   45.1047   31.4849 C   0  0  0  0  0  0  0  0  0  0  0  0
    6.0256   46.3219   30.8088 C   0  0  0  0  0  0  0  0  0  0  0  0
    6.5026   47.5638   31.4167 N   0  0  0  0  0  0  0  0  0  0  0  0
    7.2538   48.5328   30.6884 C   0  0  0  0  0  0  0  0  0  0  0  0
    7.6511   49.7073   31.3314 O   0  0  0  0  0  0  0  0  0  0  0  0
    7.5890   48.3143   29.4927 O   0  0  0  0  0  0  0  0  0  0  0  0
    8.4634   50.6941   30.7034 C   0  0  0  0  0  0  0  0  0  0  0  0
    8.8311   51.7595   31.7059 C   0  0  0  0  0  0  0  0  0  0  0  0
    8.4679   53.0924   31.4371 C   0  0  0  0  0  0  0  0  0  0  0  0
    9.4937   51.4536   32.9276 C   0  0  0  0  0  0  0  0  0  0  0  0
    8.7411   54.1051   32.3571 C   0  0  0  0  0  0  0  0  0  0  0  0
    9.7441   52.4887   33.8463 C   0  0  0  0  0  0  0  0  0  0  0  0
    9.8960   50.1131   33.2683 N   0  0  0  0  0  0  0  0  0  0  0  0
    9.3743   53.8034   33.5606 C   0  0  0  0  0  0  0  0  0  0  0  0
    9.9569   49.7295   34.5884 O   0  0  0  0  0  0  0  0  0  0  0  0
   10.3433   49.3375   32.3992 O   0  0  0  0  0  0  0  0  0  0  0  0
    8.5371   39.1384   34.0121 O   0  0  0  0  0  0  0  0  0  0  0  0
   10.9798   40.0871   33.6829 O   0  0  0  0  0  0  0  0  0  0  0  0
   10.8002   40.0905   32.2832 C   0  0  0  0  0  0  0  0  0  0  0  0
   11.5958   38.9271   31.6963 C   0  0  0  0  0  0  0  0  0  0  0  0
   12.9239   38.9409   32.1766 O   0  0  0  0  0  0  0  0  0  0  0  0
   11.0062   37.5719   32.0793 C   0  0  0  0  0  0  0  0  0  0  0  0
   13.3507   37.5905   32.2614 C   0  0  0  0  0  0  0  0  0  0  0  0
    9.9064   37.1792   31.2946 O   0  0  0  0  0  0  0  0  0  0  0  0
   12.1920   36.6671   31.9003 C   0  0  0  0  0  0  0  0  0  0  0  0
   13.8017   37.2948   33.6193 N   0  0  0  0  0  0  0  0  0  0  0  0
   12.3134   36.2787   30.5560 O   0  0  0  0  0  0  0  0  0  0  0  0
   14.7927   36.4716   33.9862 C   0  0  0  0  0  0  0  0  0  0  0  0
   13.2746   37.7284   34.7941 C   0  0  0  0  0  0  0  0  0  0  0  0
   15.6240   35.7576   33.1859 N   0  0  0  0  0  0  0  0  0  0  0  0
   14.8728   36.4406   35.3330 C   0  0  0  0  0  0  0  0  0  0  0  0
   13.9209   37.2258   35.8808 N   0  0  0  0  0  0  0  0  0  0  0  0
   16.5874   34.9920   33.7802 C   0  0  0  0  0  0  0  0  0  0  0  0
   15.8579   35.6716   35.9443 C   0  0  0  0  0  0  0  0  0  0  0  0
   16.7028   34.9584   35.1439 N   0  0  0  0  0  0  0  0  0  0  0  0
   16.0103   35.6383   37.3563 N   0  0  0  0  0  0  0  0  0  0  0  0
    7.6771   44.0712   34.0504 H   0  0  0  0  0  0  0  0  0  0  0  0
   10.3190   45.4420   34.0991 H   0  0  0  0  0  0  0  0  0  0  0  0
    9.1835   45.3825   35.3535 H   0  0  0  0  0  0  0  0  0  0  0  0
    9.9710   44.0693   31.9738 H   0  0  0  0  0  0  0  0  0  0  0  0
    8.4817   43.0859   31.8666 H   0  0  0  0  0  0  0  0  0  0  0  0
    8.5539   46.1521   31.8755 H   0  0  0  0  0  0  0  0  0  0  0  0
    8.5387   45.1384   30.4028 H   0  0  0  0  0  0  0  0  0  0  0  0
    6.3302   44.1796   30.9675 H   0  0  0  0  0  0  0  0  0  0  0  0
    6.3010   45.0645   32.5326 H   0  0  0  0  0  0  0  0  0  0  0  0
    4.9221   46.2653   30.9233 H   0  0  0  0  0  0  0  0  0  0  0  0
    6.2467   46.2893   29.7203 H   0  0  0  0  0  0  0  0  0  0  0  0
    6.2819   47.7497   32.4209 H   0  0  0  0  0  0  0  0  0  0  0  0
    9.3881   50.2331   30.2963 H   0  0  0  0  0  0  0  0  0  0  0  0
    7.9047   51.1248   29.8437 H   0  0  0  0  0  0  0  0  0  0  0  0
    7.9629   53.3513   30.5146 H   0  0  0  0  0  0  0  0  0  0  0  0
    8.4550   55.1259   32.1384 H   0  0  0  0  0  0  0  0  0  0  0  0
   10.2430   52.2796   34.7841 H   0  0  0  0  0  0  0  0  0  0  0  0
    9.5812   54.5906   34.2742 H   0  0  0  0  0  0  0  0  0  0  0  0
   11.2116   41.0420   31.8834 H   0  0  0  0  0  0  0  0  0  0  0  0
    9.7455   40.0168   31.9263 H   0  0  0  0  0  0  0  0  0  0  0  0
   11.6245   39.0449   30.5888 H   0  0  0  0  0  0  0  0  0  0  0  0
   10.7050   37.5580   33.1500 H   0  0  0  0  0  0  0  0  0  0  0  0
   14.1985   37.4426   31.5553 H   0  0  0  0  0  0  0  0  0  0  0  0
   10.0893   37.4057   30.3459 H   0  0  0  0  0  0  0  0  0  0  0  0
   12.1337   35.7754   32.5703 H   0  0  0  0  0  0  0  0  0  0  0  0
   11.7934   35.4394   30.4513 H   0  0  0  0  0  0  0  0  0  0  0  0
   12.4314   38.3973   34.8700 H   0  0  0  0  0  0  0  0  0  0  0  0
   17.2669   34.4142   33.1691 H   0  0  0  0  0  0  0  0  0  0  0  0
   16.7638   35.0599   37.7897 H   0  0  0  0  0  0  0  0  0  0  0  0
   15.3759   36.1865   37.9790 H   0  0  0  0  0  0  0  0  0  0  0  0
  1  2  2  0
  1  3  1  0
  3  4  1  0
  4  5  1  0
  6  1  1  0
  7  6  1  0
  6  8  1  0
  8  9  1  0
  9 10  1  0
 10 11  1  0
 11 12  1  0
 12 13  1  0
 13 14  1  0
 13 15  2  0
 14 16  1  0
 16 17  1  0
 17 18  2  0
 19 17  1  0
 18 20  1  0
 21 19  2  0
 19 22  1  0
 20 23  2  0
 23 21  1  0
 22 24  1  0
 22 25  2  0
  4 26  2  0
  4 27  1  0
 28 27  1  0
 28 29  1  0
 29 30  1  0
 29 31  1  0
 30 32  1  0
 31 33  1  0
 31 34  1  0
 34 32  1  0
 32 35  1  0
 34 36  1  0
 37 35  1  0
 38 35  1  0
 39 37  2  0
 37 40  1  0
 41 38  2  0
 42 39  1  0
 40 43  2  0
 40 41  1  0
 44 42  2  0
 44 43  1  0
 43 45  1  0
  6 46  1  6
  7 47  1  0
  7 48  1  0
  8 49  1  0
  8 50  1  0
  9 51  1  0
  9 52  1  0
 10 53  1  0
 10 54  1  0
 11 55  1  0
 11 56  1  0
 12 57  1  0
 16 58  1  0
 16 59  1  0
 18 60  1  0
 20 61  1  0
 21 62  1  0
 23 63  1  0
 28 64  1  0
 28 65  1  0
 29 66  1  0
 31 67  1  0
 32 68  1  0
 33 69  1  0
 34 70  1  0
 36 71  1  0
 38 72  1  0
 42 73  1  0
 45 74  1  0
 45 75  1  0
M  CHG  3   5  -1  22   1  24  -1
M  END
>  <EmbedRMS>  (262) 
0.0750452503563

$$$$

     RDKit          3D

 75 78  0  0  0  0  0  0  0  0999 V2000
    9.4331   42.9367   34.3465 C   0  0  0  0  0  0  0  0  0  0  0  0
   10.4907   43.0333   35.0319 O   0  0  0  0  0  0  0  0  0  0  0  0
    8.8558   41.7105   34.0306 O   0  0  0  0  0  0  0  0  0  0  0  0
    9.4931   40.2144   34.4708 P   0  0  0  0  0  0  0  0  0  0  0  0
    9.7288   40.1730   36.1318 O   0  0  0  0  0  0  0  0  0  0  0  0
    8.7505   44.1350   33.7742 C   0  0  1  0  0  0  0  0  0  0  0  0
    9.2961   45.3823   34.3133 N   0  0  0  0  0  0  0  0  0  0  0  0
    8.8892   44.0529   32.2359 C   0  0  0  0  0  0  0  0  0  0  0  0
    8.2031   45.1828   31.4617 C   0  0  0  0  0  0  0  0  0  0  0  0
    6.6656   45.1041   31.4832 C   0  0  0  0  0  0  0  0  0  0  0  0
    6.0283   46.3232   30.8086 C   0  0  0  0  0  0  0  0  0  0  0  0
    6.5049   47.5634   31.4211 N   0  0  0  0  0  0  0  0  0  0  0  0
    7.2486   48.5412   30.6836 C   0  0  0  0  0  0  0  0  0  0  0  0
    7.6348   49.7561   31.2618 O   0  0  0  0  0  0  0  0  0  0  0  0
    7.5887   48.3084   29.4943 O   0  0  0  0  0  0  0  0  0  0  0  0
    7.3400   50.1272   32.6044 C   0  0  0  0  0  0  0  0  0  0  0  0
    7.8986   51.4991   32.8784 C   0  0  0  0  0  0  0  0  0  0  0  0
    9.1507   51.5995   33.5119 C   0  0  0  0  0  0  0  0  0  0  0  0
    7.1924   52.6852   32.5431 C   0  0  0  0  0  0  0  0  0  0  0  0
    9.6899   52.8464   33.8303 C   0  0  0  0  0  0  0  0  0  0  0  0
    7.7477   53.9317   32.8878 C   0  0  0  0  0  0  0  0  0  0  0  0
    5.9199   52.6481   31.8707 N   0  0  0  0  0  0  0  0  0  0  0  0
    8.9874   54.0099   33.5238 C   0  0  0  0  0  0  0  0  0  0  0  0
    5.6846   51.7434   30.8618 O   0  0  0  0  0  0  0  0  0  0  0  0
    5.0754   53.5434   32.0806 O   0  0  0  0  0  0  0  0  0  0  0  0
    8.5366   39.1386   34.0140 O   0  0  0  0  0  0  0  0  0  0  0  0
   10.9794   40.0875   33.6890 O   0  0  0  0  0  0  0  0  0  0  0  0
   10.8017   40.0947   32.2902 C   0  0  0  0  0  0  0  0  0  0  0  0
   11.5885   38.9266   31.7041 C   0  0  0  0  0  0  0  0  0  0  0  0
   12.9237   38.9445   32.1721 O   0  0  0  0  0  0  0  0  0  0  0  0
   11.0029   37.5726   32.0908 C   0  0  0  0  0  0  0  0  0  0  0  0
   13.3555   37.5960   32.2594 C   0  0  0  0  0  0  0  0  0  0  0  0
    9.9380   37.1846   31.2656 O   0  0  0  0  0  0  0  0  0  0  0  0
   12.1932   36.6769   31.8952 C   0  0  0  0  0  0  0  0  0  0  0  0
   13.8028   37.2976   33.6186 N   0  0  0  0  0  0  0  0  0  0  0  0
   12.2918   36.2396   30.5587 O   0  0  0  0  0  0  0  0  0  0  0  0
   14.7926   36.4727   33.9858 C   0  0  0  0  0  0  0  0  0  0  0  0
   13.2750   37.7302   34.7935 C   0  0  0  0  0  0  0  0  0  0  0  0
   15.6241   35.7586   33.1857 N   0  0  0  0  0  0  0  0  0  0  0  0
   14.8721   36.4408   35.3326 C   0  0  0  0  0  0  0  0  0  0  0  0
   13.9204   37.2263   35.8802 N   0  0  0  0  0  0  0  0  0  0  0  0
   16.5870   34.9924   33.7800 C   0  0  0  0  0  0  0  0  0  0  0  0
   15.8572   35.6717   35.9441 C   0  0  0  0  0  0  0  0  0  0  0  0
   16.7022   34.9585   35.1437 N   0  0  0  0  0  0  0  0  0  0  0  0
   16.0097   35.6384   37.3561 N   0  0  0  0  0  0  0  0  0  0  0  0
    7.6768   44.0710   34.0502 H   0  0  0  0  0  0  0  0  0  0  0  0
    9.1823   45.3826   35.3535 H   0  0  0  0  0  0  0  0  0  0  0  0
   10.3190   45.4411   34.1001 H   0  0  0  0  0  0  0  0  0  0  0  0
    9.9711   44.0682   31.9742 H   0  0  0  0  0  0  0  0  0  0  0  0
    8.4815   43.0853   31.8669 H   0  0  0  0  0  0  0  0  0  0  0  0
    8.5403   45.1380   30.4030 H   0  0  0  0  0  0  0  0  0  0  0  0
    8.5541   46.1513   31.8760 H   0  0  0  0  0  0  0  0  0  0  0  0
    6.3005   45.0618   32.5304 H   0  0  0  0  0  0  0  0  0  0  0  0
    6.3313   44.1802   30.9634 H   0  0  0  0  0  0  0  0  0  0  0  0
    6.2499   46.2921   29.7203 H   0  0  0  0  0  0  0  0  0  0  0  0
    4.9245   46.2667   30.9216 H   0  0  0  0  0  0  0  0  0  0  0  0
    6.2732   47.7251   32.4258 H   0  0  0  0  0  0  0  0  0  0  0  0
    7.7932   49.3833   33.2963 H   0  0  0  0  0  0  0  0  0  0  0  0
    6.2430   50.1178   32.7807 H   0  0  0  0  0  0  0  0  0  0  0  0
    9.7104   50.7079   33.7674 H   0  0  0  0  0  0  0  0  0  0  0  0
   10.6528   52.9099   34.3207 H   0  0  0  0  0  0  0  0  0  0  0  0
    7.2256   54.8491   32.6468 H   0  0  0  0  0  0  0  0  0  0  0  0
    9.4063   54.9758   33.7751 H   0  0  0  0  0  0  0  0  0  0  0  0
    9.7472   40.0378   31.9304 H   0  0  0  0  0  0  0  0  0  0  0  0
   11.2242   41.0427   31.8934 H   0  0  0  0  0  0  0  0  0  0  0  0
   11.5927   39.0434   30.5965 H   0  0  0  0  0  0  0  0  0  0  0  0
   10.7003   37.5442   33.1640 H   0  0  0  0  0  0  0  0  0  0  0  0
   14.2052   37.4477   31.5560 H   0  0  0  0  0  0  0  0  0  0  0  0
    9.1374   37.6722   31.5905 H   0  0  0  0  0  0  0  0  0  0  0  0
   12.1305   35.7855   32.5585 H   0  0  0  0  0  0  0  0  0  0  0  0
   12.4606   37.0186   29.9674 H   0  0  0  0  0  0  0  0  0  0  0  0
   12.4327   38.4000   34.8694 H   0  0  0  0  0  0  0  0  0  0  0  0
   17.2666   34.4146   33.1690 H   0  0  0  0  0  0  0  0  0  0  0  0
   16.7634   35.0601   37.7894 H   0  0  0  0  0  0  0  0  0  0  0  0
   15.3754   36.1866   37.9788 H   0  0  0  0  0  0  0  0  0  0  0  0
  1  2  2  0
  1  3  1  0
  3  4  1  0
  4  5  1  0
  6  1  1  0
  7  6  1  0
  6  8  1  0
  8  9  1  0
  9 10  1  0
 10 11  1  0
 11 12  1  0
 12 13  1  0
 13 14  1  0
 13 15  2  0
 14 16  1  0
 16 17  1  0
 17 18  2  0
 19 17  1  0
 18 20  1  0
 21 19  2  0
 19 22  1  0
 20 23  2  0
 23 21  1  0
 22 24  1  0
 22 25  2  0
  4 26  2  0
  4 27  1  0
 28 27  1  0
 28 29  1  0
 29 30  1  0
 29 31  1  0
 30 32  1  0
 31 33  1  0
 31 34  1  0
 34 32  1  0
 32 35  1  0
 34 36  1  0
 37 35  1  0
 38 35  1  0
 39 37  2  0
 37 40  1  0
 41 38  2  0
 42 39  1  0
 40 43  2  0
 40 41  1  0
 44 42  2  0
 44 43  1  0
 43 45  1  0
  6 46  1  6
  7 47  1  0
  7 48  1  0
  8 49  1  0
  8 50  1  0
  9 51  1  0
  9 52  1  0
 10 53  1  0
 10 54  1  0
 11 55  1  0
 11 56  1  0
 12 57  1  0
 16 58  1  0
 16 59  1  0
 18 60  1  0
 20 61  1  0
 21 62  1  0
 23 63  1  0
 28 64  1  0
 28 65  1  0
 29 66  1  0
 31 67  1  0
 32 68  1  0
 33 69  1  0
 34 70  1  0
 36 71  1  0
 38 72  1  0
 42 73  1  0
 45 74  1  0
 45 75  1  0
M  CHG  3   5  -1  22   1  24  -1
M  END
>  <EmbedRMS>  (263) 
0.0757782114039

$$$$

     RDKit          3D

 75 78  0  0  0  0  0  0  0  0999 V2000
    9.4337   42.9374   34.3450 C   0  0  0  0  0  0  0  0  0  0  0  0
   10.4908   43.0336   35.0312 O   0  0  0  0  0  0  0  0  0  0  0  0
    8.8564   41.7112   34.0287 O   0  0  0  0  0  0  0  0  0  0  0  0
    9.4941   40.2146   34.4676 P   0  0  0  0  0  0  0  0  0  0  0  0
    9.7309   40.1730   36.1287 O   0  0  0  0  0  0  0  0  0  0  0  0
    8.7514   44.1366   33.7733 C   0  0  1  0  0  0  0  0  0  0  0  0
    9.2971   45.3834   34.3132 N   0  0  0  0  0  0  0  0  0  0  0  0
    8.8901   44.0569   32.2349 C   0  0  0  0  0  0  0  0  0  0  0  0
    8.2020   45.1877   31.4625 C   0  0  0  0  0  0  0  0  0  0  0  0
    6.6642   45.1069   31.4851 C   0  0  0  0  0  0  0  0  0  0  0  0
    6.0208   46.3211   30.8055 C   0  0  0  0  0  0  0  0  0  0  0  0
    6.4884   47.5667   31.4130 N   0  0  0  0  0  0  0  0  0  0  0  0
    7.2742   48.5174   30.6982 C   0  0  0  0  0  0  0  0  0  0  0  0
    7.7684   49.6362   31.3760 O   0  0  0  0  0  0  0  0  0  0  0  0
    7.5863   48.3123   29.4937 O   0  0  0  0  0  0  0  0  0  0  0  0
    8.8562   50.4180   30.8860 C   0  0  0  0  0  0  0  0  0  0  0  0
   10.1294   49.5983   30.8870 C   0  0  0  0  0  0  0  0  0  0  0  0
   10.4517   48.8716   32.0487 C   0  0  0  0  0  0  0  0  0  0  0  0
   10.9644   49.4796   29.7450 C   0  0  0  0  0  0  0  0  0  0  0  0
   11.5442   48.0039   32.0671 C   0  0  0  0  0  0  0  0  0  0  0  0
   12.0505   48.5882   29.7777 C   0  0  0  0  0  0  0  0  0  0  0  0
   10.7450   50.2610   28.5606 N   0  0  0  0  0  0  0  0  0  0  0  0
   12.3360   47.8545   30.9302 C   0  0  0  0  0  0  0  0  0  0  0  0
   10.9968   49.7132   27.3239 O   0  0  0  0  0  0  0  0  0  0  0  0
   10.5663   51.4933   28.6482 O   0  0  0  0  0  0  0  0  0  0  0  0
    8.5369   39.1388   34.0121 O   0  0  0  0  0  0  0  0  0  0  0  0
   10.9794   40.0870   33.6826 O   0  0  0  0  0  0  0  0  0  0  0  0
   10.7997   40.0899   32.2829 C   0  0  0  0  0  0  0  0  0  0  0  0
   11.5968   38.9274   31.6962 C   0  0  0  0  0  0  0  0  0  0  0  0
   12.9243   38.9425   32.1784 O   0  0  0  0  0  0  0  0  0  0  0  0
   11.0086   37.5713   32.0780 C   0  0  0  0  0  0  0  0  0  0  0  0
   13.3528   37.5929   32.2623 C   0  0  0  0  0  0  0  0  0  0  0  0
    9.9098   37.1771   31.2925 O   0  0  0  0  0  0  0  0  0  0  0  0
   12.1943   36.6683   31.8995 C   0  0  0  0  0  0  0  0  0  0  0  0
   13.8019   37.2950   33.6199 N   0  0  0  0  0  0  0  0  0  0  0  0
   12.3027   36.2773   30.5558 O   0  0  0  0  0  0  0  0  0  0  0  0
   14.7926   36.4715   33.9864 C   0  0  0  0  0  0  0  0  0  0  0  0
   13.2749   37.7286   34.7946 C   0  0  0  0  0  0  0  0  0  0  0  0
   15.6239   35.7577   33.1860 N   0  0  0  0  0  0  0  0  0  0  0  0
   14.8727   36.4403   35.3332 C   0  0  0  0  0  0  0  0  0  0  0  0
   13.9210   37.2257   35.8811 N   0  0  0  0  0  0  0  0  0  0  0  0
   16.5873   34.9921   33.7802 C   0  0  0  0  0  0  0  0  0  0  0  0
   15.8579   35.6714   35.9444 C   0  0  0  0  0  0  0  0  0  0  0  0
   16.7028   34.9583   35.1439 N   0  0  0  0  0  0  0  0  0  0  0  0
   16.0104   35.6381   37.3564 N   0  0  0  0  0  0  0  0  0  0  0  0
    7.6777   44.0726   34.0492 H   0  0  0  0  0  0  0  0  0  0  0  0
   10.3196   45.4431   34.0981 H   0  0  0  0  0  0  0  0  0  0  0  0
    9.1852   45.3825   35.3535 H   0  0  0  0  0  0  0  0  0  0  0  0
    9.9720   44.0751   31.9732 H   0  0  0  0  0  0  0  0  0  0  0  0
    8.4841   43.0893   31.8642 H   0  0  0  0  0  0  0  0  0  0  0  0
    8.5391   45.1456   30.4036 H   0  0  0  0  0  0  0  0  0  0  0  0
    8.5516   46.1565   31.8778 H   0  0  0  0  0  0  0  0  0  0  0  0
    6.3315   44.1798   30.9698 H   0  0  0  0  0  0  0  0  0  0  0  0
    6.3003   45.0682   32.5328 H   0  0  0  0  0  0  0  0  0  0  0  0
    6.2457   46.2883   29.7179 H   0  0  0  0  0  0  0  0  0  0  0  0
    4.9172   46.2590   30.9158 H   0  0  0  0  0  0  0  0  0  0  0  0
    6.2691   47.7498   32.4180 H   0  0  0  0  0  0  0  0  0  0  0  0
    8.5900   50.8029   29.8814 H   0  0  0  0  0  0  0  0  0  0  0  0
    8.9955   51.2898   31.5588 H   0  0  0  0  0  0  0  0  0  0  0  0
    9.8347   48.9543   32.9353 H   0  0  0  0  0  0  0  0  0  0  0  0
   11.7707   47.4384   32.9618 H   0  0  0  0  0  0  0  0  0  0  0  0
   12.6933   48.4788   28.9133 H   0  0  0  0  0  0  0  0  0  0  0  0
   13.1800   47.1771   30.9450 H   0  0  0  0  0  0  0  0  0  0  0  0
    9.7450   40.0146   31.9261 H   0  0  0  0  0  0  0  0  0  0  0  0
   11.2097   41.0419   31.8829 H   0  0  0  0  0  0  0  0  0  0  0  0
   11.6265   39.0456   30.5888 H   0  0  0  0  0  0  0  0  0  0  0  0
   10.7064   37.5574   33.1484 H   0  0  0  0  0  0  0  0  0  0  0  0
   14.2021   37.4484   31.5574 H   0  0  0  0  0  0  0  0  0  0  0  0
   10.0952   37.3991   30.3433 H   0  0  0  0  0  0  0  0  0  0  0  0
   12.1163   35.7745   32.5633 H   0  0  0  0  0  0  0  0  0  0  0  0
   12.9615   35.5349   30.5312 H   0  0  0  0  0  0  0  0  0  0  0  0
   12.4321   38.3982   34.8705 H   0  0  0  0  0  0  0  0  0  0  0  0
   17.2669   34.4143   33.1690 H   0  0  0  0  0  0  0  0  0  0  0  0
   16.7641   35.0599   37.7896 H   0  0  0  0  0  0  0  0  0  0  0  0
   15.3761   36.1862   37.9792 H   0  0  0  0  0  0  0  0  0  0  0  0
  1  2  2  0
  1  3  1  0
  3  4  1  0
  4  5  1  0
  6  1  1  0
  7  6  1  0
  6  8  1  0
  8  9  1  0
  9 10  1  0
 10 11  1  0
 11 12  1  0
 12 13  1  0
 13 14  1  0
 13 15  2  0
 14 16  1  0
 16 17  1  0
 17 18  2  0
 19 17  1  0
 18 20  1  0
 21 19  2  0
 19 22  1  0
 20 23  2  0
 23 21  1  0
 22 24  1  0
 22 25  2  0
  4 26  2  0
  4 27  1  0
 28 27  1  0
 28 29  1  0
 29 30  1  0
 29 31  1  0
 30 32  1  0
 31 33  1  0
 31 34  1  0
 34 32  1  0
 32 35  1  0
 34 36  1  0
 37 35  1  0
 38 35  1  0
 39 37  2  0
 37 40  1  0
 41 38  2  0
 42 39  1  0
 40 43  2  0
 40 41  1  0
 44 42  2  0
 44 43  1  0
 43 45  1  0
  6 46  1  6
  7 47  1  0
  7 48  1  0
  8 49  1  0
  8 50  1  0
  9 51  1  0
  9 52  1  0
 10 53  1  0
 10 54  1  0
 11 55  1  0
 11 56  1  0
 12 57  1  0
 16 58  1  0
 16 59  1  0
 18 60  1  0
 20 61  1  0
 21 62  1  0
 23 63  1  0
 28 64  1  0
 28 65  1  0
 29 66  1  0
 31 67  1  0
 32 68  1  0
 33 69  1  0
 34 70  1  0
 36 71  1  0
 38 72  1  0
 42 73  1  0
 45 74  1  0
 45 75  1  0
M  CHG  3   5  -1  22   1  24  -1
M  END
>  <EmbedRMS>  (264) 
0.0758457556488

$$$$

     RDKit          3D

 75 78  0  0  0  0  0  0  0  0999 V2000
    9.4331   42.9365   34.3461 C   0  0  0  0  0  0  0  0  0  0  0  0
   10.4905   43.0330   35.0318 O   0  0  0  0  0  0  0  0  0  0  0  0
    8.8562   41.7103   34.0295 O   0  0  0  0  0  0  0  0  0  0  0  0
    9.4942   40.2139   34.4678 P   0  0  0  0  0  0  0  0  0  0  0  0
    9.7311   40.1724   36.1289 O   0  0  0  0  0  0  0  0  0  0  0  0
    8.7504   44.1348   33.7739 C   0  0  1  0  0  0  0  0  0  0  0  0
    9.2960   45.3821   34.3131 N   0  0  0  0  0  0  0  0  0  0  0  0
    8.8892   44.0526   32.2357 C   0  0  0  0  0  0  0  0  0  0  0  0
    8.2032   45.1823   31.4610 C   0  0  0  0  0  0  0  0  0  0  0  0
    6.6657   45.1033   31.4817 C   0  0  0  0  0  0  0  0  0  0  0  0
    6.0276   46.3245   30.8114 C   0  0  0  0  0  0  0  0  0  0  0  0
    6.5105   47.5625   31.4230 N   0  0  0  0  0  0  0  0  0  0  0  0
    7.2373   48.5474   30.6790 C   0  0  0  0  0  0  0  0  0  0  0  0
    7.5831   49.7855   31.2374 O   0  0  0  0  0  0  0  0  0  0  0  0
    7.5952   48.3040   29.4971 O   0  0  0  0  0  0  0  0  0  0  0  0
    7.1766   50.2424   32.5271 C   0  0  0  0  0  0  0  0  0  0  0  0
    5.6878   50.5050   32.5683 C   0  0  0  0  0  0  0  0  0  0  0  0
    4.9233   49.8894   33.5768 C   0  0  0  0  0  0  0  0  0  0  0  0
    5.0353   51.3216   31.6056 C   0  0  0  0  0  0  0  0  0  0  0  0
    3.5382   50.0510   33.6207 C   0  0  0  0  0  0  0  0  0  0  0  0
    3.6358   51.4583   31.6597 C   0  0  0  0  0  0  0  0  0  0  0  0
    5.7638   52.0027   30.5679 N   0  0  0  0  0  0  0  0  0  0  0  0
    2.8950   50.8289   32.6607 C   0  0  0  0  0  0  0  0  0  0  0  0
    6.9714   52.6036   30.8368 O   0  0  0  0  0  0  0  0  0  0  0  0
    5.2322   52.1978   29.4552 O   0  0  0  0  0  0  0  0  0  0  0  0
    8.5370   39.1382   34.0123 O   0  0  0  0  0  0  0  0  0  0  0  0
   10.9795   40.0869   33.6827 O   0  0  0  0  0  0  0  0  0  0  0  0
   10.7997   40.0898   32.2830 C   0  0  0  0  0  0  0  0  0  0  0  0
   11.5968   38.9273   31.6962 C   0  0  0  0  0  0  0  0  0  0  0  0
   12.9242   38.9425   32.1784 O   0  0  0  0  0  0  0  0  0  0  0  0
   11.0086   37.5713   32.0780 C   0  0  0  0  0  0  0  0  0  0  0  0
   13.3528   37.5929   32.2623 C   0  0  0  0  0  0  0  0  0  0  0  0
    9.9098   37.1770   31.2925 O   0  0  0  0  0  0  0  0  0  0  0  0
   12.1943   36.6683   31.8995 C   0  0  0  0  0  0  0  0  0  0  0  0
   13.8019   37.2950   33.6199 N   0  0  0  0  0  0  0  0  0  0  0  0
   12.3027   36.2773   30.5558 O   0  0  0  0  0  0  0  0  0  0  0  0
   14.7926   36.4715   33.9864 C   0  0  0  0  0  0  0  0  0  0  0  0
   13.2749   37.7286   34.7946 C   0  0  0  0  0  0  0  0  0  0  0  0
   15.6239   35.7577   33.1860 N   0  0  0  0  0  0  0  0  0  0  0  0
   14.8727   36.4403   35.3332 C   0  0  0  0  0  0  0  0  0  0  0  0
   13.9210   37.2257   35.8811 N   0  0  0  0  0  0  0  0  0  0  0  0
   16.5873   34.9921   33.7802 C   0  0  0  0  0  0  0  0  0  0  0  0
   15.8579   35.6714   35.9444 C   0  0  0  0  0  0  0  0  0  0  0  0
   16.7028   34.9583   35.1439 N   0  0  0  0  0  0  0  0  0  0  0  0
   16.0104   35.6381   37.3564 N   0  0  0  0  0  0  0  0  0  0  0  0
    7.6767   44.0708   34.0500 H   0  0  0  0  0  0  0  0  0  0  0  0
    9.1820   45.3824   35.3532 H   0  0  0  0  0  0  0  0  0  0  0  0
   10.3189   45.4407   34.1001 H   0  0  0  0  0  0  0  0  0  0  0  0
    8.4814   43.0850   31.8667 H   0  0  0  0  0  0  0  0  0  0  0  0
    9.9711   44.0677   31.9740 H   0  0  0  0  0  0  0  0  0  0  0  0
    8.5408   45.1376   30.4024 H   0  0  0  0  0  0  0  0  0  0  0  0
    8.5545   46.1507   31.8754 H   0  0  0  0  0  0  0  0  0  0  0  0
    6.3316   44.1809   30.9590 H   0  0  0  0  0  0  0  0  0  0  0  0
    6.3005   45.0575   32.5287 H   0  0  0  0  0  0  0  0  0  0  0  0
    4.9245   46.2705   30.9320 H   0  0  0  0  0  0  0  0  0  0  0  0
    6.2422   46.2948   29.7217 H   0  0  0  0  0  0  0  0  0  0  0  0
    6.3117   47.7072   32.4362 H   0  0  0  0  0  0  0  0  0  0  0  0
    7.7138   51.1843   32.7599 H   0  0  0  0  0  0  0  0  0  0  0  0
    7.4952   49.5092   33.2996 H   0  0  0  0  0  0  0  0  0  0  0  0
    5.3985   49.2697   34.3272 H   0  0  0  0  0  0  0  0  0  0  0  0
    2.9617   49.5664   34.3982 H   0  0  0  0  0  0  0  0  0  0  0  0
    3.1171   52.0700   30.9324 H   0  0  0  0  0  0  0  0  0  0  0  0
    1.8199   50.9494   32.6948 H   0  0  0  0  0  0  0  0  0  0  0  0
   11.2096   41.0418   31.8830 H   0  0  0  0  0  0  0  0  0  0  0  0
    9.7449   40.0145   31.9263 H   0  0  0  0  0  0  0  0  0  0  0  0
   11.6265   39.0456   30.5888 H   0  0  0  0  0  0  0  0  0  0  0  0
   10.7064   37.5573   33.1484 H   0  0  0  0  0  0  0  0  0  0  0  0
   14.2021   37.4484   31.5573 H   0  0  0  0  0  0  0  0  0  0  0  0
   10.0952   37.3990   30.3433 H   0  0  0  0  0  0  0  0  0  0  0  0
   12.1163   35.7745   32.5633 H   0  0  0  0  0  0  0  0  0  0  0  0
   12.9615   35.5349   30.5311 H   0  0  0  0  0  0  0  0  0  0  0  0
   12.4321   38.3982   34.8705 H   0  0  0  0  0  0  0  0  0  0  0  0
   17.2669   34.4143   33.1690 H   0  0  0  0  0  0  0  0  0  0  0  0
   15.3761   36.1862   37.9792 H   0  0  0  0  0  0  0  0  0  0  0  0
   16.7641   35.0598   37.7896 H   0  0  0  0  0  0  0  0  0  0  0  0
  1  2  2  0
  1  3  1  0
  3  4  1  0
  4  5  1  0
  6  1  1  0
  7  6  1  0
  6  8  1  0
  8  9  1  0
  9 10  1  0
 10 11  1  0
 11 12  1  0
 12 13  1  0
 13 14  1  0
 13 15  2  0
 14 16  1  0
 16 17  1  0
 17 18  2  0
 19 17  1  0
 18 20  1  0
 21 19  2  0
 19 22  1  0
 20 23  2  0
 23 21  1  0
 22 24  1  0
 22 25  2  0
  4 26  2  0
  4 27  1  0
 28 27  1  0
 28 29  1  0
 29 30  1  0
 29 31  1  0
 30 32  1  0
 31 33  1  0
 31 34  1  0
 34 32  1  0
 32 35  1  0
 34 36  1  0
 37 35  1  0
 38 35  1  0
 39 37  2  0
 37 40  1  0
 41 38  2  0
 42 39  1  0
 40 43  2  0
 40 41  1  0
 44 42  2  0
 44 43  1  0
 43 45  1  0
  6 46  1  6
  7 47  1  0
  7 48  1  0
  8 49  1  0
  8 50  1  0
  9 51  1  0
  9 52  1  0
 10 53  1  0
 10 54  1  0
 11 55  1  0
 11 56  1  0
 12 57  1  0
 16 58  1  0
 16 59  1  0
 18 60  1  0
 20 61  1  0
 21 62  1  0
 23 63  1  0
 28 64  1  0
 28 65  1  0
 29 66  1  0
 31 67  1  0
 32 68  1  0
 33 69  1  0
 34 70  1  0
 36 71  1  0
 38 72  1  0
 42 73  1  0
 45 74  1  0
 45 75  1  0
M  CHG  3   5  -1  22   1  24  -1
M  END
>  <EmbedRMS>  (265) 
0.0743553199146

$$$$

     RDKit          3D

 75 78  0  0  0  0  0  0  0  0999 V2000
    9.4333   42.9364   34.3461 C   0  0  0  0  0  0  0  0  0  0  0  0
   10.4907   43.0329   35.0319 O   0  0  0  0  0  0  0  0  0  0  0  0
    8.8563   41.7102   34.0295 O   0  0  0  0  0  0  0  0  0  0  0  0
    9.4943   40.2139   34.4679 P   0  0  0  0  0  0  0  0  0  0  0  0
    9.7310   40.1724   36.1290 O   0  0  0  0  0  0  0  0  0  0  0  0
    8.7506   44.1347   33.7741 C   0  0  1  0  0  0  0  0  0  0  0  0
    9.2963   45.3819   34.3133 N   0  0  0  0  0  0  0  0  0  0  0  0
    8.8893   44.0527   32.2358 C   0  0  0  0  0  0  0  0  0  0  0  0
    8.2029   45.1823   31.4614 C   0  0  0  0  0  0  0  0  0  0  0  0
    6.6654   45.1046   31.4855 C   0  0  0  0  0  0  0  0  0  0  0  0
    6.0272   46.3228   30.8108 C   0  0  0  0  0  0  0  0  0  0  0  0
    6.5070   47.5641   31.4184 N   0  0  0  0  0  0  0  0  0  0  0  0
    7.2414   48.5405   30.6827 C   0  0  0  0  0  0  0  0  0  0  0  0
    7.5825   49.7475   31.3026 O   0  0  0  0  0  0  0  0  0  0  0  0
    7.5946   48.3104   29.4942 O   0  0  0  0  0  0  0  0  0  0  0  0
    8.3030   50.7874   30.6426 C   0  0  0  0  0  0  0  0  0  0  0  0
    7.4398   51.4440   29.5883 C   0  0  0  0  0  0  0  0  0  0  0  0
    6.1700   51.9137   29.9698 C   0  0  0  0  0  0  0  0  0  0  0  0
    7.8401   51.5599   28.2310 C   0  0  0  0  0  0  0  0  0  0  0  0
    5.2944   52.4494   29.0242 C   0  0  0  0  0  0  0  0  0  0  0  0
    6.9369   52.0826   27.2901 C   0  0  0  0  0  0  0  0  0  0  0  0
    9.1517   51.1773   27.7914 N   0  0  0  0  0  0  0  0  0  0  0  0
    5.6734   52.5246   27.6851 C   0  0  0  0  0  0  0  0  0  0  0  0
    9.3103   50.5698   26.5672 O   0  0  0  0  0  0  0  0  0  0  0  0
   10.1605   51.6167   28.3808 O   0  0  0  0  0  0  0  0  0  0  0  0
    8.5372   39.1382   34.0121 O   0  0  0  0  0  0  0  0  0  0  0  0
   10.9798   40.0870   33.6829 O   0  0  0  0  0  0  0  0  0  0  0  0
   10.8002   40.0905   32.2832 C   0  0  0  0  0  0  0  0  0  0  0  0
   11.5958   38.9271   31.6963 C   0  0  0  0  0  0  0  0  0  0  0  0
   12.9239   38.9409   32.1766 O   0  0  0  0  0  0  0  0  0  0  0  0
   11.0062   37.5719   32.0793 C   0  0  0  0  0  0  0  0  0  0  0  0
   13.3507   37.5905   32.2614 C   0  0  0  0  0  0  0  0  0  0  0  0
    9.9064   37.1793   31.2946 O   0  0  0  0  0  0  0  0  0  0  0  0
   12.1920   36.6671   31.9003 C   0  0  0  0  0  0  0  0  0  0  0  0
   13.8017   37.2948   33.6193 N   0  0  0  0  0  0  0  0  0  0  0  0
   12.3134   36.2788   30.5560 O   0  0  0  0  0  0  0  0  0  0  0  0
   14.7927   36.4716   33.9861 C   0  0  0  0  0  0  0  0  0  0  0  0
   13.2746   37.7284   34.7941 C   0  0  0  0  0  0  0  0  0  0  0  0
   15.6240   35.7576   33.1859 N   0  0  0  0  0  0  0  0  0  0  0  0
   14.8728   36.4406   35.3330 C   0  0  0  0  0  0  0  0  0  0  0  0
   13.9209   37.2258   35.8807 N   0  0  0  0  0  0  0  0  0  0  0  0
   16.5874   34.9920   33.7802 C   0  0  0  0  0  0  0  0  0  0  0  0
   15.8579   35.6716   35.9443 C   0  0  0  0  0  0  0  0  0  0  0  0
   16.7028   34.9584   35.1439 N   0  0  0  0  0  0  0  0  0  0  0  0
   16.0103   35.6383   37.3563 N   0  0  0  0  0  0  0  0  0  0  0  0
    7.6771   44.0706   34.0504 H   0  0  0  0  0  0  0  0  0  0  0  0
   10.3192   45.4405   34.1000 H   0  0  0  0  0  0  0  0  0  0  0  0
    9.1827   45.3819   35.3535 H   0  0  0  0  0  0  0  0  0  0  0  0
    9.9711   44.0681   31.9739 H   0  0  0  0  0  0  0  0  0  0  0  0
    8.4817   43.0851   31.8668 H   0  0  0  0  0  0  0  0  0  0  0  0
    8.5385   45.1362   30.4021 H   0  0  0  0  0  0  0  0  0  0  0  0
    8.5554   46.1510   31.8740 H   0  0  0  0  0  0  0  0  0  0  0  0
    6.3021   45.0641   32.5333 H   0  0  0  0  0  0  0  0  0  0  0  0
    6.3296   44.1802   30.9675 H   0  0  0  0  0  0  0  0  0  0  0  0
    6.2463   46.2901   29.7219 H   0  0  0  0  0  0  0  0  0  0  0  0
    4.9238   46.2678   30.9271 H   0  0  0  0  0  0  0  0  0  0  0  0
    6.2818   47.7538   32.4208 H   0  0  0  0  0  0  0  0  0  0  0  0
    8.5839   51.5537   31.3951 H   0  0  0  0  0  0  0  0  0  0  0  0
    9.2411   50.3620   30.2349 H   0  0  0  0  0  0  0  0  0  0  0  0
    5.8495   51.8457   31.0024 H   0  0  0  0  0  0  0  0  0  0  0  0
    4.3163   52.7984   29.3295 H   0  0  0  0  0  0  0  0  0  0  0  0
    7.2232   52.1715   26.2497 H   0  0  0  0  0  0  0  0  0  0  0  0
    4.9907   52.9355   26.9525 H   0  0  0  0  0  0  0  0  0  0  0  0
   11.2116   41.0420   31.8834 H   0  0  0  0  0  0  0  0  0  0  0  0
    9.7455   40.0168   31.9263 H   0  0  0  0  0  0  0  0  0  0  0  0
   11.6245   39.0449   30.5888 H   0  0  0  0  0  0  0  0  0  0  0  0
   10.7051   37.5579   33.1499 H   0  0  0  0  0  0  0  0  0  0  0  0
   14.1985   37.4426   31.5553 H   0  0  0  0  0  0  0  0  0  0  0  0
   10.0893   37.4057   30.3459 H   0  0  0  0  0  0  0  0  0  0  0  0
   12.1337   35.7754   32.5703 H   0  0  0  0  0  0  0  0  0  0  0  0
   11.7934   35.4394   30.4513 H   0  0  0  0  0  0  0  0  0  0  0  0
   12.4314   38.3972   34.8700 H   0  0  0  0  0  0  0  0  0  0  0  0
   17.2669   34.4142   33.1692 H   0  0  0  0  0  0  0  0  0  0  0  0
   16.7638   35.0599   37.7896 H   0  0  0  0  0  0  0  0  0  0  0  0
   15.3759   36.1864   37.9790 H   0  0  0  0  0  0  0  0  0  0  0  0
  1  2  2  0
  1  3  1  0
  3  4  1  0
  4  5  1  0
  6  1  1  0
  7  6  1  0
  6  8  1  0
  8  9  1  0
  9 10  1  0
 10 11  1  0
 11 12  1  0
 12 13  1  0
 13 14  1  0
 13 15  2  0
 14 16  1  0
 16 17  1  0
 17 18  2  0
 19 17  1  0
 18 20  1  0
 21 19  2  0
 19 22  1  0
 20 23  2  0
 23 21  1  0
 22 24  1  0
 22 25  2  0
  4 26  2  0
  4 27  1  0
 28 27  1  0
 28 29  1  0
 29 30  1  0
 29 31  1  0
 30 32  1  0
 31 33  1  0
 31 34  1  0
 34 32  1  0
 32 35  1  0
 34 36  1  0
 37 35  1  0
 38 35  1  0
 39 37  2  0
 37 40  1  0
 41 38  2  0
 42 39  1  0
 40 43  2  0
 40 41  1  0
 44 42  2  0
 44 43  1  0
 43 45  1  0
  6 46  1  6
  7 47  1  0
  7 48  1  0
  8 49  1  0
  8 50  1  0
  9 51  1  0
  9 52  1  0
 10 53  1  0
 10 54  1  0
 11 55  1  0
 11 56  1  0
 12 57  1  0
 16 58  1  0
 16 59  1  0
 18 60  1  0
 20 61  1  0
 21 62  1  0
 23 63  1  0
 28 64  1  0
 28 65  1  0
 29 66  1  0
 31 67  1  0
 32 68  1  0
 33 69  1  0
 34 70  1  0
 36 71  1  0
 38 72  1  0
 42 73  1  0
 45 74  1  0
 45 75  1  0
M  CHG  3   5  -1  22   1  24  -1
M  END
>  <EmbedRMS>  (266) 
0.0747401355101

$$$$

     RDKit          3D

 75 78  0  0  0  0  0  0  0  0999 V2000
    9.4333   42.9369   34.3460 C   0  0  0  0  0  0  0  0  0  0  0  0
   10.4908   43.0334   35.0318 O   0  0  0  0  0  0  0  0  0  0  0  0
    8.8563   41.7107   34.0295 O   0  0  0  0  0  0  0  0  0  0  0  0
    9.4945   40.2144   34.4679 P   0  0  0  0  0  0  0  0  0  0  0  0
    9.7308   40.1728   36.1291 O   0  0  0  0  0  0  0  0  0  0  0  0
    8.7507   44.1354   33.7741 C   0  0  1  0  0  0  0  0  0  0  0  0
    9.2963   45.3827   34.3133 N   0  0  0  0  0  0  0  0  0  0  0  0
    8.8892   44.0536   32.2358 C   0  0  0  0  0  0  0  0  0  0  0  0
    8.2024   45.1835   31.4619 C   0  0  0  0  0  0  0  0  0  0  0  0
    6.6649   45.1047   31.4849 C   0  0  0  0  0  0  0  0  0  0  0  0
    6.0255   46.3219   30.8087 C   0  0  0  0  0  0  0  0  0  0  0  0
    6.5023   47.5638   31.4166 N   0  0  0  0  0  0  0  0  0  0  0  0
    7.2546   48.5323   30.6887 C   0  0  0  0  0  0  0  0  0  0  0  0
    7.6557   49.7047   31.3331 O   0  0  0  0  0  0  0  0  0  0  0  0
    7.5887   48.3144   29.4925 O   0  0  0  0  0  0  0  0  0  0  0  0
    8.4721   50.6892   30.7067 C   0  0  0  0  0  0  0  0  0  0  0  0
    8.8494   51.7487   31.7113 C   0  0  0  0  0  0  0  0  0  0  0  0
    8.5153   53.0882   31.4377 C   0  0  0  0  0  0  0  0  0  0  0  0
    9.4928   51.4309   32.9389 C   0  0  0  0  0  0  0  0  0  0  0  0
    8.7996   54.0964   32.3594 C   0  0  0  0  0  0  0  0  0  0  0  0
    9.7559   52.4621   33.8597 C   0  0  0  0  0  0  0  0  0  0  0  0
    9.8633   50.0811   33.2781 N   0  0  0  0  0  0  0  0  0  0  0  0
    9.4151   53.7836   33.5693 C   0  0  0  0  0  0  0  0  0  0  0  0
   10.3895   49.2352   32.3300 O   0  0  0  0  0  0  0  0  0  0  0  0
    9.8570   49.7124   34.4709 O   0  0  0  0  0  0  0  0  0  0  0  0
    8.5372   39.1388   34.0124 O   0  0  0  0  0  0  0  0  0  0  0  0
   10.9804   40.0881   33.6837 O   0  0  0  0  0  0  0  0  0  0  0  0
   10.8025   40.0900   32.2838 C   0  0  0  0  0  0  0  0  0  0  0  0
   11.5888   38.9174   31.7007 C   0  0  0  0  0  0  0  0  0  0  0  0
   12.9219   38.9373   32.1692 O   0  0  0  0  0  0  0  0  0  0  0  0
   11.0028   37.5682   32.0980 C   0  0  0  0  0  0  0  0  0  0  0  0
   13.3496   37.5885   32.2601 C   0  0  0  0  0  0  0  0  0  0  0  0
    9.9343   37.1822   31.2756 O   0  0  0  0  0  0  0  0  0  0  0  0
   12.1891   36.6677   31.9049 C   0  0  0  0  0  0  0  0  0  0  0  0
   13.8025   37.2965   33.6186 N   0  0  0  0  0  0  0  0  0  0  0  0
   12.2991   36.2867   30.5567 O   0  0  0  0  0  0  0  0  0  0  0  0
   14.7929   36.4725   33.9858 C   0  0  0  0  0  0  0  0  0  0  0  0
   13.2749   37.7294   34.7935 C   0  0  0  0  0  0  0  0  0  0  0  0
   15.6240   35.7580   33.1858 N   0  0  0  0  0  0  0  0  0  0  0  0
   14.8727   36.4411   35.3327 C   0  0  0  0  0  0  0  0  0  0  0  0
   13.9208   37.2263   35.8803 N   0  0  0  0  0  0  0  0  0  0  0  0
   16.5871   34.9921   33.7801 C   0  0  0  0  0  0  0  0  0  0  0  0
   15.8576   35.6718   35.9441 C   0  0  0  0  0  0  0  0  0  0  0  0
   16.7024   34.9585   35.1438 N   0  0  0  0  0  0  0  0  0  0  0  0
   16.0099   35.6384   37.3562 N   0  0  0  0  0  0  0  0  0  0  0  0
    7.6771   44.0713   34.0503 H   0  0  0  0  0  0  0  0  0  0  0  0
   10.3190   45.4422   34.0990 H   0  0  0  0  0  0  0  0  0  0  0  0
    9.1835   45.3826   35.3535 H   0  0  0  0  0  0  0  0  0  0  0  0
    8.4817   43.0860   31.8666 H   0  0  0  0  0  0  0  0  0  0  0  0
    9.9710   44.0693   31.9738 H   0  0  0  0  0  0  0  0  0  0  0  0
    8.5387   45.1385   30.4028 H   0  0  0  0  0  0  0  0  0  0  0  0
    8.5539   46.1522   31.8756 H   0  0  0  0  0  0  0  0  0  0  0  0
    6.3010   45.0646   32.5326 H   0  0  0  0  0  0  0  0  0  0  0  0
    6.3302   44.1796   30.9675 H   0  0  0  0  0  0  0  0  0  0  0  0
    6.2467   46.2893   29.7202 H   0  0  0  0  0  0  0  0  0  0  0  0
    4.9220   46.2652   30.9231 H   0  0  0  0  0  0  0  0  0  0  0  0
    6.2820   47.7495   32.4210 H   0  0  0  0  0  0  0  0  0  0  0  0
    7.9138   51.1263   29.8500 H   0  0  0  0  0  0  0  0  0  0  0  0
    9.3930   50.2246   30.2957 H   0  0  0  0  0  0  0  0  0  0  0  0
    8.0250   53.3559   30.5098 H   0  0  0  0  0  0  0  0  0  0  0  0
    8.5360   55.1224   32.1370 H   0  0  0  0  0  0  0  0  0  0  0  0
   10.2412   52.2432   34.8025 H   0  0  0  0  0  0  0  0  0  0  0  0
    9.6308   54.5673   34.2842 H   0  0  0  0  0  0  0  0  0  0  0  0
   11.2258   41.0357   31.8829 H   0  0  0  0  0  0  0  0  0  0  0  0
    9.7476   40.0331   31.9256 H   0  0  0  0  0  0  0  0  0  0  0  0
   11.5974   39.0148   30.5904 H   0  0  0  0  0  0  0  0  0  0  0  0
   10.7023   37.5455   33.1719 H   0  0  0  0  0  0  0  0  0  0  0  0
   14.1957   37.4366   31.5528 H   0  0  0  0  0  0  0  0  0  0  0  0
    9.1339   37.6658   31.6069 H   0  0  0  0  0  0  0  0  0  0  0  0
   12.1380   35.7717   32.5697 H   0  0  0  0  0  0  0  0  0  0  0  0
   11.7707   35.4530   30.4496 H   0  0  0  0  0  0  0  0  0  0  0  0
   12.4314   38.3980   34.8694 H   0  0  0  0  0  0  0  0  0  0  0  0
   17.2665   34.4140   33.1691 H   0  0  0  0  0  0  0  0  0  0  0  0
   16.7634   35.0598   37.7895 H   0  0  0  0  0  0  0  0  0  0  0  0
   15.3757   36.1868   37.9789 H   0  0  0  0  0  0  0  0  0  0  0  0
  1  2  2  0
  1  3  1  0
  3  4  1  0
  4  5  1  0
  6  1  1  0
  7  6  1  0
  6  8  1  0
  8  9  1  0
  9 10  1  0
 10 11  1  0
 11 12  1  0
 12 13  1  0
 13 14  1  0
 13 15  2  0
 14 16  1  0
 16 17  1  0
 17 18  2  0
 19 17  1  0
 18 20  1  0
 21 19  2  0
 19 22  1  0
 20 23  2  0
 23 21  1  0
 22 24  1  0
 22 25  2  0
  4 26  2  0
  4 27  1  0
 28 27  1  0
 28 29  1  0
 29 30  1  0
 29 31  1  0
 30 32  1  0
 31 33  1  0
 31 34  1  0
 34 32  1  0
 32 35  1  0
 34 36  1  0
 37 35  1  0
 38 35  1  0
 39 37  2  0
 37 40  1  0
 41 38  2  0
 42 39  1  0
 40 43  2  0
 40 41  1  0
 44 42  2  0
 44 43  1  0
 43 45  1  0
  6 46  1  6
  7 47  1  0
  7 48  1  0
  8 49  1  0
  8 50  1  0
  9 51  1  0
  9 52  1  0
 10 53  1  0
 10 54  1  0
 11 55  1  0
 11 56  1  0
 12 57  1  0
 16 58  1  0
 16 59  1  0
 18 60  1  0
 20 61  1  0
 21 62  1  0
 23 63  1  0
 28 64  1  0
 28 65  1  0
 29 66  1  0
 31 67  1  0
 32 68  1  0
 33 69  1  0
 34 70  1  0
 36 71  1  0
 38 72  1  0
 42 73  1  0
 45 74  1  0
 45 75  1  0
M  CHG  3   5  -1  22   1  24  -1
M  END
>  <EmbedRMS>  (267) 
0.0744906864172

$$$$

     RDKit          3D

 75 78  0  0  0  0  0  0  0  0999 V2000
    9.4298   42.9396   34.3435 C   0  0  0  0  0  0  0  0  0  0  0  0
   10.4911   43.0383   35.0234 O   0  0  0  0  0  0  0  0  0  0  0  0
    8.8549   41.7116   34.0283 O   0  0  0  0  0  0  0  0  0  0  0  0
    9.4942   40.2155   34.4674 P   0  0  0  0  0  0  0  0  0  0  0  0
    9.7309   40.1738   36.1286 O   0  0  0  0  0  0  0  0  0  0  0  0
    8.7407   44.1378   33.7786 C   0  0  1  0  0  0  0  0  0  0  0  0
    9.3005   45.3723   34.3325 N   0  0  0  0  0  0  0  0  0  0  0  0
    8.8961   44.0591   32.2400 C   0  0  0  0  0  0  0  0  0  0  0  0
    8.2030   45.1685   31.4399 C   0  0  0  0  0  0  0  0  0  0  0  0
    6.6654   45.1047   31.4872 C   0  0  0  0  0  0  0  0  0  0  0  0
    6.0287   46.3235   30.8119 C   0  0  0  0  0  0  0  0  0  0  0  0
    6.5115   47.5615   31.4230 N   0  0  0  0  0  0  0  0  0  0  0  0
    7.2458   48.5436   30.6820 C   0  0  0  0  0  0  0  0  0  0  0  0
    7.6221   49.7672   31.2535 O   0  0  0  0  0  0  0  0  0  0  0  0
    7.5879   48.3080   29.4940 O   0  0  0  0  0  0  0  0  0  0  0  0
    7.3141   50.1702   32.5879 C   0  0  0  0  0  0  0  0  0  0  0  0
    5.8351   50.4525   32.7399 C   0  0  0  0  0  0  0  0  0  0  0  0
    5.2071   51.2601   31.7742 C   0  0  0  0  0  0  0  0  0  0  0  0
    5.0575   49.9083   33.7962 C   0  0  0  0  0  0  0  0  0  0  0  0
    3.8303   51.4841   31.8186 C   0  0  0  0  0  0  0  0  0  0  0  0
    3.6697   50.1271   33.8116 C   0  0  0  0  0  0  0  0  0  0  0  0
    5.6506   49.1532   34.8636 N   0  0  0  0  0  0  0  0  0  0  0  0
    3.0613   50.9096   32.8291 C   0  0  0  0  0  0  0  0  0  0  0  0
    4.9802   48.0744   35.3920 O   0  0  0  0  0  0  0  0  0  0  0  0
    6.6435   49.6028   35.4720 O   0  0  0  0  0  0  0  0  0  0  0  0
    8.5375   39.1390   34.0122 O   0  0  0  0  0  0  0  0  0  0  0  0
   10.9797   40.0879   33.6827 O   0  0  0  0  0  0  0  0  0  0  0  0
   10.8002   40.0907   32.2830 C   0  0  0  0  0  0  0  0  0  0  0  0
   11.5958   38.9271   31.6963 C   0  0  0  0  0  0  0  0  0  0  0  0
   12.9239   38.9409   32.1767 O   0  0  0  0  0  0  0  0  0  0  0  0
   11.0062   37.5719   32.0794 C   0  0  0  0  0  0  0  0  0  0  0  0
   13.3506   37.5905   32.2614 C   0  0  0  0  0  0  0  0  0  0  0  0
    9.9064   37.1793   31.2946 O   0  0  0  0  0  0  0  0  0  0  0  0
   12.1920   36.6672   31.9003 C   0  0  0  0  0  0  0  0  0  0  0  0
   13.8017   37.2948   33.6193 N   0  0  0  0  0  0  0  0  0  0  0  0
   12.3133   36.2788   30.5561 O   0  0  0  0  0  0  0  0  0  0  0  0
   14.7927   36.4717   33.9862 C   0  0  0  0  0  0  0  0  0  0  0  0
   13.2746   37.7284   34.7941 C   0  0  0  0  0  0  0  0  0  0  0  0
   15.6240   35.7576   33.1859 N   0  0  0  0  0  0  0  0  0  0  0  0
   14.8728   36.4406   35.3330 C   0  0  0  0  0  0  0  0  0  0  0  0
   13.9209   37.2258   35.8808 N   0  0  0  0  0  0  0  0  0  0  0  0
   16.5874   34.9920   33.7802 C   0  0  0  0  0  0  0  0  0  0  0  0
   15.8579   35.6716   35.9443 C   0  0  0  0  0  0  0  0  0  0  0  0
   16.7028   34.9584   35.1439 N   0  0  0  0  0  0  0  0  0  0  0  0
   16.0103   35.6383   37.3563 N   0  0  0  0  0  0  0  0  0  0  0  0
    7.6662   44.0652   34.0545 H   0  0  0  0  0  0  0  0  0  0  0  0
    8.6786   46.1669   34.0598 H   0  0  0  0  0  0  0  0  0  0  0  0
    9.2332   45.3274   35.3760 H   0  0  0  0  0  0  0  0  0  0  0  0
    9.9808   44.0904   31.9919 H   0  0  0  0  0  0  0  0  0  0  0  0
    8.5082   43.0838   31.8695 H   0  0  0  0  0  0  0  0  0  0  0  0
    8.5759   46.1509   31.7937 H   0  0  0  0  0  0  0  0  0  0  0  0
    8.5183   45.0768   30.3774 H   0  0  0  0  0  0  0  0  0  0  0  0
    6.3161   45.0774   32.5400 H   0  0  0  0  0  0  0  0  0  0  0  0
    6.3143   44.1784   30.9829 H   0  0  0  0  0  0  0  0  0  0  0  0
    4.9254   46.2704   30.9311 H   0  0  0  0  0  0  0  0  0  0  0  0
    6.2455   46.2915   29.7227 H   0  0  0  0  0  0  0  0  0  0  0  0
    6.3064   47.7077   32.4348 H   0  0  0  0  0  0  0  0  0  0  0  0
    7.6887   49.3982   33.2888 H   0  0  0  0  0  0  0  0  0  0  0  0
    7.8684   51.1073   32.8036 H   0  0  0  0  0  0  0  0  0  0  0  0
    5.7840   51.7015   30.9706 H   0  0  0  0  0  0  0  0  0  0  0  0
    3.3576   52.0978   31.0626 H   0  0  0  0  0  0  0  0  0  0  0  0
    3.0603   49.7112   34.6040 H   0  0  0  0  0  0  0  0  0  0  0  0
    1.9929   51.0803   32.8585 H   0  0  0  0  0  0  0  0  0  0  0  0
   11.2115   41.0420   31.8828 H   0  0  0  0  0  0  0  0  0  0  0  0
    9.7454   40.0168   31.9261 H   0  0  0  0  0  0  0  0  0  0  0  0
   11.6246   39.0448   30.5888 H   0  0  0  0  0  0  0  0  0  0  0  0
   10.7050   37.5581   33.1500 H   0  0  0  0  0  0  0  0  0  0  0  0
   14.1984   37.4426   31.5553 H   0  0  0  0  0  0  0  0  0  0  0  0
   10.0893   37.4057   30.3459 H   0  0  0  0  0  0  0  0  0  0  0  0
   12.1337   35.7754   32.5703 H   0  0  0  0  0  0  0  0  0  0  0  0
   11.7934   35.4394   30.4514 H   0  0  0  0  0  0  0  0  0  0  0  0
   12.4314   38.3973   34.8699 H   0  0  0  0  0  0  0  0  0  0  0  0
   17.2669   34.4142   33.1692 H   0  0  0  0  0  0  0  0  0  0  0  0
   16.7638   35.0599   37.7897 H   0  0  0  0  0  0  0  0  0  0  0  0
   15.3759   36.1865   37.9790 H   0  0  0  0  0  0  0  0  0  0  0  0
  1  2  2  0
  1  3  1  0
  3  4  1  0
  4  5  1  0
  6  1  1  0
  7  6  1  0
  6  8  1  0
  8  9  1  0
  9 10  1  0
 10 11  1  0
 11 12  1  0
 12 13  1  0
 13 14  1  0
 13 15  2  0
 14 16  1  0
 16 17  1  0
 17 18  2  0
 19 17  1  0
 18 20  1  0
 21 19  2  0
 19 22  1  0
 20 23  2  0
 23 21  1  0
 22 24  1  0
 22 25  2  0
  4 26  2  0
  4 27  1  0
 28 27  1  0
 28 29  1  0
 29 30  1  0
 29 31  1  0
 30 32  1  0
 31 33  1  0
 31 34  1  0
 34 32  1  0
 32 35  1  0
 34 36  1  0
 37 35  1  0
 38 35  1  0
 39 37  2  0
 37 40  1  0
 41 38  2  0
 42 39  1  0
 40 43  2  0
 40 41  1  0
 44 42  2  0
 44 43  1  0
 43 45  1  0
  6 46  1  6
  7 47  1  0
  7 48  1  0
  8 49  1  0
  8 50  1  0
  9 51  1  0
  9 52  1  0
 10 53  1  0
 10 54  1  0
 11 55  1  0
 11 56  1  0
 12 57  1  0
 16 58  1  0
 16 59  1  0
 18 60  1  0
 20 61  1  0
 21 62  1  0
 23 63  1  0
 28 64  1  0
 28 65  1  0
 29 66  1  0
 31 67  1  0
 32 68  1  0
 33 69  1  0
 34 70  1  0
 36 71  1  0
 38 72  1  0
 42 73  1  0
 45 74  1  0
 45 75  1  0
M  CHG  3   5  -1  22   1  24  -1
M  END
>  <EmbedRMS>  (268) 
0.0739550330666

$$$$

     RDKit          3D

 75 78  0  0  0  0  0  0  0  0999 V2000
    9.4332   42.9365   34.3464 C   0  0  0  0  0  0  0  0  0  0  0  0
   10.4908   43.0330   35.0319 O   0  0  0  0  0  0  0  0  0  0  0  0
    8.8559   41.7104   34.0304 O   0  0  0  0  0  0  0  0  0  0  0  0
    9.4931   40.2141   34.4703 P   0  0  0  0  0  0  0  0  0  0  0  0
    9.7293   40.1727   36.1313 O   0  0  0  0  0  0  0  0  0  0  0  0
    8.7506   44.1348   33.7741 C   0  0  1  0  0  0  0  0  0  0  0  0
    9.2963   45.3820   34.3133 N   0  0  0  0  0  0  0  0  0  0  0  0
    8.8893   44.0527   32.2359 C   0  0  0  0  0  0  0  0  0  0  0  0
    8.2028   45.1823   31.4615 C   0  0  0  0  0  0  0  0  0  0  0  0
    6.6654   45.1046   31.4855 C   0  0  0  0  0  0  0  0  0  0  0  0
    6.0270   46.3225   30.8105 C   0  0  0  0  0  0  0  0  0  0  0  0
    6.5063   47.5640   31.4180 N   0  0  0  0  0  0  0  0  0  0  0  0
    7.2435   48.5392   30.6835 C   0  0  0  0  0  0  0  0  0  0  0  0
    7.5926   49.7404   31.3061 O   0  0  0  0  0  0  0  0  0  0  0  0
    7.5934   48.3117   29.4937 O   0  0  0  0  0  0  0  0  0  0  0  0
    8.3382   50.7595   30.6484 C   0  0  0  0  0  0  0  0  0  0  0  0
    8.5335   51.9236   31.5851 C   0  0  0  0  0  0  0  0  0  0  0  0
    9.7649   52.0463   32.2544 C   0  0  0  0  0  0  0  0  0  0  0  0
    7.5285   52.9082   31.7928 C   0  0  0  0  0  0  0  0  0  0  0  0
   10.0123   53.1291   33.0987 C   0  0  0  0  0  0  0  0  0  0  0  0
    7.8063   53.9995   32.6359 C   0  0  0  0  0  0  0  0  0  0  0  0
    6.2403   52.8364   31.1531 N   0  0  0  0  0  0  0  0  0  0  0  0
    9.0370   54.1062   33.2851 C   0  0  0  0  0  0  0  0  0  0  0  0
    5.5442   53.9917   30.8803 O   0  0  0  0  0  0  0  0  0  0  0  0
    5.6671   51.7403   30.9891 O   0  0  0  0  0  0  0  0  0  0  0  0
    8.5366   39.1382   34.0136 O   0  0  0  0  0  0  0  0  0  0  0  0
   10.9788   40.0866   33.6873 O   0  0  0  0  0  0  0  0  0  0  0  0
   10.7993   40.0944   32.2886 C   0  0  0  0  0  0  0  0  0  0  0  0
   11.5957   38.9351   31.6994 C   0  0  0  0  0  0  0  0  0  0  0  0
   12.9257   38.9477   32.1798 O   0  0  0  0  0  0  0  0  0  0  0  0
   11.0070   37.5757   32.0732 C   0  0  0  0  0  0  0  0  0  0  0  0
   13.3571   37.5979   32.2612 C   0  0  0  0  0  0  0  0  0  0  0  0
    9.9093   37.1807   31.2875 O   0  0  0  0  0  0  0  0  0  0  0  0
   12.1967   36.6763   31.8894 C   0  0  0  0  0  0  0  0  0  0  0  0
   13.8018   37.2956   33.6197 N   0  0  0  0  0  0  0  0  0  0  0  0
   12.3049   36.2360   30.5555 O   0  0  0  0  0  0  0  0  0  0  0  0
   14.7922   36.4716   33.9864 C   0  0  0  0  0  0  0  0  0  0  0  0
   13.2747   37.7291   34.7944 C   0  0  0  0  0  0  0  0  0  0  0  0
   15.6240   35.7581   33.1861 N   0  0  0  0  0  0  0  0  0  0  0  0
   14.8721   36.4401   35.3331 C   0  0  0  0  0  0  0  0  0  0  0  0
   13.9206   37.2257   35.8810 N   0  0  0  0  0  0  0  0  0  0  0  0
   16.5873   34.9924   33.7802 C   0  0  0  0  0  0  0  0  0  0  0  0
   15.8576   35.6714   35.9444 C   0  0  0  0  0  0  0  0  0  0  0  0
   16.7026   34.9585   35.1439 N   0  0  0  0  0  0  0  0  0  0  0  0
   16.0102   35.6382   37.3564 N   0  0  0  0  0  0  0  0  0  0  0  0
    7.6770   44.0707   34.0504 H   0  0  0  0  0  0  0  0  0  0  0  0
    9.1827   45.3821   35.3535 H   0  0  0  0  0  0  0  0  0  0  0  0
   10.3192   45.4407   34.1000 H   0  0  0  0  0  0  0  0  0  0  0  0
    8.4817   43.0850   31.8669 H   0  0  0  0  0  0  0  0  0  0  0  0
    9.9711   44.0681   31.9740 H   0  0  0  0  0  0  0  0  0  0  0  0
    8.5385   45.1362   30.4022 H   0  0  0  0  0  0  0  0  0  0  0  0
    8.5552   46.1510   31.8742 H   0  0  0  0  0  0  0  0  0  0  0  0
    6.3296   44.1799   30.9678 H   0  0  0  0  0  0  0  0  0  0  0  0
    6.3020   45.0643   32.5333 H   0  0  0  0  0  0  0  0  0  0  0  0
    4.9236   46.2673   30.9265 H   0  0  0  0  0  0  0  0  0  0  0  0
    6.2465   46.2897   29.7217 H   0  0  0  0  0  0  0  0  0  0  0  0
    6.2818   47.7532   32.4208 H   0  0  0  0  0  0  0  0  0  0  0  0
    9.3208   50.3433   30.3337 H   0  0  0  0  0  0  0  0  0  0  0  0
    7.8153   51.0916   29.7257 H   0  0  0  0  0  0  0  0  0  0  0  0
   10.5412   51.3031   32.1185 H   0  0  0  0  0  0  0  0  0  0  0  0
   10.9649   53.2130   33.6057 H   0  0  0  0  0  0  0  0  0  0  0  0
    7.0594   54.7645   32.8058 H   0  0  0  0  0  0  0  0  0  0  0  0
    9.2328   54.9472   33.9378 H   0  0  0  0  0  0  0  0  0  0  0  0
   11.2094   41.0479   31.8922 H   0  0  0  0  0  0  0  0  0  0  0  0
    9.7448   40.0200   31.9304 H   0  0  0  0  0  0  0  0  0  0  0  0
   11.6206   39.0685   30.5942 H   0  0  0  0  0  0  0  0  0  0  0  0
   10.7059   37.5563   33.1438 H   0  0  0  0  0  0  0  0  0  0  0  0
   14.2095   37.4543   31.5601 H   0  0  0  0  0  0  0  0  0  0  0  0
   10.0865   37.4209   30.3413 H   0  0  0  0  0  0  0  0  0  0  0  0
   12.1276   35.7872   32.5549 H   0  0  0  0  0  0  0  0  0  0  0  0
   12.5031   37.0109   29.9672 H   0  0  0  0  0  0  0  0  0  0  0  0
   12.4328   38.3996   34.8703 H   0  0  0  0  0  0  0  0  0  0  0  0
   17.2670   34.4149   33.1691 H   0  0  0  0  0  0  0  0  0  0  0  0
   15.3758   36.1862   37.9791 H   0  0  0  0  0  0  0  0  0  0  0  0
   16.7640   35.0601   37.7896 H   0  0  0  0  0  0  0  0  0  0  0  0
  1  2  2  0
  1  3  1  0
  3  4  1  0
  4  5  1  0
  6  1  1  0
  7  6  1  0
  6  8  1  0
  8  9  1  0
  9 10  1  0
 10 11  1  0
 11 12  1  0
 12 13  1  0
 13 14  1  0
 13 15  2  0
 14 16  1  0
 16 17  1  0
 17 18  2  0
 19 17  1  0
 18 20  1  0
 21 19  2  0
 19 22  1  0
 20 23  2  0
 23 21  1  0
 22 24  1  0
 22 25  2  0
  4 26  2  0
  4 27  1  0
 28 27  1  0
 28 29  1  0
 29 30  1  0
 29 31  1  0
 30 32  1  0
 31 33  1  0
 31 34  1  0
 34 32  1  0
 32 35  1  0
 34 36  1  0
 37 35  1  0
 38 35  1  0
 39 37  2  0
 37 40  1  0
 41 38  2  0
 42 39  1  0
 40 43  2  0
 40 41  1  0
 44 42  2  0
 44 43  1  0
 43 45  1  0
  6 46  1  6
  7 47  1  0
  7 48  1  0
  8 49  1  0
  8 50  1  0
  9 51  1  0
  9 52  1  0
 10 53  1  0
 10 54  1  0
 11 55  1  0
 11 56  1  0
 12 57  1  0
 16 58  1  0
 16 59  1  0
 18 60  1  0
 20 61  1  0
 21 62  1  0
 23 63  1  0
 28 64  1  0
 28 65  1  0
 29 66  1  0
 31 67  1  0
 32 68  1  0
 33 69  1  0
 34 70  1  0
 36 71  1  0
 38 72  1  0
 42 73  1  0
 45 74  1  0
 45 75  1  0
M  CHG  3   5  -1  22   1  24  -1
M  END
>  <EmbedRMS>  (269) 
0.0761748234793

$$$$

     RDKit          3D

 75 78  0  0  0  0  0  0  0  0999 V2000
    9.4309   42.9415   34.3442 C   0  0  0  0  0  0  0  0  0  0  0  0
   10.4884   43.0414   35.0295 O   0  0  0  0  0  0  0  0  0  0  0  0
    8.8557   41.7131   34.0299 O   0  0  0  0  0  0  0  0  0  0  0  0
    9.4932   40.2166   34.4707 P   0  0  0  0  0  0  0  0  0  0  0  0
    9.7290   40.1746   36.1317 O   0  0  0  0  0  0  0  0  0  0  0  0
    8.7480   44.1364   33.7724 C   0  0  1  0  0  0  0  0  0  0  0  0
    9.3035   45.3670   34.3388 N   0  0  0  0  0  0  0  0  0  0  0  0
    8.8889   44.0519   32.2312 C   0  0  0  0  0  0  0  0  0  0  0  0
    8.2016   45.1723   31.4438 C   0  0  0  0  0  0  0  0  0  0  0  0
    6.6643   45.1058   31.4860 C   0  0  0  0  0  0  0  0  0  0  0  0
    6.0283   46.3240   30.8096 C   0  0  0  0  0  0  0  0  0  0  0  0
    6.5087   47.5626   31.4213 N   0  0  0  0  0  0  0  0  0  0  0  0
    7.2508   48.5409   30.6847 C   0  0  0  0  0  0  0  0  0  0  0  0
    7.6438   49.7560   31.2625 O   0  0  0  0  0  0  0  0  0  0  0  0
    7.5852   48.3098   29.4935 O   0  0  0  0  0  0  0  0  0  0  0  0
    7.4048   50.1355   32.6187 C   0  0  0  0  0  0  0  0  0  0  0  0
    5.9356   50.3930   32.8776 C   0  0  0  0  0  0  0  0  0  0  0  0
    5.1906   51.0864   31.9048 C   0  0  0  0  0  0  0  0  0  0  0  0
    5.3154   50.0605   34.1107 C   0  0  0  0  0  0  0  0  0  0  0  0
    3.8519   51.4117   32.1285 C   0  0  0  0  0  0  0  0  0  0  0  0
    3.9714   50.4109   34.3236 C   0  0  0  0  0  0  0  0  0  0  0  0
    6.0337   49.4048   35.1657 N   0  0  0  0  0  0  0  0  0  0  0  0
    3.2429   51.0734   33.3352 C   0  0  0  0  0  0  0  0  0  0  0  0
    6.5693   48.1549   34.9603 O   0  0  0  0  0  0  0  0  0  0  0  0
    5.9458   49.8368   36.3335 O   0  0  0  0  0  0  0  0  0  0  0  0
    8.5369   39.1404   34.0143 O   0  0  0  0  0  0  0  0  0  0  0  0
   10.9795   40.0884   33.6889 O   0  0  0  0  0  0  0  0  0  0  0  0
   10.8017   40.0950   32.2900 C   0  0  0  0  0  0  0  0  0  0  0  0
   11.5885   38.9267   31.7042 C   0  0  0  0  0  0  0  0  0  0  0  0
   12.9236   38.9445   32.1722 O   0  0  0  0  0  0  0  0  0  0  0  0
   11.0029   37.5727   32.0908 C   0  0  0  0  0  0  0  0  0  0  0  0
   13.3555   37.5960   32.2595 C   0  0  0  0  0  0  0  0  0  0  0  0
    9.9379   37.1847   31.2657 O   0  0  0  0  0  0  0  0  0  0  0  0
   12.1931   36.6770   31.8952 C   0  0  0  0  0  0  0  0  0  0  0  0
   13.8028   37.2977   33.6186 N   0  0  0  0  0  0  0  0  0  0  0  0
   12.2918   36.2396   30.5587 O   0  0  0  0  0  0  0  0  0  0  0  0
   14.7926   36.4727   33.9858 C   0  0  0  0  0  0  0  0  0  0  0  0
   13.2750   37.7302   34.7935 C   0  0  0  0  0  0  0  0  0  0  0  0
   15.6241   35.7586   33.1857 N   0  0  0  0  0  0  0  0  0  0  0  0
   14.8721   36.4408   35.3326 C   0  0  0  0  0  0  0  0  0  0  0  0
   13.9204   37.2263   35.8802 N   0  0  0  0  0  0  0  0  0  0  0  0
   16.5870   34.9924   33.7800 C   0  0  0  0  0  0  0  0  0  0  0  0
   15.8572   35.6717   35.9441 C   0  0  0  0  0  0  0  0  0  0  0  0
   16.7022   34.9585   35.1437 N   0  0  0  0  0  0  0  0  0  0  0  0
   16.0097   35.6384   37.3561 N   0  0  0  0  0  0  0  0  0  0  0  0
    7.6759   44.0642   34.0548 H   0  0  0  0  0  0  0  0  0  0  0  0
    8.6468   46.1566   34.1424 H   0  0  0  0  0  0  0  0  0  0  0  0
   10.2150   45.5882   33.8751 H   0  0  0  0  0  0  0  0  0  0  0  0
    8.4826   43.0819   31.8671 H   0  0  0  0  0  0  0  0  0  0  0  0
    9.9706   44.0641   31.9684 H   0  0  0  0  0  0  0  0  0  0  0  0
    8.5218   45.0972   30.3815 H   0  0  0  0  0  0  0  0  0  0  0  0
    8.5703   46.1488   31.8191 H   0  0  0  0  0  0  0  0  0  0  0  0
    6.3123   45.0762   32.5381 H   0  0  0  0  0  0  0  0  0  0  0  0
    6.3160   44.1799   30.9790 H   0  0  0  0  0  0  0  0  0  0  0  0
    6.2483   46.2916   29.7210 H   0  0  0  0  0  0  0  0  0  0  0  0
    4.9247   46.2701   30.9252 H   0  0  0  0  0  0  0  0  0  0  0  0
    6.2830   47.7197   32.4258 H   0  0  0  0  0  0  0  0  0  0  0  0
    7.8424   49.3749   33.2930 H   0  0  0  0  0  0  0  0  0  0  0  0
    7.9512   51.0827   32.8087 H   0  0  0  0  0  0  0  0  0  0  0  0
    5.6490   51.3835   30.9697 H   0  0  0  0  0  0  0  0  0  0  0  0
    3.2889   51.9375   31.3681 H   0  0  0  0  0  0  0  0  0  0  0  0
    3.4860   50.1625   35.2592 H   0  0  0  0  0  0  0  0  0  0  0  0
    2.2065   51.3325   33.5091 H   0  0  0  0  0  0  0  0  0  0  0  0
    9.7472   40.0378   31.9304 H   0  0  0  0  0  0  0  0  0  0  0  0
   11.2240   41.0428   31.8929 H   0  0  0  0  0  0  0  0  0  0  0  0
   11.5927   39.0434   30.5966 H   0  0  0  0  0  0  0  0  0  0  0  0
   10.7003   37.5444   33.1641 H   0  0  0  0  0  0  0  0  0  0  0  0
   14.2051   37.4478   31.5560 H   0  0  0  0  0  0  0  0  0  0  0  0
    9.1373   37.6722   31.5906 H   0  0  0  0  0  0  0  0  0  0  0  0
   12.1305   35.7856   32.5586 H   0  0  0  0  0  0  0  0  0  0  0  0
   12.4606   37.0186   29.9674 H   0  0  0  0  0  0  0  0  0  0  0  0
   12.4327   38.4001   34.8694 H   0  0  0  0  0  0  0  0  0  0  0  0
   17.2665   34.4146   33.1690 H   0  0  0  0  0  0  0  0  0  0  0  0
   15.3754   36.1866   37.9788 H   0  0  0  0  0  0  0  0  0  0  0  0
   16.7634   35.0601   37.7894 H   0  0  0  0  0  0  0  0  0  0  0  0
  1  2  2  0
  1  3  1  0
  3  4  1  0
  4  5  1  0
  6  1  1  0
  7  6  1  0
  6  8  1  0
  8  9  1  0
  9 10  1  0
 10 11  1  0
 11 12  1  0
 12 13  1  0
 13 14  1  0
 13 15  2  0
 14 16  1  0
 16 17  1  0
 17 18  2  0
 19 17  1  0
 18 20  1  0
 21 19  2  0
 19 22  1  0
 20 23  2  0
 23 21  1  0
 22 24  1  0
 22 25  2  0
  4 26  2  0
  4 27  1  0
 28 27  1  0
 28 29  1  0
 29 30  1  0
 29 31  1  0
 30 32  1  0
 31 33  1  0
 31 34  1  0
 34 32  1  0
 32 35  1  0
 34 36  1  0
 37 35  1  0
 38 35  1  0
 39 37  2  0
 37 40  1  0
 41 38  2  0
 42 39  1  0
 40 43  2  0
 40 41  1  0
 44 42  2  0
 44 43  1  0
 43 45  1  0
  6 46  1  6
  7 47  1  0
  7 48  1  0
  8 49  1  0
  8 50  1  0
  9 51  1  0
  9 52  1  0
 10 53  1  0
 10 54  1  0
 11 55  1  0
 11 56  1  0
 12 57  1  0
 16 58  1  0
 16 59  1  0
 18 60  1  0
 20 61  1  0
 21 62  1  0
 23 63  1  0
 28 64  1  0
 28 65  1  0
 29 66  1  0
 31 67  1  0
 32 68  1  0
 33 69  1  0
 34 70  1  0
 36 71  1  0
 38 72  1  0
 42 73  1  0
 45 74  1  0
 45 75  1  0
M  CHG  3   5  -1  22   1  24  -1
M  END
>  <EmbedRMS>  (270) 
0.0749244368048

$$$$

     RDKit          3D

 75 78  0  0  0  0  0  0  0  0999 V2000
    9.4330   42.9366   34.3463 C   0  0  0  0  0  0  0  0  0  0  0  0
   10.4906   43.0331   35.0318 O   0  0  0  0  0  0  0  0  0  0  0  0
    8.8558   41.7105   34.0299 O   0  0  0  0  0  0  0  0  0  0  0  0
    9.4943   40.2142   34.4677 P   0  0  0  0  0  0  0  0  0  0  0  0
    9.7317   40.1724   36.1287 O   0  0  0  0  0  0  0  0  0  0  0  0
    8.7504   44.1350   33.7742 C   0  0  1  0  0  0  0  0  0  0  0  0
    9.2960   45.3823   34.3134 N   0  0  0  0  0  0  0  0  0  0  0  0
    8.8892   44.0530   32.2360 C   0  0  0  0  0  0  0  0  0  0  0  0
    8.2030   45.1828   31.4618 C   0  0  0  0  0  0  0  0  0  0  0  0
    6.6655   45.1041   31.4832 C   0  0  0  0  0  0  0  0  0  0  0  0
    6.0283   46.3231   30.8084 C   0  0  0  0  0  0  0  0  0  0  0  0
    6.5048   47.5633   31.4210 N   0  0  0  0  0  0  0  0  0  0  0  0
    7.2503   48.5404   30.6842 C   0  0  0  0  0  0  0  0  0  0  0  0
    7.6438   49.7514   31.2658 O   0  0  0  0  0  0  0  0  0  0  0  0
    7.5875   48.3093   29.4938 O   0  0  0  0  0  0  0  0  0  0  0  0
    7.3638   50.1135   32.6162 C   0  0  0  0  0  0  0  0  0  0  0  0
    7.9203   51.4793   32.9585 C   0  0  0  0  0  0  0  0  0  0  0  0
    8.3234   52.3577   31.9307 C   0  0  0  0  0  0  0  0  0  0  0  0
    8.0567   51.8964   34.3119 C   0  0  0  0  0  0  0  0  0  0  0  0
    8.8806   53.6010   32.2317 C   0  0  0  0  0  0  0  0  0  0  0  0
    8.6370   53.1468   34.5905 C   0  0  0  0  0  0  0  0  0  0  0  0
    7.6294   51.0713   35.4121 N   0  0  0  0  0  0  0  0  0  0  0  0
    9.0440   53.9915   33.5582 C   0  0  0  0  0  0  0  0  0  0  0  0
    8.2619   51.1695   36.6303 O   0  0  0  0  0  0  0  0  0  0  0  0
    6.5872   50.3894   35.3320 O   0  0  0  0  0  0  0  0  0  0  0  0
    8.5371   39.1383   34.0123 O   0  0  0  0  0  0  0  0  0  0  0  0
   10.9792   40.0888   33.6814 O   0  0  0  0  0  0  0  0  0  0  0  0
   10.7976   40.0842   32.2817 C   0  0  0  0  0  0  0  0  0  0  0  0
   11.5897   38.9146   31.7008 C   0  0  0  0  0  0  0  0  0  0  0  0
   12.9218   38.9385   32.1717 O   0  0  0  0  0  0  0  0  0  0  0  0
   11.0070   37.5654   32.0975 C   0  0  0  0  0  0  0  0  0  0  0  0
   13.3533   37.5909   32.2610 C   0  0  0  0  0  0  0  0  0  0  0  0
    9.9333   37.1935   31.2754 O   0  0  0  0  0  0  0  0  0  0  0  0
   12.1945   36.6671   31.9040 C   0  0  0  0  0  0  0  0  0  0  0  0
   13.8036   37.2970   33.6193 N   0  0  0  0  0  0  0  0  0  0  0  0
   12.2893   36.2849   30.5562 O   0  0  0  0  0  0  0  0  0  0  0  0
   14.7931   36.4723   33.9863 C   0  0  0  0  0  0  0  0  0  0  0  0
   13.2756   37.7298   34.7940 C   0  0  0  0  0  0  0  0  0  0  0  0
   15.6242   35.7580   33.1861 N   0  0  0  0  0  0  0  0  0  0  0  0
   14.8727   36.4407   35.3331 C   0  0  0  0  0  0  0  0  0  0  0  0
   13.9210   37.2262   35.8808 N   0  0  0  0  0  0  0  0  0  0  0  0
   16.5872   34.9920   33.7803 C   0  0  0  0  0  0  0  0  0  0  0  0
   15.8577   35.6714   35.9444 C   0  0  0  0  0  0  0  0  0  0  0  0
   16.7025   34.9582   35.1440 N   0  0  0  0  0  0  0  0  0  0  0  0
   16.0101   35.6382   37.3564 N   0  0  0  0  0  0  0  0  0  0  0  0
    7.6767   44.0710   34.0502 H   0  0  0  0  0  0  0  0  0  0  0  0
    9.1819   45.3826   35.3535 H   0  0  0  0  0  0  0  0  0  0  0  0
   10.3189   45.4409   34.1004 H   0  0  0  0  0  0  0  0  0  0  0  0
    9.9710   44.0683   31.9742 H   0  0  0  0  0  0  0  0  0  0  0  0
    8.4815   43.0854   31.8668 H   0  0  0  0  0  0  0  0  0  0  0  0
    8.5540   46.1514   31.8762 H   0  0  0  0  0  0  0  0  0  0  0  0
    8.5403   45.1382   30.4031 H   0  0  0  0  0  0  0  0  0  0  0  0
    6.3004   45.0619   32.5304 H   0  0  0  0  0  0  0  0  0  0  0  0
    6.3312   44.1801   30.9634 H   0  0  0  0  0  0  0  0  0  0  0  0
    6.2503   46.2920   29.7201 H   0  0  0  0  0  0  0  0  0  0  0  0
    4.9245   46.2665   30.9211 H   0  0  0  0  0  0  0  0  0  0  0  0
    6.2721   47.7254   32.4254 H   0  0  0  0  0  0  0  0  0  0  0  0
    6.2642   50.1242   32.7750 H   0  0  0  0  0  0  0  0  0  0  0  0
    7.8330   49.3564   33.2817 H   0  0  0  0  0  0  0  0  0  0  0  0
    8.2126   52.0878   30.8886 H   0  0  0  0  0  0  0  0  0  0  0  0
    9.1898   54.2625   31.4326 H   0  0  0  0  0  0  0  0  0  0  0  0
    8.7569   53.4792   35.6138 H   0  0  0  0  0  0  0  0  0  0  0  0
    9.4798   54.9553   33.7879 H   0  0  0  0  0  0  0  0  0  0  0  0
   11.2111   41.0320   31.8753 H   0  0  0  0  0  0  0  0  0  0  0  0
    9.7422   40.0118   31.9266 H   0  0  0  0  0  0  0  0  0  0  0  0
   11.6005   39.0119   30.5904 H   0  0  0  0  0  0  0  0  0  0  0  0
   10.7015   37.5593   33.1701 H   0  0  0  0  0  0  0  0  0  0  0  0
   14.2012   37.4438   31.5552 H   0  0  0  0  0  0  0  0  0  0  0  0
    9.5289   36.3869   31.6895 H   0  0  0  0  0  0  0  0  0  0  0  0
   12.1244   35.7693   32.5633 H   0  0  0  0  0  0  0  0  0  0  0  0
   12.9478   35.5427   30.5201 H   0  0  0  0  0  0  0  0  0  0  0  0
   12.4328   38.3993   34.8697 H   0  0  0  0  0  0  0  0  0  0  0  0
   17.2667   34.4140   33.1692 H   0  0  0  0  0  0  0  0  0  0  0  0
   15.3759   36.1865   37.9791 H   0  0  0  0  0  0  0  0  0  0  0  0
   16.7636   35.0598   37.7897 H   0  0  0  0  0  0  0  0  0  0  0  0
  1  2  2  0
  1  3  1  0
  3  4  1  0
  4  5  1  0
  6  1  1  0
  7  6  1  0
  6  8  1  0
  8  9  1  0
  9 10  1  0
 10 11  1  0
 11 12  1  0
 12 13  1  0
 13 14  1  0
 13 15  2  0
 14 16  1  0
 16 17  1  0
 17 18  2  0
 19 17  1  0
 18 20  1  0
 21 19  2  0
 19 22  1  0
 20 23  2  0
 23 21  1  0
 22 24  1  0
 22 25  2  0
  4 26  2  0
  4 27  1  0
 28 27  1  0
 28 29  1  0
 29 30  1  0
 29 31  1  0
 30 32  1  0
 31 33  1  0
 31 34  1  0
 34 32  1  0
 32 35  1  0
 34 36  1  0
 37 35  1  0
 38 35  1  0
 39 37  2  0
 37 40  1  0
 41 38  2  0
 42 39  1  0
 40 43  2  0
 40 41  1  0
 44 42  2  0
 44 43  1  0
 43 45  1  0
  6 46  1  6
  7 47  1  0
  7 48  1  0
  8 49  1  0
  8 50  1  0
  9 51  1  0
  9 52  1  0
 10 53  1  0
 10 54  1  0
 11 55  1  0
 11 56  1  0
 12 57  1  0
 16 58  1  0
 16 59  1  0
 18 60  1  0
 20 61  1  0
 21 62  1  0
 23 63  1  0
 28 64  1  0
 28 65  1  0
 29 66  1  0
 31 67  1  0
 32 68  1  0
 33 69  1  0
 34 70  1  0
 36 71  1  0
 38 72  1  0
 42 73  1  0
 45 74  1  0
 45 75  1  0
M  CHG  3   5  -1  22   1  24  -1
M  END
>  <EmbedRMS>  (271) 
0.0743630132388

$$$$

     RDKit          3D

 75 78  0  0  0  0  0  0  0  0999 V2000
    9.4329   42.9366   34.3461 C   0  0  0  0  0  0  0  0  0  0  0  0
   10.4905   43.0331   35.0317 O   0  0  0  0  0  0  0  0  0  0  0  0
    8.8557   41.7104   34.0299 O   0  0  0  0  0  0  0  0  0  0  0  0
    9.4944   40.2141   34.4677 P   0  0  0  0  0  0  0  0  0  0  0  0
    9.7317   40.1724   36.1287 O   0  0  0  0  0  0  0  0  0  0  0  0
    8.7504   44.1348   33.7737 C   0  0  1  0  0  0  0  0  0  0  0  0
    9.2961   45.3821   34.3129 N   0  0  0  0  0  0  0  0  0  0  0  0
    8.8893   44.0524   32.2353 C   0  0  0  0  0  0  0  0  0  0  0  0
    8.2035   45.1820   31.4602 C   0  0  0  0  0  0  0  0  0  0  0  0
    6.6659   45.1025   31.4802 C   0  0  0  0  0  0  0  0  0  0  0  0
    6.0261   46.3258   30.8144 C   0  0  0  0  0  0  0  0  0  0  0  0
    6.5143   47.5626   31.4245 N   0  0  0  0  0  0  0  0  0  0  0  0
    7.2269   48.5521   30.6747 C   0  0  0  0  0  0  0  0  0  0  0  0
    7.5445   49.8038   31.2190 O   0  0  0  0  0  0  0  0  0  0  0  0
    7.6026   48.2994   29.5003 O   0  0  0  0  0  0  0  0  0  0  0  0
    6.9786   50.3559   32.4078 C   0  0  0  0  0  0  0  0  0  0  0  0
    5.5267   50.7221   32.1965 C   0  0  0  0  0  0  0  0  0  0  0  0
    4.5369   49.9465   32.8298 C   0  0  0  0  0  0  0  0  0  0  0  0
    5.1327   51.8560   31.4326 C   0  0  0  0  0  0  0  0  0  0  0  0
    3.1849   50.2588   32.6886 C   0  0  0  0  0  0  0  0  0  0  0  0
    3.7628   52.1581   31.3149 C   0  0  0  0  0  0  0  0  0  0  0  0
    6.0921   52.7361   30.8160 N   0  0  0  0  0  0  0  0  0  0  0  0
    2.7983   51.3603   31.9301 C   0  0  0  0  0  0  0  0  0  0  0  0
    7.2155   52.2400   30.1985 O   0  0  0  0  0  0  0  0  0  0  0  0
    5.8373   53.9530   30.7011 O   0  0  0  0  0  0  0  0  0  0  0  0
    8.5373   39.1382   34.0122 O   0  0  0  0  0  0  0  0  0  0  0  0
   10.9795   40.0890   33.6815 O   0  0  0  0  0  0  0  0  0  0  0  0
   10.7982   40.0848   32.2819 C   0  0  0  0  0  0  0  0  0  0  0  0
   11.5886   38.9142   31.7009 C   0  0  0  0  0  0  0  0  0  0  0  0
   12.9214   38.9367   32.1698 O   0  0  0  0  0  0  0  0  0  0  0  0
   11.0047   37.5660   32.0990 C   0  0  0  0  0  0  0  0  0  0  0  0
   13.3510   37.5885   32.2601 C   0  0  0  0  0  0  0  0  0  0  0  0
    9.9296   37.1961   31.2780 O   0  0  0  0  0  0  0  0  0  0  0  0
   12.1923   36.6658   31.9047 C   0  0  0  0  0  0  0  0  0  0  0  0
   13.8033   37.2966   33.6188 N   0  0  0  0  0  0  0  0  0  0  0  0
   12.3007   36.2864   30.5561 O   0  0  0  0  0  0  0  0  0  0  0  0
   14.7933   36.4724   33.9860 C   0  0  0  0  0  0  0  0  0  0  0  0
   13.2754   37.7296   34.7935 C   0  0  0  0  0  0  0  0  0  0  0  0
   15.6243   35.7579   33.1860 N   0  0  0  0  0  0  0  0  0  0  0  0
   14.8728   36.4410   35.3328 C   0  0  0  0  0  0  0  0  0  0  0  0
   13.9209   37.2263   35.8804 N   0  0  0  0  0  0  0  0  0  0  0  0
   16.5873   34.9919   33.7803 C   0  0  0  0  0  0  0  0  0  0  0  0
   15.8577   35.6716   35.9443 C   0  0  0  0  0  0  0  0  0  0  0  0
   16.7025   34.9583   35.1440 N   0  0  0  0  0  0  0  0  0  0  0  0
   16.0100   35.6384   37.3563 N   0  0  0  0  0  0  0  0  0  0  0  0
    7.6768   44.0709   34.0498 H   0  0  0  0  0  0  0  0  0  0  0  0
   10.3190   45.4406   34.0998 H   0  0  0  0  0  0  0  0  0  0  0  0
    9.1822   45.3823   35.3530 H   0  0  0  0  0  0  0  0  0  0  0  0
    8.4815   43.0847   31.8665 H   0  0  0  0  0  0  0  0  0  0  0  0
    9.9712   44.0673   31.9738 H   0  0  0  0  0  0  0  0  0  0  0  0
    8.5414   45.1374   30.4017 H   0  0  0  0  0  0  0  0  0  0  0  0
    8.5549   46.1502   31.8746 H   0  0  0  0  0  0  0  0  0  0  0  0
    6.3322   44.1817   30.9545 H   0  0  0  0  0  0  0  0  0  0  0  0
    6.3007   45.0526   32.5269 H   0  0  0  0  0  0  0  0  0  0  0  0
    4.9239   46.2732   30.9430 H   0  0  0  0  0  0  0  0  0  0  0  0
    6.2331   46.2975   29.7232 H   0  0  0  0  0  0  0  0  0  0  0  0
    6.3576   47.6899   32.4466 H   0  0  0  0  0  0  0  0  0  0  0  0
    7.1121   49.6506   33.2554 H   0  0  0  0  0  0  0  0  0  0  0  0
    7.5447   51.2697   32.6851 H   0  0  0  0  0  0  0  0  0  0  0  0
    4.8080   49.1012   33.4483 H   0  0  0  0  0  0  0  0  0  0  0  0
    2.4353   49.6494   33.1770 H   0  0  0  0  0  0  0  0  0  0  0  0
    3.4393   53.0147   30.7370 H   0  0  0  0  0  0  0  0  0  0  0  0
    1.7486   51.6032   31.8258 H   0  0  0  0  0  0  0  0  0  0  0  0
   11.2131   41.0320   31.8757 H   0  0  0  0  0  0  0  0  0  0  0  0
    9.7427   40.0141   31.9266 H   0  0  0  0  0  0  0  0  0  0  0  0
   11.5980   39.0108   30.5904 H   0  0  0  0  0  0  0  0  0  0  0  0
   10.7009   37.5602   33.1721 H   0  0  0  0  0  0  0  0  0  0  0  0
   14.1977   37.4380   31.5532 H   0  0  0  0  0  0  0  0  0  0  0  0
    9.5180   36.3961   31.6977 H   0  0  0  0  0  0  0  0  0  0  0  0
   12.1418   35.7697   32.5692 H   0  0  0  0  0  0  0  0  0  0  0  0
   11.7730   35.4523   30.4489 H   0  0  0  0  0  0  0  0  0  0  0  0
   12.4321   38.3985   34.8692 H   0  0  0  0  0  0  0  0  0  0  0  0
   17.2666   34.4137   33.1694 H   0  0  0  0  0  0  0  0  0  0  0  0
   15.3758   36.1867   37.9790 H   0  0  0  0  0  0  0  0  0  0  0  0
   16.7634   35.0598   37.7897 H   0  0  0  0  0  0  0  0  0  0  0  0
  1  2  2  0
  1  3  1  0
  3  4  1  0
  4  5  1  0
  6  1  1  0
  7  6  1  0
  6  8  1  0
  8  9  1  0
  9 10  1  0
 10 11  1  0
 11 12  1  0
 12 13  1  0
 13 14  1  0
 13 15  2  0
 14 16  1  0
 16 17  1  0
 17 18  2  0
 19 17  1  0
 18 20  1  0
 21 19  2  0
 19 22  1  0
 20 23  2  0
 23 21  1  0
 22 24  1  0
 22 25  2  0
  4 26  2  0
  4 27  1  0
 28 27  1  0
 28 29  1  0
 29 30  1  0
 29 31  1  0
 30 32  1  0
 31 33  1  0
 31 34  1  0
 34 32  1  0
 32 35  1  0
 34 36  1  0
 37 35  1  0
 38 35  1  0
 39 37  2  0
 37 40  1  0
 41 38  2  0
 42 39  1  0
 40 43  2  0
 40 41  1  0
 44 42  2  0
 44 43  1  0
 43 45  1  0
  6 46  1  6
  7 47  1  0
  7 48  1  0
  8 49  1  0
  8 50  1  0
  9 51  1  0
  9 52  1  0
 10 53  1  0
 10 54  1  0
 11 55  1  0
 11 56  1  0
 12 57  1  0
 16 58  1  0
 16 59  1  0
 18 60  1  0
 20 61  1  0
 21 62  1  0
 23 63  1  0
 28 64  1  0
 28 65  1  0
 29 66  1  0
 31 67  1  0
 32 68  1  0
 33 69  1  0
 34 70  1  0
 36 71  1  0
 38 72  1  0
 42 73  1  0
 45 74  1  0
 45 75  1  0
M  CHG  3   5  -1  22   1  24  -1
M  END
>  <EmbedRMS>  (272) 
0.0739786704071

$$$$

     RDKit          3D

 75 78  0  0  0  0  0  0  0  0999 V2000
    9.4299   42.9396   34.3435 C   0  0  0  0  0  0  0  0  0  0  0  0
   10.4912   43.0382   35.0235 O   0  0  0  0  0  0  0  0  0  0  0  0
    8.8549   41.7117   34.0282 O   0  0  0  0  0  0  0  0  0  0  0  0
    9.4941   40.2155   34.4674 P   0  0  0  0  0  0  0  0  0  0  0  0
    9.7309   40.1739   36.1285 O   0  0  0  0  0  0  0  0  0  0  0  0
    8.7410   44.1381   33.7788 C   0  0  1  0  0  0  0  0  0  0  0  0
    9.3014   45.3723   34.3327 N   0  0  0  0  0  0  0  0  0  0  0  0
    8.8961   44.0596   32.2401 C   0  0  0  0  0  0  0  0  0  0  0  0
    8.2027   45.1693   31.4404 C   0  0  0  0  0  0  0  0  0  0  0  0
    6.6652   45.1057   31.4885 C   0  0  0  0  0  0  0  0  0  0  0  0
    6.0286   46.3223   30.8090 C   0  0  0  0  0  0  0  0  0  0  0  0
    6.5044   47.5630   31.4208 N   0  0  0  0  0  0  0  0  0  0  0  0
    7.2561   48.5372   30.6865 C   0  0  0  0  0  0  0  0  0  0  0  0
    7.6730   49.7360   31.2770 O   0  0  0  0  0  0  0  0  0  0  0  0
    7.5837   48.3111   29.4925 O   0  0  0  0  0  0  0  0  0  0  0  0
    7.4283   50.0789   32.6384 C   0  0  0  0  0  0  0  0  0  0  0  0
    8.0104   51.4403   32.9305 C   0  0  0  0  0  0  0  0  0  0  0  0
    7.6674   52.5070   32.0796 C   0  0  0  0  0  0  0  0  0  0  0  0
    8.9097   51.6746   34.0034 C   0  0  0  0  0  0  0  0  0  0  0  0
    8.2355   53.7698   32.2547 C   0  0  0  0  0  0  0  0  0  0  0  0
    9.4866   52.9483   34.1517 C   0  0  0  0  0  0  0  0  0  0  0  0
    9.2196   50.6540   34.9647 N   0  0  0  0  0  0  0  0  0  0  0  0
    9.1514   53.9873   33.2824 C   0  0  0  0  0  0  0  0  0  0  0  0
    8.2030   49.9719   35.5926 O   0  0  0  0  0  0  0  0  0  0  0  0
   10.3811   50.5489   35.4101 O   0  0  0  0  0  0  0  0  0  0  0  0
    8.5374   39.1391   34.0122 O   0  0  0  0  0  0  0  0  0  0  0  0
   10.9797   40.0879   33.6827 O   0  0  0  0  0  0  0  0  0  0  0  0
   10.8002   40.0907   32.2830 C   0  0  0  0  0  0  0  0  0  0  0  0
   11.5958   38.9271   31.6963 C   0  0  0  0  0  0  0  0  0  0  0  0
   12.9238   38.9409   32.1767 O   0  0  0  0  0  0  0  0  0  0  0  0
   11.0062   37.5719   32.0794 C   0  0  0  0  0  0  0  0  0  0  0  0
   13.3506   37.5906   32.2614 C   0  0  0  0  0  0  0  0  0  0  0  0
    9.9064   37.1793   31.2946 O   0  0  0  0  0  0  0  0  0  0  0  0
   12.1920   36.6672   31.9003 C   0  0  0  0  0  0  0  0  0  0  0  0
   13.8017   37.2948   33.6193 N   0  0  0  0  0  0  0  0  0  0  0  0
   12.3133   36.2788   30.5560 O   0  0  0  0  0  0  0  0  0  0  0  0
   14.7927   36.4716   33.9862 C   0  0  0  0  0  0  0  0  0  0  0  0
   13.2746   37.7284   34.7941 C   0  0  0  0  0  0  0  0  0  0  0  0
   15.6240   35.7576   33.1859 N   0  0  0  0  0  0  0  0  0  0  0  0
   14.8728   36.4406   35.3330 C   0  0  0  0  0  0  0  0  0  0  0  0
   13.9209   37.2258   35.8807 N   0  0  0  0  0  0  0  0  0  0  0  0
   16.5874   34.9920   33.7802 C   0  0  0  0  0  0  0  0  0  0  0  0
   15.8579   35.6716   35.9443 C   0  0  0  0  0  0  0  0  0  0  0  0
   16.7028   34.9584   35.1439 N   0  0  0  0  0  0  0  0  0  0  0  0
   16.0103   35.6383   37.3563 N   0  0  0  0  0  0  0  0  0  0  0  0
    7.6665   44.0658   34.0547 H   0  0  0  0  0  0  0  0  0  0  0  0
    8.6808   46.1676   34.0593 H   0  0  0  0  0  0  0  0  0  0  0  0
    9.2337   45.3279   35.3761 H   0  0  0  0  0  0  0  0  0  0  0  0
    8.5082   43.0844   31.8696 H   0  0  0  0  0  0  0  0  0  0  0  0
    9.9808   44.0911   31.9918 H   0  0  0  0  0  0  0  0  0  0  0  0
    8.5176   45.0775   30.3778 H   0  0  0  0  0  0  0  0  0  0  0  0
    8.5753   46.1519   31.7940 H   0  0  0  0  0  0  0  0  0  0  0  0
    6.3161   45.0816   32.5415 H   0  0  0  0  0  0  0  0  0  0  0  0
    6.3141   44.1779   30.9871 H   0  0  0  0  0  0  0  0  0  0  0  0
    4.9248   46.2660   30.9207 H   0  0  0  0  0  0  0  0  0  0  0  0
    6.2523   46.2890   29.7211 H   0  0  0  0  0  0  0  0  0  0  0  0
    6.2683   47.7263   32.4242 H   0  0  0  0  0  0  0  0  0  0  0  0
    6.3328   50.1152   32.8217 H   0  0  0  0  0  0  0  0  0  0  0  0
    7.8754   49.2931   33.2788 H   0  0  0  0  0  0  0  0  0  0  0  0
    6.9697   52.3544   31.2650 H   0  0  0  0  0  0  0  0  0  0  0  0
    7.9705   54.5793   31.5868 H   0  0  0  0  0  0  0  0  0  0  0  0
   10.1784   53.1432   34.9616 H   0  0  0  0  0  0  0  0  0  0  0  0
    9.5938   54.9664   33.4138 H   0  0  0  0  0  0  0  0  0  0  0  0
   11.2115   41.0420   31.8828 H   0  0  0  0  0  0  0  0  0  0  0  0
    9.7454   40.0168   31.9261 H   0  0  0  0  0  0  0  0  0  0  0  0
   11.6246   39.0448   30.5888 H   0  0  0  0  0  0  0  0  0  0  0  0
   10.7050   37.5581   33.1500 H   0  0  0  0  0  0  0  0  0  0  0  0
   14.1985   37.4426   31.5553 H   0  0  0  0  0  0  0  0  0  0  0  0
   10.0893   37.4057   30.3459 H   0  0  0  0  0  0  0  0  0  0  0  0
   12.1337   35.7754   32.5703 H   0  0  0  0  0  0  0  0  0  0  0  0
   11.7934   35.4394   30.4514 H   0  0  0  0  0  0  0  0  0  0  0  0
   12.4314   38.3973   34.8699 H   0  0  0  0  0  0  0  0  0  0  0  0
   17.2669   34.4142   33.1692 H   0  0  0  0  0  0  0  0  0  0  0  0
   15.3759   36.1865   37.9790 H   0  0  0  0  0  0  0  0  0  0  0  0
   16.7638   35.0599   37.7896 H   0  0  0  0  0  0  0  0  0  0  0  0
  1  2  2  0
  1  3  1  0
  3  4  1  0
  4  5  1  0
  6  1  1  0
  7  6  1  0
  6  8  1  0
  8  9  1  0
  9 10  1  0
 10 11  1  0
 11 12  1  0
 12 13  1  0
 13 14  1  0
 13 15  2  0
 14 16  1  0
 16 17  1  0
 17 18  2  0
 19 17  1  0
 18 20  1  0
 21 19  2  0
 19 22  1  0
 20 23  2  0
 23 21  1  0
 22 24  1  0
 22 25  2  0
  4 26  2  0
  4 27  1  0
 28 27  1  0
 28 29  1  0
 29 30  1  0
 29 31  1  0
 30 32  1  0
 31 33  1  0
 31 34  1  0
 34 32  1  0
 32 35  1  0
 34 36  1  0
 37 35  1  0
 38 35  1  0
 39 37  2  0
 37 40  1  0
 41 38  2  0
 42 39  1  0
 40 43  2  0
 40 41  1  0
 44 42  2  0
 44 43  1  0
 43 45  1  0
  6 46  1  6
  7 47  1  0
  7 48  1  0
  8 49  1  0
  8 50  1  0
  9 51  1  0
  9 52  1  0
 10 53  1  0
 10 54  1  0
 11 55  1  0
 11 56  1  0
 12 57  1  0
 16 58  1  0
 16 59  1  0
 18 60  1  0
 20 61  1  0
 21 62  1  0
 23 63  1  0
 28 64  1  0
 28 65  1  0
 29 66  1  0
 31 67  1  0
 32 68  1  0
 33 69  1  0
 34 70  1  0
 36 71  1  0
 38 72  1  0
 42 73  1  0
 45 74  1  0
 45 75  1  0
M  CHG  3   5  -1  22   1  24  -1
M  END
>  <EmbedRMS>  (273) 
0.0743611553955

$$$$

     RDKit          3D

 75 78  0  0  0  0  0  0  0  0999 V2000
    9.4331   42.9368   34.3464 C   0  0  0  0  0  0  0  0  0  0  0  0
   10.4908   43.0332   35.0317 O   0  0  0  0  0  0  0  0  0  0  0  0
    8.8555   41.7106   34.0309 O   0  0  0  0  0  0  0  0  0  0  0  0
    9.4930   40.2144   34.4706 P   0  0  0  0  0  0  0  0  0  0  0  0
    9.7296   40.1728   36.1314 O   0  0  0  0  0  0  0  0  0  0  0  0
    8.7506   44.1352   33.7741 C   0  0  1  0  0  0  0  0  0  0  0  0
    9.2964   45.3824   34.3133 N   0  0  0  0  0  0  0  0  0  0  0  0
    8.8892   44.0532   32.2358 C   0  0  0  0  0  0  0  0  0  0  0  0
    8.2026   45.1830   31.4617 C   0  0  0  0  0  0  0  0  0  0  0  0
    6.6651   45.1047   31.4852 C   0  0  0  0  0  0  0  0  0  0  0  0
    6.0261   46.3222   30.8095 C   0  0  0  0  0  0  0  0  0  0  0  0
    6.5038   47.5640   31.4172 N   0  0  0  0  0  0  0  0  0  0  0  0
    7.2499   48.5352   30.6865 C   0  0  0  0  0  0  0  0  0  0  0  0
    7.6299   49.7200   31.3219 O   0  0  0  0  0  0  0  0  0  0  0  0
    7.5910   48.3129   29.4931 O   0  0  0  0  0  0  0  0  0  0  0  0
    8.4248   50.7143   30.6848 C   0  0  0  0  0  0  0  0  0  0  0  0
    8.7239   51.8205   31.6631 C   0  0  0  0  0  0  0  0  0  0  0  0
    7.9720   53.0071   31.5847 C   0  0  0  0  0  0  0  0  0  0  0  0
    9.7526   51.7126   32.6395 C   0  0  0  0  0  0  0  0  0  0  0  0
    8.2383   54.0771   32.4395 C   0  0  0  0  0  0  0  0  0  0  0  0
   10.0133   52.8102   33.4798 C   0  0  0  0  0  0  0  0  0  0  0  0
   10.5528   50.5236   32.7837 N   0  0  0  0  0  0  0  0  0  0  0  0
    9.2597   53.9806   33.3819 C   0  0  0  0  0  0  0  0  0  0  0  0
   11.8403   50.6169   33.2605 O   0  0  0  0  0  0  0  0  0  0  0  0
   10.0495   49.3909   32.6400 O   0  0  0  0  0  0  0  0  0  0  0  0
    8.5366   39.1383   34.0139 O   0  0  0  0  0  0  0  0  0  0  0  0
   10.9785   40.0883   33.6869 O   0  0  0  0  0  0  0  0  0  0  0  0
   10.7973   40.0895   32.2883 C   0  0  0  0  0  0  0  0  0  0  0  0
   11.5882   38.9234   31.7043 C   0  0  0  0  0  0  0  0  0  0  0  0
   12.9230   38.9440   32.1728 O   0  0  0  0  0  0  0  0  0  0  0  0
   11.0048   37.5703   32.0916 C   0  0  0  0  0  0  0  0  0  0  0  0
   13.3570   37.5960   32.2595 C   0  0  0  0  0  0  0  0  0  0  0  0
    9.9332   37.1986   31.2676 O   0  0  0  0  0  0  0  0  0  0  0  0
   12.1965   36.6751   31.8949 C   0  0  0  0  0  0  0  0  0  0  0  0
   13.8037   37.2979   33.6187 N   0  0  0  0  0  0  0  0  0  0  0  0
   12.2934   36.2389   30.5581 O   0  0  0  0  0  0  0  0  0  0  0  0
   14.7929   36.4726   33.9860 C   0  0  0  0  0  0  0  0  0  0  0  0
   13.2755   37.7304   34.7934 C   0  0  0  0  0  0  0  0  0  0  0  0
   15.6244   35.7585   33.1859 N   0  0  0  0  0  0  0  0  0  0  0  0
   14.8722   36.4406   35.3328 C   0  0  0  0  0  0  0  0  0  0  0  0
   13.9205   37.2262   35.8803 N   0  0  0  0  0  0  0  0  0  0  0  0
   16.5872   34.9923   33.7802 C   0  0  0  0  0  0  0  0  0  0  0  0
   15.8573   35.6715   35.9442 C   0  0  0  0  0  0  0  0  0  0  0  0
   16.7023   34.9584   35.1439 N   0  0  0  0  0  0  0  0  0  0  0  0
   16.0098   35.6384   37.3563 N   0  0  0  0  0  0  0  0  0  0  0  0
    7.6770   44.0712   34.0503 H   0  0  0  0  0  0  0  0  0  0  0  0
   10.3191   45.4415   34.0992 H   0  0  0  0  0  0  0  0  0  0  0  0
    9.1834   45.3824   35.3535 H   0  0  0  0  0  0  0  0  0  0  0  0
    9.9711   44.0688   31.9739 H   0  0  0  0  0  0  0  0  0  0  0  0
    8.4817   43.0856   31.8668 H   0  0  0  0  0  0  0  0  0  0  0  0
    8.5545   46.1518   31.8750 H   0  0  0  0  0  0  0  0  0  0  0  0
    8.5386   45.1376   30.4026 H   0  0  0  0  0  0  0  0  0  0  0  0
    6.3300   44.1797   30.9677 H   0  0  0  0  0  0  0  0  0  0  0  0
    6.3014   45.0646   32.5330 H   0  0  0  0  0  0  0  0  0  0  0  0
    6.2466   46.2894   29.7209 H   0  0  0  0  0  0  0  0  0  0  0  0
    4.9226   46.2660   30.9245 H   0  0  0  0  0  0  0  0  0  0  0  0
    6.2818   47.7511   32.4209 H   0  0  0  0  0  0  0  0  0  0  0  0
    7.8726   51.1081   29.8032 H   0  0  0  0  0  0  0  0  0  0  0  0
    9.3724   50.2735   30.3063 H   0  0  0  0  0  0  0  0  0  0  0  0
    7.1782   53.1081   30.8547 H   0  0  0  0  0  0  0  0  0  0  0  0
    7.6538   54.9853   32.3674 H   0  0  0  0  0  0  0  0  0  0  0  0
   10.7943   52.7543   34.2274 H   0  0  0  0  0  0  0  0  0  0  0  0
    9.4666   54.8136   34.0414 H   0  0  0  0  0  0  0  0  0  0  0  0
    9.7422   40.0186   31.9315 H   0  0  0  0  0  0  0  0  0  0  0  0
   11.2113   41.0390   31.8862 H   0  0  0  0  0  0  0  0  0  0  0  0
   11.5932   39.0396   30.5966 H   0  0  0  0  0  0  0  0  0  0  0  0
   10.6986   37.5585   33.1640 H   0  0  0  0  0  0  0  0  0  0  0  0
   14.2072   37.4492   31.5564 H   0  0  0  0  0  0  0  0  0  0  0  0
    9.5321   36.3881   31.6771 H   0  0  0  0  0  0  0  0  0  0  0  0
   12.1344   35.7838   32.5583 H   0  0  0  0  0  0  0  0  0  0  0  0
   12.4642   37.0179   29.9674 H   0  0  0  0  0  0  0  0  0  0  0  0
   12.4333   38.4005   34.8692 H   0  0  0  0  0  0  0  0  0  0  0  0
   17.2668   34.4145   33.1692 H   0  0  0  0  0  0  0  0  0  0  0  0
   16.7634   35.0600   37.7896 H   0  0  0  0  0  0  0  0  0  0  0  0
   15.3755   36.1866   37.9790 H   0  0  0  0  0  0  0  0  0  0  0  0
  1  2  2  0
  1  3  1  0
  3  4  1  0
  4  5  1  0
  6  1  1  0
  7  6  1  0
  6  8  1  0
  8  9  1  0
  9 10  1  0
 10 11  1  0
 11 12  1  0
 12 13  1  0
 13 14  1  0
 13 15  2  0
 14 16  1  0
 16 17  1  0
 17 18  2  0
 19 17  1  0
 18 20  1  0
 21 19  2  0
 19 22  1  0
 20 23  2  0
 23 21  1  0
 22 24  1  0
 22 25  2  0
  4 26  2  0
  4 27  1  0
 28 27  1  0
 28 29  1  0
 29 30  1  0
 29 31  1  0
 30 32  1  0
 31 33  1  0
 31 34  1  0
 34 32  1  0
 32 35  1  0
 34 36  1  0
 37 35  1  0
 38 35  1  0
 39 37  2  0
 37 40  1  0
 41 38  2  0
 42 39  1  0
 40 43  2  0
 40 41  1  0
 44 42  2  0
 44 43  1  0
 43 45  1  0
  6 46  1  6
  7 47  1  0
  7 48  1  0
  8 49  1  0
  8 50  1  0
  9 51  1  0
  9 52  1  0
 10 53  1  0
 10 54  1  0
 11 55  1  0
 11 56  1  0
 12 57  1  0
 16 58  1  0
 16 59  1  0
 18 60  1  0
 20 61  1  0
 21 62  1  0
 23 63  1  0
 28 64  1  0
 28 65  1  0
 29 66  1  0
 31 67  1  0
 32 68  1  0
 33 69  1  0
 34 70  1  0
 36 71  1  0
 38 72  1  0
 42 73  1  0
 45 74  1  0
 45 75  1  0
M  CHG  3   5  -1  22   1  24  -1
M  END
>  <EmbedRMS>  (274) 
0.0760380208491

$$$$

     RDKit          3D

 75 78  0  0  0  0  0  0  0  0999 V2000
    9.4333   42.9366   34.3462 C   0  0  0  0  0  0  0  0  0  0  0  0
   10.4907   43.0330   35.0319 O   0  0  0  0  0  0  0  0  0  0  0  0
    8.8563   41.7104   34.0296 O   0  0  0  0  0  0  0  0  0  0  0  0
    9.4945   40.2142   34.4680 P   0  0  0  0  0  0  0  0  0  0  0  0
    9.7309   40.1726   36.1291 O   0  0  0  0  0  0  0  0  0  0  0  0
    8.7506   44.1349   33.7741 C   0  0  1  0  0  0  0  0  0  0  0  0
    9.2963   45.3821   34.3133 N   0  0  0  0  0  0  0  0  0  0  0  0
    8.8893   44.0528   32.2358 C   0  0  0  0  0  0  0  0  0  0  0  0
    8.2028   45.1824   31.4615 C   0  0  0  0  0  0  0  0  0  0  0  0
    6.6653   45.1045   31.4855 C   0  0  0  0  0  0  0  0  0  0  0  0
    6.0269   46.3225   30.8104 C   0  0  0  0  0  0  0  0  0  0  0  0
    6.5061   47.5640   31.4180 N   0  0  0  0  0  0  0  0  0  0  0  0
    7.2441   48.5389   30.6838 C   0  0  0  0  0  0  0  0  0  0  0  0
    7.5969   49.7382   31.3078 O   0  0  0  0  0  0  0  0  0  0  0  0
    7.5932   48.3119   29.4936 O   0  0  0  0  0  0  0  0  0  0  0  0
    8.3506   50.7558   30.6525 C   0  0  0  0  0  0  0  0  0  0  0  0
    8.6110   51.9335   31.5667 C   0  0  0  0  0  0  0  0  0  0  0  0
    8.4785   51.7862   32.9633 C   0  0  0  0  0  0  0  0  0  0  0  0
    8.9843   53.2002   31.0413 C   0  0  0  0  0  0  0  0  0  0  0  0
    8.6700   52.8732   33.8171 C   0  0  0  0  0  0  0  0  0  0  0  0
    9.1556   54.2858   31.9201 C   0  0  0  0  0  0  0  0  0  0  0  0
    9.1892   53.4044   29.6310 N   0  0  0  0  0  0  0  0  0  0  0  0
    8.9996   54.1218   33.2963 C   0  0  0  0  0  0  0  0  0  0  0  0
    9.8211   52.4490   28.8691 O   0  0  0  0  0  0  0  0  0  0  0  0
    8.9488   54.5171   29.1181 O   0  0  0  0  0  0  0  0  0  0  0  0
    8.5372   39.1386   34.0125 O   0  0  0  0  0  0  0  0  0  0  0  0
   10.9804   40.0880   33.6837 O   0  0  0  0  0  0  0  0  0  0  0  0
   10.8025   40.0900   32.2839 C   0  0  0  0  0  0  0  0  0  0  0  0
   11.5888   38.9174   31.7007 C   0  0  0  0  0  0  0  0  0  0  0  0
   12.9219   38.9373   32.1692 O   0  0  0  0  0  0  0  0  0  0  0  0
   11.0028   37.5682   32.0980 C   0  0  0  0  0  0  0  0  0  0  0  0
   13.3496   37.5885   32.2601 C   0  0  0  0  0  0  0  0  0  0  0  0
    9.9343   37.1822   31.2756 O   0  0  0  0  0  0  0  0  0  0  0  0
   12.1891   36.6677   31.9049 C   0  0  0  0  0  0  0  0  0  0  0  0
   13.8025   37.2965   33.6186 N   0  0  0  0  0  0  0  0  0  0  0  0
   12.2991   36.2867   30.5567 O   0  0  0  0  0  0  0  0  0  0  0  0
   14.7929   36.4725   33.9858 C   0  0  0  0  0  0  0  0  0  0  0  0
   13.2749   37.7294   34.7935 C   0  0  0  0  0  0  0  0  0  0  0  0
   15.6240   35.7580   33.1858 N   0  0  0  0  0  0  0  0  0  0  0  0
   14.8727   36.4411   35.3327 C   0  0  0  0  0  0  0  0  0  0  0  0
   13.9208   37.2263   35.8803 N   0  0  0  0  0  0  0  0  0  0  0  0
   16.5871   34.9921   33.7801 C   0  0  0  0  0  0  0  0  0  0  0  0
   15.8576   35.6718   35.9441 C   0  0  0  0  0  0  0  0  0  0  0  0
   16.7024   34.9584   35.1438 N   0  0  0  0  0  0  0  0  0  0  0  0
   16.0099   35.6384   37.3562 N   0  0  0  0  0  0  0  0  0  0  0  0
    7.6770   44.0707   34.0504 H   0  0  0  0  0  0  0  0  0  0  0  0
   10.3192   45.4408   34.1000 H   0  0  0  0  0  0  0  0  0  0  0  0
    9.1827   45.3821   35.3535 H   0  0  0  0  0  0  0  0  0  0  0  0
    8.4817   43.0851   31.8668 H   0  0  0  0  0  0  0  0  0  0  0  0
    9.9711   44.0682   31.9740 H   0  0  0  0  0  0  0  0  0  0  0  0
    8.5551   46.1511   31.8743 H   0  0  0  0  0  0  0  0  0  0  0  0
    8.5385   45.1364   30.4023 H   0  0  0  0  0  0  0  0  0  0  0  0
    6.3297   44.1799   30.9677 H   0  0  0  0  0  0  0  0  0  0  0  0
    6.3019   45.0642   32.5333 H   0  0  0  0  0  0  0  0  0  0  0  0
    4.9235   46.2672   30.9264 H   0  0  0  0  0  0  0  0  0  0  0  0
    6.2465   46.2897   29.7216 H   0  0  0  0  0  0  0  0  0  0  0  0
    6.2825   47.7527   32.4210 H   0  0  0  0  0  0  0  0  0  0  0  0
    9.3235   50.3369   30.3168 H   0  0  0  0  0  0  0  0  0  0  0  0
    7.7710   51.0979   29.7676 H   0  0  0  0  0  0  0  0  0  0  0  0
    8.2233   50.8304   33.4024 H   0  0  0  0  0  0  0  0  0  0  0  0
    8.5592   52.7467   34.8864 H   0  0  0  0  0  0  0  0  0  0  0  0
    9.4323   55.2607   31.5386 H   0  0  0  0  0  0  0  0  0  0  0  0
    9.1444   54.9636   33.9612 H   0  0  0  0  0  0  0  0  0  0  0  0
   11.2258   41.0357   31.8830 H   0  0  0  0  0  0  0  0  0  0  0  0
    9.7476   40.0331   31.9256 H   0  0  0  0  0  0  0  0  0  0  0  0
   11.5974   39.0148   30.5904 H   0  0  0  0  0  0  0  0  0  0  0  0
   10.7024   37.5455   33.1719 H   0  0  0  0  0  0  0  0  0  0  0  0
   14.1957   37.4366   31.5528 H   0  0  0  0  0  0  0  0  0  0  0  0
    9.1339   37.6658   31.6069 H   0  0  0  0  0  0  0  0  0  0  0  0
   12.1381   35.7717   32.5697 H   0  0  0  0  0  0  0  0  0  0  0  0
   11.7707   35.4530   30.4496 H   0  0  0  0  0  0  0  0  0  0  0  0
   12.4314   38.3980   34.8694 H   0  0  0  0  0  0  0  0  0  0  0  0
   17.2665   34.4140   33.1691 H   0  0  0  0  0  0  0  0  0  0  0  0
   15.3757   36.1868   37.9789 H   0  0  0  0  0  0  0  0  0  0  0  0
   16.7633   35.0598   37.7895 H   0  0  0  0  0  0  0  0  0  0  0  0
  1  2  2  0
  1  3  1  0
  3  4  1  0
  4  5  1  0
  6  1  1  0
  7  6  1  0
  6  8  1  0
  8  9  1  0
  9 10  1  0
 10 11  1  0
 11 12  1  0
 12 13  1  0
 13 14  1  0
 13 15  2  0
 14 16  1  0
 16 17  1  0
 17 18  2  0
 19 17  1  0
 18 20  1  0
 21 19  2  0
 19 22  1  0
 20 23  2  0
 23 21  1  0
 22 24  1  0
 22 25  2  0
  4 26  2  0
  4 27  1  0
 28 27  1  0
 28 29  1  0
 29 30  1  0
 29 31  1  0
 30 32  1  0
 31 33  1  0
 31 34  1  0
 34 32  1  0
 32 35  1  0
 34 36  1  0
 37 35  1  0
 38 35  1  0
 39 37  2  0
 37 40  1  0
 41 38  2  0
 42 39  1  0
 40 43  2  0
 40 41  1  0
 44 42  2  0
 44 43  1  0
 43 45  1  0
  6 46  1  6
  7 47  1  0
  7 48  1  0
  8 49  1  0
  8 50  1  0
  9 51  1  0
  9 52  1  0
 10 53  1  0
 10 54  1  0
 11 55  1  0
 11 56  1  0
 12 57  1  0
 16 58  1  0
 16 59  1  0
 18 60  1  0
 20 61  1  0
 21 62  1  0
 23 63  1  0
 28 64  1  0
 28 65  1  0
 29 66  1  0
 31 67  1  0
 32 68  1  0
 33 69  1  0
 34 70  1  0
 36 71  1  0
 38 72  1  0
 42 73  1  0
 45 74  1  0
 45 75  1  0
M  CHG  3   5  -1  22   1  24  -1
M  END
>  <EmbedRMS>  (275) 
0.0742219003264

$$$$

     RDKit          3D

 75 78  0  0  0  0  0  0  0  0999 V2000
    9.4299   42.9395   34.3434 C   0  0  0  0  0  0  0  0  0  0  0  0
   10.4911   43.0382   35.0234 O   0  0  0  0  0  0  0  0  0  0  0  0
    8.8549   41.7116   34.0283 O   0  0  0  0  0  0  0  0  0  0  0  0
    9.4942   40.2156   34.4675 P   0  0  0  0  0  0  0  0  0  0  0  0
    9.7308   40.1740   36.1287 O   0  0  0  0  0  0  0  0  0  0  0  0
    8.7410   44.1378   33.7785 C   0  0  1  0  0  0  0  0  0  0  0  0
    9.3011   45.3720   34.3323 N   0  0  0  0  0  0  0  0  0  0  0  0
    8.8962   44.0590   32.2397 C   0  0  0  0  0  0  0  0  0  0  0  0
    8.2030   45.1685   31.4395 C   0  0  0  0  0  0  0  0  0  0  0  0
    6.6656   45.1048   31.4870 C   0  0  0  0  0  0  0  0  0  0  0  0
    6.0281   46.3242   30.8132 C   0  0  0  0  0  0  0  0  0  0  0  0
    6.5118   47.5624   31.4236 N   0  0  0  0  0  0  0  0  0  0  0  0
    7.2384   48.5470   30.6790 C   0  0  0  0  0  0  0  0  0  0  0  0
    7.5882   49.7836   31.2382 O   0  0  0  0  0  0  0  0  0  0  0  0
    7.5941   48.3039   29.4964 O   0  0  0  0  0  0  0  0  0  0  0  0
    7.1876   50.2396   32.5302 C   0  0  0  0  0  0  0  0  0  0  0  0
    5.7000   50.5097   32.5755 C   0  0  0  0  0  0  0  0  0  0  0  0
    4.9326   49.8830   33.5749 C   0  0  0  0  0  0  0  0  0  0  0  0
    5.0508   51.3465   31.6262 C   0  0  0  0  0  0  0  0  0  0  0  0
    3.5485   50.0509   33.6217 C   0  0  0  0  0  0  0  0  0  0  0  0
    3.6528   51.4883   31.6829 C   0  0  0  0  0  0  0  0  0  0  0  0
    5.7767   52.0431   30.5969 N   0  0  0  0  0  0  0  0  0  0  0  0
    2.9091   50.8467   32.6740 C   0  0  0  0  0  0  0  0  0  0  0  0
    5.1681   52.3180   29.3938 O   0  0  0  0  0  0  0  0  0  0  0  0
    6.8910   52.5520   30.8344 O   0  0  0  0  0  0  0  0  0  0  0  0
    8.5374   39.1393   34.0126 O   0  0  0  0  0  0  0  0  0  0  0  0
   10.9801   40.0887   33.6832 O   0  0  0  0  0  0  0  0  0  0  0  0
   10.8019   40.0896   32.2834 C   0  0  0  0  0  0  0  0  0  0  0  0
   11.5900   38.9179   31.7007 C   0  0  0  0  0  0  0  0  0  0  0  0
   12.9224   38.9391   32.1711 O   0  0  0  0  0  0  0  0  0  0  0  0
   11.0051   37.5677   32.0966 C   0  0  0  0  0  0  0  0  0  0  0  0
   13.3518   37.5910   32.2610 C   0  0  0  0  0  0  0  0  0  0  0  0
    9.9381   37.1795   31.2733 O   0  0  0  0  0  0  0  0  0  0  0  0
   12.1912   36.6690   31.9042 C   0  0  0  0  0  0  0  0  0  0  0  0
   13.8027   37.2968   33.6192 N   0  0  0  0  0  0  0  0  0  0  0  0
   12.2877   36.2854   30.5567 O   0  0  0  0  0  0  0  0  0  0  0  0
   14.7928   36.4724   33.9861 C   0  0  0  0  0  0  0  0  0  0  0  0
   13.2751   37.7297   34.7941 C   0  0  0  0  0  0  0  0  0  0  0  0
   15.6239   35.7581   33.1859 N   0  0  0  0  0  0  0  0  0  0  0  0
   14.8726   36.4408   35.3329 C   0  0  0  0  0  0  0  0  0  0  0  0
   13.9209   37.2262   35.8807 N   0  0  0  0  0  0  0  0  0  0  0  0
   16.5870   34.9922   33.7801 C   0  0  0  0  0  0  0  0  0  0  0  0
   15.8576   35.6716   35.9442 C   0  0  0  0  0  0  0  0  0  0  0  0
   16.7024   34.9584   35.1438 N   0  0  0  0  0  0  0  0  0  0  0  0
   16.0101   35.6383   37.3563 N   0  0  0  0  0  0  0  0  0  0  0  0
    7.6665   44.0653   34.0544 H   0  0  0  0  0  0  0  0  0  0  0  0
    8.6799   46.1669   34.0590 H   0  0  0  0  0  0  0  0  0  0  0  0
    9.2334   45.3274   35.3757 H   0  0  0  0  0  0  0  0  0  0  0  0
    9.9809   44.0902   31.9916 H   0  0  0  0  0  0  0  0  0  0  0  0
    8.5082   43.0837   31.8694 H   0  0  0  0  0  0  0  0  0  0  0  0
    8.5181   45.0766   30.3770 H   0  0  0  0  0  0  0  0  0  0  0  0
    8.5762   46.1510   31.7930 H   0  0  0  0  0  0  0  0  0  0  0  0
    6.3143   44.1789   30.9820 H   0  0  0  0  0  0  0  0  0  0  0  0
    6.3164   45.0762   32.5399 H   0  0  0  0  0  0  0  0  0  0  0  0
    6.2426   46.2925   29.7235 H   0  0  0  0  0  0  0  0  0  0  0  0
    4.9251   46.2711   30.9345 H   0  0  0  0  0  0  0  0  0  0  0  0
    6.3158   47.7066   32.4374 H   0  0  0  0  0  0  0  0  0  0  0  0
    7.5048   49.5032   33.3003 H   0  0  0  0  0  0  0  0  0  0  0  0
    7.7301   51.1787   32.7629 H   0  0  0  0  0  0  0  0  0  0  0  0
    5.4046   49.2494   34.3157 H   0  0  0  0  0  0  0  0  0  0  0  0
    2.9697   49.5573   34.3917 H   0  0  0  0  0  0  0  0  0  0  0  0
    3.1364   52.1142   30.9662 H   0  0  0  0  0  0  0  0  0  0  0  0
    1.8346   50.9721   32.7102 H   0  0  0  0  0  0  0  0  0  0  0  0
   11.2238   41.0357   31.8820 H   0  0  0  0  0  0  0  0  0  0  0  0
    9.7471   40.0309   31.9253 H   0  0  0  0  0  0  0  0  0  0  0  0
   11.6000   39.0158   30.5904 H   0  0  0  0  0  0  0  0  0  0  0  0
   10.7034   37.5451   33.1703 H   0  0  0  0  0  0  0  0  0  0  0  0
   14.1992   37.4424   31.5548 H   0  0  0  0  0  0  0  0  0  0  0  0
    9.1370   37.6634   31.6025 H   0  0  0  0  0  0  0  0  0  0  0  0
   12.1204   35.7712   32.5637 H   0  0  0  0  0  0  0  0  0  0  0  0
   12.9457   35.5426   30.5221 H   0  0  0  0  0  0  0  0  0  0  0  0
   12.4321   38.3989   34.8700 H   0  0  0  0  0  0  0  0  0  0  0  0
   17.2664   34.4142   33.1690 H   0  0  0  0  0  0  0  0  0  0  0  0
   16.7636   35.0598   37.7895 H   0  0  0  0  0  0  0  0  0  0  0  0
   15.3759   36.1865   37.9790 H   0  0  0  0  0  0  0  0  0  0  0  0
  1  2  2  0
  1  3  1  0
  3  4  1  0
  4  5  1  0
  6  1  1  0
  7  6  1  0
  6  8  1  0
  8  9  1  0
  9 10  1  0
 10 11  1  0
 11 12  1  0
 12 13  1  0
 13 14  1  0
 13 15  2  0
 14 16  1  0
 16 17  1  0
 17 18  2  0
 19 17  1  0
 18 20  1  0
 21 19  2  0
 19 22  1  0
 20 23  2  0
 23 21  1  0
 22 24  1  0
 22 25  2  0
  4 26  2  0
  4 27  1  0
 28 27  1  0
 28 29  1  0
 29 30  1  0
 29 31  1  0
 30 32  1  0
 31 33  1  0
 31 34  1  0
 34 32  1  0
 32 35  1  0
 34 36  1  0
 37 35  1  0
 38 35  1  0
 39 37  2  0
 37 40  1  0
 41 38  2  0
 42 39  1  0
 40 43  2  0
 40 41  1  0
 44 42  2  0
 44 43  1  0
 43 45  1  0
  6 46  1  6
  7 47  1  0
  7 48  1  0
  8 49  1  0
  8 50  1  0
  9 51  1  0
  9 52  1  0
 10 53  1  0
 10 54  1  0
 11 55  1  0
 11 56  1  0
 12 57  1  0
 16 58  1  0
 16 59  1  0
 18 60  1  0
 20 61  1  0
 21 62  1  0
 23 63  1  0
 28 64  1  0
 28 65  1  0
 29 66  1  0
 31 67  1  0
 32 68  1  0
 33 69  1  0
 34 70  1  0
 36 71  1  0
 38 72  1  0
 42 73  1  0
 45 74  1  0
 45 75  1  0
M  CHG  3   5  -1  22   1  24  -1
M  END
>  <EmbedRMS>  (276) 
0.0731494991515

$$$$

     RDKit          3D

 75 78  0  0  0  0  0  0  0  0999 V2000
    9.4330   42.9366   34.3463 C   0  0  0  0  0  0  0  0  0  0  0  0
   10.4906   43.0332   35.0318 O   0  0  0  0  0  0  0  0  0  0  0  0
    8.8558   41.7104   34.0304 O   0  0  0  0  0  0  0  0  0  0  0  0
    9.4931   40.2141   34.4703 P   0  0  0  0  0  0  0  0  0  0  0  0
    9.7293   40.1727   36.1313 O   0  0  0  0  0  0  0  0  0  0  0  0
    8.7505   44.1348   33.7738 C   0  0  1  0  0  0  0  0  0  0  0  0
    9.2961   45.3821   34.3129 N   0  0  0  0  0  0  0  0  0  0  0  0
    8.8893   44.0523   32.2354 C   0  0  0  0  0  0  0  0  0  0  0  0
    8.2034   45.1820   31.4603 C   0  0  0  0  0  0  0  0  0  0  0  0
    6.6659   45.1026   31.4804 C   0  0  0  0  0  0  0  0  0  0  0  0
    6.0263   46.3256   30.8140 C   0  0  0  0  0  0  0  0  0  0  0  0
    6.5138   47.5626   31.4242 N   0  0  0  0  0  0  0  0  0  0  0  0
    7.2284   48.5515   30.6753 C   0  0  0  0  0  0  0  0  0  0  0  0
    7.5504   49.8012   31.2215 O   0  0  0  0  0  0  0  0  0  0  0  0
    7.6016   48.2998   29.4999 O   0  0  0  0  0  0  0  0  0  0  0  0
    7.0041   50.3432   32.4241 C   0  0  0  0  0  0  0  0  0  0  0  0
    5.5441   50.6972   32.2457 C   0  0  0  0  0  0  0  0  0  0  0  0
    4.5801   49.9332   32.9311 C   0  0  0  0  0  0  0  0  0  0  0  0
    5.1167   51.8063   31.4600 C   0  0  0  0  0  0  0  0  0  0  0  0
    3.2220   50.2300   32.8216 C   0  0  0  0  0  0  0  0  0  0  0  0
    3.7414   52.0918   31.3752 C   0  0  0  0  0  0  0  0  0  0  0  0
    6.0429   52.6827   30.7879 N   0  0  0  0  0  0  0  0  0  0  0  0
    2.8031   51.3047   32.0424 C   0  0  0  0  0  0  0  0  0  0  0  0
    5.7009   53.9963   30.5606 O   0  0  0  0  0  0  0  0  0  0  0  0
    7.0943   52.2454   30.2794 O   0  0  0  0  0  0  0  0  0  0  0  0
    8.5366   39.1382   34.0136 O   0  0  0  0  0  0  0  0  0  0  0  0
   10.9788   40.0867   33.6873 O   0  0  0  0  0  0  0  0  0  0  0  0
   10.7992   40.0944   32.2885 C   0  0  0  0  0  0  0  0  0  0  0  0
   11.5957   38.9351   31.6994 C   0  0  0  0  0  0  0  0  0  0  0  0
   12.9257   38.9478   32.1798 O   0  0  0  0  0  0  0  0  0  0  0  0
   11.0070   37.5757   32.0732 C   0  0  0  0  0  0  0  0  0  0  0  0
   13.3571   37.5979   32.2612 C   0  0  0  0  0  0  0  0  0  0  0  0
    9.9093   37.1807   31.2875 O   0  0  0  0  0  0  0  0  0  0  0  0
   12.1967   36.6763   31.8893 C   0  0  0  0  0  0  0  0  0  0  0  0
   13.8018   37.2956   33.6197 N   0  0  0  0  0  0  0  0  0  0  0  0
   12.3049   36.2360   30.5554 O   0  0  0  0  0  0  0  0  0  0  0  0
   14.7922   36.4716   33.9864 C   0  0  0  0  0  0  0  0  0  0  0  0
   13.2747   37.7291   34.7944 C   0  0  0  0  0  0  0  0  0  0  0  0
   15.6240   35.7581   33.1861 N   0  0  0  0  0  0  0  0  0  0  0  0
   14.8721   36.4401   35.3331 C   0  0  0  0  0  0  0  0  0  0  0  0
   13.9206   37.2257   35.8810 N   0  0  0  0  0  0  0  0  0  0  0  0
   16.5873   34.9924   33.7802 C   0  0  0  0  0  0  0  0  0  0  0  0
   15.8576   35.6714   35.9444 C   0  0  0  0  0  0  0  0  0  0  0  0
   16.7026   34.9585   35.1439 N   0  0  0  0  0  0  0  0  0  0  0  0
   16.0102   35.6382   37.3564 N   0  0  0  0  0  0  0  0  0  0  0  0
    7.6768   44.0709   34.0499 H   0  0  0  0  0  0  0  0  0  0  0  0
    9.1822   45.3824   35.3530 H   0  0  0  0  0  0  0  0  0  0  0  0
   10.3190   45.4406   34.0998 H   0  0  0  0  0  0  0  0  0  0  0  0
    8.4815   43.0847   31.8666 H   0  0  0  0  0  0  0  0  0  0  0  0
    9.9712   44.0673   31.9738 H   0  0  0  0  0  0  0  0  0  0  0  0
    8.5413   45.1374   30.4018 H   0  0  0  0  0  0  0  0  0  0  0  0
    8.5549   46.1503   31.8747 H   0  0  0  0  0  0  0  0  0  0  0  0
    6.3321   44.1816   30.9551 H   0  0  0  0  0  0  0  0  0  0  0  0
    6.3007   45.0532   32.5272 H   0  0  0  0  0  0  0  0  0  0  0  0
    6.2342   46.2972   29.7230 H   0  0  0  0  0  0  0  0  0  0  0  0
    4.9239   46.2728   30.9416 H   0  0  0  0  0  0  0  0  0  0  0  0
    6.3523   47.6918   32.4453 H   0  0  0  0  0  0  0  0  0  0  0  0
    7.5668   51.2613   32.6940 H   0  0  0  0  0  0  0  0  0  0  0  0
    7.1633   49.6345   33.2645 H   0  0  0  0  0  0  0  0  0  0  0  0
    4.8768   49.1082   33.5653 H   0  0  0  0  0  0  0  0  0  0  0  0
    2.4928   49.6293   33.3499 H   0  0  0  0  0  0  0  0  0  0  0  0
    3.3909   52.9270   30.7821 H   0  0  0  0  0  0  0  0  0  0  0  0
    1.7486   51.5354   31.9623 H   0  0  0  0  0  0  0  0  0  0  0  0
    9.7448   40.0200   31.9304 H   0  0  0  0  0  0  0  0  0  0  0  0
   11.2093   41.0479   31.8921 H   0  0  0  0  0  0  0  0  0  0  0  0
   11.6206   39.0685   30.5942 H   0  0  0  0  0  0  0  0  0  0  0  0
   10.7059   37.5563   33.1438 H   0  0  0  0  0  0  0  0  0  0  0  0
   14.2095   37.4543   31.5601 H   0  0  0  0  0  0  0  0  0  0  0  0
   10.0864   37.4209   30.3413 H   0  0  0  0  0  0  0  0  0  0  0  0
   12.1276   35.7872   32.5549 H   0  0  0  0  0  0  0  0  0  0  0  0
   12.5031   37.0109   29.9672 H   0  0  0  0  0  0  0  0  0  0  0  0
   12.4328   38.3996   34.8703 H   0  0  0  0  0  0  0  0  0  0  0  0
   17.2670   34.4149   33.1690 H   0  0  0  0  0  0  0  0  0  0  0  0
   16.7640   35.0601   37.7896 H   0  0  0  0  0  0  0  0  0  0  0  0
   15.3758   36.1862   37.9792 H   0  0  0  0  0  0  0  0  0  0  0  0
  1  2  2  0
  1  3  1  0
  3  4  1  0
  4  5  1  0
  6  1  1  0
  7  6  1  0
  6  8  1  0
  8  9  1  0
  9 10  1  0
 10 11  1  0
 11 12  1  0
 12 13  1  0
 13 14  1  0
 13 15  2  0
 14 16  1  0
 16 17  1  0
 17 18  2  0
 19 17  1  0
 18 20  1  0
 21 19  2  0
 19 22  1  0
 20 23  2  0
 23 21  1  0
 22 24  1  0
 22 25  2  0
  4 26  2  0
  4 27  1  0
 28 27  1  0
 28 29  1  0
 29 30  1  0
 29 31  1  0
 30 32  1  0
 31 33  1  0
 31 34  1  0
 34 32  1  0
 32 35  1  0
 34 36  1  0
 37 35  1  0
 38 35  1  0
 39 37  2  0
 37 40  1  0
 41 38  2  0
 42 39  1  0
 40 43  2  0
 40 41  1  0
 44 42  2  0
 44 43  1  0
 43 45  1  0
  6 46  1  6
  7 47  1  0
  7 48  1  0
  8 49  1  0
  8 50  1  0
  9 51  1  0
  9 52  1  0
 10 53  1  0
 10 54  1  0
 11 55  1  0
 11 56  1  0
 12 57  1  0
 16 58  1  0
 16 59  1  0
 18 60  1  0
 20 61  1  0
 21 62  1  0
 23 63  1  0
 28 64  1  0
 28 65  1  0
 29 66  1  0
 31 67  1  0
 32 68  1  0
 33 69  1  0
 34 70  1  0
 36 71  1  0
 38 72  1  0
 42 73  1  0
 45 74  1  0
 45 75  1  0
M  CHG  3   5  -1  22   1  24  -1
M  END
>  <EmbedRMS>  (277) 
0.0757775358007

$$$$

     RDKit          3D

 75 78  0  0  0  0  0  0  0  0999 V2000
    9.4315   42.9407   34.3436 C   0  0  0  0  0  0  0  0  0  0  0  0
   10.4886   43.0406   35.0296 O   0  0  0  0  0  0  0  0  0  0  0  0
    8.8558   41.7126   34.0296 O   0  0  0  0  0  0  0  0  0  0  0  0
    9.4933   40.2160   34.4702 P   0  0  0  0  0  0  0  0  0  0  0  0
    9.7295   40.1742   36.1312 O   0  0  0  0  0  0  0  0  0  0  0  0
    8.7493   44.1353   33.7712 C   0  0  1  0  0  0  0  0  0  0  0  0
    9.3046   45.3656   34.3365 N   0  0  0  0  0  0  0  0  0  0  0  0
    8.8900   44.0521   32.2301 C   0  0  0  0  0  0  0  0  0  0  0  0
    8.2019   45.1726   31.4424 C   0  0  0  0  0  0  0  0  0  0  0  0
    6.6650   45.1094   31.4909 C   0  0  0  0  0  0  0  0  0  0  0  0
    6.0286   46.3248   30.8105 C   0  0  0  0  0  0  0  0  0  0  0  0
    6.5015   47.5682   31.4205 N   0  0  0  0  0  0  0  0  0  0  0  0
    7.2349   48.5484   30.6783 C   0  0  0  0  0  0  0  0  0  0  0  0
    7.5603   49.7998   31.2186 O   0  0  0  0  0  0  0  0  0  0  0  0
    7.6024   48.2968   29.5011 O   0  0  0  0  0  0  0  0  0  0  0  0
    7.1862   50.2817   32.5092 C   0  0  0  0  0  0  0  0  0  0  0  0
    8.0496   49.6937   33.6049 C   0  0  0  0  0  0  0  0  0  0  0  0
    7.4266   48.9093   34.5956 C   0  0  0  0  0  0  0  0  0  0  0  0
    9.4355   49.9989   33.7389 C   0  0  0  0  0  0  0  0  0  0  0  0
    8.1548   48.4000   35.6702 C   0  0  0  0  0  0  0  0  0  0  0  0
   10.1488   49.4677   34.8294 C   0  0  0  0  0  0  0  0  0  0  0  0
   10.1236   50.8929   32.8426 N   0  0  0  0  0  0  0  0  0  0  0  0
    9.5157   48.6686   35.7805 C   0  0  0  0  0  0  0  0  0  0  0  0
   11.1740   51.6511   33.3069 O   0  0  0  0  0  0  0  0  0  0  0  0
    9.8901   50.8873   31.6180 O   0  0  0  0  0  0  0  0  0  0  0  0
    8.5368   39.1398   34.0139 O   0  0  0  0  0  0  0  0  0  0  0  0
   10.9789   40.0874   33.6873 O   0  0  0  0  0  0  0  0  0  0  0  0
   10.7993   40.0946   32.2885 C   0  0  0  0  0  0  0  0  0  0  0  0
   11.5957   38.9352   31.6994 C   0  0  0  0  0  0  0  0  0  0  0  0
   12.9257   38.9478   32.1798 O   0  0  0  0  0  0  0  0  0  0  0  0
   11.0070   37.5758   32.0732 C   0  0  0  0  0  0  0  0  0  0  0  0
   13.3571   37.5980   32.2612 C   0  0  0  0  0  0  0  0  0  0  0  0
    9.9093   37.1808   31.2875 O   0  0  0  0  0  0  0  0  0  0  0  0
   12.1967   36.6764   31.8894 C   0  0  0  0  0  0  0  0  0  0  0  0
   13.8018   37.2956   33.6197 N   0  0  0  0  0  0  0  0  0  0  0  0
   12.3048   36.2360   30.5555 O   0  0  0  0  0  0  0  0  0  0  0  0
   14.7922   36.4716   33.9864 C   0  0  0  0  0  0  0  0  0  0  0  0
   13.2747   37.7291   34.7944 C   0  0  0  0  0  0  0  0  0  0  0  0
   15.6239   35.7581   33.1861 N   0  0  0  0  0  0  0  0  0  0  0  0
   14.8721   36.4401   35.3331 C   0  0  0  0  0  0  0  0  0  0  0  0
   13.9206   37.2257   35.8810 N   0  0  0  0  0  0  0  0  0  0  0  0
   16.5873   34.9924   33.7802 C   0  0  0  0  0  0  0  0  0  0  0  0
   15.8576   35.6714   35.9444 C   0  0  0  0  0  0  0  0  0  0  0  0
   16.7026   34.9585   35.1439 N   0  0  0  0  0  0  0  0  0  0  0  0
   16.0102   35.6382   37.3564 N   0  0  0  0  0  0  0  0  0  0  0  0
    7.6773   44.0638   34.0539 H   0  0  0  0  0  0  0  0  0  0  0  0
   10.2272   45.5736   33.8888 H   0  0  0  0  0  0  0  0  0  0  0  0
    8.6596   46.1547   34.1089 H   0  0  0  0  0  0  0  0  0  0  0  0
    8.4840   43.0820   31.8658 H   0  0  0  0  0  0  0  0  0  0  0  0
    9.9715   44.0650   31.9673 H   0  0  0  0  0  0  0  0  0  0  0  0
    8.5736   46.1506   31.8109 H   0  0  0  0  0  0  0  0  0  0  0  0
    8.5175   45.0928   30.3790 H   0  0  0  0  0  0  0  0  0  0  0  0
    6.3170   45.0864   32.5445 H   0  0  0  0  0  0  0  0  0  0  0  0
    6.3132   44.1814   30.9902 H   0  0  0  0  0  0  0  0  0  0  0  0
    4.9246   46.2672   30.9211 H   0  0  0  0  0  0  0  0  0  0  0  0
    6.2522   46.2900   29.7227 H   0  0  0  0  0  0  0  0  0  0  0  0
    6.2437   47.7428   32.4135 H   0  0  0  0  0  0  0  0  0  0  0  0
    7.3093   51.3850   32.5226 H   0  0  0  0  0  0  0  0  0  0  0  0
    6.1042   50.0896   32.6785 H   0  0  0  0  0  0  0  0  0  0  0  0
    6.3647   48.7031   34.5511 H   0  0  0  0  0  0  0  0  0  0  0  0
    7.6614   47.7940   36.4192 H   0  0  0  0  0  0  0  0  0  0  0  0
   11.2043   49.6780   34.9472 H   0  0  0  0  0  0  0  0  0  0  0  0
   10.0797   48.2683   36.6131 H   0  0  0  0  0  0  0  0  0  0  0  0
    9.7448   40.0201   31.9305 H   0  0  0  0  0  0  0  0  0  0  0  0
   11.2093   41.0481   31.8917 H   0  0  0  0  0  0  0  0  0  0  0  0
   11.6207   39.0685   30.5942 H   0  0  0  0  0  0  0  0  0  0  0  0
   10.7059   37.5564   33.1439 H   0  0  0  0  0  0  0  0  0  0  0  0
   14.2095   37.4543   31.5601 H   0  0  0  0  0  0  0  0  0  0  0  0
   10.0864   37.4210   30.3413 H   0  0  0  0  0  0  0  0  0  0  0  0
   12.1275   35.7872   32.5550 H   0  0  0  0  0  0  0  0  0  0  0  0
   12.5030   37.0109   29.9673 H   0  0  0  0  0  0  0  0  0  0  0  0
   12.4328   38.3997   34.8703 H   0  0  0  0  0  0  0  0  0  0  0  0
   17.2670   34.4149   33.1690 H   0  0  0  0  0  0  0  0  0  0  0  0
   15.3758   36.1862   37.9791 H   0  0  0  0  0  0  0  0  0  0  0  0
   16.7640   35.0601   37.7896 H   0  0  0  0  0  0  0  0  0  0  0  0
  1  2  2  0
  1  3  1  0
  3  4  1  0
  4  5  1  0
  6  1  1  0
  7  6  1  0
  6  8  1  0
  8  9  1  0
  9 10  1  0
 10 11  1  0
 11 12  1  0
 12 13  1  0
 13 14  1  0
 13 15  2  0
 14 16  1  0
 16 17  1  0
 17 18  2  0
 19 17  1  0
 18 20  1  0
 21 19  2  0
 19 22  1  0
 20 23  2  0
 23 21  1  0
 22 24  1  0
 22 25  2  0
  4 26  2  0
  4 27  1  0
 28 27  1  0
 28 29  1  0
 29 30  1  0
 29 31  1  0
 30 32  1  0
 31 33  1  0
 31 34  1  0
 34 32  1  0
 32 35  1  0
 34 36  1  0
 37 35  1  0
 38 35  1  0
 39 37  2  0
 37 40  1  0
 41 38  2  0
 42 39  1  0
 40 43  2  0
 40 41  1  0
 44 42  2  0
 44 43  1  0
 43 45  1  0
  6 46  1  6
  7 47  1  0
  7 48  1  0
  8 49  1  0
  8 50  1  0
  9 51  1  0
  9 52  1  0
 10 53  1  0
 10 54  1  0
 11 55  1  0
 11 56  1  0
 12 57  1  0
 16 58  1  0
 16 59  1  0
 18 60  1  0
 20 61  1  0
 21 62  1  0
 23 63  1  0
 28 64  1  0
 28 65  1  0
 29 66  1  0
 31 67  1  0
 32 68  1  0
 33 69  1  0
 34 70  1  0
 36 71  1  0
 38 72  1  0
 42 73  1  0
 45 74  1  0
 45 75  1  0
M  CHG  3   5  -1  22   1  24  -1
M  END
>  <EmbedRMS>  (278) 
0.0756371624892

$$$$

     RDKit          3D

 75 78  0  0  0  0  0  0  0  0999 V2000
    9.4332   42.9366   34.3464 C   0  0  0  0  0  0  0  0  0  0  0  0
   10.4908   43.0331   35.0319 O   0  0  0  0  0  0  0  0  0  0  0  0
    8.8559   41.7104   34.0306 O   0  0  0  0  0  0  0  0  0  0  0  0
    9.4931   40.2143   34.4708 P   0  0  0  0  0  0  0  0  0  0  0  0
    9.7288   40.1729   36.1318 O   0  0  0  0  0  0  0  0  0  0  0  0
    8.7506   44.1348   33.7741 C   0  0  1  0  0  0  0  0  0  0  0  0
    9.2963   45.3821   34.3133 N   0  0  0  0  0  0  0  0  0  0  0  0
    8.8893   44.0527   32.2358 C   0  0  0  0  0  0  0  0  0  0  0  0
    8.2029   45.1823   31.4614 C   0  0  0  0  0  0  0  0  0  0  0  0
    6.6654   45.1047   31.4855 C   0  0  0  0  0  0  0  0  0  0  0  0
    6.0272   46.3228   30.8106 C   0  0  0  0  0  0  0  0  0  0  0  0
    6.5068   47.5642   31.4180 N   0  0  0  0  0  0  0  0  0  0  0  0
    7.2422   48.5403   30.6828 C   0  0  0  0  0  0  0  0  0  0  0  0
    7.5823   49.7468   31.3037 O   0  0  0  0  0  0  0  0  0  0  0  0
    7.5940   48.3101   29.4948 O   0  0  0  0  0  0  0  0  0  0  0  0
    8.3236   50.7854   30.6639 C   0  0  0  0  0  0  0  0  0  0  0  0
    7.5122   51.4288   29.5622 C   0  0  0  0  0  0  0  0  0  0  0  0
    6.2468   51.9472   29.8919 C   0  0  0  0  0  0  0  0  0  0  0  0
    8.0072   51.6023   28.2429 C   0  0  0  0  0  0  0  0  0  0  0  0
    5.4792   52.6172   28.9382 C   0  0  0  0  0  0  0  0  0  0  0  0
    7.2266   52.2951   27.3011 C   0  0  0  0  0  0  0  0  0  0  0  0
    9.2915   51.1011   27.8432 N   0  0  0  0  0  0  0  0  0  0  0  0
    5.9695   52.7933   27.6456 C   0  0  0  0  0  0  0  0  0  0  0  0
    9.5861   49.7660   27.9915 O   0  0  0  0  0  0  0  0  0  0  0  0
   10.0403   51.8074   27.1370 O   0  0  0  0  0  0  0  0  0  0  0  0
    8.5366   39.1385   34.0140 O   0  0  0  0  0  0  0  0  0  0  0  0
   10.9795   40.0875   33.6890 O   0  0  0  0  0  0  0  0  0  0  0  0
   10.8017   40.0947   32.2902 C   0  0  0  0  0  0  0  0  0  0  0  0
   11.5885   38.9266   31.7041 C   0  0  0  0  0  0  0  0  0  0  0  0
   12.9237   38.9445   32.1721 O   0  0  0  0  0  0  0  0  0  0  0  0
   11.0029   37.5726   32.0908 C   0  0  0  0  0  0  0  0  0  0  0  0
   13.3555   37.5960   32.2594 C   0  0  0  0  0  0  0  0  0  0  0  0
    9.9380   37.1846   31.2656 O   0  0  0  0  0  0  0  0  0  0  0  0
   12.1932   36.6769   31.8952 C   0  0  0  0  0  0  0  0  0  0  0  0
   13.8028   37.2977   33.6186 N   0  0  0  0  0  0  0  0  0  0  0  0
   12.2918   36.2396   30.5587 O   0  0  0  0  0  0  0  0  0  0  0  0
   14.7926   36.4727   33.9858 C   0  0  0  0  0  0  0  0  0  0  0  0
   13.2750   37.7302   34.7935 C   0  0  0  0  0  0  0  0  0  0  0  0
   15.6241   35.7586   33.1857 N   0  0  0  0  0  0  0  0  0  0  0  0
   14.8721   36.4408   35.3326 C   0  0  0  0  0  0  0  0  0  0  0  0
   13.9204   37.2263   35.8802 N   0  0  0  0  0  0  0  0  0  0  0  0
   16.5870   34.9925   33.7800 C   0  0  0  0  0  0  0  0  0  0  0  0
   15.8572   35.6717   35.9441 C   0  0  0  0  0  0  0  0  0  0  0  0
   16.7022   34.9585   35.1437 N   0  0  0  0  0  0  0  0  0  0  0  0
   16.0097   35.6384   37.3561 N   0  0  0  0  0  0  0  0  0  0  0  0
    7.6770   44.0707   34.0504 H   0  0  0  0  0  0  0  0  0  0  0  0
    9.1827   45.3821   35.3534 H   0  0  0  0  0  0  0  0  0  0  0  0
   10.3192   45.4407   34.0999 H   0  0  0  0  0  0  0  0  0  0  0  0
    9.9711   44.0680   31.9739 H   0  0  0  0  0  0  0  0  0  0  0  0
    8.4816   43.0850   31.8669 H   0  0  0  0  0  0  0  0  0  0  0  0
    8.5385   45.1361   30.4021 H   0  0  0  0  0  0  0  0  0  0  0  0
    8.5554   46.1510   31.8739 H   0  0  0  0  0  0  0  0  0  0  0  0
    6.3021   45.0644   32.5333 H   0  0  0  0  0  0  0  0  0  0  0  0
    6.3296   44.1801   30.9677 H   0  0  0  0  0  0  0  0  0  0  0  0
    6.2465   46.2899   29.7217 H   0  0  0  0  0  0  0  0  0  0  0  0
    4.9238   46.2677   30.9267 H   0  0  0  0  0  0  0  0  0  0  0  0
    6.2813   47.7539   32.4204 H   0  0  0  0  0  0  0  0  0  0  0  0
    8.5501   51.5637   31.4227 H   0  0  0  0  0  0  0  0  0  0  0  0
    9.2995   50.3907   30.3215 H   0  0  0  0  0  0  0  0  0  0  0  0
    5.8569   51.8396   30.8969 H   0  0  0  0  0  0  0  0  0  0  0  0
    4.5062   53.0090   29.2051 H   0  0  0  0  0  0  0  0  0  0  0  0
    7.5901   52.4372   26.2910 H   0  0  0  0  0  0  0  0  0  0  0  0
    5.3751   53.3182   26.9089 H   0  0  0  0  0  0  0  0  0  0  0  0
    9.7472   40.0378   31.9304 H   0  0  0  0  0  0  0  0  0  0  0  0
   11.2242   41.0427   31.8934 H   0  0  0  0  0  0  0  0  0  0  0  0
   11.5927   39.0434   30.5965 H   0  0  0  0  0  0  0  0  0  0  0  0
   10.7003   37.5442   33.1640 H   0  0  0  0  0  0  0  0  0  0  0  0
   14.2052   37.4477   31.5560 H   0  0  0  0  0  0  0  0  0  0  0  0
    9.1374   37.6722   31.5905 H   0  0  0  0  0  0  0  0  0  0  0  0
   12.1305   35.7855   32.5585 H   0  0  0  0  0  0  0  0  0  0  0  0
   12.4607   37.0186   29.9674 H   0  0  0  0  0  0  0  0  0  0  0  0
   12.4327   38.4000   34.8694 H   0  0  0  0  0  0  0  0  0  0  0  0
   17.2666   34.4146   33.1690 H   0  0  0  0  0  0  0  0  0  0  0  0
   16.7634   35.0601   37.7894 H   0  0  0  0  0  0  0  0  0  0  0  0
   15.3754   36.1866   37.9788 H   0  0  0  0  0  0  0  0  0  0  0  0
  1  2  2  0
  1  3  1  0
  3  4  1  0
  4  5  1  0
  6  1  1  0
  7  6  1  0
  6  8  1  0
  8  9  1  0
  9 10  1  0
 10 11  1  0
 11 12  1  0
 12 13  1  0
 13 14  1  0
 13 15  2  0
 14 16  1  0
 16 17  1  0
 17 18  2  0
 19 17  1  0
 18 20  1  0
 21 19  2  0
 19 22  1  0
 20 23  2  0
 23 21  1  0
 22 24  1  0
 22 25  2  0
  4 26  2  0
  4 27  1  0
 28 27  1  0
 28 29  1  0
 29 30  1  0
 29 31  1  0
 30 32  1  0
 31 33  1  0
 31 34  1  0
 34 32  1  0
 32 35  1  0
 34 36  1  0
 37 35  1  0
 38 35  1  0
 39 37  2  0
 37 40  1  0
 41 38  2  0
 42 39  1  0
 40 43  2  0
 40 41  1  0
 44 42  2  0
 44 43  1  0
 43 45  1  0
  6 46  1  6
  7 47  1  0
  7 48  1  0
  8 49  1  0
  8 50  1  0
  9 51  1  0
  9 52  1  0
 10 53  1  0
 10 54  1  0
 11 55  1  0
 11 56  1  0
 12 57  1  0
 16 58  1  0
 16 59  1  0
 18 60  1  0
 20 61  1  0
 21 62  1  0
 23 63  1  0
 28 64  1  0
 28 65  1  0
 29 66  1  0
 31 67  1  0
 32 68  1  0
 33 69  1  0
 34 70  1  0
 36 71  1  0
 38 72  1  0
 42 73  1  0
 45 74  1  0
 45 75  1  0
M  CHG  3   5  -1  22   1  24  -1
M  END
>  <EmbedRMS>  (279) 
0.0756678704501

$$$$

     RDKit          3D

 75 78  0  0  0  0  0  0  0  0999 V2000
    9.4312   42.9411   34.3437 C   0  0  0  0  0  0  0  0  0  0  0  0
   10.4885   43.0410   35.0294 O   0  0  0  0  0  0  0  0  0  0  0  0
    8.8562   41.7128   34.0288 O   0  0  0  0  0  0  0  0  0  0  0  0
    9.4947   40.2163   34.4679 P   0  0  0  0  0  0  0  0  0  0  0  0
    9.7311   40.1742   36.1290 O   0  0  0  0  0  0  0  0  0  0  0  0
    8.7484   44.1360   33.7721 C   0  0  1  0  0  0  0  0  0  0  0  0
    9.3039   45.3665   34.3388 N   0  0  0  0  0  0  0  0  0  0  0  0
    8.8892   44.0519   32.2308 C   0  0  0  0  0  0  0  0  0  0  0  0
    8.2015   45.1721   31.4435 C   0  0  0  0  0  0  0  0  0  0  0  0
    6.6642   45.1066   31.4886 C   0  0  0  0  0  0  0  0  0  0  0  0
    6.0267   46.3237   30.8122 C   0  0  0  0  0  0  0  0  0  0  0  0
    6.5084   47.5646   31.4188 N   0  0  0  0  0  0  0  0  0  0  0  0
    7.2422   48.5408   30.6824 C   0  0  0  0  0  0  0  0  0  0  0  0
    7.5895   49.7442   31.3057 O   0  0  0  0  0  0  0  0  0  0  0  0
    7.5939   48.3101   29.4942 O   0  0  0  0  0  0  0  0  0  0  0  0
    8.2813   50.8040   30.6473 C   0  0  0  0  0  0  0  0  0  0  0  0
    7.3718   51.5122   29.6709 C   0  0  0  0  0  0  0  0  0  0  0  0
    7.5329   51.2557   28.2966 C   0  0  0  0  0  0  0  0  0  0  0  0
    6.3966   52.4577   30.0904 C   0  0  0  0  0  0  0  0  0  0  0  0
    6.7457   51.9129   27.3508 C   0  0  0  0  0  0  0  0  0  0  0  0
    5.6235   53.1188   29.1174 C   0  0  0  0  0  0  0  0  0  0  0  0
    6.1967   52.7838   31.4789 N   0  0  0  0  0  0  0  0  0  0  0  0
    5.7938   52.8435   27.7602 C   0  0  0  0  0  0  0  0  0  0  0  0
    6.2438   51.8091   32.4475 O   0  0  0  0  0  0  0  0  0  0  0  0
    5.8232   53.9302   31.8035 O   0  0  0  0  0  0  0  0  0  0  0  0
    8.5375   39.1404   34.0127 O   0  0  0  0  0  0  0  0  0  0  0  0
   10.9805   40.0889   33.6836 O   0  0  0  0  0  0  0  0  0  0  0  0
   10.8025   40.0902   32.2837 C   0  0  0  0  0  0  0  0  0  0  0  0
   11.5888   38.9175   31.7008 C   0  0  0  0  0  0  0  0  0  0  0  0
   12.9219   38.9373   32.1692 O   0  0  0  0  0  0  0  0  0  0  0  0
   11.0028   37.5683   32.0981 C   0  0  0  0  0  0  0  0  0  0  0  0
   13.3496   37.5886   32.2601 C   0  0  0  0  0  0  0  0  0  0  0  0
    9.9343   37.1823   31.2757 O   0  0  0  0  0  0  0  0  0  0  0  0
   12.1891   36.6677   31.9050 C   0  0  0  0  0  0  0  0  0  0  0  0
   13.8025   37.2965   33.6186 N   0  0  0  0  0  0  0  0  0  0  0  0
   12.2990   36.2868   30.5568 O   0  0  0  0  0  0  0  0  0  0  0  0
   14.7929   36.4725   33.9858 C   0  0  0  0  0  0  0  0  0  0  0  0
   13.2749   37.7294   34.7935 C   0  0  0  0  0  0  0  0  0  0  0  0
   15.6240   35.7580   33.1858 N   0  0  0  0  0  0  0  0  0  0  0  0
   14.8727   36.4411   35.3327 C   0  0  0  0  0  0  0  0  0  0  0  0
   13.9208   37.2263   35.8803 N   0  0  0  0  0  0  0  0  0  0  0  0
   16.5871   34.9921   33.7801 C   0  0  0  0  0  0  0  0  0  0  0  0
   15.8576   35.6718   35.9441 C   0  0  0  0  0  0  0  0  0  0  0  0
   16.7024   34.9584   35.1438 N   0  0  0  0  0  0  0  0  0  0  0  0
   16.0099   35.6384   37.3562 N   0  0  0  0  0  0  0  0  0  0  0  0
    7.6764   44.0634   34.0548 H   0  0  0  0  0  0  0  0  0  0  0  0
   10.2152   45.5879   33.8747 H   0  0  0  0  0  0  0  0  0  0  0  0
    8.6468   46.1558   34.1431 H   0  0  0  0  0  0  0  0  0  0  0  0
    8.4830   43.0818   31.8666 H   0  0  0  0  0  0  0  0  0  0  0  0
    9.9708   44.0642   31.9679 H   0  0  0  0  0  0  0  0  0  0  0  0
    8.5714   46.1487   31.8173 H   0  0  0  0  0  0  0  0  0  0  0  0
    8.5198   45.0959   30.3807 H   0  0  0  0  0  0  0  0  0  0  0  0
    6.3147   44.1801   30.9835 H   0  0  0  0  0  0  0  0  0  0  0  0
    6.3142   45.0783   32.5413 H   0  0  0  0  0  0  0  0  0  0  0  0
    4.9234   46.2700   30.9302 H   0  0  0  0  0  0  0  0  0  0  0  0
    6.2447   46.2897   29.7231 H   0  0  0  0  0  0  0  0  0  0  0  0
    6.2859   47.7540   32.4220 H   0  0  0  0  0  0  0  0  0  0  0  0
    9.1837   50.3972   30.1396 H   0  0  0  0  0  0  0  0  0  0  0  0
    8.6508   51.5276   31.4038 H   0  0  0  0  0  0  0  0  0  0  0  0
    8.2752   50.5460   27.9526 H   0  0  0  0  0  0  0  0  0  0  0  0
    6.8788   51.7039   26.2972 H   0  0  0  0  0  0  0  0  0  0  0  0
    4.8756   53.8440   29.4124 H   0  0  0  0  0  0  0  0  0  0  0  0
    5.1869   53.3550   27.0242 H   0  0  0  0  0  0  0  0  0  0  0  0
    9.7476   40.0332   31.9256 H   0  0  0  0  0  0  0  0  0  0  0  0
   11.2257   41.0358   31.8825 H   0  0  0  0  0  0  0  0  0  0  0  0
   11.5975   39.0148   30.5905 H   0  0  0  0  0  0  0  0  0  0  0  0
   10.7023   37.5457   33.1720 H   0  0  0  0  0  0  0  0  0  0  0  0
   14.1957   37.4366   31.5528 H   0  0  0  0  0  0  0  0  0  0  0  0
    9.1339   37.6658   31.6070 H   0  0  0  0  0  0  0  0  0  0  0  0
   12.1380   35.7717   32.5698 H   0  0  0  0  0  0  0  0  0  0  0  0
   11.7706   35.4530   30.4496 H   0  0  0  0  0  0  0  0  0  0  0  0
   12.4314   38.3980   34.8694 H   0  0  0  0  0  0  0  0  0  0  0  0
   17.2665   34.4140   33.1691 H   0  0  0  0  0  0  0  0  0  0  0  0
   16.7633   35.0598   37.7895 H   0  0  0  0  0  0  0  0  0  0  0  0
   15.3757   36.1868   37.9789 H   0  0  0  0  0  0  0  0  0  0  0  0
  1  2  2  0
  1  3  1  0
  3  4  1  0
  4  5  1  0
  6  1  1  0
  7  6  1  0
  6  8  1  0
  8  9  1  0
  9 10  1  0
 10 11  1  0
 11 12  1  0
 12 13  1  0
 13 14  1  0
 13 15  2  0
 14 16  1  0
 16 17  1  0
 17 18  2  0
 19 17  1  0
 18 20  1  0
 21 19  2  0
 19 22  1  0
 20 23  2  0
 23 21  1  0
 22 24  1  0
 22 25  2  0
  4 26  2  0
  4 27  1  0
 28 27  1  0
 28 29  1  0
 29 30  1  0
 29 31  1  0
 30 32  1  0
 31 33  1  0
 31 34  1  0
 34 32  1  0
 32 35  1  0
 34 36  1  0
 37 35  1  0
 38 35  1  0
 39 37  2  0
 37 40  1  0
 41 38  2  0
 42 39  1  0
 40 43  2  0
 40 41  1  0
 44 42  2  0
 44 43  1  0
 43 45  1  0
  6 46  1  6
  7 47  1  0
  7 48  1  0
  8 49  1  0
  8 50  1  0
  9 51  1  0
  9 52  1  0
 10 53  1  0
 10 54  1  0
 11 55  1  0
 11 56  1  0
 12 57  1  0
 16 58  1  0
 16 59  1  0
 18 60  1  0
 20 61  1  0
 21 62  1  0
 23 63  1  0
 28 64  1  0
 28 65  1  0
 29 66  1  0
 31 67  1  0
 32 68  1  0
 33 69  1  0
 34 70  1  0
 36 71  1  0
 38 72  1  0
 42 73  1  0
 45 74  1  0
 45 75  1  0
M  CHG  3   5  -1  22   1  24  -1
M  END
>  <EmbedRMS>  (280) 
0.073337235597

$$$$

     RDKit          3D

 75 78  0  0  0  0  0  0  0  0999 V2000
    9.4299   42.9394   34.3432 C   0  0  0  0  0  0  0  0  0  0  0  0
   10.4907   43.0381   35.0240 O   0  0  0  0  0  0  0  0  0  0  0  0
    8.8548   41.7115   34.0281 O   0  0  0  0  0  0  0  0  0  0  0  0
    9.4941   40.2154   34.4674 P   0  0  0  0  0  0  0  0  0  0  0  0
    9.7309   40.1739   36.1286 O   0  0  0  0  0  0  0  0  0  0  0  0
    8.7422   44.1375   33.7777 C   0  0  1  0  0  0  0  0  0  0  0  0
    9.3056   45.3695   34.3305 N   0  0  0  0  0  0  0  0  0  0  0  0
    8.8966   44.0592   32.2390 C   0  0  0  0  0  0  0  0  0  0  0  0
    8.2028   45.1686   31.4384 C   0  0  0  0  0  0  0  0  0  0  0  0
    6.6658   45.1089   31.4929 C   0  0  0  0  0  0  0  0  0  0  0  0
    6.0297   46.3230   30.8095 C   0  0  0  0  0  0  0  0  0  0  0  0
    6.5001   47.5672   31.4197 N   0  0  0  0  0  0  0  0  0  0  0  0
    7.2352   48.5476   30.6796 C   0  0  0  0  0  0  0  0  0  0  0  0
    7.5638   49.7966   31.2234 O   0  0  0  0  0  0  0  0  0  0  0  0
    7.6022   48.2978   29.5017 O   0  0  0  0  0  0  0  0  0  0  0  0
    7.1896   50.2761   32.5151 C   0  0  0  0  0  0  0  0  0  0  0  0
    8.0467   49.6786   33.6109 C   0  0  0  0  0  0  0  0  0  0  0  0
    7.4167   48.8924   34.5958 C   0  0  0  0  0  0  0  0  0  0  0  0
    9.4337   49.9760   33.7507 C   0  0  0  0  0  0  0  0  0  0  0  0
    8.1391   48.3727   35.6692 C   0  0  0  0  0  0  0  0  0  0  0  0
   10.1409   49.4356   34.8407 C   0  0  0  0  0  0  0  0  0  0  0  0
   10.1293   50.8707   32.8609 N   0  0  0  0  0  0  0  0  0  0  0  0
    9.5009   48.6343   35.7854 C   0  0  0  0  0  0  0  0  0  0  0  0
   11.1851   51.6180   33.3308 O   0  0  0  0  0  0  0  0  0  0  0  0
    9.8958   50.8764   31.6362 O   0  0  0  0  0  0  0  0  0  0  0  0
    8.5374   39.1390   34.0123 O   0  0  0  0  0  0  0  0  0  0  0  0
   10.9796   40.0879   33.6827 O   0  0  0  0  0  0  0  0  0  0  0  0
   10.8002   40.0907   32.2830 C   0  0  0  0  0  0  0  0  0  0  0  0
   11.5958   38.9271   31.6963 C   0  0  0  0  0  0  0  0  0  0  0  0
   12.9239   38.9409   32.1767 O   0  0  0  0  0  0  0  0  0  0  0  0
   11.0062   37.5719   32.0794 C   0  0  0  0  0  0  0  0  0  0  0  0
   13.3506   37.5906   32.2614 C   0  0  0  0  0  0  0  0  0  0  0  0
    9.9064   37.1793   31.2946 O   0  0  0  0  0  0  0  0  0  0  0  0
   12.1920   36.6672   31.9003 C   0  0  0  0  0  0  0  0  0  0  0  0
   13.8017   37.2948   33.6193 N   0  0  0  0  0  0  0  0  0  0  0  0
   12.3133   36.2788   30.5561 O   0  0  0  0  0  0  0  0  0  0  0  0
   14.7927   36.4717   33.9862 C   0  0  0  0  0  0  0  0  0  0  0  0
   13.2746   37.7284   34.7941 C   0  0  0  0  0  0  0  0  0  0  0  0
   15.6240   35.7576   33.1859 N   0  0  0  0  0  0  0  0  0  0  0  0
   14.8728   36.4406   35.3330 C   0  0  0  0  0  0  0  0  0  0  0  0
   13.9209   37.2258   35.8808 N   0  0  0  0  0  0  0  0  0  0  0  0
   16.5874   34.9920   33.7802 C   0  0  0  0  0  0  0  0  0  0  0  0
   15.8579   35.6716   35.9443 C   0  0  0  0  0  0  0  0  0  0  0  0
   16.7028   34.9584   35.1439 N   0  0  0  0  0  0  0  0  0  0  0  0
   16.0103   35.6383   37.3563 N   0  0  0  0  0  0  0  0  0  0  0  0
    7.6677   44.0676   34.0544 H   0  0  0  0  0  0  0  0  0  0  0  0
    8.7033   46.1669   34.0283 H   0  0  0  0  0  0  0  0  0  0  0  0
    9.2098   45.3388   35.3723 H   0  0  0  0  0  0  0  0  0  0  0  0
    9.9811   44.0903   31.9902 H   0  0  0  0  0  0  0  0  0  0  0  0
    8.5083   43.0838   31.8691 H   0  0  0  0  0  0  0  0  0  0  0  0
    8.5128   45.0711   30.3748 H   0  0  0  0  0  0  0  0  0  0  0  0
    8.5788   46.1529   31.7839 H   0  0  0  0  0  0  0  0  0  0  0  0
    6.3105   44.1791   30.9980 H   0  0  0  0  0  0  0  0  0  0  0  0
    6.3207   45.0921   32.5473 H   0  0  0  0  0  0  0  0  0  0  0  0
    6.2559   46.2875   29.7223 H   0  0  0  0  0  0  0  0  0  0  0  0
    4.9255   46.2645   30.9177 H   0  0  0  0  0  0  0  0  0  0  0  0
    6.2379   47.7424   32.4114 H   0  0  0  0  0  0  0  0  0  0  0  0
    7.3189   51.3785   32.5330 H   0  0  0  0  0  0  0  0  0  0  0  0
    6.1062   50.0895   32.6811 H   0  0  0  0  0  0  0  0  0  0  0  0
    6.3538   48.6924   34.5476 H   0  0  0  0  0  0  0  0  0  0  0  0
    7.6407   47.7644   36.4130 H   0  0  0  0  0  0  0  0  0  0  0  0
   11.1970   49.6399   34.9630 H   0  0  0  0  0  0  0  0  0  0  0  0
   10.0603   48.2262   36.6172 H   0  0  0  0  0  0  0  0  0  0  0  0
    9.7454   40.0168   31.9261 H   0  0  0  0  0  0  0  0  0  0  0  0
   11.2115   41.0421   31.8828 H   0  0  0  0  0  0  0  0  0  0  0  0
   11.6246   39.0449   30.5888 H   0  0  0  0  0  0  0  0  0  0  0  0
   10.7050   37.5581   33.1500 H   0  0  0  0  0  0  0  0  0  0  0  0
   14.1984   37.4426   31.5553 H   0  0  0  0  0  0  0  0  0  0  0  0
   10.0893   37.4057   30.3459 H   0  0  0  0  0  0  0  0  0  0  0  0
   12.1337   35.7754   32.5703 H   0  0  0  0  0  0  0  0  0  0  0  0
   11.7934   35.4394   30.4514 H   0  0  0  0  0  0  0  0  0  0  0  0
   12.4314   38.3973   34.8699 H   0  0  0  0  0  0  0  0  0  0  0  0
   17.2669   34.4142   33.1692 H   0  0  0  0  0  0  0  0  0  0  0  0
   16.7638   35.0599   37.7896 H   0  0  0  0  0  0  0  0  0  0  0  0
   15.3759   36.1865   37.9790 H   0  0  0  0  0  0  0  0  0  0  0  0
  1  2  2  0
  1  3  1  0
  3  4  1  0
  4  5  1  0
  6  1  1  0
  7  6  1  0
  6  8  1  0
  8  9  1  0
  9 10  1  0
 10 11  1  0
 11 12  1  0
 12 13  1  0
 13 14  1  0
 13 15  2  0
 14 16  1  0
 16 17  1  0
 17 18  2  0
 19 17  1  0
 18 20  1  0
 21 19  2  0
 19 22  1  0
 20 23  2  0
 23 21  1  0
 22 24  1  0
 22 25  2  0
  4 26  2  0
  4 27  1  0
 28 27  1  0
 28 29  1  0
 29 30  1  0
 29 31  1  0
 30 32  1  0
 31 33  1  0
 31 34  1  0
 34 32  1  0
 32 35  1  0
 34 36  1  0
 37 35  1  0
 38 35  1  0
 39 37  2  0
 37 40  1  0
 41 38  2  0
 42 39  1  0
 40 43  2  0
 40 41  1  0
 44 42  2  0
 44 43  1  0
 43 45  1  0
  6 46  1  6
  7 47  1  0
  7 48  1  0
  8 49  1  0
  8 50  1  0
  9 51  1  0
  9 52  1  0
 10 53  1  0
 10 54  1  0
 11 55  1  0
 11 56  1  0
 12 57  1  0
 16 58  1  0
 16 59  1  0
 18 60  1  0
 20 61  1  0
 21 62  1  0
 23 63  1  0
 28 64  1  0
 28 65  1  0
 29 66  1  0
 31 67  1  0
 32 68  1  0
 33 69  1  0
 34 70  1  0
 36 71  1  0
 38 72  1  0
 42 73  1  0
 45 74  1  0
 45 75  1  0
M  CHG  3   5  -1  22   1  24  -1
M  END
>  <EmbedRMS>  (281) 
0.0744535325733

$$$$

     RDKit          3D

 75 78  0  0  0  0  0  0  0  0999 V2000
    9.4333   42.9366   34.3462 C   0  0  0  0  0  0  0  0  0  0  0  0
   10.4907   43.0330   35.0319 O   0  0  0  0  0  0  0  0  0  0  0  0
    8.8563   41.7104   34.0296 O   0  0  0  0  0  0  0  0  0  0  0  0
    9.4945   40.2142   34.4680 P   0  0  0  0  0  0  0  0  0  0  0  0
    9.7309   40.1726   36.1291 O   0  0  0  0  0  0  0  0  0  0  0  0
    8.7506   44.1348   33.7741 C   0  0  1  0  0  0  0  0  0  0  0  0
    9.2963   45.3821   34.3133 N   0  0  0  0  0  0  0  0  0  0  0  0
    8.8893   44.0528   32.2358 C   0  0  0  0  0  0  0  0  0  0  0  0
    8.2028   45.1824   31.4615 C   0  0  0  0  0  0  0  0  0  0  0  0
    6.6653   45.1046   31.4855 C   0  0  0  0  0  0  0  0  0  0  0  0
    6.0269   46.3225   30.8105 C   0  0  0  0  0  0  0  0  0  0  0  0
    6.5062   47.5640   31.4180 N   0  0  0  0  0  0  0  0  0  0  0  0
    7.2439   48.5390   30.6837 C   0  0  0  0  0  0  0  0  0  0  0  0
    7.5958   49.7388   31.3074 O   0  0  0  0  0  0  0  0  0  0  0  0
    7.5932   48.3119   29.4936 O   0  0  0  0  0  0  0  0  0  0  0  0
    8.3478   50.7573   30.6514 C   0  0  0  0  0  0  0  0  0  0  0  0
    8.6061   51.9395   31.5617 C   0  0  0  0  0  0  0  0  0  0  0  0
    8.4112   51.8166   32.9537 C   0  0  0  0  0  0  0  0  0  0  0  0
    9.0369   53.1892   31.0357 C   0  0  0  0  0  0  0  0  0  0  0  0
    8.6012   52.9092   33.8004 C   0  0  0  0  0  0  0  0  0  0  0  0
    9.2049   54.2803   31.9070 C   0  0  0  0  0  0  0  0  0  0  0  0
    9.2966   53.3784   29.6320 N   0  0  0  0  0  0  0  0  0  0  0  0
    8.9896   54.1398   33.2777 C   0  0  0  0  0  0  0  0  0  0  0  0
    9.1242   54.6193   29.0628 O   0  0  0  0  0  0  0  0  0  0  0  0
    9.8380   52.4798   28.9560 O   0  0  0  0  0  0  0  0  0  0  0  0
    8.5372   39.1386   34.0125 O   0  0  0  0  0  0  0  0  0  0  0  0
   10.9804   40.0880   33.6837 O   0  0  0  0  0  0  0  0  0  0  0  0
   10.8025   40.0899   32.2839 C   0  0  0  0  0  0  0  0  0  0  0  0
   11.5888   38.9174   31.7007 C   0  0  0  0  0  0  0  0  0  0  0  0
   12.9219   38.9373   32.1692 O   0  0  0  0  0  0  0  0  0  0  0  0
   11.0028   37.5682   32.0980 C   0  0  0  0  0  0  0  0  0  0  0  0
   13.3496   37.5885   32.2601 C   0  0  0  0  0  0  0  0  0  0  0  0
    9.9343   37.1822   31.2756 O   0  0  0  0  0  0  0  0  0  0  0  0
   12.1891   36.6677   31.9049 C   0  0  0  0  0  0  0  0  0  0  0  0
   13.8025   37.2965   33.6186 N   0  0  0  0  0  0  0  0  0  0  0  0
   12.2991   36.2867   30.5567 O   0  0  0  0  0  0  0  0  0  0  0  0
   14.7929   36.4725   33.9858 C   0  0  0  0  0  0  0  0  0  0  0  0
   13.2749   37.7294   34.7935 C   0  0  0  0  0  0  0  0  0  0  0  0
   15.6240   35.7580   33.1858 N   0  0  0  0  0  0  0  0  0  0  0  0
   14.8727   36.4411   35.3327 C   0  0  0  0  0  0  0  0  0  0  0  0
   13.9208   37.2263   35.8803 N   0  0  0  0  0  0  0  0  0  0  0  0
   16.5871   34.9921   33.7801 C   0  0  0  0  0  0  0  0  0  0  0  0
   15.8576   35.6718   35.9441 C   0  0  0  0  0  0  0  0  0  0  0  0
   16.7024   34.9584   35.1438 N   0  0  0  0  0  0  0  0  0  0  0  0
   16.0099   35.6384   37.3562 N   0  0  0  0  0  0  0  0  0  0  0  0
    7.6770   44.0707   34.0504 H   0  0  0  0  0  0  0  0  0  0  0  0
    9.1827   45.3821   35.3535 H   0  0  0  0  0  0  0  0  0  0  0  0
   10.3192   45.4407   34.1000 H   0  0  0  0  0  0  0  0  0  0  0  0
    8.4817   43.0851   31.8668 H   0  0  0  0  0  0  0  0  0  0  0  0
    9.9711   44.0682   31.9739 H   0  0  0  0  0  0  0  0  0  0  0  0
    8.5551   46.1511   31.8743 H   0  0  0  0  0  0  0  0  0  0  0  0
    8.5385   45.1364   30.4023 H   0  0  0  0  0  0  0  0  0  0  0  0
    6.3020   45.0642   32.5333 H   0  0  0  0  0  0  0  0  0  0  0  0
    6.3297   44.1799   30.9678 H   0  0  0  0  0  0  0  0  0  0  0  0
    6.2464   46.2897   29.7217 H   0  0  0  0  0  0  0  0  0  0  0  0
    4.9235   46.2672   30.9265 H   0  0  0  0  0  0  0  0  0  0  0  0
    6.2825   47.7528   32.4210 H   0  0  0  0  0  0  0  0  0  0  0  0
    7.7689   51.0980   29.7654 H   0  0  0  0  0  0  0  0  0  0  0  0
    9.3212   50.3383   30.3171 H   0  0  0  0  0  0  0  0  0  0  0  0
    8.1086   50.8762   33.3956 H   0  0  0  0  0  0  0  0  0  0  0  0
    8.4431   52.8012   34.8658 H   0  0  0  0  0  0  0  0  0  0  0  0
    9.5244   55.2418   31.5255 H   0  0  0  0  0  0  0  0  0  0  0  0
    9.1327   54.9861   33.9372 H   0  0  0  0  0  0  0  0  0  0  0  0
    9.7476   40.0331   31.9256 H   0  0  0  0  0  0  0  0  0  0  0  0
   11.2258   41.0357   31.8830 H   0  0  0  0  0  0  0  0  0  0  0  0
   11.5974   39.0148   30.5904 H   0  0  0  0  0  0  0  0  0  0  0  0
   10.7023   37.5455   33.1719 H   0  0  0  0  0  0  0  0  0  0  0  0
   14.1957   37.4366   31.5528 H   0  0  0  0  0  0  0  0  0  0  0  0
    9.1340   37.6658   31.6069 H   0  0  0  0  0  0  0  0  0  0  0  0
   12.1381   35.7717   32.5697 H   0  0  0  0  0  0  0  0  0  0  0  0
   11.7707   35.4530   30.4496 H   0  0  0  0  0  0  0  0  0  0  0  0
   12.4314   38.3980   34.8694 H   0  0  0  0  0  0  0  0  0  0  0  0
   17.2665   34.4140   33.1691 H   0  0  0  0  0  0  0  0  0  0  0  0
   16.7633   35.0598   37.7895 H   0  0  0  0  0  0  0  0  0  0  0  0
   15.3757   36.1867   37.9789 H   0  0  0  0  0  0  0  0  0  0  0  0
  1  2  2  0
  1  3  1  0
  3  4  1  0
  4  5  1  0
  6  1  1  0
  7  6  1  0
  6  8  1  0
  8  9  1  0
  9 10  1  0
 10 11  1  0
 11 12  1  0
 12 13  1  0
 13 14  1  0
 13 15  2  0
 14 16  1  0
 16 17  1  0
 17 18  2  0
 19 17  1  0
 18 20  1  0
 21 19  2  0
 19 22  1  0
 20 23  2  0
 23 21  1  0
 22 24  1  0
 22 25  2  0
  4 26  2  0
  4 27  1  0
 28 27  1  0
 28 29  1  0
 29 30  1  0
 29 31  1  0
 30 32  1  0
 31 33  1  0
 31 34  1  0
 34 32  1  0
 32 35  1  0
 34 36  1  0
 37 35  1  0
 38 35  1  0
 39 37  2  0
 37 40  1  0
 41 38  2  0
 42 39  1  0
 40 43  2  0
 40 41  1  0
 44 42  2  0
 44 43  1  0
 43 45  1  0
  6 46  1  6
  7 47  1  0
  7 48  1  0
  8 49  1  0
  8 50  1  0
  9 51  1  0
  9 52  1  0
 10 53  1  0
 10 54  1  0
 11 55  1  0
 11 56  1  0
 12 57  1  0
 16 58  1  0
 16 59  1  0
 18 60  1  0
 20 61  1  0
 21 62  1  0
 23 63  1  0
 28 64  1  0
 28 65  1  0
 29 66  1  0
 31 67  1  0
 32 68  1  0
 33 69  1  0
 34 70  1  0
 36 71  1  0
 38 72  1  0
 42 73  1  0
 45 74  1  0
 45 75  1  0
M  CHG  3   5  -1  22   1  24  -1
M  END
>  <EmbedRMS>  (282) 
0.0742186444981

$$$$

     RDKit          3D

 75 78  0  0  0  0  0  0  0  0999 V2000
    9.4330   42.9366   34.3462 C   0  0  0  0  0  0  0  0  0  0  0  0
   10.4905   43.0331   35.0319 O   0  0  0  0  0  0  0  0  0  0  0  0
    8.8562   41.7104   34.0295 O   0  0  0  0  0  0  0  0  0  0  0  0
    9.4942   40.2140   34.4678 P   0  0  0  0  0  0  0  0  0  0  0  0
    9.7311   40.1724   36.1289 O   0  0  0  0  0  0  0  0  0  0  0  0
    8.7502   44.1349   33.7741 C   0  0  1  0  0  0  0  0  0  0  0  0
    9.2957   45.3823   34.3133 N   0  0  0  0  0  0  0  0  0  0  0  0
    8.8891   44.0526   32.2358 C   0  0  0  0  0  0  0  0  0  0  0  0
    8.2031   45.1823   31.4613 C   0  0  0  0  0  0  0  0  0  0  0  0
    6.6656   45.1033   31.4819 C   0  0  0  0  0  0  0  0  0  0  0  0
    6.0281   46.3239   30.8103 C   0  0  0  0  0  0  0  0  0  0  0  0
    6.5100   47.5618   31.4225 N   0  0  0  0  0  0  0  0  0  0  0  0
    7.2427   48.5449   30.6812 C   0  0  0  0  0  0  0  0  0  0  0  0
    7.6075   49.7737   31.2490 O   0  0  0  0  0  0  0  0  0  0  0  0
    7.5907   48.3071   29.4953 O   0  0  0  0  0  0  0  0  0  0  0  0
    7.2721   50.1891   32.5729 C   0  0  0  0  0  0  0  0  0  0  0  0
    5.7886   50.4625   32.6939 C   0  0  0  0  0  0  0  0  0  0  0  0
    5.1737   51.2558   31.7081 C   0  0  0  0  0  0  0  0  0  0  0  0
    4.9944   49.9233   33.7403 C   0  0  0  0  0  0  0  0  0  0  0  0
    3.7948   51.4702   31.7234 C   0  0  0  0  0  0  0  0  0  0  0  0
    3.6050   50.1320   33.7265 C   0  0  0  0  0  0  0  0  0  0  0  0
    5.5720   49.1841   34.8272 N   0  0  0  0  0  0  0  0  0  0  0  0
    3.0104   50.9001   32.7245 C   0  0  0  0  0  0  0  0  0  0  0  0
    4.8984   48.1069   35.3551 O   0  0  0  0  0  0  0  0  0  0  0  0
    6.5498   49.6474   35.4495 O   0  0  0  0  0  0  0  0  0  0  0  0
    8.5370   39.1383   34.0123 O   0  0  0  0  0  0  0  0  0  0  0  0
   10.9795   40.0869   33.6827 O   0  0  0  0  0  0  0  0  0  0  0  0
   10.7996   40.0898   32.2830 C   0  0  0  0  0  0  0  0  0  0  0  0
   11.5968   38.9274   31.6962 C   0  0  0  0  0  0  0  0  0  0  0  0
   12.9242   38.9425   32.1784 O   0  0  0  0  0  0  0  0  0  0  0  0
   11.0086   37.5713   32.0780 C   0  0  0  0  0  0  0  0  0  0  0  0
   13.3528   37.5929   32.2623 C   0  0  0  0  0  0  0  0  0  0  0  0
    9.9098   37.1770   31.2925 O   0  0  0  0  0  0  0  0  0  0  0  0
   12.1943   36.6683   31.8995 C   0  0  0  0  0  0  0  0  0  0  0  0
   13.8019   37.2950   33.6199 N   0  0  0  0  0  0  0  0  0  0  0  0
   12.3027   36.2773   30.5558 O   0  0  0  0  0  0  0  0  0  0  0  0
   14.7926   36.4715   33.9864 C   0  0  0  0  0  0  0  0  0  0  0  0
   13.2749   37.7286   34.7946 C   0  0  0  0  0  0  0  0  0  0  0  0
   15.6239   35.7577   33.1860 N   0  0  0  0  0  0  0  0  0  0  0  0
   14.8727   36.4403   35.3332 C   0  0  0  0  0  0  0  0  0  0  0  0
   13.9210   37.2257   35.8811 N   0  0  0  0  0  0  0  0  0  0  0  0
   16.5873   34.9921   33.7802 C   0  0  0  0  0  0  0  0  0  0  0  0
   15.8579   35.6714   35.9444 C   0  0  0  0  0  0  0  0  0  0  0  0
   16.7028   34.9583   35.1439 N   0  0  0  0  0  0  0  0  0  0  0  0
   16.0104   35.6381   37.3564 N   0  0  0  0  0  0  0  0  0  0  0  0
    7.6765   44.0708   34.0501 H   0  0  0  0  0  0  0  0  0  0  0  0
   10.3187   45.4408   34.1009 H   0  0  0  0  0  0  0  0  0  0  0  0
    9.1809   45.3829   35.3533 H   0  0  0  0  0  0  0  0  0  0  0  0
    8.4814   43.0850   31.8668 H   0  0  0  0  0  0  0  0  0  0  0  0
    9.9710   44.0678   31.9742 H   0  0  0  0  0  0  0  0  0  0  0  0
    8.5543   46.1507   31.8759 H   0  0  0  0  0  0  0  0  0  0  0  0
    8.5409   45.1377   30.4027 H   0  0  0  0  0  0  0  0  0  0  0  0
    6.3002   45.0586   32.5290 H   0  0  0  0  0  0  0  0  0  0  0  0
    6.3314   44.1805   30.9600 H   0  0  0  0  0  0  0  0  0  0  0  0
    6.2448   46.2939   29.7210 H   0  0  0  0  0  0  0  0  0  0  0  0
    4.9248   46.2698   30.9289 H   0  0  0  0  0  0  0  0  0  0  0  0
    6.3028   47.7087   32.4337 H   0  0  0  0  0  0  0  0  0  0  0  0
    7.8159   51.1324   32.7884 H   0  0  0  0  0  0  0  0  0  0  0  0
    7.6390   49.4278   33.2893 H   0  0  0  0  0  0  0  0  0  0  0  0
    5.7630   51.6933   30.9114 H   0  0  0  0  0  0  0  0  0  0  0  0
    3.3326   52.0728   30.9522 H   0  0  0  0  0  0  0  0  0  0  0  0
    2.9832   49.7198   34.5112 H   0  0  0  0  0  0  0  0  0  0  0  0
    1.9404   51.0634   32.7313 H   0  0  0  0  0  0  0  0  0  0  0  0
    9.7449   40.0145   31.9263 H   0  0  0  0  0  0  0  0  0  0  0  0
   11.2096   41.0418   31.8829 H   0  0  0  0  0  0  0  0  0  0  0  0
   11.6265   39.0456   30.5888 H   0  0  0  0  0  0  0  0  0  0  0  0
   10.7064   37.5574   33.1484 H   0  0  0  0  0  0  0  0  0  0  0  0
   14.2021   37.4484   31.5574 H   0  0  0  0  0  0  0  0  0  0  0  0
   10.0952   37.3990   30.3433 H   0  0  0  0  0  0  0  0  0  0  0  0
   12.1163   35.7745   32.5633 H   0  0  0  0  0  0  0  0  0  0  0  0
   12.9615   35.5349   30.5312 H   0  0  0  0  0  0  0  0  0  0  0  0
   12.4321   38.3982   34.8705 H   0  0  0  0  0  0  0  0  0  0  0  0
   17.2669   34.4143   33.1690 H   0  0  0  0  0  0  0  0  0  0  0  0
   16.7641   35.0598   37.7896 H   0  0  0  0  0  0  0  0  0  0  0  0
   15.3761   36.1862   37.9792 H   0  0  0  0  0  0  0  0  0  0  0  0
  1  2  2  0
  1  3  1  0
  3  4  1  0
  4  5  1  0
  6  1  1  0
  7  6  1  0
  6  8  1  0
  8  9  1  0
  9 10  1  0
 10 11  1  0
 11 12  1  0
 12 13  1  0
 13 14  1  0
 13 15  2  0
 14 16  1  0
 16 17  1  0
 17 18  2  0
 19 17  1  0
 18 20  1  0
 21 19  2  0
 19 22  1  0
 20 23  2  0
 23 21  1  0
 22 24  1  0
 22 25  2  0
  4 26  2  0
  4 27  1  0
 28 27  1  0
 28 29  1  0
 29 30  1  0
 29 31  1  0
 30 32  1  0
 31 33  1  0
 31 34  1  0
 34 32  1  0
 32 35  1  0
 34 36  1  0
 37 35  1  0
 38 35  1  0
 39 37  2  0
 37 40  1  0
 41 38  2  0
 42 39  1  0
 40 43  2  0
 40 41  1  0
 44 42  2  0
 44 43  1  0
 43 45  1  0
  6 46  1  6
  7 47  1  0
  7 48  1  0
  8 49  1  0
  8 50  1  0
  9 51  1  0
  9 52  1  0
 10 53  1  0
 10 54  1  0
 11 55  1  0
 11 56  1  0
 12 57  1  0
 16 58  1  0
 16 59  1  0
 18 60  1  0
 20 61  1  0
 21 62  1  0
 23 63  1  0
 28 64  1  0
 28 65  1  0
 29 66  1  0
 31 67  1  0
 32 68  1  0
 33 69  1  0
 34 70  1  0
 36 71  1  0
 38 72  1  0
 42 73  1  0
 45 74  1  0
 45 75  1  0
M  CHG  3   5  -1  22   1  24  -1
M  END
>  <EmbedRMS>  (283) 
0.0744301157413

$$$$

     RDKit          3D

 75 78  0  0  0  0  0  0  0  0999 V2000
    9.4313   42.9411   34.3437 C   0  0  0  0  0  0  0  0  0  0  0  0
   10.4886   43.0410   35.0294 O   0  0  0  0  0  0  0  0  0  0  0  0
    8.8562   41.7129   34.0288 O   0  0  0  0  0  0  0  0  0  0  0  0
    9.4947   40.2163   34.4679 P   0  0  0  0  0  0  0  0  0  0  0  0
    9.7311   40.1742   36.1290 O   0  0  0  0  0  0  0  0  0  0  0  0
    8.7484   44.1360   33.7721 C   0  0  1  0  0  0  0  0  0  0  0  0
    9.3039   45.3665   34.3388 N   0  0  0  0  0  0  0  0  0  0  0  0
    8.8892   44.0520   32.2308 C   0  0  0  0  0  0  0  0  0  0  0  0
    8.2014   45.1722   31.4436 C   0  0  0  0  0  0  0  0  0  0  0  0
    6.6641   45.1066   31.4887 C   0  0  0  0  0  0  0  0  0  0  0  0
    6.0264   46.3234   30.8119 C   0  0  0  0  0  0  0  0  0  0  0  0
    6.5072   47.5646   31.4186 N   0  0  0  0  0  0  0  0  0  0  0  0
    7.2449   48.5390   30.6836 C   0  0  0  0  0  0  0  0  0  0  0  0
    7.5991   49.7383   31.3072 O   0  0  0  0  0  0  0  0  0  0  0  0
    7.5929   48.3115   29.4932 O   0  0  0  0  0  0  0  0  0  0  0  0
    8.3544   50.7538   30.6522 C   0  0  0  0  0  0  0  0  0  0  0  0
    8.5345   51.9301   31.5807 C   0  0  0  0  0  0  0  0  0  0  0  0
    7.3916   52.4721   32.1969 C   0  0  0  0  0  0  0  0  0  0  0  0
    9.8073   52.4828   31.8788 C   0  0  0  0  0  0  0  0  0  0  0  0
    7.5055   53.5087   33.1246 C   0  0  0  0  0  0  0  0  0  0  0  0
    9.9039   53.5134   32.8305 C   0  0  0  0  0  0  0  0  0  0  0  0
   10.9971   52.0422   31.2067 N   0  0  0  0  0  0  0  0  0  0  0  0
    8.7604   54.0212   33.4487 C   0  0  0  0  0  0  0  0  0  0  0  0
   11.0266   51.9845   29.8323 O   0  0  0  0  0  0  0  0  0  0  0  0
   12.0702   51.9460   31.8373 O   0  0  0  0  0  0  0  0  0  0  0  0
    8.5375   39.1404   34.0127 O   0  0  0  0  0  0  0  0  0  0  0  0
   10.9805   40.0889   33.6836 O   0  0  0  0  0  0  0  0  0  0  0  0
   10.8025   40.0902   32.2838 C   0  0  0  0  0  0  0  0  0  0  0  0
   11.5888   38.9175   31.7008 C   0  0  0  0  0  0  0  0  0  0  0  0
   12.9219   38.9374   32.1692 O   0  0  0  0  0  0  0  0  0  0  0  0
   11.0028   37.5683   32.0981 C   0  0  0  0  0  0  0  0  0  0  0  0
   13.3496   37.5886   32.2601 C   0  0  0  0  0  0  0  0  0  0  0  0
    9.9343   37.1823   31.2757 O   0  0  0  0  0  0  0  0  0  0  0  0
   12.1891   36.6677   31.9050 C   0  0  0  0  0  0  0  0  0  0  0  0
   13.8025   37.2965   33.6186 N   0  0  0  0  0  0  0  0  0  0  0  0
   12.2990   36.2868   30.5568 O   0  0  0  0  0  0  0  0  0  0  0  0
   14.7929   36.4725   33.9858 C   0  0  0  0  0  0  0  0  0  0  0  0
   13.2749   37.7294   34.7935 C   0  0  0  0  0  0  0  0  0  0  0  0
   15.6240   35.7580   33.1858 N   0  0  0  0  0  0  0  0  0  0  0  0
   14.8727   36.4411   35.3327 C   0  0  0  0  0  0  0  0  0  0  0  0
   13.9208   37.2263   35.8803 N   0  0  0  0  0  0  0  0  0  0  0  0
   16.5871   34.9921   33.7801 C   0  0  0  0  0  0  0  0  0  0  0  0
   15.8576   35.6718   35.9441 C   0  0  0  0  0  0  0  0  0  0  0  0
   16.7024   34.9585   35.1438 N   0  0  0  0  0  0  0  0  0  0  0  0
   16.0099   35.6384   37.3562 N   0  0  0  0  0  0  0  0  0  0  0  0
    7.6764   44.0634   34.0548 H   0  0  0  0  0  0  0  0  0  0  0  0
   10.2152   45.5880   33.8747 H   0  0  0  0  0  0  0  0  0  0  0  0
    8.6468   46.1559   34.1432 H   0  0  0  0  0  0  0  0  0  0  0  0
    9.9708   44.0645   31.9679 H   0  0  0  0  0  0  0  0  0  0  0  0
    8.4830   43.0819   31.8666 H   0  0  0  0  0  0  0  0  0  0  0  0
    8.5198   45.0961   30.3808 H   0  0  0  0  0  0  0  0  0  0  0  0
    8.5711   46.1489   31.8175 H   0  0  0  0  0  0  0  0  0  0  0  0
    6.3148   44.1799   30.9839 H   0  0  0  0  0  0  0  0  0  0  0  0
    6.3141   45.0786   32.5414 H   0  0  0  0  0  0  0  0  0  0  0  0
    6.2450   46.2893   29.7230 H   0  0  0  0  0  0  0  0  0  0  0  0
    4.9230   46.2692   30.9293 H   0  0  0  0  0  0  0  0  0  0  0  0
    6.2852   47.7535   32.4220 H   0  0  0  0  0  0  0  0  0  0  0  0
    7.8092   51.0944   29.7455 H   0  0  0  0  0  0  0  0  0  0  0  0
    9.3232   50.3169   30.3393 H   0  0  0  0  0  0  0  0  0  0  0  0
    6.4086   52.0769   31.9707 H   0  0  0  0  0  0  0  0  0  0  0  0
    6.6191   53.9098   33.5989 H   0  0  0  0  0  0  0  0  0  0  0  0
   10.8675   53.9434   33.0737 H   0  0  0  0  0  0  0  0  0  0  0  0
    8.8468   54.8222   34.1715 H   0  0  0  0  0  0  0  0  0  0  0  0
   11.2257   41.0358   31.8825 H   0  0  0  0  0  0  0  0  0  0  0  0
    9.7476   40.0332   31.9256 H   0  0  0  0  0  0  0  0  0  0  0  0
   11.5975   39.0148   30.5905 H   0  0  0  0  0  0  0  0  0  0  0  0
   10.7023   37.5457   33.1720 H   0  0  0  0  0  0  0  0  0  0  0  0
   14.1957   37.4366   31.5528 H   0  0  0  0  0  0  0  0  0  0  0  0
    9.1339   37.6658   31.6070 H   0  0  0  0  0  0  0  0  0  0  0  0
   12.1380   35.7717   32.5698 H   0  0  0  0  0  0  0  0  0  0  0  0
   11.7706   35.4530   30.4497 H   0  0  0  0  0  0  0  0  0  0  0  0
   12.4314   38.3980   34.8694 H   0  0  0  0  0  0  0  0  0  0  0  0
   17.2665   34.4140   33.1691 H   0  0  0  0  0  0  0  0  0  0  0  0
   16.7633   35.0599   37.7895 H   0  0  0  0  0  0  0  0  0  0  0  0
   15.3757   36.1868   37.9789 H   0  0  0  0  0  0  0  0  0  0  0  0
  1  2  2  0
  1  3  1  0
  3  4  1  0
  4  5  1  0
  6  1  1  0
  7  6  1  0
  6  8  1  0
  8  9  1  0
  9 10  1  0
 10 11  1  0
 11 12  1  0
 12 13  1  0
 13 14  1  0
 13 15  2  0
 14 16  1  0
 16 17  1  0
 17 18  2  0
 19 17  1  0
 18 20  1  0
 21 19  2  0
 19 22  1  0
 20 23  2  0
 23 21  1  0
 22 24  1  0
 22 25  2  0
  4 26  2  0
  4 27  1  0
 28 27  1  0
 28 29  1  0
 29 30  1  0
 29 31  1  0
 30 32  1  0
 31 33  1  0
 31 34  1  0
 34 32  1  0
 32 35  1  0
 34 36  1  0
 37 35  1  0
 38 35  1  0
 39 37  2  0
 37 40  1  0
 41 38  2  0
 42 39  1  0
 40 43  2  0
 40 41  1  0
 44 42  2  0
 44 43  1  0
 43 45  1  0
  6 46  1  6
  7 47  1  0
  7 48  1  0
  8 49  1  0
  8 50  1  0
  9 51  1  0
  9 52  1  0
 10 53  1  0
 10 54  1  0
 11 55  1  0
 11 56  1  0
 12 57  1  0
 16 58  1  0
 16 59  1  0
 18 60  1  0
 20 61  1  0
 21 62  1  0
 23 63  1  0
 28 64  1  0
 28 65  1  0
 29 66  1  0
 31 67  1  0
 32 68  1  0
 33 69  1  0
 34 70  1  0
 36 71  1  0
 38 72  1  0
 42 73  1  0
 45 74  1  0
 45 75  1  0
M  CHG  3   5  -1  22   1  24  -1
M  END
>  <EmbedRMS>  (284) 
0.0734094010604

$$$$

     RDKit          3D

 75 78  0  0  0  0  0  0  0  0999 V2000
    9.4331   42.9366   34.3464 C   0  0  0  0  0  0  0  0  0  0  0  0
   10.4907   43.0331   35.0319 O   0  0  0  0  0  0  0  0  0  0  0  0
    8.8558   41.7104   34.0304 O   0  0  0  0  0  0  0  0  0  0  0  0
    9.4931   40.2141   34.4703 P   0  0  0  0  0  0  0  0  0  0  0  0
    9.7293   40.1727   36.1313 O   0  0  0  0  0  0  0  0  0  0  0  0
    8.7505   44.1350   33.7742 C   0  0  1  0  0  0  0  0  0  0  0  0
    9.2961   45.3823   34.3134 N   0  0  0  0  0  0  0  0  0  0  0  0
    8.8892   44.0529   32.2359 C   0  0  0  0  0  0  0  0  0  0  0  0
    8.2031   45.1828   31.4618 C   0  0  0  0  0  0  0  0  0  0  0  0
    6.6656   45.1042   31.4833 C   0  0  0  0  0  0  0  0  0  0  0  0
    6.0283   46.3231   30.8085 C   0  0  0  0  0  0  0  0  0  0  0  0
    6.5048   47.5634   31.4211 N   0  0  0  0  0  0  0  0  0  0  0  0
    7.2488   48.5411   30.6837 C   0  0  0  0  0  0  0  0  0  0  0  0
    7.6365   49.7554   31.2625 O   0  0  0  0  0  0  0  0  0  0  0  0
    7.5887   48.3085   29.4943 O   0  0  0  0  0  0  0  0  0  0  0  0
    7.3449   50.1255   32.6075 C   0  0  0  0  0  0  0  0  0  0  0  0
    7.9576   51.4726   32.9064 C   0  0  0  0  0  0  0  0  0  0  0  0
    9.3188   51.6645   32.6060 C   0  0  0  0  0  0  0  0  0  0  0  0
    7.2115   52.5531   33.4479 C   0  0  0  0  0  0  0  0  0  0  0  0
    9.9207   52.9105   32.7882 C   0  0  0  0  0  0  0  0  0  0  0  0
    7.8297   53.8055   33.6039 C   0  0  0  0  0  0  0  0  0  0  0  0
    5.8484   52.3983   33.8713 N   0  0  0  0  0  0  0  0  0  0  0  0
    9.1746   53.9819   33.2758 C   0  0  0  0  0  0  0  0  0  0  0  0
    4.9532   53.4250   33.6786 O   0  0  0  0  0  0  0  0  0  0  0  0
    5.5333   51.4597   34.6317 O   0  0  0  0  0  0  0  0  0  0  0  0
    8.5366   39.1382   34.0136 O   0  0  0  0  0  0  0  0  0  0  0  0
   10.9788   40.0866   33.6873 O   0  0  0  0  0  0  0  0  0  0  0  0
   10.7993   40.0944   32.2886 C   0  0  0  0  0  0  0  0  0  0  0  0
   11.5957   38.9351   31.6994 C   0  0  0  0  0  0  0  0  0  0  0  0
   12.9257   38.9477   32.1798 O   0  0  0  0  0  0  0  0  0  0  0  0
   11.0070   37.5757   32.0732 C   0  0  0  0  0  0  0  0  0  0  0  0
   13.3571   37.5979   32.2612 C   0  0  0  0  0  0  0  0  0  0  0  0
    9.9093   37.1807   31.2875 O   0  0  0  0  0  0  0  0  0  0  0  0
   12.1967   36.6763   31.8894 C   0  0  0  0  0  0  0  0  0  0  0  0
   13.8018   37.2956   33.6197 N   0  0  0  0  0  0  0  0  0  0  0  0
   12.3049   36.2360   30.5554 O   0  0  0  0  0  0  0  0  0  0  0  0
   14.7922   36.4716   33.9864 C   0  0  0  0  0  0  0  0  0  0  0  0
   13.2747   37.7291   34.7944 C   0  0  0  0  0  0  0  0  0  0  0  0
   15.6240   35.7581   33.1861 N   0  0  0  0  0  0  0  0  0  0  0  0
   14.8721   36.4401   35.3331 C   0  0  0  0  0  0  0  0  0  0  0  0
   13.9206   37.2257   35.8810 N   0  0  0  0  0  0  0  0  0  0  0  0
   16.5873   34.9924   33.7802 C   0  0  0  0  0  0  0  0  0  0  0  0
   15.8576   35.6714   35.9444 C   0  0  0  0  0  0  0  0  0  0  0  0
   16.7026   34.9585   35.1439 N   0  0  0  0  0  0  0  0  0  0  0  0
   16.0102   35.6382   37.3564 N   0  0  0  0  0  0  0  0  0  0  0  0
    7.6768   44.0710   34.0502 H   0  0  0  0  0  0  0  0  0  0  0  0
   10.3190   45.4410   34.1002 H   0  0  0  0  0  0  0  0  0  0  0  0
    9.1823   45.3825   35.3535 H   0  0  0  0  0  0  0  0  0  0  0  0
    9.9711   44.0682   31.9742 H   0  0  0  0  0  0  0  0  0  0  0  0
    8.4815   43.0853   31.8668 H   0  0  0  0  0  0  0  0  0  0  0  0
    8.5541   46.1514   31.8760 H   0  0  0  0  0  0  0  0  0  0  0  0
    8.5403   45.1381   30.4030 H   0  0  0  0  0  0  0  0  0  0  0  0
    6.3313   44.1802   30.9636 H   0  0  0  0  0  0  0  0  0  0  0  0
    6.3006   45.0620   32.5305 H   0  0  0  0  0  0  0  0  0  0  0  0
    4.9245   46.2665   30.9214 H   0  0  0  0  0  0  0  0  0  0  0  0
    6.2501   46.2920   29.7203 H   0  0  0  0  0  0  0  0  0  0  0  0
    6.2720   47.7257   32.4255 H   0  0  0  0  0  0  0  0  0  0  0  0
    7.7847   49.3775   33.3021 H   0  0  0  0  0  0  0  0  0  0  0  0
    6.2445   50.1322   32.7339 H   0  0  0  0  0  0  0  0  0  0  0  0
    9.9124   50.8488   32.2111 H   0  0  0  0  0  0  0  0  0  0  0  0
   10.9661   53.0471   32.5432 H   0  0  0  0  0  0  0  0  0  0  0  0
    7.2739   54.6420   34.0086 H   0  0  0  0  0  0  0  0  0  0  0  0
    9.6423   54.9485   33.4120 H   0  0  0  0  0  0  0  0  0  0  0  0
   11.2094   41.0479   31.8921 H   0  0  0  0  0  0  0  0  0  0  0  0
    9.7448   40.0200   31.9304 H   0  0  0  0  0  0  0  0  0  0  0  0
   11.6206   39.0685   30.5942 H   0  0  0  0  0  0  0  0  0  0  0  0
   10.7059   37.5563   33.1438 H   0  0  0  0  0  0  0  0  0  0  0  0
   14.2095   37.4543   31.5601 H   0  0  0  0  0  0  0  0  0  0  0  0
   10.0865   37.4209   30.3413 H   0  0  0  0  0  0  0  0  0  0  0  0
   12.1276   35.7872   32.5549 H   0  0  0  0  0  0  0  0  0  0  0  0
   12.5031   37.0109   29.9672 H   0  0  0  0  0  0  0  0  0  0  0  0
   12.4328   38.3996   34.8703 H   0  0  0  0  0  0  0  0  0  0  0  0
   17.2670   34.4149   33.1691 H   0  0  0  0  0  0  0  0  0  0  0  0
   15.3758   36.1862   37.9791 H   0  0  0  0  0  0  0  0  0  0  0  0
   16.7640   35.0601   37.7896 H   0  0  0  0  0  0  0  0  0  0  0  0
  1  2  2  0
  1  3  1  0
  3  4  1  0
  4  5  1  0
  6  1  1  0
  7  6  1  0
  6  8  1  0
  8  9  1  0
  9 10  1  0
 10 11  1  0
 11 12  1  0
 12 13  1  0
 13 14  1  0
 13 15  2  0
 14 16  1  0
 16 17  1  0
 17 18  2  0
 19 17  1  0
 18 20  1  0
 21 19  2  0
 19 22  1  0
 20 23  2  0
 23 21  1  0
 22 24  1  0
 22 25  2  0
  4 26  2  0
  4 27  1  0
 28 27  1  0
 28 29  1  0
 29 30  1  0
 29 31  1  0
 30 32  1  0
 31 33  1  0
 31 34  1  0
 34 32  1  0
 32 35  1  0
 34 36  1  0
 37 35  1  0
 38 35  1  0
 39 37  2  0
 37 40  1  0
 41 38  2  0
 42 39  1  0
 40 43  2  0
 40 41  1  0
 44 42  2  0
 44 43  1  0
 43 45  1  0
  6 46  1  6
  7 47  1  0
  7 48  1  0
  8 49  1  0
  8 50  1  0
  9 51  1  0
  9 52  1  0
 10 53  1  0
 10 54  1  0
 11 55  1  0
 11 56  1  0
 12 57  1  0
 16 58  1  0
 16 59  1  0
 18 60  1  0
 20 61  1  0
 21 62  1  0
 23 63  1  0
 28 64  1  0
 28 65  1  0
 29 66  1  0
 31 67  1  0
 32 68  1  0
 33 69  1  0
 34 70  1  0
 36 71  1  0
 38 72  1  0
 42 73  1  0
 45 74  1  0
 45 75  1  0
M  CHG  3   5  -1  22   1  24  -1
M  END
>  <EmbedRMS>  (285) 
0.0762577064588

$$$$

     RDKit          3D

 75 78  0  0  0  0  0  0  0  0999 V2000
    9.4300   42.9398   34.3431 C   0  0  0  0  0  0  0  0  0  0  0  0
   10.4912   43.0382   35.0233 O   0  0  0  0  0  0  0  0  0  0  0  0
    8.8545   41.7120   34.0284 O   0  0  0  0  0  0  0  0  0  0  0  0
    9.4942   40.2158   34.4672 P   0  0  0  0  0  0  0  0  0  0  0  0
    9.7315   40.1739   36.1283 O   0  0  0  0  0  0  0  0  0  0  0  0
    8.7416   44.1385   33.7783 C   0  0  1  0  0  0  0  0  0  0  0  0
    9.3028   45.3723   34.3320 N   0  0  0  0  0  0  0  0  0  0  0  0
    8.8964   44.0601   32.2395 C   0  0  0  0  0  0  0  0  0  0  0  0
    8.2020   45.1694   31.4399 C   0  0  0  0  0  0  0  0  0  0  0  0
    6.6646   45.1067   31.4907 C   0  0  0  0  0  0  0  0  0  0  0  0
    6.0257   46.3217   30.8104 C   0  0  0  0  0  0  0  0  0  0  0  0
    6.5014   47.5649   31.4169 N   0  0  0  0  0  0  0  0  0  0  0  0
    7.2512   48.5342   30.6876 C   0  0  0  0  0  0  0  0  0  0  0  0
    7.6434   49.7154   31.3291 O   0  0  0  0  0  0  0  0  0  0  0  0
    7.5931   48.3102   29.4948 O   0  0  0  0  0  0  0  0  0  0  0  0
    8.5054   50.6845   30.7306 C   0  0  0  0  0  0  0  0  0  0  0  0
    9.9783   50.3398   30.8767 C   0  0  0  0  0  0  0  0  0  0  0  0
   10.3763   49.1442   31.5153 C   0  0  0  0  0  0  0  0  0  0  0  0
   10.9851   51.2435   30.4316 C   0  0  0  0  0  0  0  0  0  0  0  0
   11.7262   48.8407   31.6918 C   0  0  0  0  0  0  0  0  0  0  0  0
   12.3388   50.9214   30.6354 C   0  0  0  0  0  0  0  0  0  0  0  0
   10.6652   52.5025   29.8098 N   0  0  0  0  0  0  0  0  0  0  0  0
   12.7052   49.7266   31.2526 C   0  0  0  0  0  0  0  0  0  0  0  0
   11.5038   53.5807   29.9765 O   0  0  0  0  0  0  0  0  0  0  0  0
    9.7358   52.5911   28.9823 O   0  0  0  0  0  0  0  0  0  0  0  0
    8.5375   39.1392   34.0123 O   0  0  0  0  0  0  0  0  0  0  0  0
   10.9794   40.0898   33.6813 O   0  0  0  0  0  0  0  0  0  0  0  0
   10.7981   40.0850   32.2816 C   0  0  0  0  0  0  0  0  0  0  0  0
   11.5886   38.9143   31.7009 C   0  0  0  0  0  0  0  0  0  0  0  0
   12.9213   38.9368   32.1699 O   0  0  0  0  0  0  0  0  0  0  0  0
   11.0047   37.5661   32.0991 C   0  0  0  0  0  0  0  0  0  0  0  0
   13.3510   37.5885   32.2601 C   0  0  0  0  0  0  0  0  0  0  0  0
    9.9295   37.1961   31.2780 O   0  0  0  0  0  0  0  0  0  0  0  0
   12.1923   36.6659   31.9047 C   0  0  0  0  0  0  0  0  0  0  0  0
   13.8033   37.2967   33.6188 N   0  0  0  0  0  0  0  0  0  0  0  0
   12.3006   36.2865   30.5562 O   0  0  0  0  0  0  0  0  0  0  0  0
   14.7933   36.4724   33.9860 C   0  0  0  0  0  0  0  0  0  0  0  0
   13.2753   37.7296   34.7935 C   0  0  0  0  0  0  0  0  0  0  0  0
   15.6243   35.7579   33.1860 N   0  0  0  0  0  0  0  0  0  0  0  0
   14.8728   36.4410   35.3328 C   0  0  0  0  0  0  0  0  0  0  0  0
   13.9209   37.2263   35.8804 N   0  0  0  0  0  0  0  0  0  0  0  0
   16.5873   34.9919   33.7803 C   0  0  0  0  0  0  0  0  0  0  0  0
   15.8577   35.6717   35.9443 C   0  0  0  0  0  0  0  0  0  0  0  0
   16.7025   34.9583   35.1440 N   0  0  0  0  0  0  0  0  0  0  0  0
   16.0100   35.6384   37.3563 N   0  0  0  0  0  0  0  0  0  0  0  0
    7.6672   44.0667   34.0545 H   0  0  0  0  0  0  0  0  0  0  0  0
    8.6847   46.1685   34.0560 H   0  0  0  0  0  0  0  0  0  0  0  0
    9.2326   45.3290   35.3753 H   0  0  0  0  0  0  0  0  0  0  0  0
    9.9811   44.0926   31.9910 H   0  0  0  0  0  0  0  0  0  0  0  0
    8.5091   43.0846   31.8690 H   0  0  0  0  0  0  0  0  0  0  0  0
    8.5748   46.1515   31.7926 H   0  0  0  0  0  0  0  0  0  0  0  0
    8.5156   45.0775   30.3769 H   0  0  0  0  0  0  0  0  0  0  0  0
    6.3124   44.1778   30.9920 H   0  0  0  0  0  0  0  0  0  0  0  0
    6.3176   45.0849   32.5444 H   0  0  0  0  0  0  0  0  0  0  0  0
    6.2474   46.2869   29.7221 H   0  0  0  0  0  0  0  0  0  0  0  0
    4.9222   46.2650   30.9247 H   0  0  0  0  0  0  0  0  0  0  0  0
    6.2802   47.7520   32.4208 H   0  0  0  0  0  0  0  0  0  0  0  0
    8.3232   51.6576   31.2334 H   0  0  0  0  0  0  0  0  0  0  0  0
    8.2384   50.7958   29.6588 H   0  0  0  0  0  0  0  0  0  0  0  0
    9.6524   48.4402   31.8987 H   0  0  0  0  0  0  0  0  0  0  0  0
   12.0131   47.9184   32.1807 H   0  0  0  0  0  0  0  0  0  0  0  0
   13.1176   51.5963   30.3034 H   0  0  0  0  0  0  0  0  0  0  0  0
   13.7517   49.4901   31.3959 H   0  0  0  0  0  0  0  0  0  0  0  0
   11.2130   41.0321   31.8751 H   0  0  0  0  0  0  0  0  0  0  0  0
    9.7426   40.0141   31.9263 H   0  0  0  0  0  0  0  0  0  0  0  0
   11.5981   39.0107   30.5904 H   0  0  0  0  0  0  0  0  0  0  0  0
   10.7008   37.5603   33.1721 H   0  0  0  0  0  0  0  0  0  0  0  0
   14.1976   37.4380   31.5532 H   0  0  0  0  0  0  0  0  0  0  0  0
    9.5180   36.3961   31.6978 H   0  0  0  0  0  0  0  0  0  0  0  0
   12.1418   35.7698   32.5692 H   0  0  0  0  0  0  0  0  0  0  0  0
   11.7729   35.4524   30.4489 H   0  0  0  0  0  0  0  0  0  0  0  0
   12.4321   38.3985   34.8692 H   0  0  0  0  0  0  0  0  0  0  0  0
   17.2667   34.4138   33.1694 H   0  0  0  0  0  0  0  0  0  0  0  0
   16.7634   35.0598   37.7897 H   0  0  0  0  0  0  0  0  0  0  0  0
   15.3757   36.1867   37.9790 H   0  0  0  0  0  0  0  0  0  0  0  0
  1  2  2  0
  1  3  1  0
  3  4  1  0
  4  5  1  0
  6  1  1  0
  7  6  1  0
  6  8  1  0
  8  9  1  0
  9 10  1  0
 10 11  1  0
 11 12  1  0
 12 13  1  0
 13 14  1  0
 13 15  2  0
 14 16  1  0
 16 17  1  0
 17 18  2  0
 19 17  1  0
 18 20  1  0
 21 19  2  0
 19 22  1  0
 20 23  2  0
 23 21  1  0
 22 24  1  0
 22 25  2  0
  4 26  2  0
  4 27  1  0
 28 27  1  0
 28 29  1  0
 29 30  1  0
 29 31  1  0
 30 32  1  0
 31 33  1  0
 31 34  1  0
 34 32  1  0
 32 35  1  0
 34 36  1  0
 37 35  1  0
 38 35  1  0
 39 37  2  0
 37 40  1  0
 41 38  2  0
 42 39  1  0
 40 43  2  0
 40 41  1  0
 44 42  2  0
 44 43  1  0
 43 45  1  0
  6 46  1  6
  7 47  1  0
  7 48  1  0
  8 49  1  0
  8 50  1  0
  9 51  1  0
  9 52  1  0
 10 53  1  0
 10 54  1  0
 11 55  1  0
 11 56  1  0
 12 57  1  0
 16 58  1  0
 16 59  1  0
 18 60  1  0
 20 61  1  0
 21 62  1  0
 23 63  1  0
 28 64  1  0
 28 65  1  0
 29 66  1  0
 31 67  1  0
 32 68  1  0
 33 69  1  0
 34 70  1  0
 36 71  1  0
 38 72  1  0
 42 73  1  0
 45 74  1  0
 45 75  1  0
M  CHG  3   5  -1  22   1  24  -1
M  END
>  <EmbedRMS>  (286) 
0.0740107054427

$$$$

     RDKit          3D

 75 78  0  0  0  0  0  0  0  0999 V2000
    9.4328   42.9361   34.3461 C   0  0  0  0  0  0  0  0  0  0  0  0
   10.4905   43.0330   35.0315 O   0  0  0  0  0  0  0  0  0  0  0  0
    8.8554   41.7100   34.0307 O   0  0  0  0  0  0  0  0  0  0  0  0
    9.4930   40.2140   34.4706 P   0  0  0  0  0  0  0  0  0  0  0  0
    9.7296   40.1727   36.1315 O   0  0  0  0  0  0  0  0  0  0  0  0
    8.7499   44.1338   33.7738 C   0  0  1  0  0  0  0  0  0  0  0  0
    9.2941   45.3801   34.3142 N   0  0  0  0  0  0  0  0  0  0  0  0
    8.8901   44.0536   32.2359 C   0  0  0  0  0  0  0  0  0  0  0  0
    8.2043   45.1846   31.4634 C   0  0  0  0  0  0  0  0  0  0  0  0
    6.6669   45.1047   31.4841 C   0  0  0  0  0  0  0  0  0  0  0  0
    6.0290   46.3243   30.8116 C   0  0  0  0  0  0  0  0  0  0  0  0
    6.5105   47.5637   31.4220 N   0  0  0  0  0  0  0  0  0  0  0  0
    7.2396   48.5462   30.6780 C   0  0  0  0  0  0  0  0  0  0  0  0
    7.5899   49.7828   31.2358 O   0  0  0  0  0  0  0  0  0  0  0  0
    7.5906   48.3046   29.4938 O   0  0  0  0  0  0  0  0  0  0  0  0
    7.3108   50.1859   32.5768 C   0  0  0  0  0  0  0  0  0  0  0  0
    8.1868   49.4544   33.5719 C   0  0  0  0  0  0  0  0  0  0  0  0
    9.5391   49.2338   33.2459 C   0  0  0  0  0  0  0  0  0  0  0  0
    7.7300   49.1148   34.8723 C   0  0  0  0  0  0  0  0  0  0  0  0
   10.4150   48.6689   34.1739 C   0  0  0  0  0  0  0  0  0  0  0  0
    8.6311   48.5619   35.7982 C   0  0  0  0  0  0  0  0  0  0  0  0
    6.3767   49.3547   35.2842 N   0  0  0  0  0  0  0  0  0  0  0  0
    9.9632   48.3384   35.4495 C   0  0  0  0  0  0  0  0  0  0  0  0
    5.3371   48.7562   34.6118 O   0  0  0  0  0  0  0  0  0  0  0  0
    6.1522   49.8794   36.3943 O   0  0  0  0  0  0  0  0  0  0  0  0
    8.5367   39.1379   34.0140 O   0  0  0  0  0  0  0  0  0  0  0  0
   10.9785   40.0882   33.6869 O   0  0  0  0  0  0  0  0  0  0  0  0
   10.7974   40.0895   32.2883 C   0  0  0  0  0  0  0  0  0  0  0  0
   11.5882   38.9234   31.7043 C   0  0  0  0  0  0  0  0  0  0  0  0
   12.9230   38.9440   32.1728 O   0  0  0  0  0  0  0  0  0  0  0  0
   11.0048   37.5703   32.0916 C   0  0  0  0  0  0  0  0  0  0  0  0
   13.3570   37.5960   32.2595 C   0  0  0  0  0  0  0  0  0  0  0  0
    9.9332   37.1986   31.2676 O   0  0  0  0  0  0  0  0  0  0  0  0
   12.1965   36.6751   31.8949 C   0  0  0  0  0  0  0  0  0  0  0  0
   13.8037   37.2979   33.6187 N   0  0  0  0  0  0  0  0  0  0  0  0
   12.2934   36.2389   30.5581 O   0  0  0  0  0  0  0  0  0  0  0  0
   14.7929   36.4726   33.9860 C   0  0  0  0  0  0  0  0  0  0  0  0
   13.2755   37.7304   34.7934 C   0  0  0  0  0  0  0  0  0  0  0  0
   15.6244   35.7585   33.1859 N   0  0  0  0  0  0  0  0  0  0  0  0
   14.8722   36.4406   35.3328 C   0  0  0  0  0  0  0  0  0  0  0  0
   13.9205   37.2262   35.8803 N   0  0  0  0  0  0  0  0  0  0  0  0
   16.5872   34.9923   33.7802 C   0  0  0  0  0  0  0  0  0  0  0  0
   15.8573   35.6715   35.9442 C   0  0  0  0  0  0  0  0  0  0  0  0
   16.7023   34.9584   35.1439 N   0  0  0  0  0  0  0  0  0  0  0  0
   16.0098   35.6384   37.3563 N   0  0  0  0  0  0  0  0  0  0  0  0
    7.6761   44.0692   34.0491 H   0  0  0  0  0  0  0  0  0  0  0  0
    9.1791   45.3790   35.3541 H   0  0  0  0  0  0  0  0  0  0  0  0
   10.3171   45.4405   34.1017 H   0  0  0  0  0  0  0  0  0  0  0  0
    8.4831   43.0863   31.8652 H   0  0  0  0  0  0  0  0  0  0  0  0
    9.9722   44.0699   31.9753 H   0  0  0  0  0  0  0  0  0  0  0  0
    8.5423   45.1423   30.4048 H   0  0  0  0  0  0  0  0  0  0  0  0
    8.5548   46.1526   31.8803 H   0  0  0  0  0  0  0  0  0  0  0  0
    6.3018   45.0612   32.5312 H   0  0  0  0  0  0  0  0  0  0  0  0
    6.3331   44.1813   30.9631 H   0  0  0  0  0  0  0  0  0  0  0  0
    4.9258   46.2696   30.9302 H   0  0  0  0  0  0  0  0  0  0  0  0
    6.2456   46.2926   29.7224 H   0  0  0  0  0  0  0  0  0  0  0  0
    6.2959   47.7197   32.4295 H   0  0  0  0  0  0  0  0  0  0  0  0
    7.5407   51.2685   32.6612 H   0  0  0  0  0  0  0  0  0  0  0  0
    6.2282   50.0759   32.7778 H   0  0  0  0  0  0  0  0  0  0  0  0
    9.9239   49.5142   32.2733 H   0  0  0  0  0  0  0  0  0  0  0  0
   11.4502   48.4996   33.9070 H   0  0  0  0  0  0  0  0  0  0  0  0
    8.2957   48.2984   36.7936 H   0  0  0  0  0  0  0  0  0  0  0  0
   10.6457   47.9058   36.1696 H   0  0  0  0  0  0  0  0  0  0  0  0
    9.7422   40.0187   31.9315 H   0  0  0  0  0  0  0  0  0  0  0  0
   11.2114   41.0390   31.8863 H   0  0  0  0  0  0  0  0  0  0  0  0
   11.5931   39.0396   30.5966 H   0  0  0  0  0  0  0  0  0  0  0  0
   10.6986   37.5585   33.1640 H   0  0  0  0  0  0  0  0  0  0  0  0
   14.2072   37.4492   31.5564 H   0  0  0  0  0  0  0  0  0  0  0  0
    9.5321   36.3881   31.6771 H   0  0  0  0  0  0  0  0  0  0  0  0
   12.1344   35.7838   32.5583 H   0  0  0  0  0  0  0  0  0  0  0  0
   12.4641   37.0179   29.9674 H   0  0  0  0  0  0  0  0  0  0  0  0
   12.4333   38.4005   34.8692 H   0  0  0  0  0  0  0  0  0  0  0  0
   17.2668   34.4144   33.1692 H   0  0  0  0  0  0  0  0  0  0  0  0
   15.3755   36.1866   37.9789 H   0  0  0  0  0  0  0  0  0  0  0  0
   16.7634   35.0600   37.7896 H   0  0  0  0  0  0  0  0  0  0  0  0
  1  2  2  0
  1  3  1  0
  3  4  1  0
  4  5  1  0
  6  1  1  0
  7  6  1  0
  6  8  1  0
  8  9  1  0
  9 10  1  0
 10 11  1  0
 11 12  1  0
 12 13  1  0
 13 14  1  0
 13 15  2  0
 14 16  1  0
 16 17  1  0
 17 18  2  0
 19 17  1  0
 18 20  1  0
 21 19  2  0
 19 22  1  0
 20 23  2  0
 23 21  1  0
 22 24  1  0
 22 25  2  0
  4 26  2  0
  4 27  1  0
 28 27  1  0
 28 29  1  0
 29 30  1  0
 29 31  1  0
 30 32  1  0
 31 33  1  0
 31 34  1  0
 34 32  1  0
 32 35  1  0
 34 36  1  0
 37 35  1  0
 38 35  1  0
 39 37  2  0
 37 40  1  0
 41 38  2  0
 42 39  1  0
 40 43  2  0
 40 41  1  0
 44 42  2  0
 44 43  1  0
 43 45  1  0
  6 46  1  6
  7 47  1  0
  7 48  1  0
  8 49  1  0
  8 50  1  0
  9 51  1  0
  9 52  1  0
 10 53  1  0
 10 54  1  0
 11 55  1  0
 11 56  1  0
 12 57  1  0
 16 58  1  0
 16 59  1  0
 18 60  1  0
 20 61  1  0
 21 62  1  0
 23 63  1  0
 28 64  1  0
 28 65  1  0
 29 66  1  0
 31 67  1  0
 32 68  1  0
 33 69  1  0
 34 70  1  0
 36 71  1  0
 38 72  1  0
 42 73  1  0
 45 74  1  0
 45 75  1  0
M  CHG  3   5  -1  22   1  24  -1
M  END
>  <EmbedRMS>  (287) 
0.0757424996963

$$$$

     RDKit          3D

 75 78  0  0  0  0  0  0  0  0999 V2000
    9.4312   42.9411   34.3439 C   0  0  0  0  0  0  0  0  0  0  0  0
   10.4886   43.0410   35.0294 O   0  0  0  0  0  0  0  0  0  0  0  0
    8.8558   41.7128   34.0296 O   0  0  0  0  0  0  0  0  0  0  0  0
    9.4933   40.2162   34.4702 P   0  0  0  0  0  0  0  0  0  0  0  0
    9.7295   40.1742   36.1312 O   0  0  0  0  0  0  0  0  0  0  0  0
    8.7484   44.1359   33.7721 C   0  0  1  0  0  0  0  0  0  0  0  0
    9.3039   45.3664   34.3388 N   0  0  0  0  0  0  0  0  0  0  0  0
    8.8892   44.0518   32.2309 C   0  0  0  0  0  0  0  0  0  0  0  0
    8.2015   45.1720   31.4435 C   0  0  0  0  0  0  0  0  0  0  0  0
    6.6643   45.1065   31.4886 C   0  0  0  0  0  0  0  0  0  0  0  0
    6.0267   46.3237   30.8122 C   0  0  0  0  0  0  0  0  0  0  0  0
    6.5084   47.5645   31.4189 N   0  0  0  0  0  0  0  0  0  0  0  0
    7.2422   48.5408   30.6825 C   0  0  0  0  0  0  0  0  0  0  0  0
    7.5889   49.7446   31.3053 O   0  0  0  0  0  0  0  0  0  0  0  0
    7.5939   48.3102   29.4941 O   0  0  0  0  0  0  0  0  0  0  0  0
    8.2831   50.8025   30.6464 C   0  0  0  0  0  0  0  0  0  0  0  0
    7.3802   51.5013   29.6564 C   0  0  0  0  0  0  0  0  0  0  0  0
    7.5792   51.2616   28.2840 C   0  0  0  0  0  0  0  0  0  0  0  0
    6.3707   52.4192   30.0613 C   0  0  0  0  0  0  0  0  0  0  0  0
    6.7991   51.9089   27.3258 C   0  0  0  0  0  0  0  0  0  0  0  0
    5.6064   53.0704   29.0759 C   0  0  0  0  0  0  0  0  0  0  0  0
    6.1250   52.7328   31.4458 N   0  0  0  0  0  0  0  0  0  0  0  0
    5.8158   52.8125   27.7208 C   0  0  0  0  0  0  0  0  0  0  0  0
    5.6158   53.9641   31.7901 O   0  0  0  0  0  0  0  0  0  0  0  0
    6.2196   51.8581   32.3301 O   0  0  0  0  0  0  0  0  0  0  0  0
    8.5368   39.1399   34.0139 O   0  0  0  0  0  0  0  0  0  0  0  0
   10.9789   40.0874   33.6872 O   0  0  0  0  0  0  0  0  0  0  0  0
   10.7993   40.0946   32.2884 C   0  0  0  0  0  0  0  0  0  0  0  0
   11.5957   38.9351   31.6994 C   0  0  0  0  0  0  0  0  0  0  0  0
   12.9257   38.9478   32.1798 O   0  0  0  0  0  0  0  0  0  0  0  0
   11.0070   37.5758   32.0732 C   0  0  0  0  0  0  0  0  0  0  0  0
   13.3571   37.5980   32.2612 C   0  0  0  0  0  0  0  0  0  0  0  0
    9.9093   37.1808   31.2875 O   0  0  0  0  0  0  0  0  0  0  0  0
   12.1967   36.6764   31.8894 C   0  0  0  0  0  0  0  0  0  0  0  0
   13.8018   37.2956   33.6197 N   0  0  0  0  0  0  0  0  0  0  0  0
   12.3048   36.2360   30.5555 O   0  0  0  0  0  0  0  0  0  0  0  0
   14.7922   36.4716   33.9864 C   0  0  0  0  0  0  0  0  0  0  0  0
   13.2747   37.7291   34.7944 C   0  0  0  0  0  0  0  0  0  0  0  0
   15.6240   35.7582   33.1861 N   0  0  0  0  0  0  0  0  0  0  0  0
   14.8721   36.4402   35.3331 C   0  0  0  0  0  0  0  0  0  0  0  0
   13.9206   37.2257   35.8810 N   0  0  0  0  0  0  0  0  0  0  0  0
   16.5873   34.9924   33.7802 C   0  0  0  0  0  0  0  0  0  0  0  0
   15.8576   35.6714   35.9444 C   0  0  0  0  0  0  0  0  0  0  0  0
   16.7026   34.9585   35.1439 N   0  0  0  0  0  0  0  0  0  0  0  0
   16.0102   35.6382   37.3564 N   0  0  0  0  0  0  0  0  0  0  0  0
    7.6764   44.0634   34.0547 H   0  0  0  0  0  0  0  0  0  0  0  0
   10.2152   45.5879   33.8747 H   0  0  0  0  0  0  0  0  0  0  0  0
    8.6468   46.1558   34.1430 H   0  0  0  0  0  0  0  0  0  0  0  0
    9.9708   44.0641   31.9680 H   0  0  0  0  0  0  0  0  0  0  0  0
    8.4830   43.0817   31.8667 H   0  0  0  0  0  0  0  0  0  0  0  0
    8.5714   46.1486   31.8173 H   0  0  0  0  0  0  0  0  0  0  0  0
    8.5198   45.0957   30.3807 H   0  0  0  0  0  0  0  0  0  0  0  0
    6.3142   45.0783   32.5413 H   0  0  0  0  0  0  0  0  0  0  0  0
    6.3147   44.1801   30.9835 H   0  0  0  0  0  0  0  0  0  0  0  0
    4.9234   46.2700   30.9301 H   0  0  0  0  0  0  0  0  0  0  0  0
    6.2447   46.2897   29.7232 H   0  0  0  0  0  0  0  0  0  0  0  0
    6.2858   47.7540   32.4220 H   0  0  0  0  0  0  0  0  0  0  0  0
    9.1915   50.3943   30.1508 H   0  0  0  0  0  0  0  0  0  0  0  0
    8.6429   51.5330   31.4009 H   0  0  0  0  0  0  0  0  0  0  0  0
    8.3451   50.5719   27.9512 H   0  0  0  0  0  0  0  0  0  0  0  0
    6.9618   51.7130   26.2738 H   0  0  0  0  0  0  0  0  0  0  0  0
    4.8337   53.7742   29.3581 H   0  0  0  0  0  0  0  0  0  0  0  0
    5.2144   53.3163   26.9751 H   0  0  0  0  0  0  0  0  0  0  0  0
   11.2092   41.0481   31.8916 H   0  0  0  0  0  0  0  0  0  0  0  0
    9.7448   40.0200   31.9304 H   0  0  0  0  0  0  0  0  0  0  0  0
   11.6207   39.0685   30.5942 H   0  0  0  0  0  0  0  0  0  0  0  0
   10.7059   37.5564   33.1439 H   0  0  0  0  0  0  0  0  0  0  0  0
   14.2095   37.4543   31.5601 H   0  0  0  0  0  0  0  0  0  0  0  0
   10.0864   37.4210   30.3413 H   0  0  0  0  0  0  0  0  0  0  0  0
   12.1275   35.7872   32.5550 H   0  0  0  0  0  0  0  0  0  0  0  0
   12.5031   37.0109   29.9673 H   0  0  0  0  0  0  0  0  0  0  0  0
   12.4328   38.3996   34.8703 H   0  0  0  0  0  0  0  0  0  0  0  0
   17.2670   34.4149   33.1690 H   0  0  0  0  0  0  0  0  0  0  0  0
   16.7640   35.0601   37.7896 H   0  0  0  0  0  0  0  0  0  0  0  0
   15.3758   36.1862   37.9792 H   0  0  0  0  0  0  0  0  0  0  0  0
  1  2  2  0
  1  3  1  0
  3  4  1  0
  4  5  1  0
  6  1  1  0
  7  6  1  0
  6  8  1  0
  8  9  1  0
  9 10  1  0
 10 11  1  0
 11 12  1  0
 12 13  1  0
 13 14  1  0
 13 15  2  0
 14 16  1  0
 16 17  1  0
 17 18  2  0
 19 17  1  0
 18 20  1  0
 21 19  2  0
 19 22  1  0
 20 23  2  0
 23 21  1  0
 22 24  1  0
 22 25  2  0
  4 26  2  0
  4 27  1  0
 28 27  1  0
 28 29  1  0
 29 30  1  0
 29 31  1  0
 30 32  1  0
 31 33  1  0
 31 34  1  0
 34 32  1  0
 32 35  1  0
 34 36  1  0
 37 35  1  0
 38 35  1  0
 39 37  2  0
 37 40  1  0
 41 38  2  0
 42 39  1  0
 40 43  2  0
 40 41  1  0
 44 42  2  0
 44 43  1  0
 43 45  1  0
  6 46  1  6
  7 47  1  0
  7 48  1  0
  8 49  1  0
  8 50  1  0
  9 51  1  0
  9 52  1  0
 10 53  1  0
 10 54  1  0
 11 55  1  0
 11 56  1  0
 12 57  1  0
 16 58  1  0
 16 59  1  0
 18 60  1  0
 20 61  1  0
 21 62  1  0
 23 63  1  0
 28 64  1  0
 28 65  1  0
 29 66  1  0
 31 67  1  0
 32 68  1  0
 33 69  1  0
 34 70  1  0
 36 71  1  0
 38 72  1  0
 42 73  1  0
 45 74  1  0
 45 75  1  0
M  CHG  3   5  -1  22   1  24  -1
M  END
>  <EmbedRMS>  (288) 
0.0753212460621

$$$$

     RDKit          3D

 75 78  0  0  0  0  0  0  0  0999 V2000
    9.4333   42.9368   34.3463 C   0  0  0  0  0  0  0  0  0  0  0  0
   10.4908   43.0333   35.0318 O   0  0  0  0  0  0  0  0  0  0  0  0
    8.8559   41.7106   34.0305 O   0  0  0  0  0  0  0  0  0  0  0  0
    9.4931   40.2144   34.4708 P   0  0  0  0  0  0  0  0  0  0  0  0
    9.7288   40.1730   36.1318 O   0  0  0  0  0  0  0  0  0  0  0  0
    8.7507   44.1352   33.7741 C   0  0  1  0  0  0  0  0  0  0  0  0
    9.2964   45.3825   34.3132 N   0  0  0  0  0  0  0  0  0  0  0  0
    8.8893   44.0533   32.2358 C   0  0  0  0  0  0  0  0  0  0  0  0
    8.2026   45.1831   31.4617 C   0  0  0  0  0  0  0  0  0  0  0  0
    6.6651   45.1047   31.4852 C   0  0  0  0  0  0  0  0  0  0  0  0
    6.0260   46.3221   30.8094 C   0  0  0  0  0  0  0  0  0  0  0  0
    6.5036   47.5640   31.4171 N   0  0  0  0  0  0  0  0  0  0  0  0
    7.2500   48.5351   30.6866 C   0  0  0  0  0  0  0  0  0  0  0  0
    7.6307   49.7194   31.3223 O   0  0  0  0  0  0  0  0  0  0  0  0
    7.5910   48.3129   29.4932 O   0  0  0  0  0  0  0  0  0  0  0  0
    8.4280   50.7124   30.6862 C   0  0  0  0  0  0  0  0  0  0  0  0
    8.7222   51.8203   31.6632 C   0  0  0  0  0  0  0  0  0  0  0  0
    7.9350   52.9851   31.6147 C   0  0  0  0  0  0  0  0  0  0  0  0
    9.7799   51.7349   32.6079 C   0  0  0  0  0  0  0  0  0  0  0  0
    8.1963   54.0574   32.4684 C   0  0  0  0  0  0  0  0  0  0  0  0
   10.0353   52.8345   33.4485 C   0  0  0  0  0  0  0  0  0  0  0  0
   10.6072   50.5616   32.7203 N   0  0  0  0  0  0  0  0  0  0  0  0
    9.2474   53.9843   33.3799 C   0  0  0  0  0  0  0  0  0  0  0  0
   10.0609   49.3033   32.6195 O   0  0  0  0  0  0  0  0  0  0  0  0
   11.7995   50.6693   33.0746 O   0  0  0  0  0  0  0  0  0  0  0  0
    8.5366   39.1387   34.0140 O   0  0  0  0  0  0  0  0  0  0  0  0
   10.9794   40.0875   33.6890 O   0  0  0  0  0  0  0  0  0  0  0  0
   10.8017   40.0947   32.2902 C   0  0  0  0  0  0  0  0  0  0  0  0
   11.5885   38.9266   31.7041 C   0  0  0  0  0  0  0  0  0  0  0  0
   12.9237   38.9445   32.1721 O   0  0  0  0  0  0  0  0  0  0  0  0
   11.0029   37.5726   32.0908 C   0  0  0  0  0  0  0  0  0  0  0  0
   13.3555   37.5960   32.2594 C   0  0  0  0  0  0  0  0  0  0  0  0
    9.9380   37.1846   31.2656 O   0  0  0  0  0  0  0  0  0  0  0  0
   12.1932   36.6769   31.8952 C   0  0  0  0  0  0  0  0  0  0  0  0
   13.8028   37.2977   33.6186 N   0  0  0  0  0  0  0  0  0  0  0  0
   12.2918   36.2396   30.5587 O   0  0  0  0  0  0  0  0  0  0  0  0
   14.7926   36.4727   33.9858 C   0  0  0  0  0  0  0  0  0  0  0  0
   13.2750   37.7302   34.7935 C   0  0  0  0  0  0  0  0  0  0  0  0
   15.6241   35.7586   33.1857 N   0  0  0  0  0  0  0  0  0  0  0  0
   14.8721   36.4408   35.3326 C   0  0  0  0  0  0  0  0  0  0  0  0
   13.9204   37.2263   35.8802 N   0  0  0  0  0  0  0  0  0  0  0  0
   16.5870   34.9924   33.7800 C   0  0  0  0  0  0  0  0  0  0  0  0
   15.8572   35.6717   35.9441 C   0  0  0  0  0  0  0  0  0  0  0  0
   16.7022   34.9585   35.1437 N   0  0  0  0  0  0  0  0  0  0  0  0
   16.0097   35.6384   37.3561 N   0  0  0  0  0  0  0  0  0  0  0  0
    7.6771   44.0711   34.0504 H   0  0  0  0  0  0  0  0  0  0  0  0
    9.1835   45.3824   35.3535 H   0  0  0  0  0  0  0  0  0  0  0  0
   10.3191   45.4417   34.0991 H   0  0  0  0  0  0  0  0  0  0  0  0
    8.4817   43.0856   31.8667 H   0  0  0  0  0  0  0  0  0  0  0  0
    9.9711   44.0688   31.9739 H   0  0  0  0  0  0  0  0  0  0  0  0
    8.5545   46.1518   31.8750 H   0  0  0  0  0  0  0  0  0  0  0  0
    8.5386   45.1377   30.4026 H   0  0  0  0  0  0  0  0  0  0  0  0
    6.3300   44.1797   30.9678 H   0  0  0  0  0  0  0  0  0  0  0  0
    6.3014   45.0646   32.5330 H   0  0  0  0  0  0  0  0  0  0  0  0
    6.2466   46.2894   29.7208 H   0  0  0  0  0  0  0  0  0  0  0  0
    4.9225   46.2659   30.9244 H   0  0  0  0  0  0  0  0  0  0  0  0
    6.2816   47.7511   32.4209 H   0  0  0  0  0  0  0  0  0  0  0  0
    9.3763   50.2699   30.3114 H   0  0  0  0  0  0  0  0  0  0  0  0
    7.8799   51.1063   29.8020 H   0  0  0  0  0  0  0  0  0  0  0  0
    7.1179   53.0673   30.9083 H   0  0  0  0  0  0  0  0  0  0  0  0
    7.5849   54.9493   32.4192 H   0  0  0  0  0  0  0  0  0  0  0  0
   10.8390   52.7947   34.1730 H   0  0  0  0  0  0  0  0  0  0  0  0
    9.4503   54.8189   34.0386 H   0  0  0  0  0  0  0  0  0  0  0  0
    9.7472   40.0378   31.9304 H   0  0  0  0  0  0  0  0  0  0  0  0
   11.2242   41.0427   31.8934 H   0  0  0  0  0  0  0  0  0  0  0  0
   11.5927   39.0434   30.5965 H   0  0  0  0  0  0  0  0  0  0  0  0
   10.7003   37.5442   33.1640 H   0  0  0  0  0  0  0  0  0  0  0  0
   14.2052   37.4477   31.5560 H   0  0  0  0  0  0  0  0  0  0  0  0
    9.1374   37.6722   31.5905 H   0  0  0  0  0  0  0  0  0  0  0  0
   12.1305   35.7855   32.5585 H   0  0  0  0  0  0  0  0  0  0  0  0
   12.4606   37.0186   29.9674 H   0  0  0  0  0  0  0  0  0  0  0  0
   12.4327   38.4001   34.8694 H   0  0  0  0  0  0  0  0  0  0  0  0
   17.2666   34.4146   33.1690 H   0  0  0  0  0  0  0  0  0  0  0  0
   16.7634   35.0601   37.7894 H   0  0  0  0  0  0  0  0  0  0  0  0
   15.3754   36.1866   37.9788 H   0  0  0  0  0  0  0  0  0  0  0  0
  1  2  2  0
  1  3  1  0
  3  4  1  0
  4  5  1  0
  6  1  1  0
  7  6  1  0
  6  8  1  0
  8  9  1  0
  9 10  1  0
 10 11  1  0
 11 12  1  0
 12 13  1  0
 13 14  1  0
 13 15  2  0
 14 16  1  0
 16 17  1  0
 17 18  2  0
 19 17  1  0
 18 20  1  0
 21 19  2  0
 19 22  1  0
 20 23  2  0
 23 21  1  0
 22 24  1  0
 22 25  2  0
  4 26  2  0
  4 27  1  0
 28 27  1  0
 28 29  1  0
 29 30  1  0
 29 31  1  0
 30 32  1  0
 31 33  1  0
 31 34  1  0
 34 32  1  0
 32 35  1  0
 34 36  1  0
 37 35  1  0
 38 35  1  0
 39 37  2  0
 37 40  1  0
 41 38  2  0
 42 39  1  0
 40 43  2  0
 40 41  1  0
 44 42  2  0
 44 43  1  0
 43 45  1  0
  6 46  1  6
  7 47  1  0
  7 48  1  0
  8 49  1  0
  8 50  1  0
  9 51  1  0
  9 52  1  0
 10 53  1  0
 10 54  1  0
 11 55  1  0
 11 56  1  0
 12 57  1  0
 16 58  1  0
 16 59  1  0
 18 60  1  0
 20 61  1  0
 21 62  1  0
 23 63  1  0
 28 64  1  0
 28 65  1  0
 29 66  1  0
 31 67  1  0
 32 68  1  0
 33 69  1  0
 34 70  1  0
 36 71  1  0
 38 72  1  0
 42 73  1  0
 45 74  1  0
 45 75  1  0
M  CHG  3   5  -1  22   1  24  -1
M  END
>  <EmbedRMS>  (289) 
0.0758677946094

$$$$

     RDKit          3D

 75 78  0  0  0  0  0  0  0  0999 V2000
    9.4316   42.9406   34.3431 C   0  0  0  0  0  0  0  0  0  0  0  0
   10.4885   43.0410   35.0292 O   0  0  0  0  0  0  0  0  0  0  0  0
    8.8564   41.7123   34.0287 O   0  0  0  0  0  0  0  0  0  0  0  0
    9.4946   40.2158   34.4678 P   0  0  0  0  0  0  0  0  0  0  0  0
    9.7314   40.1739   36.1289 O   0  0  0  0  0  0  0  0  0  0  0  0
    8.7485   44.1345   33.7707 C   0  0  1  0  0  0  0  0  0  0  0  0
    9.3010   45.3655   34.3367 N   0  0  0  0  0  0  0  0  0  0  0  0
    8.8902   44.0519   32.2297 C   0  0  0  0  0  0  0  0  0  0  0  0
    8.2024   45.1728   31.4428 C   0  0  0  0  0  0  0  0  0  0  0  0
    6.6654   45.1084   31.4899 C   0  0  0  0  0  0  0  0  0  0  0  0
    6.0283   46.3258   30.8139 C   0  0  0  0  0  0  0  0  0  0  0  0
    6.5071   47.5672   31.4233 N   0  0  0  0  0  0  0  0  0  0  0  0
    7.2320   48.5502   30.6753 C   0  0  0  0  0  0  0  0  0  0  0  0
    7.5435   49.8061   31.2123 O   0  0  0  0  0  0  0  0  0  0  0  0
    7.6023   48.2970   29.4994 O   0  0  0  0  0  0  0  0  0  0  0  0
    7.1506   50.2697   32.5034 C   0  0  0  0  0  0  0  0  0  0  0  0
    7.9931   49.6492   33.5952 C   0  0  0  0  0  0  0  0  0  0  0  0
    7.3406   49.0575   34.6927 C   0  0  0  0  0  0  0  0  0  0  0  0
    9.4145   49.6561   33.5568 C   0  0  0  0  0  0  0  0  0  0  0  0
    8.0717   48.4701   35.7257 C   0  0  0  0  0  0  0  0  0  0  0  0
   10.1306   49.0352   34.5955 C   0  0  0  0  0  0  0  0  0  0  0  0
   10.1473   50.2767   32.4855 N   0  0  0  0  0  0  0  0  0  0  0  0
    9.4639   48.4555   35.6753 C   0  0  0  0  0  0  0  0  0  0  0  0
   11.3722   49.7737   32.1112 O   0  0  0  0  0  0  0  0  0  0  0  0
    9.7767   51.3691   32.0095 O   0  0  0  0  0  0  0  0  0  0  0  0
    8.5374   39.1398   34.0126 O   0  0  0  0  0  0  0  0  0  0  0  0
   10.9798   40.0876   33.6826 O   0  0  0  0  0  0  0  0  0  0  0  0
   10.7997   40.0900   32.2830 C   0  0  0  0  0  0  0  0  0  0  0  0
   11.5968   38.9274   31.6963 C   0  0  0  0  0  0  0  0  0  0  0  0
   12.9243   38.9426   32.1784 O   0  0  0  0  0  0  0  0  0  0  0  0
   11.0086   37.5714   32.0780 C   0  0  0  0  0  0  0  0  0  0  0  0
   13.3528   37.5929   32.2623 C   0  0  0  0  0  0  0  0  0  0  0  0
    9.9098   37.1771   31.2926 O   0  0  0  0  0  0  0  0  0  0  0  0
   12.1942   36.6683   31.8995 C   0  0  0  0  0  0  0  0  0  0  0  0
   13.8019   37.2950   33.6199 N   0  0  0  0  0  0  0  0  0  0  0  0
   12.3027   36.2773   30.5559 O   0  0  0  0  0  0  0  0  0  0  0  0
   14.7926   36.4715   33.9865 C   0  0  0  0  0  0  0  0  0  0  0  0
   13.2749   37.7286   34.7946 C   0  0  0  0  0  0  0  0  0  0  0  0
   15.6239   35.7577   33.1860 N   0  0  0  0  0  0  0  0  0  0  0  0
   14.8727   36.4403   35.3332 C   0  0  0  0  0  0  0  0  0  0  0  0
   13.9210   37.2257   35.8812 N   0  0  0  0  0  0  0  0  0  0  0  0
   16.5873   34.9921   33.7802 C   0  0  0  0  0  0  0  0  0  0  0  0
   15.8579   35.6714   35.9444 C   0  0  0  0  0  0  0  0  0  0  0  0
   16.7028   34.9583   35.1439 N   0  0  0  0  0  0  0  0  0  0  0  0
   16.0104   35.6381   37.3564 N   0  0  0  0  0  0  0  0  0  0  0  0
    7.6763   44.0608   34.0526 H   0  0  0  0  0  0  0  0  0  0  0  0
   10.2183   45.5821   33.8823 H   0  0  0  0  0  0  0  0  0  0  0  0
    8.6476   46.1512   34.1193 H   0  0  0  0  0  0  0  0  0  0  0  0
    9.9719   44.0653   31.9676 H   0  0  0  0  0  0  0  0  0  0  0  0
    8.4847   43.0819   31.8646 H   0  0  0  0  0  0  0  0  0  0  0  0
    8.5736   46.1503   31.8138 H   0  0  0  0  0  0  0  0  0  0  0  0
    8.5190   45.0951   30.3796 H   0  0  0  0  0  0  0  0  0  0  0  0
    6.3145   44.1819   30.9858 H   0  0  0  0  0  0  0  0  0  0  0  0
    6.3167   45.0813   32.5431 H   0  0  0  0  0  0  0  0  0  0  0  0
    6.2462   46.2921   29.7250 H   0  0  0  0  0  0  0  0  0  0  0  0
    4.9249   46.2703   30.9307 H   0  0  0  0  0  0  0  0  0  0  0  0
    6.2733   47.7337   32.4256 H   0  0  0  0  0  0  0  0  0  0  0  0
    7.2856   51.3703   32.5393 H   0  0  0  0  0  0  0  0  0  0  0  0
    6.0642   50.0860   32.6537 H   0  0  0  0  0  0  0  0  0  0  0  0
    6.2592   49.0495   34.7514 H   0  0  0  0  0  0  0  0  0  0  0  0
    7.5568   48.0174   36.5632 H   0  0  0  0  0  0  0  0  0  0  0  0
   11.2130   49.0219   34.5822 H   0  0  0  0  0  0  0  0  0  0  0  0
   10.0285   47.9917   36.4738 H   0  0  0  0  0  0  0  0  0  0  0  0
   11.2095   41.0419   31.8826 H   0  0  0  0  0  0  0  0  0  0  0  0
    9.7449   40.0145   31.9264 H   0  0  0  0  0  0  0  0  0  0  0  0
   11.6265   39.0456   30.5888 H   0  0  0  0  0  0  0  0  0  0  0  0
   10.7064   37.5575   33.1485 H   0  0  0  0  0  0  0  0  0  0  0  0
   14.2021   37.4484   31.5574 H   0  0  0  0  0  0  0  0  0  0  0  0
   10.0952   37.3991   30.3433 H   0  0  0  0  0  0  0  0  0  0  0  0
   12.1163   35.7745   32.5634 H   0  0  0  0  0  0  0  0  0  0  0  0
   12.9614   35.5349   30.5312 H   0  0  0  0  0  0  0  0  0  0  0  0
   12.4321   38.3982   34.8705 H   0  0  0  0  0  0  0  0  0  0  0  0
   17.2669   34.4143   33.1690 H   0  0  0  0  0  0  0  0  0  0  0  0
   15.3761   36.1862   37.9792 H   0  0  0  0  0  0  0  0  0  0  0  0
   16.7641   35.0598   37.7896 H   0  0  0  0  0  0  0  0  0  0  0  0
  1  2  2  0
  1  3  1  0
  3  4  1  0
  4  5  1  0
  6  1  1  0
  7  6  1  0
  6  8  1  0
  8  9  1  0
  9 10  1  0
 10 11  1  0
 11 12  1  0
 12 13  1  0
 13 14  1  0
 13 15  2  0
 14 16  1  0
 16 17  1  0
 17 18  2  0
 19 17  1  0
 18 20  1  0
 21 19  2  0
 19 22  1  0
 20 23  2  0
 23 21  1  0
 22 24  1  0
 22 25  2  0
  4 26  2  0
  4 27  1  0
 28 27  1  0
 28 29  1  0
 29 30  1  0
 29 31  1  0
 30 32  1  0
 31 33  1  0
 31 34  1  0
 34 32  1  0
 32 35  1  0
 34 36  1  0
 37 35  1  0
 38 35  1  0
 39 37  2  0
 37 40  1  0
 41 38  2  0
 42 39  1  0
 40 43  2  0
 40 41  1  0
 44 42  2  0
 44 43  1  0
 43 45  1  0
  6 46  1  6
  7 47  1  0
  7 48  1  0
  8 49  1  0
  8 50  1  0
  9 51  1  0
  9 52  1  0
 10 53  1  0
 10 54  1  0
 11 55  1  0
 11 56  1  0
 12 57  1  0
 16 58  1  0
 16 59  1  0
 18 60  1  0
 20 61  1  0
 21 62  1  0
 23 63  1  0
 28 64  1  0
 28 65  1  0
 29 66  1  0
 31 67  1  0
 32 68  1  0
 33 69  1  0
 34 70  1  0
 36 71  1  0
 38 72  1  0
 42 73  1  0
 45 74  1  0
 45 75  1  0
M  CHG  3   5  -1  22   1  24  -1
M  END
>  <EmbedRMS>  (290) 
0.0737863279866

$$$$

     RDKit          3D

 75 78  0  0  0  0  0  0  0  0999 V2000
    9.4315   42.9414   34.3430 C   0  0  0  0  0  0  0  0  0  0  0  0
   10.4886   43.0412   35.0290 O   0  0  0  0  0  0  0  0  0  0  0  0
    8.8563   41.7131   34.0284 O   0  0  0  0  0  0  0  0  0  0  0  0
    9.4946   40.2165   34.4677 P   0  0  0  0  0  0  0  0  0  0  0  0
    9.7310   40.1744   36.1289 O   0  0  0  0  0  0  0  0  0  0  0  0
    8.7486   44.1364   33.7716 C   0  0  1  0  0  0  0  0  0  0  0  0
    9.3035   45.3666   34.3392 N   0  0  0  0  0  0  0  0  0  0  0  0
    8.8898   44.0541   32.2303 C   0  0  0  0  0  0  0  0  0  0  0  0
    8.2015   45.1755   31.4445 C   0  0  0  0  0  0  0  0  0  0  0  0
    6.6641   45.1081   31.4889 C   0  0  0  0  0  0  0  0  0  0  0  0
    6.0238   46.3231   30.8105 C   0  0  0  0  0  0  0  0  0  0  0  0
    6.4998   47.5663   31.4167 N   0  0  0  0  0  0  0  0  0  0  0  0
    7.2566   48.5308   30.6887 C   0  0  0  0  0  0  0  0  0  0  0  0
    7.6655   49.7030   31.3328 O   0  0  0  0  0  0  0  0  0  0  0  0
    7.5903   48.3097   29.4930 O   0  0  0  0  0  0  0  0  0  0  0  0
    8.5941   50.6221   30.7606 C   0  0  0  0  0  0  0  0  0  0  0  0
    9.9689   49.9989   30.6693 C   0  0  0  0  0  0  0  0  0  0  0  0
   10.5937   49.9314   29.4104 C   0  0  0  0  0  0  0  0  0  0  0  0
   10.6166   49.4244   31.7971 C   0  0  0  0  0  0  0  0  0  0  0  0
   11.8275   49.2977   29.2598 C   0  0  0  0  0  0  0  0  0  0  0  0
   11.8527   48.7756   31.6182 C   0  0  0  0  0  0  0  0  0  0  0  0
   10.0355   49.4689   33.1139 N   0  0  0  0  0  0  0  0  0  0  0  0
   12.4533   48.7166   30.3604 C   0  0  0  0  0  0  0  0  0  0  0  0
    9.3759   50.5923   33.5544 O   0  0  0  0  0  0  0  0  0  0  0  0
   10.2666   48.5533   33.9305 O   0  0  0  0  0  0  0  0  0  0  0  0
    8.5374   39.1405   34.0127 O   0  0  0  0  0  0  0  0  0  0  0  0
   10.9805   40.0889   33.6836 O   0  0  0  0  0  0  0  0  0  0  0  0
   10.8025   40.0902   32.2837 C   0  0  0  0  0  0  0  0  0  0  0  0
   11.5889   38.9175   31.7008 C   0  0  0  0  0  0  0  0  0  0  0  0
   12.9220   38.9374   32.1692 O   0  0  0  0  0  0  0  0  0  0  0  0
   11.0028   37.5683   32.0981 C   0  0  0  0  0  0  0  0  0  0  0  0
   13.3496   37.5886   32.2601 C   0  0  0  0  0  0  0  0  0  0  0  0
    9.9343   37.1823   31.2757 O   0  0  0  0  0  0  0  0  0  0  0  0
   12.1890   36.6677   31.9050 C   0  0  0  0  0  0  0  0  0  0  0  0
   13.8025   37.2965   33.6186 N   0  0  0  0  0  0  0  0  0  0  0  0
   12.2990   36.2868   30.5568 O   0  0  0  0  0  0  0  0  0  0  0  0
   14.7929   36.4725   33.9858 C   0  0  0  0  0  0  0  0  0  0  0  0
   13.2749   37.7294   34.7935 C   0  0  0  0  0  0  0  0  0  0  0  0
   15.6240   35.7580   33.1858 N   0  0  0  0  0  0  0  0  0  0  0  0
   14.8727   36.4411   35.3327 C   0  0  0  0  0  0  0  0  0  0  0  0
   13.9208   37.2263   35.8803 N   0  0  0  0  0  0  0  0  0  0  0  0
   16.5871   34.9921   33.7801 C   0  0  0  0  0  0  0  0  0  0  0  0
   15.8576   35.6718   35.9441 C   0  0  0  0  0  0  0  0  0  0  0  0
   16.7024   34.9584   35.1438 N   0  0  0  0  0  0  0  0  0  0  0  0
   16.0099   35.6384   37.3562 N   0  0  0  0  0  0  0  0  0  0  0  0
    7.6765   44.0633   34.0538 H   0  0  0  0  0  0  0  0  0  0  0  0
    8.6441   46.1547   34.1463 H   0  0  0  0  0  0  0  0  0  0  0  0
   10.2132   45.5904   33.8731 H   0  0  0  0  0  0  0  0  0  0  0  0
    8.4844   43.0842   31.8648 H   0  0  0  0  0  0  0  0  0  0  0  0
    9.9715   44.0679   31.9677 H   0  0  0  0  0  0  0  0  0  0  0  0
    8.5701   46.1523   31.8202 H   0  0  0  0  0  0  0  0  0  0  0  0
    8.5207   45.1018   30.3818 H   0  0  0  0  0  0  0  0  0  0  0  0
    6.3139   45.0806   32.5415 H   0  0  0  0  0  0  0  0  0  0  0  0
    6.3164   44.1803   30.9850 H   0  0  0  0  0  0  0  0  0  0  0  0
    6.2440   46.2888   29.7219 H   0  0  0  0  0  0  0  0  0  0  0  0
    4.9205   46.2659   30.9260 H   0  0  0  0  0  0  0  0  0  0  0  0
    6.2806   47.7531   32.4211 H   0  0  0  0  0  0  0  0  0  0  0  0
    8.2215   50.9463   29.7640 H   0  0  0  0  0  0  0  0  0  0  0  0
    8.6421   51.5349   31.3881 H   0  0  0  0  0  0  0  0  0  0  0  0
   10.1187   50.3586   28.5359 H   0  0  0  0  0  0  0  0  0  0  0  0
   12.2953   49.2497   28.2849 H   0  0  0  0  0  0  0  0  0  0  0  0
   12.3617   48.3251   32.4610 H   0  0  0  0  0  0  0  0  0  0  0  0
   13.4077   48.2206   30.2396 H   0  0  0  0  0  0  0  0  0  0  0  0
    9.7477   40.0333   31.9255 H   0  0  0  0  0  0  0  0  0  0  0  0
   11.2258   41.0358   31.8825 H   0  0  0  0  0  0  0  0  0  0  0  0
   11.5975   39.0148   30.5905 H   0  0  0  0  0  0  0  0  0  0  0  0
   10.7023   37.5457   33.1720 H   0  0  0  0  0  0  0  0  0  0  0  0
   14.1957   37.4366   31.5528 H   0  0  0  0  0  0  0  0  0  0  0  0
    9.1339   37.6659   31.6069 H   0  0  0  0  0  0  0  0  0  0  0  0
   12.1380   35.7718   32.5698 H   0  0  0  0  0  0  0  0  0  0  0  0
   11.7706   35.4530   30.4496 H   0  0  0  0  0  0  0  0  0  0  0  0
   12.4314   38.3980   34.8694 H   0  0  0  0  0  0  0  0  0  0  0  0
   17.2665   34.4140   33.1691 H   0  0  0  0  0  0  0  0  0  0  0  0
   16.7633   35.0598   37.7895 H   0  0  0  0  0  0  0  0  0  0  0  0
   15.3757   36.1867   37.9789 H   0  0  0  0  0  0  0  0  0  0  0  0
  1  2  2  0
  1  3  1  0
  3  4  1  0
  4  5  1  0
  6  1  1  0
  7  6  1  0
  6  8  1  0
  8  9  1  0
  9 10  1  0
 10 11  1  0
 11 12  1  0
 12 13  1  0
 13 14  1  0
 13 15  2  0
 14 16  1  0
 16 17  1  0
 17 18  2  0
 19 17  1  0
 18 20  1  0
 21 19  2  0
 19 22  1  0
 20 23  2  0
 23 21  1  0
 22 24  1  0
 22 25  2  0
  4 26  2  0
  4 27  1  0
 28 27  1  0
 28 29  1  0
 29 30  1  0
 29 31  1  0
 30 32  1  0
 31 33  1  0
 31 34  1  0
 34 32  1  0
 32 35  1  0
 34 36  1  0
 37 35  1  0
 38 35  1  0
 39 37  2  0
 37 40  1  0
 41 38  2  0
 42 39  1  0
 40 43  2  0
 40 41  1  0
 44 42  2  0
 44 43  1  0
 43 45  1  0
  6 46  1  6
  7 47  1  0
  7 48  1  0
  8 49  1  0
  8 50  1  0
  9 51  1  0
  9 52  1  0
 10 53  1  0
 10 54  1  0
 11 55  1  0
 11 56  1  0
 12 57  1  0
 16 58  1  0
 16 59  1  0
 18 60  1  0
 20 61  1  0
 21 62  1  0
 23 63  1  0
 28 64  1  0
 28 65  1  0
 29 66  1  0
 31 67  1  0
 32 68  1  0
 33 69  1  0
 34 70  1  0
 36 71  1  0
 38 72  1  0
 42 73  1  0
 45 74  1  0
 45 75  1  0
M  CHG  3   5  -1  22   1  24  -1
M  END
>  <EmbedRMS>  (291) 
0.0738095346213

$$$$

     RDKit          3D

 75 78  0  0  0  0  0  0  0  0999 V2000
    9.4333   42.9364   34.3461 C   0  0  0  0  0  0  0  0  0  0  0  0
   10.4907   43.0329   35.0319 O   0  0  0  0  0  0  0  0  0  0  0  0
    8.8563   41.7102   34.0295 O   0  0  0  0  0  0  0  0  0  0  0  0
    9.4943   40.2139   34.4679 P   0  0  0  0  0  0  0  0  0  0  0  0
    9.7310   40.1724   36.1290 O   0  0  0  0  0  0  0  0  0  0  0  0
    8.7506   44.1347   33.7741 C   0  0  1  0  0  0  0  0  0  0  0  0
    9.2963   45.3819   34.3133 N   0  0  0  0  0  0  0  0  0  0  0  0
    8.8893   44.0527   32.2358 C   0  0  0  0  0  0  0  0  0  0  0  0
    8.2029   45.1822   31.4614 C   0  0  0  0  0  0  0  0  0  0  0  0
    6.6654   45.1046   31.4855 C   0  0  0  0  0  0  0  0  0  0  0  0
    6.0273   46.3228   30.8106 C   0  0  0  0  0  0  0  0  0  0  0  0
    6.5069   47.5640   31.4182 N   0  0  0  0  0  0  0  0  0  0  0  0
    7.2419   48.5403   30.6829 C   0  0  0  0  0  0  0  0  0  0  0  0
    7.5772   49.7507   31.3019 O   0  0  0  0  0  0  0  0  0  0  0  0
    7.5941   48.3109   29.4941 O   0  0  0  0  0  0  0  0  0  0  0  0
    8.3266   50.7821   30.6572 C   0  0  0  0  0  0  0  0  0  0  0  0
    7.4685   51.7040   29.8079 C   0  0  0  0  0  0  0  0  0  0  0  0
    6.0865   51.4588   29.6517 C   0  0  0  0  0  0  0  0  0  0  0  0
    8.0288   52.8654   29.2030 C   0  0  0  0  0  0  0  0  0  0  0  0
    5.2841   52.3271   28.9111 C   0  0  0  0  0  0  0  0  0  0  0  0
    7.1956   53.7327   28.4741 C   0  0  0  0  0  0  0  0  0  0  0  0
    9.4213   53.2060   29.3413 N   0  0  0  0  0  0  0  0  0  0  0  0
    5.8368   53.4612   28.3241 C   0  0  0  0  0  0  0  0  0  0  0  0
    9.8060   54.5273   29.3433 O   0  0  0  0  0  0  0  0  0  0  0  0
   10.3048   52.3268   29.2875 O   0  0  0  0  0  0  0  0  0  0  0  0
    8.5372   39.1382   34.0121 O   0  0  0  0  0  0  0  0  0  0  0  0
   10.9798   40.0870   33.6829 O   0  0  0  0  0  0  0  0  0  0  0  0
   10.8002   40.0905   32.2832 C   0  0  0  0  0  0  0  0  0  0  0  0
   11.5958   38.9271   31.6963 C   0  0  0  0  0  0  0  0  0  0  0  0
   12.9239   38.9408   32.1766 O   0  0  0  0  0  0  0  0  0  0  0  0
   11.0062   37.5719   32.0793 C   0  0  0  0  0  0  0  0  0  0  0  0
   13.3507   37.5905   32.2614 C   0  0  0  0  0  0  0  0  0  0  0  0
    9.9064   37.1792   31.2946 O   0  0  0  0  0  0  0  0  0  0  0  0
   12.1920   36.6671   31.9003 C   0  0  0  0  0  0  0  0  0  0  0  0
   13.8017   37.2948   33.6193 N   0  0  0  0  0  0  0  0  0  0  0  0
   12.3134   36.2787   30.5560 O   0  0  0  0  0  0  0  0  0  0  0  0
   14.7927   36.4716   33.9861 C   0  0  0  0  0  0  0  0  0  0  0  0
   13.2746   37.7284   34.7941 C   0  0  0  0  0  0  0  0  0  0  0  0
   15.6240   35.7576   33.1859 N   0  0  0  0  0  0  0  0  0  0  0  0
   14.8728   36.4406   35.3330 C   0  0  0  0  0  0  0  0  0  0  0  0
   13.9209   37.2258   35.8807 N   0  0  0  0  0  0  0  0  0  0  0  0
   16.5874   34.9920   33.7802 C   0  0  0  0  0  0  0  0  0  0  0  0
   15.8579   35.6716   35.9443 C   0  0  0  0  0  0  0  0  0  0  0  0
   16.7028   34.9584   35.1439 N   0  0  0  0  0  0  0  0  0  0  0  0
   16.0103   35.6383   37.3563 N   0  0  0  0  0  0  0  0  0  0  0  0
    7.6770   44.0706   34.0504 H   0  0  0  0  0  0  0  0  0  0  0  0
    9.1827   45.3819   35.3535 H   0  0  0  0  0  0  0  0  0  0  0  0
   10.3192   45.4405   34.1000 H   0  0  0  0  0  0  0  0  0  0  0  0
    8.4816   43.0850   31.8668 H   0  0  0  0  0  0  0  0  0  0  0  0
    9.9711   44.0680   31.9739 H   0  0  0  0  0  0  0  0  0  0  0  0
    8.5385   45.1361   30.4022 H   0  0  0  0  0  0  0  0  0  0  0  0
    8.5554   46.1509   31.8741 H   0  0  0  0  0  0  0  0  0  0  0  0
    6.3296   44.1801   30.9677 H   0  0  0  0  0  0  0  0  0  0  0  0
    6.3020   45.0643   32.5333 H   0  0  0  0  0  0  0  0  0  0  0  0
    6.2466   46.2900   29.7218 H   0  0  0  0  0  0  0  0  0  0  0  0
    4.9238   46.2678   30.9267 H   0  0  0  0  0  0  0  0  0  0  0  0
    6.2806   47.7542   32.4203 H   0  0  0  0  0  0  0  0  0  0  0  0
    8.8124   51.3902   31.4492 H   0  0  0  0  0  0  0  0  0  0  0  0
    9.1261   50.3212   30.0394 H   0  0  0  0  0  0  0  0  0  0  0  0
    5.6092   50.6043   30.1094 H   0  0  0  0  0  0  0  0  0  0  0  0
    4.2268   52.1234   28.7998 H   0  0  0  0  0  0  0  0  0  0  0  0
    7.6040   54.6206   28.0082 H   0  0  0  0  0  0  0  0  0  0  0  0
    5.2100   54.1350   27.7543 H   0  0  0  0  0  0  0  0  0  0  0  0
   11.2116   41.0420   31.8834 H   0  0  0  0  0  0  0  0  0  0  0  0
    9.7455   40.0168   31.9263 H   0  0  0  0  0  0  0  0  0  0  0  0
   11.6245   39.0449   30.5888 H   0  0  0  0  0  0  0  0  0  0  0  0
   10.7051   37.5579   33.1500 H   0  0  0  0  0  0  0  0  0  0  0  0
   14.1985   37.4426   31.5553 H   0  0  0  0  0  0  0  0  0  0  0  0
   10.0893   37.4056   30.3459 H   0  0  0  0  0  0  0  0  0  0  0  0
   12.1337   35.7754   32.5703 H   0  0  0  0  0  0  0  0  0  0  0  0
   11.7934   35.4394   30.4513 H   0  0  0  0  0  0  0  0  0  0  0  0
   12.4314   38.3972   34.8700 H   0  0  0  0  0  0  0  0  0  0  0  0
   17.2669   34.4141   33.1692 H   0  0  0  0  0  0  0  0  0  0  0  0
   16.7638   35.0599   37.7896 H   0  0  0  0  0  0  0  0  0  0  0  0
   15.3759   36.1865   37.9790 H   0  0  0  0  0  0  0  0  0  0  0  0
  1  2  2  0
  1  3  1  0
  3  4  1  0
  4  5  1  0
  6  1  1  0
  7  6  1  0
  6  8  1  0
  8  9  1  0
  9 10  1  0
 10 11  1  0
 11 12  1  0
 12 13  1  0
 13 14  1  0
 13 15  2  0
 14 16  1  0
 16 17  1  0
 17 18  2  0
 19 17  1  0
 18 20  1  0
 21 19  2  0
 19 22  1  0
 20 23  2  0
 23 21  1  0
 22 24  1  0
 22 25  2  0
  4 26  2  0
  4 27  1  0
 28 27  1  0
 28 29  1  0
 29 30  1  0
 29 31  1  0
 30 32  1  0
 31 33  1  0
 31 34  1  0
 34 32  1  0
 32 35  1  0
 34 36  1  0
 37 35  1  0
 38 35  1  0
 39 37  2  0
 37 40  1  0
 41 38  2  0
 42 39  1  0
 40 43  2  0
 40 41  1  0
 44 42  2  0
 44 43  1  0
 43 45  1  0
  6 46  1  6
  7 47  1  0
  7 48  1  0
  8 49  1  0
  8 50  1  0
  9 51  1  0
  9 52  1  0
 10 53  1  0
 10 54  1  0
 11 55  1  0
 11 56  1  0
 12 57  1  0
 16 58  1  0
 16 59  1  0
 18 60  1  0
 20 61  1  0
 21 62  1  0
 23 63  1  0
 28 64  1  0
 28 65  1  0
 29 66  1  0
 31 67  1  0
 32 68  1  0
 33 69  1  0
 34 70  1  0
 36 71  1  0
 38 72  1  0
 42 73  1  0
 45 74  1  0
 45 75  1  0
M  CHG  3   5  -1  22   1  24  -1
M  END
>  <EmbedRMS>  (292) 
0.074750440413

$$$$

     RDKit          3D

 75 78  0  0  0  0  0  0  0  0999 V2000
    9.4299   42.9392   34.3434 C   0  0  0  0  0  0  0  0  0  0  0  0
   10.4910   43.0386   35.0236 O   0  0  0  0  0  0  0  0  0  0  0  0
    8.8547   41.7112   34.0294 O   0  0  0  0  0  0  0  0  0  0  0  0
    9.4931   40.2155   34.4706 P   0  0  0  0  0  0  0  0  0  0  0  0
    9.7289   40.1743   36.1316 O   0  0  0  0  0  0  0  0  0  0  0  0
    8.7408   44.1362   33.7775 C   0  0  1  0  0  0  0  0  0  0  0  0
    9.2996   45.3701   34.3306 N   0  0  0  0  0  0  0  0  0  0  0  0
    8.8969   44.0585   32.2391 C   0  0  0  0  0  0  0  0  0  0  0  0
    8.2038   45.1685   31.4392 C   0  0  0  0  0  0  0  0  0  0  0  0
    6.6666   45.1070   31.4913 C   0  0  0  0  0  0  0  0  0  0  0  0
    6.0298   46.3245   30.8151 C   0  0  0  0  0  0  0  0  0  0  0  0
    6.5109   47.5651   31.4241 N   0  0  0  0  0  0  0  0  0  0  0  0
    7.2287   48.5520   30.6737 C   0  0  0  0  0  0  0  0  0  0  0  0
    7.5268   49.8123   31.2088 O   0  0  0  0  0  0  0  0  0  0  0  0
    7.6015   48.2990   29.4986 O   0  0  0  0  0  0  0  0  0  0  0  0
    7.1390   50.2580   32.5078 C   0  0  0  0  0  0  0  0  0  0  0  0
    8.0184   49.6487   33.5775 C   0  0  0  0  0  0  0  0  0  0  0  0
    9.4107   49.6374   33.3740 C   0  0  0  0  0  0  0  0  0  0  0  0
    7.4926   49.0997   34.7770 C   0  0  0  0  0  0  0  0  0  0  0  0
   10.2647   49.0611   34.3155 C   0  0  0  0  0  0  0  0  0  0  0  0
    8.3670   48.5115   35.7062 C   0  0  0  0  0  0  0  0  0  0  0  0
    6.0914   49.1504   35.0840 N   0  0  0  0  0  0  0  0  0  0  0  0
    9.7436   48.4959   35.4777 C   0  0  0  0  0  0  0  0  0  0  0  0
    5.4932   48.0859   35.7179 O   0  0  0  0  0  0  0  0  0  0  0  0
    5.4727   50.2318   35.0079 O   0  0  0  0  0  0  0  0  0  0  0  0
    8.5371   39.1391   34.0143 O   0  0  0  0  0  0  0  0  0  0  0  0
   10.9795   40.0882   33.6888 O   0  0  0  0  0  0  0  0  0  0  0  0
   10.8017   40.0949   32.2900 C   0  0  0  0  0  0  0  0  0  0  0  0
   11.5885   38.9266   31.7041 C   0  0  0  0  0  0  0  0  0  0  0  0
   12.9237   38.9445   32.1722 O   0  0  0  0  0  0  0  0  0  0  0  0
   11.0029   37.5726   32.0908 C   0  0  0  0  0  0  0  0  0  0  0  0
   13.3555   37.5960   32.2595 C   0  0  0  0  0  0  0  0  0  0  0  0
    9.9379   37.1846   31.2657 O   0  0  0  0  0  0  0  0  0  0  0  0
   12.1932   36.6769   31.8952 C   0  0  0  0  0  0  0  0  0  0  0  0
   13.8028   37.2977   33.6186 N   0  0  0  0  0  0  0  0  0  0  0  0
   12.2918   36.2396   30.5587 O   0  0  0  0  0  0  0  0  0  0  0  0
   14.7926   36.4727   33.9858 C   0  0  0  0  0  0  0  0  0  0  0  0
   13.2750   37.7302   34.7935 C   0  0  0  0  0  0  0  0  0  0  0  0
   15.6241   35.7586   33.1857 N   0  0  0  0  0  0  0  0  0  0  0  0
   14.8721   36.4408   35.3326 C   0  0  0  0  0  0  0  0  0  0  0  0
   13.9204   37.2263   35.8802 N   0  0  0  0  0  0  0  0  0  0  0  0
   16.5870   34.9925   33.7800 C   0  0  0  0  0  0  0  0  0  0  0  0
   15.8572   35.6717   35.9441 C   0  0  0  0  0  0  0  0  0  0  0  0
   16.7022   34.9585   35.1437 N   0  0  0  0  0  0  0  0  0  0  0  0
   16.0097   35.6384   37.3561 N   0  0  0  0  0  0  0  0  0  0  0  0
    7.6663   44.0631   34.0530 H   0  0  0  0  0  0  0  0  0  0  0  0
    8.6819   46.1618   34.0430 H   0  0  0  0  0  0  0  0  0  0  0  0
    9.2183   45.3322   35.3733 H   0  0  0  0  0  0  0  0  0  0  0  0
    8.5093   43.0833   31.8681 H   0  0  0  0  0  0  0  0  0  0  0  0
    9.9817   44.0902   31.9914 H   0  0  0  0  0  0  0  0  0  0  0  0
    8.5157   45.0740   30.3760 H   0  0  0  0  0  0  0  0  0  0  0  0
    8.5792   46.1517   31.7888 H   0  0  0  0  0  0  0  0  0  0  0  0
    6.3126   44.1798   30.9907 H   0  0  0  0  0  0  0  0  0  0  0  0
    6.3204   45.0836   32.5452 H   0  0  0  0  0  0  0  0  0  0  0  0
    4.9265   46.2703   30.9338 H   0  0  0  0  0  0  0  0  0  0  0  0
    6.2464   46.2908   29.7258 H   0  0  0  0  0  0  0  0  0  0  0  0
    6.2902   47.7254   32.4310 H   0  0  0  0  0  0  0  0  0  0  0  0
    7.2698   51.3596   32.5464 H   0  0  0  0  0  0  0  0  0  0  0  0
    6.0602   50.0511   32.6539 H   0  0  0  0  0  0  0  0  0  0  0  0
    9.8370   50.0688   32.4766 H   0  0  0  0  0  0  0  0  0  0  0  0
   11.3330   49.0511   34.1420 H   0  0  0  0  0  0  0  0  0  0  0  0
    7.9818   48.0831   36.6229 H   0  0  0  0  0  0  0  0  0  0  0  0
   10.4074   48.0466   36.2050 H   0  0  0  0  0  0  0  0  0  0  0  0
    9.7472   40.0378   31.9303 H   0  0  0  0  0  0  0  0  0  0  0  0
   11.2241   41.0428   31.8929 H   0  0  0  0  0  0  0  0  0  0  0  0
   11.5928   39.0434   30.5965 H   0  0  0  0  0  0  0  0  0  0  0  0
   10.7003   37.5443   33.1640 H   0  0  0  0  0  0  0  0  0  0  0  0
   14.2051   37.4477   31.5560 H   0  0  0  0  0  0  0  0  0  0  0  0
    9.1374   37.6722   31.5905 H   0  0  0  0  0  0  0  0  0  0  0  0
   12.1305   35.7856   32.5586 H   0  0  0  0  0  0  0  0  0  0  0  0
   12.4606   37.0186   29.9674 H   0  0  0  0  0  0  0  0  0  0  0  0
   12.4327   38.4001   34.8694 H   0  0  0  0  0  0  0  0  0  0  0  0
   17.2666   34.4146   33.1690 H   0  0  0  0  0  0  0  0  0  0  0  0
   15.3754   36.1866   37.9788 H   0  0  0  0  0  0  0  0  0  0  0  0
   16.7634   35.0601   37.7894 H   0  0  0  0  0  0  0  0  0  0  0  0
  1  2  2  0
  1  3  1  0
  3  4  1  0
  4  5  1  0
  6  1  1  0
  7  6  1  0
  6  8  1  0
  8  9  1  0
  9 10  1  0
 10 11  1  0
 11 12  1  0
 12 13  1  0
 13 14  1  0
 13 15  2  0
 14 16  1  0
 16 17  1  0
 17 18  2  0
 19 17  1  0
 18 20  1  0
 21 19  2  0
 19 22  1  0
 20 23  2  0
 23 21  1  0
 22 24  1  0
 22 25  2  0
  4 26  2  0
  4 27  1  0
 28 27  1  0
 28 29  1  0
 29 30  1  0
 29 31  1  0
 30 32  1  0
 31 33  1  0
 31 34  1  0
 34 32  1  0
 32 35  1  0
 34 36  1  0
 37 35  1  0
 38 35  1  0
 39 37  2  0
 37 40  1  0
 41 38  2  0
 42 39  1  0
 40 43  2  0
 40 41  1  0
 44 42  2  0
 44 43  1  0
 43 45  1  0
  6 46  1  6
  7 47  1  0
  7 48  1  0
  8 49  1  0
  8 50  1  0
  9 51  1  0
  9 52  1  0
 10 53  1  0
 10 54  1  0
 11 55  1  0
 11 56  1  0
 12 57  1  0
 16 58  1  0
 16 59  1  0
 18 60  1  0
 20 61  1  0
 21 62  1  0
 23 63  1  0
 28 64  1  0
 28 65  1  0
 29 66  1  0
 31 67  1  0
 32 68  1  0
 33 69  1  0
 34 70  1  0
 36 71  1  0
 38 72  1  0
 42 73  1  0
 45 74  1  0
 45 75  1  0
M  CHG  3   5  -1  22   1  24  -1
M  END
>  <EmbedRMS>  (293) 
0.0749182742492

$$$$

     RDKit          3D

 75 78  0  0  0  0  0  0  0  0999 V2000
    9.4312   42.9411   34.3439 C   0  0  0  0  0  0  0  0  0  0  0  0
   10.4886   43.0410   35.0294 O   0  0  0  0  0  0  0  0  0  0  0  0
    8.8558   41.7128   34.0296 O   0  0  0  0  0  0  0  0  0  0  0  0
    9.4933   40.2162   34.4702 P   0  0  0  0  0  0  0  0  0  0  0  0
    9.7295   40.1742   36.1312 O   0  0  0  0  0  0  0  0  0  0  0  0
    8.7484   44.1359   33.7721 C   0  0  1  0  0  0  0  0  0  0  0  0
    9.3039   45.3664   34.3388 N   0  0  0  0  0  0  0  0  0  0  0  0
    8.8892   44.0518   32.2309 C   0  0  0  0  0  0  0  0  0  0  0  0
    8.2015   45.1720   31.4435 C   0  0  0  0  0  0  0  0  0  0  0  0
    6.6643   45.1065   31.4886 C   0  0  0  0  0  0  0  0  0  0  0  0
    6.0267   46.3237   30.8122 C   0  0  0  0  0  0  0  0  0  0  0  0
    6.5084   47.5645   31.4189 N   0  0  0  0  0  0  0  0  0  0  0  0
    7.2423   48.5408   30.6825 C   0  0  0  0  0  0  0  0  0  0  0  0
    7.5893   49.7443   31.3055 O   0  0  0  0  0  0  0  0  0  0  0  0
    7.5939   48.3102   29.4941 O   0  0  0  0  0  0  0  0  0  0  0  0
    8.2838   50.8021   30.6467 C   0  0  0  0  0  0  0  0  0  0  0  0
    7.3810   51.5016   29.6571 C   0  0  0  0  0  0  0  0  0  0  0  0
    7.5798   51.2621   28.2845 C   0  0  0  0  0  0  0  0  0  0  0  0
    6.3720   52.4197   30.0623 C   0  0  0  0  0  0  0  0  0  0  0  0
    6.7999   51.9100   27.3266 C   0  0  0  0  0  0  0  0  0  0  0  0
    5.6078   53.0715   29.0771 C   0  0  0  0  0  0  0  0  0  0  0  0
    6.1265   52.7330   31.4469 N   0  0  0  0  0  0  0  0  0  0  0  0
    5.8170   52.8139   27.7220 C   0  0  0  0  0  0  0  0  0  0  0  0
    5.6180   53.9645   31.7917 O   0  0  0  0  0  0  0  0  0  0  0  0
    6.2209   51.8580   32.3309 O   0  0  0  0  0  0  0  0  0  0  0  0
    8.5368   39.1399   34.0139 O   0  0  0  0  0  0  0  0  0  0  0  0
   10.9789   40.0874   33.6872 O   0  0  0  0  0  0  0  0  0  0  0  0
   10.7993   40.0946   32.2885 C   0  0  0  0  0  0  0  0  0  0  0  0
   11.5957   38.9351   31.6994 C   0  0  0  0  0  0  0  0  0  0  0  0
   12.9257   38.9478   32.1799 O   0  0  0  0  0  0  0  0  0  0  0  0
   11.0070   37.5758   32.0732 C   0  0  0  0  0  0  0  0  0  0  0  0
   13.3571   37.5980   32.2612 C   0  0  0  0  0  0  0  0  0  0  0  0
    9.9093   37.1808   31.2875 O   0  0  0  0  0  0  0  0  0  0  0  0
   12.1967   36.6764   31.8894 C   0  0  0  0  0  0  0  0  0  0  0  0
   13.8018   37.2956   33.6197 N   0  0  0  0  0  0  0  0  0  0  0  0
   12.3048   36.2360   30.5555 O   0  0  0  0  0  0  0  0  0  0  0  0
   14.7922   36.4716   33.9864 C   0  0  0  0  0  0  0  0  0  0  0  0
   13.2747   37.7291   34.7944 C   0  0  0  0  0  0  0  0  0  0  0  0
   15.6239   35.7582   33.1861 N   0  0  0  0  0  0  0  0  0  0  0  0
   14.8721   36.4401   35.3331 C   0  0  0  0  0  0  0  0  0  0  0  0
   13.9206   37.2257   35.8810 N   0  0  0  0  0  0  0  0  0  0  0  0
   16.5873   34.9924   33.7802 C   0  0  0  0  0  0  0  0  0  0  0  0
   15.8576   35.6714   35.9444 C   0  0  0  0  0  0  0  0  0  0  0  0
   16.7026   34.9585   35.1439 N   0  0  0  0  0  0  0  0  0  0  0  0
   16.0102   35.6382   37.3564 N   0  0  0  0  0  0  0  0  0  0  0  0
    7.6764   44.0634   34.0548 H   0  0  0  0  0  0  0  0  0  0  0  0
    8.6469   46.1558   34.1430 H   0  0  0  0  0  0  0  0  0  0  0  0
   10.2152   45.5879   33.8747 H   0  0  0  0  0  0  0  0  0  0  0  0
    9.9708   44.0641   31.9679 H   0  0  0  0  0  0  0  0  0  0  0  0
    8.4830   43.0817   31.8667 H   0  0  0  0  0  0  0  0  0  0  0  0
    8.5714   46.1486   31.8173 H   0  0  0  0  0  0  0  0  0  0  0  0
    8.5199   45.0958   30.3807 H   0  0  0  0  0  0  0  0  0  0  0  0
    6.3142   45.0783   32.5413 H   0  0  0  0  0  0  0  0  0  0  0  0
    6.3147   44.1801   30.9835 H   0  0  0  0  0  0  0  0  0  0  0  0
    6.2447   46.2897   29.7231 H   0  0  0  0  0  0  0  0  0  0  0  0
    4.9234   46.2700   30.9301 H   0  0  0  0  0  0  0  0  0  0  0  0
    6.2858   47.7540   32.4220 H   0  0  0  0  0  0  0  0  0  0  0  0
    8.6441   51.5323   31.4013 H   0  0  0  0  0  0  0  0  0  0  0  0
    9.1921   50.3937   30.1509 H   0  0  0  0  0  0  0  0  0  0  0  0
    8.3454   50.5722   27.9514 H   0  0  0  0  0  0  0  0  0  0  0  0
    6.9623   51.7144   26.2745 H   0  0  0  0  0  0  0  0  0  0  0  0
    4.8354   53.7755   29.3597 H   0  0  0  0  0  0  0  0  0  0  0  0
    5.2156   53.3182   26.9765 H   0  0  0  0  0  0  0  0  0  0  0  0
    9.7448   40.0200   31.9304 H   0  0  0  0  0  0  0  0  0  0  0  0
   11.2092   41.0481   31.8917 H   0  0  0  0  0  0  0  0  0  0  0  0
   11.6207   39.0685   30.5942 H   0  0  0  0  0  0  0  0  0  0  0  0
   10.7059   37.5564   33.1439 H   0  0  0  0  0  0  0  0  0  0  0  0
   14.2095   37.4543   31.5601 H   0  0  0  0  0  0  0  0  0  0  0  0
   10.0864   37.4210   30.3413 H   0  0  0  0  0  0  0  0  0  0  0  0
   12.1275   35.7872   32.5550 H   0  0  0  0  0  0  0  0  0  0  0  0
   12.5030   37.0109   29.9673 H   0  0  0  0  0  0  0  0  0  0  0  0
   12.4328   38.3996   34.8703 H   0  0  0  0  0  0  0  0  0  0  0  0
   17.2670   34.4149   33.1690 H   0  0  0  0  0  0  0  0  0  0  0  0
   15.3758   36.1862   37.9792 H   0  0  0  0  0  0  0  0  0  0  0  0
   16.7640   35.0601   37.7896 H   0  0  0  0  0  0  0  0  0  0  0  0
  1  2  2  0
  1  3  1  0
  3  4  1  0
  4  5  1  0
  6  1  1  0
  7  6  1  0
  6  8  1  0
  8  9  1  0
  9 10  1  0
 10 11  1  0
 11 12  1  0
 12 13  1  0
 13 14  1  0
 13 15  2  0
 14 16  1  0
 16 17  1  0
 17 18  2  0
 19 17  1  0
 18 20  1  0
 21 19  2  0
 19 22  1  0
 20 23  2  0
 23 21  1  0
 22 24  1  0
 22 25  2  0
  4 26  2  0
  4 27  1  0
 28 27  1  0
 28 29  1  0
 29 30  1  0
 29 31  1  0
 30 32  1  0
 31 33  1  0
 31 34  1  0
 34 32  1  0
 32 35  1  0
 34 36  1  0
 37 35  1  0
 38 35  1  0
 39 37  2  0
 37 40  1  0
 41 38  2  0
 42 39  1  0
 40 43  2  0
 40 41  1  0
 44 42  2  0
 44 43  1  0
 43 45  1  0
  6 46  1  6
  7 47  1  0
  7 48  1  0
  8 49  1  0
  8 50  1  0
  9 51  1  0
  9 52  1  0
 10 53  1  0
 10 54  1  0
 11 55  1  0
 11 56  1  0
 12 57  1  0
 16 58  1  0
 16 59  1  0
 18 60  1  0
 20 61  1  0
 21 62  1  0
 23 63  1  0
 28 64  1  0
 28 65  1  0
 29 66  1  0
 31 67  1  0
 32 68  1  0
 33 69  1  0
 34 70  1  0
 36 71  1  0
 38 72  1  0
 42 73  1  0
 45 74  1  0
 45 75  1  0
M  CHG  3   5  -1  22   1  24  -1
M  END
>  <EmbedRMS>  (294) 
0.0753225614649

$$$$

     RDKit          3D

 75 78  0  0  0  0  0  0  0  0999 V2000
    9.4330   42.9366   34.3462 C   0  0  0  0  0  0  0  0  0  0  0  0
   10.4906   43.0330   35.0318 O   0  0  0  0  0  0  0  0  0  0  0  0
    8.8558   41.7104   34.0299 O   0  0  0  0  0  0  0  0  0  0  0  0
    9.4943   40.2141   34.4677 P   0  0  0  0  0  0  0  0  0  0  0  0
    9.7317   40.1724   36.1287 O   0  0  0  0  0  0  0  0  0  0  0  0
    8.7504   44.1350   33.7741 C   0  0  1  0  0  0  0  0  0  0  0  0
    9.2961   45.3822   34.3134 N   0  0  0  0  0  0  0  0  0  0  0  0
    8.8892   44.0530   32.2359 C   0  0  0  0  0  0  0  0  0  0  0  0
    8.2030   45.1829   31.4618 C   0  0  0  0  0  0  0  0  0  0  0  0
    6.6656   45.1042   31.4832 C   0  0  0  0  0  0  0  0  0  0  0  0
    6.0282   46.3232   30.8086 C   0  0  0  0  0  0  0  0  0  0  0  0
    6.5049   47.5634   31.4211 N   0  0  0  0  0  0  0  0  0  0  0  0
    7.2487   48.5412   30.6836 C   0  0  0  0  0  0  0  0  0  0  0  0
    7.6351   49.7560   31.2619 O   0  0  0  0  0  0  0  0  0  0  0  0
    7.5887   48.3084   29.4943 O   0  0  0  0  0  0  0  0  0  0  0  0
    7.3405   50.1269   32.6046 C   0  0  0  0  0  0  0  0  0  0  0  0
    7.8996   51.4986   32.8788 C   0  0  0  0  0  0  0  0  0  0  0  0
    9.1517   51.5984   33.5124 C   0  0  0  0  0  0  0  0  0  0  0  0
    7.1938   52.6850   32.5437 C   0  0  0  0  0  0  0  0  0  0  0  0
    9.6914   52.8450   33.8311 C   0  0  0  0  0  0  0  0  0  0  0  0
    7.7496   53.9312   32.8887 C   0  0  0  0  0  0  0  0  0  0  0  0
    5.9214   52.6485   31.8712 N   0  0  0  0  0  0  0  0  0  0  0  0
    8.9893   54.0089   33.5248 C   0  0  0  0  0  0  0  0  0  0  0  0
    5.6858   51.7440   30.8622 O   0  0  0  0  0  0  0  0  0  0  0  0
    5.0772   53.5442   32.0812 O   0  0  0  0  0  0  0  0  0  0  0  0
    8.5371   39.1383   34.0123 O   0  0  0  0  0  0  0  0  0  0  0  0
   10.9792   40.0887   33.6814 O   0  0  0  0  0  0  0  0  0  0  0  0
   10.7977   40.0842   32.2817 C   0  0  0  0  0  0  0  0  0  0  0  0
   11.5897   38.9146   31.7008 C   0  0  0  0  0  0  0  0  0  0  0  0
   12.9218   38.9385   32.1717 O   0  0  0  0  0  0  0  0  0  0  0  0
   11.0070   37.5654   32.0975 C   0  0  0  0  0  0  0  0  0  0  0  0
   13.3533   37.5909   32.2610 C   0  0  0  0  0  0  0  0  0  0  0  0
    9.9333   37.1935   31.2754 O   0  0  0  0  0  0  0  0  0  0  0  0
   12.1945   36.6671   31.9040 C   0  0  0  0  0  0  0  0  0  0  0  0
   13.8036   37.2970   33.6193 N   0  0  0  0  0  0  0  0  0  0  0  0
   12.2893   36.2849   30.5562 O   0  0  0  0  0  0  0  0  0  0  0  0
   14.7931   36.4723   33.9863 C   0  0  0  0  0  0  0  0  0  0  0  0
   13.2756   37.7298   34.7940 C   0  0  0  0  0  0  0  0  0  0  0  0
   15.6242   35.7580   33.1861 N   0  0  0  0  0  0  0  0  0  0  0  0
   14.8727   36.4407   35.3331 C   0  0  0  0  0  0  0  0  0  0  0  0
   13.9210   37.2262   35.8807 N   0  0  0  0  0  0  0  0  0  0  0  0
   16.5872   34.9920   33.7803 C   0  0  0  0  0  0  0  0  0  0  0  0
   15.8577   35.6715   35.9444 C   0  0  0  0  0  0  0  0  0  0  0  0
   16.7025   34.9582   35.1440 N   0  0  0  0  0  0  0  0  0  0  0  0
   16.0101   35.6382   37.3564 N   0  0  0  0  0  0  0  0  0  0  0  0
    7.6767   44.0710   34.0502 H   0  0  0  0  0  0  0  0  0  0  0  0
    9.1823   45.3824   35.3535 H   0  0  0  0  0  0  0  0  0  0  0  0
   10.3190   45.4409   34.1002 H   0  0  0  0  0  0  0  0  0  0  0  0
    8.4814   43.0854   31.8668 H   0  0  0  0  0  0  0  0  0  0  0  0
    9.9711   44.0682   31.9742 H   0  0  0  0  0  0  0  0  0  0  0  0
    8.5403   45.1382   30.4030 H   0  0  0  0  0  0  0  0  0  0  0  0
    8.5541   46.1514   31.8761 H   0  0  0  0  0  0  0  0  0  0  0  0
    6.3313   44.1802   30.9633 H   0  0  0  0  0  0  0  0  0  0  0  0
    6.3005   45.0618   32.5303 H   0  0  0  0  0  0  0  0  0  0  0  0
    6.2499   46.2921   29.7203 H   0  0  0  0  0  0  0  0  0  0  0  0
    4.9245   46.2667   30.9216 H   0  0  0  0  0  0  0  0  0  0  0  0
    6.2731   47.7251   32.4258 H   0  0  0  0  0  0  0  0  0  0  0  0
    7.7934   49.3828   33.2964 H   0  0  0  0  0  0  0  0  0  0  0  0
    6.2434   50.1179   32.7809 H   0  0  0  0  0  0  0  0  0  0  0  0
    9.7110   50.7066   33.7678 H   0  0  0  0  0  0  0  0  0  0  0  0
   10.6542   52.9081   34.3215 H   0  0  0  0  0  0  0  0  0  0  0  0
    7.2279   54.8489   32.6478 H   0  0  0  0  0  0  0  0  0  0  0  0
    9.4085   54.9746   33.7763 H   0  0  0  0  0  0  0  0  0  0  0  0
    9.7422   40.0118   31.9267 H   0  0  0  0  0  0  0  0  0  0  0  0
   11.2111   41.0320   31.8753 H   0  0  0  0  0  0  0  0  0  0  0  0
   11.6005   39.0119   30.5904 H   0  0  0  0  0  0  0  0  0  0  0  0
   10.7015   37.5592   33.1701 H   0  0  0  0  0  0  0  0  0  0  0  0
   14.2012   37.4438   31.5552 H   0  0  0  0  0  0  0  0  0  0  0  0
    9.5289   36.3869   31.6895 H   0  0  0  0  0  0  0  0  0  0  0  0
   12.1244   35.7693   32.5633 H   0  0  0  0  0  0  0  0  0  0  0  0
   12.9478   35.5427   30.5201 H   0  0  0  0  0  0  0  0  0  0  0  0
   12.4328   38.3993   34.8697 H   0  0  0  0  0  0  0  0  0  0  0  0
   17.2666   34.4140   33.1692 H   0  0  0  0  0  0  0  0  0  0  0  0
   15.3759   36.1865   37.9791 H   0  0  0  0  0  0  0  0  0  0  0  0
   16.7636   35.0598   37.7897 H   0  0  0  0  0  0  0  0  0  0  0  0
  1  2  2  0
  1  3  1  0
  3  4  1  0
  4  5  1  0
  6  1  1  0
  7  6  1  0
  6  8  1  0
  8  9  1  0
  9 10  1  0
 10 11  1  0
 11 12  1  0
 12 13  1  0
 13 14  1  0
 13 15  2  0
 14 16  1  0
 16 17  1  0
 17 18  2  0
 19 17  1  0
 18 20  1  0
 21 19  2  0
 19 22  1  0
 20 23  2  0
 23 21  1  0
 22 24  1  0
 22 25  2  0
  4 26  2  0
  4 27  1  0
 28 27  1  0
 28 29  1  0
 29 30  1  0
 29 31  1  0
 30 32  1  0
 31 33  1  0
 31 34  1  0
 34 32  1  0
 32 35  1  0
 34 36  1  0
 37 35  1  0
 38 35  1  0
 39 37  2  0
 37 40  1  0
 41 38  2  0
 42 39  1  0
 40 43  2  0
 40 41  1  0
 44 42  2  0
 44 43  1  0
 43 45  1  0
  6 46  1  6
  7 47  1  0
  7 48  1  0
  8 49  1  0
  8 50  1  0
  9 51  1  0
  9 52  1  0
 10 53  1  0
 10 54  1  0
 11 55  1  0
 11 56  1  0
 12 57  1  0
 16 58  1  0
 16 59  1  0
 18 60  1  0
 20 61  1  0
 21 62  1  0
 23 63  1  0
 28 64  1  0
 28 65  1  0
 29 66  1  0
 31 67  1  0
 32 68  1  0
 33 69  1  0
 34 70  1  0
 36 71  1  0
 38 72  1  0
 42 73  1  0
 45 74  1  0
 45 75  1  0
M  CHG  3   5  -1  22   1  24  -1
M  END
>  <EmbedRMS>  (295) 
0.0743360817649

$$$$

     RDKit          3D

 75 78  0  0  0  0  0  0  0  0999 V2000
    9.4311   42.9415   34.3436 C   0  0  0  0  0  0  0  0  0  0  0  0
   10.4885   43.0412   35.0292 O   0  0  0  0  0  0  0  0  0  0  0  0
    8.8558   41.7132   34.0290 O   0  0  0  0  0  0  0  0  0  0  0  0
    9.4945   40.2165   34.4675 P   0  0  0  0  0  0  0  0  0  0  0  0
    9.7318   40.1741   36.1285 O   0  0  0  0  0  0  0  0  0  0  0  0
    8.7485   44.1368   33.7721 C   0  0  1  0  0  0  0  0  0  0  0  0
    9.3043   45.3673   34.3387 N   0  0  0  0  0  0  0  0  0  0  0  0
    8.8891   44.0529   32.2308 C   0  0  0  0  0  0  0  0  0  0  0  0
    8.2009   45.1735   31.4440 C   0  0  0  0  0  0  0  0  0  0  0  0
    6.6636   45.1067   31.4880 C   0  0  0  0  0  0  0  0  0  0  0  0
    6.0247   46.3225   30.8097 C   0  0  0  0  0  0  0  0  0  0  0  0
    6.5025   47.5642   31.4169 N   0  0  0  0  0  0  0  0  0  0  0  0
    7.2572   48.5311   30.6896 C   0  0  0  0  0  0  0  0  0  0  0  0
    7.6684   49.6980   31.3376 O   0  0  0  0  0  0  0  0  0  0  0  0
    7.5876   48.3148   29.4921 O   0  0  0  0  0  0  0  0  0  0  0  0
    8.4976   50.6750   30.7165 C   0  0  0  0  0  0  0  0  0  0  0  0
    8.8957   51.7179   31.7307 C   0  0  0  0  0  0  0  0  0  0  0  0
    8.5638   53.0626   31.4814 C   0  0  0  0  0  0  0  0  0  0  0  0
    9.5568   51.3797   32.9448 C   0  0  0  0  0  0  0  0  0  0  0  0
    8.8661   54.0560   32.4132 C   0  0  0  0  0  0  0  0  0  0  0  0
    9.8369   52.3961   33.8757 C   0  0  0  0  0  0  0  0  0  0  0  0
    9.9277   50.0254   33.2657 N   0  0  0  0  0  0  0  0  0  0  0  0
    9.4978   53.7231   33.6092 C   0  0  0  0  0  0  0  0  0  0  0  0
    9.9827   49.6220   34.5802 O   0  0  0  0  0  0  0  0  0  0  0  0
   10.3534   49.2513   32.3845 O   0  0  0  0  0  0  0  0  0  0  0  0
    8.5374   39.1403   34.0124 O   0  0  0  0  0  0  0  0  0  0  0  0
   10.9796   40.0898   33.6814 O   0  0  0  0  0  0  0  0  0  0  0  0
   10.7982   40.0851   32.2818 C   0  0  0  0  0  0  0  0  0  0  0  0
   11.5886   38.9143   31.7009 C   0  0  0  0  0  0  0  0  0  0  0  0
   12.9213   38.9368   32.1699 O   0  0  0  0  0  0  0  0  0  0  0  0
   11.0047   37.5661   32.0991 C   0  0  0  0  0  0  0  0  0  0  0  0
   13.3510   37.5885   32.2602 C   0  0  0  0  0  0  0  0  0  0  0  0
    9.9296   37.1962   31.2780 O   0  0  0  0  0  0  0  0  0  0  0  0
   12.1923   36.6659   31.9047 C   0  0  0  0  0  0  0  0  0  0  0  0
   13.8033   37.2967   33.6188 N   0  0  0  0  0  0  0  0  0  0  0  0
   12.3006   36.2865   30.5562 O   0  0  0  0  0  0  0  0  0  0  0  0
   14.7933   36.4724   33.9860 C   0  0  0  0  0  0  0  0  0  0  0  0
   13.2753   37.7296   34.7935 C   0  0  0  0  0  0  0  0  0  0  0  0
   15.6243   35.7579   33.1860 N   0  0  0  0  0  0  0  0  0  0  0  0
   14.8728   36.4410   35.3328 C   0  0  0  0  0  0  0  0  0  0  0  0
   13.9209   37.2263   35.8804 N   0  0  0  0  0  0  0  0  0  0  0  0
   16.5873   34.9919   33.7803 C   0  0  0  0  0  0  0  0  0  0  0  0
   15.8577   35.6717   35.9443 C   0  0  0  0  0  0  0  0  0  0  0  0
   16.7025   34.9583   35.1440 N   0  0  0  0  0  0  0  0  0  0  0  0
   16.0100   35.6384   37.3563 N   0  0  0  0  0  0  0  0  0  0  0  0
    7.6765   44.0646   34.0548 H   0  0  0  0  0  0  0  0  0  0  0  0
   10.2153   45.5892   33.8742 H   0  0  0  0  0  0  0  0  0  0  0  0
    8.6474   46.1571   34.1437 H   0  0  0  0  0  0  0  0  0  0  0  0
    9.9706   44.0657   31.9678 H   0  0  0  0  0  0  0  0  0  0  0  0
    8.4831   43.0829   31.8665 H   0  0  0  0  0  0  0  0  0  0  0  0
    8.5201   45.0984   30.3813 H   0  0  0  0  0  0  0  0  0  0  0  0
    8.5697   46.1502   31.8189 H   0  0  0  0  0  0  0  0  0  0  0  0
    6.3129   45.0789   32.5405 H   0  0  0  0  0  0  0  0  0  0  0  0
    6.3154   44.1794   30.9835 H   0  0  0  0  0  0  0  0  0  0  0  0
    6.2454   46.2887   29.7212 H   0  0  0  0  0  0  0  0  0  0  0  0
    4.9213   46.2667   30.9251 H   0  0  0  0  0  0  0  0  0  0  0  0
    6.2844   47.7495   32.4218 H   0  0  0  0  0  0  0  0  0  0  0  0
    7.9426   51.1289   29.8665 H   0  0  0  0  0  0  0  0  0  0  0  0
    9.4096   50.1996   30.2975 H   0  0  0  0  0  0  0  0  0  0  0  0
    8.0607   53.3458   30.5650 H   0  0  0  0  0  0  0  0  0  0  0  0
    8.6039   55.0863   32.2096 H   0  0  0  0  0  0  0  0  0  0  0  0
   10.3352   52.1624   34.8081 H   0  0  0  0  0  0  0  0  0  0  0  0
    9.7273   54.4954   34.3321 H   0  0  0  0  0  0  0  0  0  0  0  0
   11.2130   41.0321   31.8751 H   0  0  0  0  0  0  0  0  0  0  0  0
    9.7426   40.0141   31.9266 H   0  0  0  0  0  0  0  0  0  0  0  0
   11.5980   39.0108   30.5905 H   0  0  0  0  0  0  0  0  0  0  0  0
   10.7008   37.5604   33.1721 H   0  0  0  0  0  0  0  0  0  0  0  0
   14.1976   37.4380   31.5532 H   0  0  0  0  0  0  0  0  0  0  0  0
    9.5180   36.3962   31.6978 H   0  0  0  0  0  0  0  0  0  0  0  0
   12.1418   35.7698   32.5693 H   0  0  0  0  0  0  0  0  0  0  0  0
   11.7729   35.4524   30.4489 H   0  0  0  0  0  0  0  0  0  0  0  0
   12.4321   38.3985   34.8692 H   0  0  0  0  0  0  0  0  0  0  0  0
   17.2667   34.4138   33.1694 H   0  0  0  0  0  0  0  0  0  0  0  0
   16.7634   35.0598   37.7897 H   0  0  0  0  0  0  0  0  0  0  0  0
   15.3757   36.1867   37.9790 H   0  0  0  0  0  0  0  0  0  0  0  0
  1  2  2  0
  1  3  1  0
  3  4  1  0
  4  5  1  0
  6  1  1  0
  7  6  1  0
  6  8  1  0
  8  9  1  0
  9 10  1  0
 10 11  1  0
 11 12  1  0
 12 13  1  0
 13 14  1  0
 13 15  2  0
 14 16  1  0
 16 17  1  0
 17 18  2  0
 19 17  1  0
 18 20  1  0
 21 19  2  0
 19 22  1  0
 20 23  2  0
 23 21  1  0
 22 24  1  0
 22 25  2  0
  4 26  2  0
  4 27  1  0
 28 27  1  0
 28 29  1  0
 29 30  1  0
 29 31  1  0
 30 32  1  0
 31 33  1  0
 31 34  1  0
 34 32  1  0
 32 35  1  0
 34 36  1  0
 37 35  1  0
 38 35  1  0
 39 37  2  0
 37 40  1  0
 41 38  2  0
 42 39  1  0
 40 43  2  0
 40 41  1  0
 44 42  2  0
 44 43  1  0
 43 45  1  0
  6 46  1  6
  7 47  1  0
  7 48  1  0
  8 49  1  0
  8 50  1  0
  9 51  1  0
  9 52  1  0
 10 53  1  0
 10 54  1  0
 11 55  1  0
 11 56  1  0
 12 57  1  0
 16 58  1  0
 16 59  1  0
 18 60  1  0
 20 61  1  0
 21 62  1  0
 23 63  1  0
 28 64  1  0
 28 65  1  0
 29 66  1  0
 31 67  1  0
 32 68  1  0
 33 69  1  0
 34 70  1  0
 36 71  1  0
 38 72  1  0
 42 73  1  0
 45 74  1  0
 45 75  1  0
M  CHG  3   5  -1  22   1  24  -1
M  END
>  <EmbedRMS>  (296) 
0.0739333334315

$$$$

     RDKit          3D

 75 78  0  0  0  0  0  0  0  0999 V2000
    9.4313   42.9413   34.3436 C   0  0  0  0  0  0  0  0  0  0  0  0
   10.4885   43.0411   35.0293 O   0  0  0  0  0  0  0  0  0  0  0  0
    8.8562   41.7130   34.0286 O   0  0  0  0  0  0  0  0  0  0  0  0
    9.4945   40.2162   34.4677 P   0  0  0  0  0  0  0  0  0  0  0  0
    9.7312   40.1741   36.1288 O   0  0  0  0  0  0  0  0  0  0  0  0
    8.7485   44.1364   33.7721 C   0  0  1  0  0  0  0  0  0  0  0  0
    9.3042   45.3670   34.3387 N   0  0  0  0  0  0  0  0  0  0  0  0
    8.8892   44.0526   32.2308 C   0  0  0  0  0  0  0  0  0  0  0  0
    8.2011   45.1731   31.4439 C   0  0  0  0  0  0  0  0  0  0  0  0
    6.6638   45.1067   31.4884 C   0  0  0  0  0  0  0  0  0  0  0  0
    6.0253   46.3229   30.8107 C   0  0  0  0  0  0  0  0  0  0  0  0
    6.5041   47.5645   31.4176 N   0  0  0  0  0  0  0  0  0  0  0  0
    7.2518   48.5345   30.6871 C   0  0  0  0  0  0  0  0  0  0  0  0
    7.6387   49.7158   31.3246 O   0  0  0  0  0  0  0  0  0  0  0  0
    7.5903   48.3129   29.4928 O   0  0  0  0  0  0  0  0  0  0  0  0
    8.4457   50.7031   30.6920 C   0  0  0  0  0  0  0  0  0  0  0  0
    8.7503   51.8046   31.6730 C   0  0  0  0  0  0  0  0  0  0  0  0
    7.9777   52.9792   31.6253 C   0  0  0  0  0  0  0  0  0  0  0  0
    9.8039   51.7034   32.6208 C   0  0  0  0  0  0  0  0  0  0  0  0
    8.2494   54.0457   32.4830 C   0  0  0  0  0  0  0  0  0  0  0  0
   10.0700   52.7973   33.4655 C   0  0  0  0  0  0  0  0  0  0  0  0
   10.6168   50.5200   32.7320 N   0  0  0  0  0  0  0  0  0  0  0  0
    9.2965   53.9569   33.3978 C   0  0  0  0  0  0  0  0  0  0  0  0
   10.0559   49.2685   32.6265 O   0  0  0  0  0  0  0  0  0  0  0  0
   11.8095   50.6125   33.0895 O   0  0  0  0  0  0  0  0  0  0  0  0
    8.5374   39.1401   34.0124 O   0  0  0  0  0  0  0  0  0  0  0  0
   10.9799   40.0879   33.6828 O   0  0  0  0  0  0  0  0  0  0  0  0
   10.8002   40.0907   32.2831 C   0  0  0  0  0  0  0  0  0  0  0  0
   11.5958   38.9271   31.6964 C   0  0  0  0  0  0  0  0  0  0  0  0
   12.9239   38.9409   32.1767 O   0  0  0  0  0  0  0  0  0  0  0  0
   11.0062   37.5720   32.0794 C   0  0  0  0  0  0  0  0  0  0  0  0
   13.3506   37.5906   32.2614 C   0  0  0  0  0  0  0  0  0  0  0  0
    9.9064   37.1793   31.2946 O   0  0  0  0  0  0  0  0  0  0  0  0
   12.1919   36.6672   31.9004 C   0  0  0  0  0  0  0  0  0  0  0  0
   13.8017   37.2948   33.6193 N   0  0  0  0  0  0  0  0  0  0  0  0
   12.3133   36.2788   30.5561 O   0  0  0  0  0  0  0  0  0  0  0  0
   14.7927   36.4717   33.9862 C   0  0  0  0  0  0  0  0  0  0  0  0
   13.2746   37.7284   34.7941 C   0  0  0  0  0  0  0  0  0  0  0  0
   15.6240   35.7576   33.1859 N   0  0  0  0  0  0  0  0  0  0  0  0
   14.8728   36.4406   35.3330 C   0  0  0  0  0  0  0  0  0  0  0  0
   13.9209   37.2258   35.8808 N   0  0  0  0  0  0  0  0  0  0  0  0
   16.5874   34.9920   33.7802 C   0  0  0  0  0  0  0  0  0  0  0  0
   15.8579   35.6716   35.9443 C   0  0  0  0  0  0  0  0  0  0  0  0
   16.7028   34.9584   35.1439 N   0  0  0  0  0  0  0  0  0  0  0  0
   16.0103   35.6383   37.3563 N   0  0  0  0  0  0  0  0  0  0  0  0
    7.6765   44.0640   34.0547 H   0  0  0  0  0  0  0  0  0  0  0  0
   10.2153   45.5887   33.8743 H   0  0  0  0  0  0  0  0  0  0  0  0
    8.6472   46.1565   34.1433 H   0  0  0  0  0  0  0  0  0  0  0  0
    8.4831   43.0825   31.8664 H   0  0  0  0  0  0  0  0  0  0  0  0
    9.9707   44.0653   31.9678 H   0  0  0  0  0  0  0  0  0  0  0  0
    8.5200   45.0977   30.3811 H   0  0  0  0  0  0  0  0  0  0  0  0
    8.5703   46.1498   31.8184 H   0  0  0  0  0  0  0  0  0  0  0  0
    6.3152   44.1796   30.9838 H   0  0  0  0  0  0  0  0  0  0  0  0
    6.3134   45.0789   32.5410 H   0  0  0  0  0  0  0  0  0  0  0  0
    6.2451   46.2890   29.7220 H   0  0  0  0  0  0  0  0  0  0  0  0
    4.9219   46.2676   30.9269 H   0  0  0  0  0  0  0  0  0  0  0  0
    6.2842   47.7514   32.4218 H   0  0  0  0  0  0  0  0  0  0  0  0
    9.3900   50.2529   30.3165 H   0  0  0  0  0  0  0  0  0  0  0  0
    7.9017   51.1050   29.8089 H   0  0  0  0  0  0  0  0  0  0  0  0
    7.1640   53.0736   30.9165 H   0  0  0  0  0  0  0  0  0  0  0  0
    7.6492   54.9452   32.4345 H   0  0  0  0  0  0  0  0  0  0  0  0
   10.8708   52.7456   34.1924 H   0  0  0  0  0  0  0  0  0  0  0  0
    9.5074   54.7870   34.0597 H   0  0  0  0  0  0  0  0  0  0  0  0
   11.2115   41.0421   31.8829 H   0  0  0  0  0  0  0  0  0  0  0  0
    9.7454   40.0168   31.9263 H   0  0  0  0  0  0  0  0  0  0  0  0
   11.6246   39.0449   30.5889 H   0  0  0  0  0  0  0  0  0  0  0  0
   10.7050   37.5582   33.1500 H   0  0  0  0  0  0  0  0  0  0  0  0
   14.1984   37.4426   31.5553 H   0  0  0  0  0  0  0  0  0  0  0  0
   10.0893   37.4058   30.3459 H   0  0  0  0  0  0  0  0  0  0  0  0
   12.1337   35.7755   32.5703 H   0  0  0  0  0  0  0  0  0  0  0  0
   11.7933   35.4394   30.4514 H   0  0  0  0  0  0  0  0  0  0  0  0
   12.4314   38.3973   34.8700 H   0  0  0  0  0  0  0  0  0  0  0  0
   17.2669   34.4141   33.1692 H   0  0  0  0  0  0  0  0  0  0  0  0
   15.3759   36.1865   37.9790 H   0  0  0  0  0  0  0  0  0  0  0  0
   16.7638   35.0599   37.7896 H   0  0  0  0  0  0  0  0  0  0  0  0
  1  2  2  0
  1  3  1  0
  3  4  1  0
  4  5  1  0
  6  1  1  0
  7  6  1  0
  6  8  1  0
  8  9  1  0
  9 10  1  0
 10 11  1  0
 11 12  1  0
 12 13  1  0
 13 14  1  0
 13 15  2  0
 14 16  1  0
 16 17  1  0
 17 18  2  0
 19 17  1  0
 18 20  1  0
 21 19  2  0
 19 22  1  0
 20 23  2  0
 23 21  1  0
 22 24  1  0
 22 25  2  0
  4 26  2  0
  4 27  1  0
 28 27  1  0
 28 29  1  0
 29 30  1  0
 29 31  1  0
 30 32  1  0
 31 33  1  0
 31 34  1  0
 34 32  1  0
 32 35  1  0
 34 36  1  0
 37 35  1  0
 38 35  1  0
 39 37  2  0
 37 40  1  0
 41 38  2  0
 42 39  1  0
 40 43  2  0
 40 41  1  0
 44 42  2  0
 44 43  1  0
 43 45  1  0
  6 46  1  6
  7 47  1  0
  7 48  1  0
  8 49  1  0
  8 50  1  0
  9 51  1  0
  9 52  1  0
 10 53  1  0
 10 54  1  0
 11 55  1  0
 11 56  1  0
 12 57  1  0
 16 58  1  0
 16 59  1  0
 18 60  1  0
 20 61  1  0
 21 62  1  0
 23 63  1  0
 28 64  1  0
 28 65  1  0
 29 66  1  0
 31 67  1  0
 32 68  1  0
 33 69  1  0
 34 70  1  0
 36 71  1  0
 38 72  1  0
 42 73  1  0
 45 74  1  0
 45 75  1  0
M  CHG  3   5  -1  22   1  24  -1
M  END
>  <EmbedRMS>  (297) 
0.0741775598974

$$$$

     RDKit          3D

 75 78  0  0  0  0  0  0  0  0999 V2000
    9.4333   42.9364   34.3461 C   0  0  0  0  0  0  0  0  0  0  0  0
   10.4907   43.0329   35.0318 O   0  0  0  0  0  0  0  0  0  0  0  0
    8.8563   41.7103   34.0295 O   0  0  0  0  0  0  0  0  0  0  0  0
    9.4943   40.2139   34.4679 P   0  0  0  0  0  0  0  0  0  0  0  0
    9.7310   40.1724   36.1290 O   0  0  0  0  0  0  0  0  0  0  0  0
    8.7506   44.1347   33.7741 C   0  0  1  0  0  0  0  0  0  0  0  0
    9.2963   45.3819   34.3133 N   0  0  0  0  0  0  0  0  0  0  0  0
    8.8893   44.0527   32.2358 C   0  0  0  0  0  0  0  0  0  0  0  0
    8.2029   45.1823   31.4614 C   0  0  0  0  0  0  0  0  0  0  0  0
    6.6654   45.1046   31.4855 C   0  0  0  0  0  0  0  0  0  0  0  0
    6.0272   46.3228   30.8107 C   0  0  0  0  0  0  0  0  0  0  0  0
    6.5069   47.5641   31.4183 N   0  0  0  0  0  0  0  0  0  0  0  0
    7.2416   48.5404   30.6828 C   0  0  0  0  0  0  0  0  0  0  0  0
    7.5836   49.7470   31.3031 O   0  0  0  0  0  0  0  0  0  0  0  0
    7.5945   48.3105   29.4942 O   0  0  0  0  0  0  0  0  0  0  0  0
    8.3059   50.7861   30.6440 C   0  0  0  0  0  0  0  0  0  0  0  0
    7.4451   51.4437   29.5888 C   0  0  0  0  0  0  0  0  0  0  0  0
    6.1729   51.9108   29.9655 C   0  0  0  0  0  0  0  0  0  0  0  0
    7.8517   51.5622   28.2347 C   0  0  0  0  0  0  0  0  0  0  0  0
    5.3013   52.4479   29.0169 C   0  0  0  0  0  0  0  0  0  0  0  0
    6.9530   52.0882   27.2901 C   0  0  0  0  0  0  0  0  0  0  0  0
    9.1694   51.1855   27.8078 N   0  0  0  0  0  0  0  0  0  0  0  0
    5.6869   52.5275   27.6799 C   0  0  0  0  0  0  0  0  0  0  0  0
   10.2709   51.6810   28.4667 O   0  0  0  0  0  0  0  0  0  0  0  0
    9.3296   50.6173   26.7079 O   0  0  0  0  0  0  0  0  0  0  0  0
    8.5372   39.1382   34.0121 O   0  0  0  0  0  0  0  0  0  0  0  0
   10.9798   40.0870   33.6829 O   0  0  0  0  0  0  0  0  0  0  0  0
   10.8002   40.0905   32.2832 C   0  0  0  0  0  0  0  0  0  0  0  0
   11.5958   38.9271   31.6963 C   0  0  0  0  0  0  0  0  0  0  0  0
   12.9239   38.9408   32.1766 O   0  0  0  0  0  0  0  0  0  0  0  0
   11.0062   37.5719   32.0793 C   0  0  0  0  0  0  0  0  0  0  0  0
   13.3507   37.5905   32.2614 C   0  0  0  0  0  0  0  0  0  0  0  0
    9.9064   37.1792   31.2946 O   0  0  0  0  0  0  0  0  0  0  0  0
   12.1920   36.6671   31.9003 C   0  0  0  0  0  0  0  0  0  0  0  0
   13.8017   37.2948   33.6193 N   0  0  0  0  0  0  0  0  0  0  0  0
   12.3134   36.2788   30.5560 O   0  0  0  0  0  0  0  0  0  0  0  0
   14.7927   36.4716   33.9861 C   0  0  0  0  0  0  0  0  0  0  0  0
   13.2746   37.7284   34.7941 C   0  0  0  0  0  0  0  0  0  0  0  0
   15.6240   35.7576   33.1859 N   0  0  0  0  0  0  0  0  0  0  0  0
   14.8728   36.4406   35.3330 C   0  0  0  0  0  0  0  0  0  0  0  0
   13.9209   37.2258   35.8808 N   0  0  0  0  0  0  0  0  0  0  0  0
   16.5874   34.9920   33.7802 C   0  0  0  0  0  0  0  0  0  0  0  0
   15.8579   35.6716   35.9443 C   0  0  0  0  0  0  0  0  0  0  0  0
   16.7028   34.9584   35.1439 N   0  0  0  0  0  0  0  0  0  0  0  0
   16.0103   35.6383   37.3563 N   0  0  0  0  0  0  0  0  0  0  0  0
    7.6770   44.0706   34.0504 H   0  0  0  0  0  0  0  0  0  0  0  0
    9.1827   45.3819   35.3535 H   0  0  0  0  0  0  0  0  0  0  0  0
   10.3192   45.4406   34.1000 H   0  0  0  0  0  0  0  0  0  0  0  0
    8.4816   43.0851   31.8668 H   0  0  0  0  0  0  0  0  0  0  0  0
    9.9711   44.0681   31.9739 H   0  0  0  0  0  0  0  0  0  0  0  0
    8.5553   46.1510   31.8741 H   0  0  0  0  0  0  0  0  0  0  0  0
    8.5385   45.1362   30.4021 H   0  0  0  0  0  0  0  0  0  0  0  0
    6.3020   45.0641   32.5333 H   0  0  0  0  0  0  0  0  0  0  0  0
    6.3296   44.1802   30.9675 H   0  0  0  0  0  0  0  0  0  0  0  0
    6.2463   46.2901   29.7218 H   0  0  0  0  0  0  0  0  0  0  0  0
    4.9237   46.2678   30.9270 H   0  0  0  0  0  0  0  0  0  0  0  0
    6.2817   47.7538   32.4208 H   0  0  0  0  0  0  0  0  0  0  0  0
    9.2432   50.3597   30.2354 H   0  0  0  0  0  0  0  0  0  0  0  0
    8.5871   51.5520   31.3968 H   0  0  0  0  0  0  0  0  0  0  0  0
    5.8477   51.8399   30.9963 H   0  0  0  0  0  0  0  0  0  0  0  0
    4.3213   52.7949   29.3183 H   0  0  0  0  0  0  0  0  0  0  0  0
    7.2451   52.1811   26.2515 H   0  0  0  0  0  0  0  0  0  0  0  0
    5.0076   52.9401   26.9451 H   0  0  0  0  0  0  0  0  0  0  0  0
   11.2116   41.0420   31.8834 H   0  0  0  0  0  0  0  0  0  0  0  0
    9.7455   40.0167   31.9263 H   0  0  0  0  0  0  0  0  0  0  0  0
   11.6245   39.0449   30.5888 H   0  0  0  0  0  0  0  0  0  0  0  0
   10.7051   37.5579   33.1499 H   0  0  0  0  0  0  0  0  0  0  0  0
   14.1985   37.4426   31.5553 H   0  0  0  0  0  0  0  0  0  0  0  0
   10.0893   37.4057   30.3459 H   0  0  0  0  0  0  0  0  0  0  0  0
   12.1337   35.7754   32.5703 H   0  0  0  0  0  0  0  0  0  0  0  0
   11.7934   35.4394   30.4513 H   0  0  0  0  0  0  0  0  0  0  0  0
   12.4314   38.3973   34.8700 H   0  0  0  0  0  0  0  0  0  0  0  0
   17.2669   34.4142   33.1692 H   0  0  0  0  0  0  0  0  0  0  0  0
   15.3759   36.1864   37.9790 H   0  0  0  0  0  0  0  0  0  0  0  0
   16.7638   35.0599   37.7896 H   0  0  0  0  0  0  0  0  0  0  0  0
  1  2  2  0
  1  3  1  0
  3  4  1  0
  4  5  1  0
  6  1  1  0
  7  6  1  0
  6  8  1  0
  8  9  1  0
  9 10  1  0
 10 11  1  0
 11 12  1  0
 12 13  1  0
 13 14  1  0
 13 15  2  0
 14 16  1  0
 16 17  1  0
 17 18  2  0
 19 17  1  0
 18 20  1  0
 21 19  2  0
 19 22  1  0
 20 23  2  0
 23 21  1  0
 22 24  1  0
 22 25  2  0
  4 26  2  0
  4 27  1  0
 28 27  1  0
 28 29  1  0
 29 30  1  0
 29 31  1  0
 30 32  1  0
 31 33  1  0
 31 34  1  0
 34 32  1  0
 32 35  1  0
 34 36  1  0
 37 35  1  0
 38 35  1  0
 39 37  2  0
 37 40  1  0
 41 38  2  0
 42 39  1  0
 40 43  2  0
 40 41  1  0
 44 42  2  0
 44 43  1  0
 43 45  1  0
  6 46  1  6
  7 47  1  0
  7 48  1  0
  8 49  1  0
  8 50  1  0
  9 51  1  0
  9 52  1  0
 10 53  1  0
 10 54  1  0
 11 55  1  0
 11 56  1  0
 12 57  1  0
 16 58  1  0
 16 59  1  0
 18 60  1  0
 20 61  1  0
 21 62  1  0
 23 63  1  0
 28 64  1  0
 28 65  1  0
 29 66  1  0
 31 67  1  0
 32 68  1  0
 33 69  1  0
 34 70  1  0
 36 71  1  0
 38 72  1  0
 42 73  1  0
 45 74  1  0
 45 75  1  0
M  CHG  3   5  -1  22   1  24  -1
M  END
>  <EmbedRMS>  (298) 
0.07474448268

$$$$

     RDKit          3D

 75 78  0  0  0  0  0  0  0  0999 V2000
    9.4333   42.9365   34.3461 C   0  0  0  0  0  0  0  0  0  0  0  0
   10.4907   43.0329   35.0319 O   0  0  0  0  0  0  0  0  0  0  0  0
    8.8563   41.7103   34.0295 O   0  0  0  0  0  0  0  0  0  0  0  0
    9.4943   40.2139   34.4679 P   0  0  0  0  0  0  0  0  0  0  0  0
    9.7310   40.1724   36.1290 O   0  0  0  0  0  0  0  0  0  0  0  0
    8.7506   44.1348   33.7741 C   0  0  1  0  0  0  0  0  0  0  0  0
    9.2963   45.3820   34.3133 N   0  0  0  0  0  0  0  0  0  0  0  0
    8.8893   44.0528   32.2358 C   0  0  0  0  0  0  0  0  0  0  0  0
    8.2028   45.1824   31.4615 C   0  0  0  0  0  0  0  0  0  0  0  0
    6.6653   45.1046   31.4855 C   0  0  0  0  0  0  0  0  0  0  0  0
    6.0269   46.3225   30.8104 C   0  0  0  0  0  0  0  0  0  0  0  0
    6.5061   47.5640   31.4179 N   0  0  0  0  0  0  0  0  0  0  0  0
    7.2443   48.5388   30.6838 C   0  0  0  0  0  0  0  0  0  0  0  0
    7.5982   49.7376   31.3083 O   0  0  0  0  0  0  0  0  0  0  0  0
    7.5931   48.3120   29.4935 O   0  0  0  0  0  0  0  0  0  0  0  0
    8.3528   50.7547   30.6532 C   0  0  0  0  0  0  0  0  0  0  0  0
    8.6154   51.9313   31.5682 C   0  0  0  0  0  0  0  0  0  0  0  0
    8.4835   51.7832   32.9648 C   0  0  0  0  0  0  0  0  0  0  0  0
    8.9904   53.1978   31.0436 C   0  0  0  0  0  0  0  0  0  0  0  0
    8.6772   52.8692   33.8192 C   0  0  0  0  0  0  0  0  0  0  0  0
    9.1640   54.2825   31.9230 C   0  0  0  0  0  0  0  0  0  0  0  0
    9.1948   53.4028   29.6333 N   0  0  0  0  0  0  0  0  0  0  0  0
    9.0085   54.1177   33.2992 C   0  0  0  0  0  0  0  0  0  0  0  0
    9.8247   52.4471   28.8702 O   0  0  0  0  0  0  0  0  0  0  0  0
    8.9557   54.5162   29.1214 O   0  0  0  0  0  0  0  0  0  0  0  0
    8.5372   39.1382   34.0121 O   0  0  0  0  0  0  0  0  0  0  0  0
   10.9798   40.0870   33.6829 O   0  0  0  0  0  0  0  0  0  0  0  0
   10.8002   40.0905   32.2832 C   0  0  0  0  0  0  0  0  0  0  0  0
   11.5958   38.9271   31.6963 C   0  0  0  0  0  0  0  0  0  0  0  0
   12.9239   38.9408   32.1766 O   0  0  0  0  0  0  0  0  0  0  0  0
   11.0062   37.5719   32.0793 C   0  0  0  0  0  0  0  0  0  0  0  0
   13.3507   37.5905   32.2614 C   0  0  0  0  0  0  0  0  0  0  0  0
    9.9064   37.1792   31.2946 O   0  0  0  0  0  0  0  0  0  0  0  0
   12.1920   36.6671   31.9003 C   0  0  0  0  0  0  0  0  0  0  0  0
   13.8017   37.2948   33.6193 N   0  0  0  0  0  0  0  0  0  0  0  0
   12.3134   36.2788   30.5560 O   0  0  0  0  0  0  0  0  0  0  0  0
   14.7927   36.4717   33.9862 C   0  0  0  0  0  0  0  0  0  0  0  0
   13.2746   37.7284   34.7941 C   0  0  0  0  0  0  0  0  0  0  0  0
   15.6240   35.7576   33.1859 N   0  0  0  0  0  0  0  0  0  0  0  0
   14.8728   36.4406   35.3330 C   0  0  0  0  0  0  0  0  0  0  0  0
   13.9209   37.2258   35.8808 N   0  0  0  0  0  0  0  0  0  0  0  0
   16.5874   34.9920   33.7802 C   0  0  0  0  0  0  0  0  0  0  0  0
   15.8579   35.6716   35.9443 C   0  0  0  0  0  0  0  0  0  0  0  0
   16.7028   34.9584   35.1439 N   0  0  0  0  0  0  0  0  0  0  0  0
   16.0103   35.6383   37.3563 N   0  0  0  0  0  0  0  0  0  0  0  0
    7.6770   44.0706   34.0504 H   0  0  0  0  0  0  0  0  0  0  0  0
   10.3192   45.4407   34.1000 H   0  0  0  0  0  0  0  0  0  0  0  0
    9.1827   45.3820   35.3535 H   0  0  0  0  0  0  0  0  0  0  0  0
    9.9711   44.0682   31.9739 H   0  0  0  0  0  0  0  0  0  0  0  0
    8.4817   43.0852   31.8668 H   0  0  0  0  0  0  0  0  0  0  0  0
    8.5551   46.1511   31.8744 H   0  0  0  0  0  0  0  0  0  0  0  0
    8.5385   45.1365   30.4023 H   0  0  0  0  0  0  0  0  0  0  0  0
    6.3297   44.1799   30.9678 H   0  0  0  0  0  0  0  0  0  0  0  0
    6.3019   45.0643   32.5333 H   0  0  0  0  0  0  0  0  0  0  0  0
    6.2464   46.2897   29.7216 H   0  0  0  0  0  0  0  0  0  0  0  0
    4.9234   46.2672   30.9264 H   0  0  0  0  0  0  0  0  0  0  0  0
    6.2826   47.7527   32.4210 H   0  0  0  0  0  0  0  0  0  0  0  0
    7.7731   51.0982   29.7689 H   0  0  0  0  0  0  0  0  0  0  0  0
    9.3250   50.3347   30.3166 H   0  0  0  0  0  0  0  0  0  0  0  0
    8.2271   50.8274   33.4033 H   0  0  0  0  0  0  0  0  0  0  0  0
    8.5669   52.7420   34.8885 H   0  0  0  0  0  0  0  0  0  0  0  0
    9.4419   55.2572   31.5421 H   0  0  0  0  0  0  0  0  0  0  0  0
    9.1550   54.9587   33.9647 H   0  0  0  0  0  0  0  0  0  0  0  0
   11.2116   41.0420   31.8834 H   0  0  0  0  0  0  0  0  0  0  0  0
    9.7455   40.0167   31.9263 H   0  0  0  0  0  0  0  0  0  0  0  0
   11.6245   39.0449   30.5888 H   0  0  0  0  0  0  0  0  0  0  0  0
   10.7051   37.5579   33.1500 H   0  0  0  0  0  0  0  0  0  0  0  0
   14.1985   37.4426   31.5553 H   0  0  0  0  0  0  0  0  0  0  0  0
   10.0893   37.4057   30.3459 H   0  0  0  0  0  0  0  0  0  0  0  0
   12.1337   35.7754   32.5703 H   0  0  0  0  0  0  0  0  0  0  0  0
   11.7934   35.4394   30.4513 H   0  0  0  0  0  0  0  0  0  0  0  0
   12.4314   38.3973   34.8700 H   0  0  0  0  0  0  0  0  0  0  0  0
   17.2669   34.4142   33.1691 H   0  0  0  0  0  0  0  0  0  0  0  0
   15.3759   36.1864   37.9790 H   0  0  0  0  0  0  0  0  0  0  0  0
   16.7638   35.0599   37.7896 H   0  0  0  0  0  0  0  0  0  0  0  0
  1  2  2  0
  1  3  1  0
  3  4  1  0
  4  5  1  0
  6  1  1  0
  7  6  1  0
  6  8  1  0
  8  9  1  0
  9 10  1  0
 10 11  1  0
 11 12  1  0
 12 13  1  0
 13 14  1  0
 13 15  2  0
 14 16  1  0
 16 17  1  0
 17 18  2  0
 19 17  1  0
 18 20  1  0
 21 19  2  0
 19 22  1  0
 20 23  2  0
 23 21  1  0
 22 24  1  0
 22 25  2  0
  4 26  2  0
  4 27  1  0
 28 27  1  0
 28 29  1  0
 29 30  1  0
 29 31  1  0
 30 32  1  0
 31 33  1  0
 31 34  1  0
 34 32  1  0
 32 35  1  0
 34 36  1  0
 37 35  1  0
 38 35  1  0
 39 37  2  0
 37 40  1  0
 41 38  2  0
 42 39  1  0
 40 43  2  0
 40 41  1  0
 44 42  2  0
 44 43  1  0
 43 45  1  0
  6 46  1  6
  7 47  1  0
  7 48  1  0
  8 49  1  0
  8 50  1  0
  9 51  1  0
  9 52  1  0
 10 53  1  0
 10 54  1  0
 11 55  1  0
 11 56  1  0
 12 57  1  0
 16 58  1  0
 16 59  1  0
 18 60  1  0
 20 61  1  0
 21 62  1  0
 23 63  1  0
 28 64  1  0
 28 65  1  0
 29 66  1  0
 31 67  1  0
 32 68  1  0
 33 69  1  0
 34 70  1  0
 36 71  1  0
 38 72  1  0
 42 73  1  0
 45 74  1  0
 45 75  1  0
M  CHG  3   5  -1  22   1  24  -1
M  END
>  <EmbedRMS>  (299) 
0.0748033913056

$$$$

     RDKit          3D

 75 78  0  0  0  0  0  0  0  0999 V2000
    9.4335   42.9371   34.3456 C   0  0  0  0  0  0  0  0  0  0  0  0
   10.4908   43.0334   35.0315 O   0  0  0  0  0  0  0  0  0  0  0  0
    8.8563   41.7109   34.0292 O   0  0  0  0  0  0  0  0  0  0  0  0
    9.4943   40.2145   34.4678 P   0  0  0  0  0  0  0  0  0  0  0  0
    9.7308   40.1729   36.1290 O   0  0  0  0  0  0  0  0  0  0  0  0
    8.7509   44.1358   33.7737 C   0  0  1  0  0  0  0  0  0  0  0  0
    9.2966   45.3829   34.3132 N   0  0  0  0  0  0  0  0  0  0  0  0
    8.8895   44.0547   32.2353 C   0  0  0  0  0  0  0  0  0  0  0  0
    8.2024   45.1850   31.4618 C   0  0  0  0  0  0  0  0  0  0  0  0
    6.6648   45.1058   31.4852 C   0  0  0  0  0  0  0  0  0  0  0  0
    6.0241   46.3218   30.8077 C   0  0  0  0  0  0  0  0  0  0  0  0
    6.4974   47.5651   31.4154 N   0  0  0  0  0  0  0  0  0  0  0  0
    7.2600   48.5283   30.6914 C   0  0  0  0  0  0  0  0  0  0  0  0
    7.6772   49.6932   31.3431 O   0  0  0  0  0  0  0  0  0  0  0  0
    7.5888   48.3120   29.4938 O   0  0  0  0  0  0  0  0  0  0  0  0
    8.6349   50.5992   30.7991 C   0  0  0  0  0  0  0  0  0  0  0  0
   10.0109   49.9745   30.7932 C   0  0  0  0  0  0  0  0  0  0  0  0
   10.5341   49.5156   29.5700 C   0  0  0  0  0  0  0  0  0  0  0  0
   10.7995   49.8617   31.9708 C   0  0  0  0  0  0  0  0  0  0  0  0
   11.8078   48.9505   29.5057 C   0  0  0  0  0  0  0  0  0  0  0  0
   12.0872   49.3005   31.8791 C   0  0  0  0  0  0  0  0  0  0  0  0
   10.3346   50.3323   33.2501 N   0  0  0  0  0  0  0  0  0  0  0  0
   12.5832   48.8439   30.6577 C   0  0  0  0  0  0  0  0  0  0  0  0
    9.0288   50.1482   33.6389 O   0  0  0  0  0  0  0  0  0  0  0  0
   11.1503   50.7712   34.0873 O   0  0  0  0  0  0  0  0  0  0  0  0
    8.5370   39.1389   34.0125 O   0  0  0  0  0  0  0  0  0  0  0  0
   10.9802   40.0879   33.6835 O   0  0  0  0  0  0  0  0  0  0  0  0
   10.8020   40.0894   32.2836 C   0  0  0  0  0  0  0  0  0  0  0  0
   11.5900   38.9178   31.7006 C   0  0  0  0  0  0  0  0  0  0  0  0
   12.9224   38.9390   32.1711 O   0  0  0  0  0  0  0  0  0  0  0  0
   11.0052   37.5676   32.0966 C   0  0  0  0  0  0  0  0  0  0  0  0
   13.3518   37.5909   32.2610 C   0  0  0  0  0  0  0  0  0  0  0  0
    9.9381   37.1795   31.2732 O   0  0  0  0  0  0  0  0  0  0  0  0
   12.1912   36.6689   31.9042 C   0  0  0  0  0  0  0  0  0  0  0  0
   13.8027   37.2968   33.6192 N   0  0  0  0  0  0  0  0  0  0  0  0
   12.2877   36.2853   30.5567 O   0  0  0  0  0  0  0  0  0  0  0  0
   14.7928   36.4724   33.9861 C   0  0  0  0  0  0  0  0  0  0  0  0
   13.2751   37.7297   34.7940 C   0  0  0  0  0  0  0  0  0  0  0  0
   15.6239   35.7581   33.1859 N   0  0  0  0  0  0  0  0  0  0  0  0
   14.8726   36.4408   35.3329 C   0  0  0  0  0  0  0  0  0  0  0  0
   13.9209   37.2262   35.8807 N   0  0  0  0  0  0  0  0  0  0  0  0
   16.5870   34.9922   33.7801 C   0  0  0  0  0  0  0  0  0  0  0  0
   15.8576   35.6716   35.9442 C   0  0  0  0  0  0  0  0  0  0  0  0
   16.7024   34.9584   35.1438 N   0  0  0  0  0  0  0  0  0  0  0  0
   16.0101   35.6383   37.3563 N   0  0  0  0  0  0  0  0  0  0  0  0
    7.6773   44.0717   34.0499 H   0  0  0  0  0  0  0  0  0  0  0  0
    9.1846   45.3822   35.3535 H   0  0  0  0  0  0  0  0  0  0  0  0
   10.3191   45.4428   34.0981 H   0  0  0  0  0  0  0  0  0  0  0  0
    9.9713   44.0711   31.9734 H   0  0  0  0  0  0  0  0  0  0  0  0
    8.4824   43.0871   31.8657 H   0  0  0  0  0  0  0  0  0  0  0  0
    8.5387   45.1407   30.4027 H   0  0  0  0  0  0  0  0  0  0  0  0
    8.5535   46.1539   31.8756 H   0  0  0  0  0  0  0  0  0  0  0  0
    6.3306   44.1798   30.9688 H   0  0  0  0  0  0  0  0  0  0  0  0
    6.3011   45.0664   32.5330 H   0  0  0  0  0  0  0  0  0  0  0  0
    4.9205   46.2631   30.9205 H   0  0  0  0  0  0  0  0  0  0  0  0
    6.2467   46.2889   29.7195 H   0  0  0  0  0  0  0  0  0  0  0  0
    6.2754   47.7512   32.4193 H   0  0  0  0  0  0  0  0  0  0  0  0
    8.6499   51.5283   31.4066 H   0  0  0  0  0  0  0  0  0  0  0  0
    8.3199   50.8984   29.7751 H   0  0  0  0  0  0  0  0  0  0  0  0
    9.9540   49.5954   28.6589 H   0  0  0  0  0  0  0  0  0  0  0  0
   12.1960   48.5984   28.5587 H   0  0  0  0  0  0  0  0  0  0  0  0
   12.7065   49.2047   32.7621 H   0  0  0  0  0  0  0  0  0  0  0  0
   13.5724   48.4077   30.6047 H   0  0  0  0  0  0  0  0  0  0  0  0
    9.7472   40.0310   31.9255 H   0  0  0  0  0  0  0  0  0  0  0  0
   11.2240   41.0357   31.8826 H   0  0  0  0  0  0  0  0  0  0  0  0
   11.5999   39.0159   30.5904 H   0  0  0  0  0  0  0  0  0  0  0  0
   10.7034   37.5450   33.1702 H   0  0  0  0  0  0  0  0  0  0  0  0
   14.1992   37.4424   31.5548 H   0  0  0  0  0  0  0  0  0  0  0  0
    9.1370   37.6634   31.6024 H   0  0  0  0  0  0  0  0  0  0  0  0
   12.1204   35.7712   32.5636 H   0  0  0  0  0  0  0  0  0  0  0  0
   12.9457   35.5426   30.5221 H   0  0  0  0  0  0  0  0  0  0  0  0
   12.4322   38.3989   34.8700 H   0  0  0  0  0  0  0  0  0  0  0  0
   17.2664   34.4142   33.1690 H   0  0  0  0  0  0  0  0  0  0  0  0
   15.3758   36.1865   37.9790 H   0  0  0  0  0  0  0  0  0  0  0  0
   16.7636   35.0598   37.7895 H   0  0  0  0  0  0  0  0  0  0  0  0
  1  2  2  0
  1  3  1  0
  3  4  1  0
  4  5  1  0
  6  1  1  0
  7  6  1  0
  6  8  1  0
  8  9  1  0
  9 10  1  0
 10 11  1  0
 11 12  1  0
 12 13  1  0
 13 14  1  0
 13 15  2  0
 14 16  1  0
 16 17  1  0
 17 18  2  0
 19 17  1  0
 18 20  1  0
 21 19  2  0
 19 22  1  0
 20 23  2  0
 23 21  1  0
 22 24  1  0
 22 25  2  0
  4 26  2  0
  4 27  1  0
 28 27  1  0
 28 29  1  0
 29 30  1  0
 29 31  1  0
 30 32  1  0
 31 33  1  0
 31 34  1  0
 34 32  1  0
 32 35  1  0
 34 36  1  0
 37 35  1  0
 38 35  1  0
 39 37  2  0
 37 40  1  0
 41 38  2  0
 42 39  1  0
 40 43  2  0
 40 41  1  0
 44 42  2  0
 44 43  1  0
 43 45  1  0
  6 46  1  6
  7 47  1  0
  7 48  1  0
  8 49  1  0
  8 50  1  0
  9 51  1  0
  9 52  1  0
 10 53  1  0
 10 54  1  0
 11 55  1  0
 11 56  1  0
 12 57  1  0
 16 58  1  0
 16 59  1  0
 18 60  1  0
 20 61  1  0
 21 62  1  0
 23 63  1  0
 28 64  1  0
 28 65  1  0
 29 66  1  0
 31 67  1  0
 32 68  1  0
 33 69  1  0
 34 70  1  0
 36 71  1  0
 38 72  1  0
 42 73  1  0
 45 74  1  0
 45 75  1  0
M  CHG  3   5  -1  22   1  24  -1
M  END
>  <EmbedRMS>  (300) 
0.0746302238429

$$$$

     RDKit          3D

 75 78  0  0  0  0  0  0  0  0999 V2000
    9.4330   42.9366   34.3463 C   0  0  0  0  0  0  0  0  0  0  0  0
   10.4905   43.0332   35.0319 O   0  0  0  0  0  0  0  0  0  0  0  0
    8.8562   41.7104   34.0295 O   0  0  0  0  0  0  0  0  0  0  0  0
    9.4943   40.2140   34.4679 P   0  0  0  0  0  0  0  0  0  0  0  0
    9.7310   40.1724   36.1290 O   0  0  0  0  0  0  0  0  0  0  0  0
    8.7502   44.1349   33.7741 C   0  0  1  0  0  0  0  0  0  0  0  0
    9.2957   45.3823   34.3133 N   0  0  0  0  0  0  0  0  0  0  0  0
    8.8891   44.0526   32.2358 C   0  0  0  0  0  0  0  0  0  0  0  0
    8.2031   45.1823   31.4613 C   0  0  0  0  0  0  0  0  0  0  0  0
    6.6656   45.1033   31.4819 C   0  0  0  0  0  0  0  0  0  0  0  0
    6.0281   46.3239   30.8103 C   0  0  0  0  0  0  0  0  0  0  0  0
    6.5100   47.5618   31.4225 N   0  0  0  0  0  0  0  0  0  0  0  0
    7.2429   48.5448   30.6813 C   0  0  0  0  0  0  0  0  0  0  0  0
    7.6084   49.7733   31.2492 O   0  0  0  0  0  0  0  0  0  0  0  0
    7.5905   48.3072   29.4952 O   0  0  0  0  0  0  0  0  0  0  0  0
    7.2758   50.1877   32.5742 C   0  0  0  0  0  0  0  0  0  0  0  0
    5.7928   50.4606   32.6992 C   0  0  0  0  0  0  0  0  0  0  0  0
    5.1725   51.2494   31.7133 C   0  0  0  0  0  0  0  0  0  0  0  0
    5.0054   49.9240   33.7507 C   0  0  0  0  0  0  0  0  0  0  0  0
    3.7933   51.4626   31.7348 C   0  0  0  0  0  0  0  0  0  0  0  0
    3.6151   50.1328   33.7445 C   0  0  0  0  0  0  0  0  0  0  0  0
    5.5960   49.1948   34.8375 N   0  0  0  0  0  0  0  0  0  0  0  0
    3.0146   50.8962   32.7424 C   0  0  0  0  0  0  0  0  0  0  0  0
    6.6730   49.7208   35.5131 O   0  0  0  0  0  0  0  0  0  0  0  0
    5.0066   48.2052   35.3187 O   0  0  0  0  0  0  0  0  0  0  0  0
    8.5372   39.1383   34.0121 O   0  0  0  0  0  0  0  0  0  0  0  0
   10.9798   40.0871   33.6829 O   0  0  0  0  0  0  0  0  0  0  0  0
   10.8002   40.0905   32.2832 C   0  0  0  0  0  0  0  0  0  0  0  0
   11.5958   38.9271   31.6963 C   0  0  0  0  0  0  0  0  0  0  0  0
   12.9239   38.9409   32.1766 O   0  0  0  0  0  0  0  0  0  0  0  0
   11.0062   37.5719   32.0793 C   0  0  0  0  0  0  0  0  0  0  0  0
   13.3507   37.5905   32.2614 C   0  0  0  0  0  0  0  0  0  0  0  0
    9.9064   37.1792   31.2946 O   0  0  0  0  0  0  0  0  0  0  0  0
   12.1920   36.6671   31.9003 C   0  0  0  0  0  0  0  0  0  0  0  0
   13.8017   37.2948   33.6193 N   0  0  0  0  0  0  0  0  0  0  0  0
   12.3134   36.2788   30.5560 O   0  0  0  0  0  0  0  0  0  0  0  0
   14.7927   36.4716   33.9861 C   0  0  0  0  0  0  0  0  0  0  0  0
   13.2746   37.7284   34.7941 C   0  0  0  0  0  0  0  0  0  0  0  0
   15.6240   35.7576   33.1859 N   0  0  0  0  0  0  0  0  0  0  0  0
   14.8728   36.4406   35.3330 C   0  0  0  0  0  0  0  0  0  0  0  0
   13.9209   37.2258   35.8808 N   0  0  0  0  0  0  0  0  0  0  0  0
   16.5874   34.9920   33.7802 C   0  0  0  0  0  0  0  0  0  0  0  0
   15.8579   35.6716   35.9443 C   0  0  0  0  0  0  0  0  0  0  0  0
   16.7028   34.9584   35.1439 N   0  0  0  0  0  0  0  0  0  0  0  0
   16.0103   35.6383   37.3563 N   0  0  0  0  0  0  0  0  0  0  0  0
    7.6765   44.0708   34.0501 H   0  0  0  0  0  0  0  0  0  0  0  0
    9.1809   45.3830   35.3533 H   0  0  0  0  0  0  0  0  0  0  0  0
   10.3187   45.4408   34.1009 H   0  0  0  0  0  0  0  0  0  0  0  0
    9.9710   44.0678   31.9742 H   0  0  0  0  0  0  0  0  0  0  0  0
    8.4814   43.0850   31.8668 H   0  0  0  0  0  0  0  0  0  0  0  0
    8.5543   46.1506   31.8759 H   0  0  0  0  0  0  0  0  0  0  0  0
    8.5409   45.1377   30.4027 H   0  0  0  0  0  0  0  0  0  0  0  0
    6.3315   44.1805   30.9600 H   0  0  0  0  0  0  0  0  0  0  0  0
    6.3002   45.0586   32.5289 H   0  0  0  0  0  0  0  0  0  0  0  0
    6.2449   46.2939   29.7210 H   0  0  0  0  0  0  0  0  0  0  0  0
    4.9248   46.2698   30.9289 H   0  0  0  0  0  0  0  0  0  0  0  0
    6.3027   47.7087   32.4337 H   0  0  0  0  0  0  0  0  0  0  0  0
    7.8202   51.1307   32.7896 H   0  0  0  0  0  0  0  0  0  0  0  0
    7.6426   49.4251   33.2895 H   0  0  0  0  0  0  0  0  0  0  0  0
    5.7574   51.6845   30.9121 H   0  0  0  0  0  0  0  0  0  0  0  0
    3.3267   52.0618   30.9636 H   0  0  0  0  0  0  0  0  0  0  0  0
    2.9980   49.7239   34.5347 H   0  0  0  0  0  0  0  0  0  0  0  0
    1.9446   51.0591   32.7545 H   0  0  0  0  0  0  0  0  0  0  0  0
    9.7454   40.0168   31.9263 H   0  0  0  0  0  0  0  0  0  0  0  0
   11.2116   41.0420   31.8834 H   0  0  0  0  0  0  0  0  0  0  0  0
   11.6245   39.0449   30.5888 H   0  0  0  0  0  0  0  0  0  0  0  0
   10.7050   37.5580   33.1500 H   0  0  0  0  0  0  0  0  0  0  0  0
   14.1985   37.4426   31.5553 H   0  0  0  0  0  0  0  0  0  0  0  0
   10.0893   37.4057   30.3459 H   0  0  0  0  0  0  0  0  0  0  0  0
   12.1337   35.7754   32.5703 H   0  0  0  0  0  0  0  0  0  0  0  0
   11.7934   35.4394   30.4513 H   0  0  0  0  0  0  0  0  0  0  0  0
   12.4314   38.3973   34.8700 H   0  0  0  0  0  0  0  0  0  0  0  0
   17.2669   34.4142   33.1691 H   0  0  0  0  0  0  0  0  0  0  0  0
   16.7638   35.0599   37.7896 H   0  0  0  0  0  0  0  0  0  0  0  0
   15.3759   36.1864   37.9790 H   0  0  0  0  0  0  0  0  0  0  0  0
  1  2  2  0
  1  3  1  0
  3  4  1  0
  4  5  1  0
  6  1  1  0
  7  6  1  0
  6  8  1  0
  8  9  1  0
  9 10  1  0
 10 11  1  0
 11 12  1  0
 12 13  1  0
 13 14  1  0
 13 15  2  0
 14 16  1  0
 16 17  1  0
 17 18  2  0
 19 17  1  0
 18 20  1  0
 21 19  2  0
 19 22  1  0
 20 23  2  0
 23 21  1  0
 22 24  1  0
 22 25  2  0
  4 26  2  0
  4 27  1  0
 28 27  1  0
 28 29  1  0
 29 30  1  0
 29 31  1  0
 30 32  1  0
 31 33  1  0
 31 34  1  0
 34 32  1  0
 32 35  1  0
 34 36  1  0
 37 35  1  0
 38 35  1  0
 39 37  2  0
 37 40  1  0
 41 38  2  0
 42 39  1  0
 40 43  2  0
 40 41  1  0
 44 42  2  0
 44 43  1  0
 43 45  1  0
  6 46  1  6
  7 47  1  0
  7 48  1  0
  8 49  1  0
  8 50  1  0
  9 51  1  0
  9 52  1  0
 10 53  1  0
 10 54  1  0
 11 55  1  0
 11 56  1  0
 12 57  1  0
 16 58  1  0
 16 59  1  0
 18 60  1  0
 20 61  1  0
 21 62  1  0
 23 63  1  0
 28 64  1  0
 28 65  1  0
 29 66  1  0
 31 67  1  0
 32 68  1  0
 33 69  1  0
 34 70  1  0
 36 71  1  0
 38 72  1  0
 42 73  1  0
 45 74  1  0
 45 75  1  0
M  CHG  3   5  -1  22   1  24  -1
M  END
>  <EmbedRMS>  (301) 
0.0746208844073

$$$$

     RDKit          3D

 75 78  0  0  0  0  0  0  0  0999 V2000
    9.4332   42.9367   34.3461 C   0  0  0  0  0  0  0  0  0  0  0  0
   10.4907   43.0331   35.0317 O   0  0  0  0  0  0  0  0  0  0  0  0
    8.8559   41.7106   34.0298 O   0  0  0  0  0  0  0  0  0  0  0  0
    9.4944   40.2142   34.4677 P   0  0  0  0  0  0  0  0  0  0  0  0
    9.7316   40.1724   36.1287 O   0  0  0  0  0  0  0  0  0  0  0  0
    8.7507   44.1352   33.7740 C   0  0  1  0  0  0  0  0  0  0  0  0
    9.2964   45.3824   34.3133 N   0  0  0  0  0  0  0  0  0  0  0  0
    8.8893   44.0533   32.2358 C   0  0  0  0  0  0  0  0  0  0  0  0
    8.2026   45.1832   31.4617 C   0  0  0  0  0  0  0  0  0  0  0  0
    6.6651   45.1048   31.4852 C   0  0  0  0  0  0  0  0  0  0  0  0
    6.0260   46.3222   30.8094 C   0  0  0  0  0  0  0  0  0  0  0  0
    6.5036   47.5640   31.4171 N   0  0  0  0  0  0  0  0  0  0  0  0
    7.2499   48.5352   30.6866 C   0  0  0  0  0  0  0  0  0  0  0  0
    7.6301   49.7197   31.3222 O   0  0  0  0  0  0  0  0  0  0  0  0
    7.5910   48.3129   29.4932 O   0  0  0  0  0  0  0  0  0  0  0  0
    8.4273   50.7128   30.6861 C   0  0  0  0  0  0  0  0  0  0  0  0
    8.7202   51.8213   31.6628 C   0  0  0  0  0  0  0  0  0  0  0  0
    7.9323   52.9856   31.6133 C   0  0  0  0  0  0  0  0  0  0  0  0
    9.7774   51.7368   32.6083 C   0  0  0  0  0  0  0  0  0  0  0  0
    8.1924   54.0584   32.4668 C   0  0  0  0  0  0  0  0  0  0  0  0
   10.0315   52.8369   33.4487 C   0  0  0  0  0  0  0  0  0  0  0  0
   10.6052   50.5641   32.7217 N   0  0  0  0  0  0  0  0  0  0  0  0
    9.2430   53.9862   33.3791 C   0  0  0  0  0  0  0  0  0  0  0  0
   10.0598   49.3055   32.6209 O   0  0  0  0  0  0  0  0  0  0  0  0
   11.7973   50.6726   33.0767 O   0  0  0  0  0  0  0  0  0  0  0  0
    8.5372   39.1384   34.0122 O   0  0  0  0  0  0  0  0  0  0  0  0
   10.9795   40.0889   33.6815 O   0  0  0  0  0  0  0  0  0  0  0  0
   10.7982   40.0848   32.2819 C   0  0  0  0  0  0  0  0  0  0  0  0
   11.5886   38.9142   31.7009 C   0  0  0  0  0  0  0  0  0  0  0  0
   12.9214   38.9367   32.1698 O   0  0  0  0  0  0  0  0  0  0  0  0
   11.0047   37.5660   32.0990 C   0  0  0  0  0  0  0  0  0  0  0  0
   13.3511   37.5885   32.2601 C   0  0  0  0  0  0  0  0  0  0  0  0
    9.9296   37.1961   31.2780 O   0  0  0  0  0  0  0  0  0  0  0  0
   12.1923   36.6658   31.9047 C   0  0  0  0  0  0  0  0  0  0  0  0
   13.8033   37.2966   33.6188 N   0  0  0  0  0  0  0  0  0  0  0  0
   12.3007   36.2864   30.5561 O   0  0  0  0  0  0  0  0  0  0  0  0
   14.7933   36.4724   33.9860 C   0  0  0  0  0  0  0  0  0  0  0  0
   13.2753   37.7296   34.7935 C   0  0  0  0  0  0  0  0  0  0  0  0
   15.6243   35.7579   33.1860 N   0  0  0  0  0  0  0  0  0  0  0  0
   14.8728   36.4410   35.3328 C   0  0  0  0  0  0  0  0  0  0  0  0
   13.9209   37.2263   35.8804 N   0  0  0  0  0  0  0  0  0  0  0  0
   16.5873   34.9919   33.7803 C   0  0  0  0  0  0  0  0  0  0  0  0
   15.8577   35.6716   35.9443 C   0  0  0  0  0  0  0  0  0  0  0  0
   16.7025   34.9583   35.1440 N   0  0  0  0  0  0  0  0  0  0  0  0
   16.0100   35.6384   37.3564 N   0  0  0  0  0  0  0  0  0  0  0  0
    7.6770   44.0711   34.0503 H   0  0  0  0  0  0  0  0  0  0  0  0
    9.1835   45.3822   35.3535 H   0  0  0  0  0  0  0  0  0  0  0  0
   10.3191   45.4416   34.0992 H   0  0  0  0  0  0  0  0  0  0  0  0
    8.4817   43.0857   31.8666 H   0  0  0  0  0  0  0  0  0  0  0  0
    9.9711   44.0690   31.9738 H   0  0  0  0  0  0  0  0  0  0  0  0
    8.5386   45.1379   30.4026 H   0  0  0  0  0  0  0  0  0  0  0  0
    8.5544   46.1519   31.8751 H   0  0  0  0  0  0  0  0  0  0  0  0
    6.3014   45.0646   32.5329 H   0  0  0  0  0  0  0  0  0  0  0  0
    6.3301   44.1797   30.9677 H   0  0  0  0  0  0  0  0  0  0  0  0
    6.2466   46.2894   29.7208 H   0  0  0  0  0  0  0  0  0  0  0  0
    4.9225   46.2659   30.9244 H   0  0  0  0  0  0  0  0  0  0  0  0
    6.2815   47.7511   32.4208 H   0  0  0  0  0  0  0  0  0  0  0  0
    9.3760   50.2707   30.3120 H   0  0  0  0  0  0  0  0  0  0  0  0
    7.8795   51.1060   29.8014 H   0  0  0  0  0  0  0  0  0  0  0  0
    7.1157   53.0671   30.9063 H   0  0  0  0  0  0  0  0  0  0  0  0
    7.5805   54.9499   32.4169 H   0  0  0  0  0  0  0  0  0  0  0  0
   10.8347   52.7979   34.1737 H   0  0  0  0  0  0  0  0  0  0  0  0
    9.4448   54.8212   34.0377 H   0  0  0  0  0  0  0  0  0  0  0  0
   11.2131   41.0320   31.8757 H   0  0  0  0  0  0  0  0  0  0  0  0
    9.7427   40.0140   31.9266 H   0  0  0  0  0  0  0  0  0  0  0  0
   11.5980   39.0108   30.5904 H   0  0  0  0  0  0  0  0  0  0  0  0
   10.7009   37.5602   33.1721 H   0  0  0  0  0  0  0  0  0  0  0  0
   14.1977   37.4380   31.5532 H   0  0  0  0  0  0  0  0  0  0  0  0
    9.5181   36.3961   31.6977 H   0  0  0  0  0  0  0  0  0  0  0  0
   12.1419   35.7697   32.5692 H   0  0  0  0  0  0  0  0  0  0  0  0
   11.7730   35.4523   30.4489 H   0  0  0  0  0  0  0  0  0  0  0  0
   12.4321   38.3985   34.8692 H   0  0  0  0  0  0  0  0  0  0  0  0
   17.2667   34.4138   33.1694 H   0  0  0  0  0  0  0  0  0  0  0  0
   16.7634   35.0598   37.7897 H   0  0  0  0  0  0  0  0  0  0  0  0
   15.3757   36.1867   37.9790 H   0  0  0  0  0  0  0  0  0  0  0  0
  1  2  2  0
  1  3  1  0
  3  4  1  0
  4  5  1  0
  6  1  1  0
  7  6  1  0
  6  8  1  0
  8  9  1  0
  9 10  1  0
 10 11  1  0
 11 12  1  0
 12 13  1  0
 13 14  1  0
 13 15  2  0
 14 16  1  0
 16 17  1  0
 17 18  2  0
 19 17  1  0
 18 20  1  0
 21 19  2  0
 19 22  1  0
 20 23  2  0
 23 21  1  0
 22 24  1  0
 22 25  2  0
  4 26  2  0
  4 27  1  0
 28 27  1  0
 28 29  1  0
 29 30  1  0
 29 31  1  0
 30 32  1  0
 31 33  1  0
 31 34  1  0
 34 32  1  0
 32 35  1  0
 34 36  1  0
 37 35  1  0
 38 35  1  0
 39 37  2  0
 37 40  1  0
 41 38  2  0
 42 39  1  0
 40 43  2  0
 40 41  1  0
 44 42  2  0
 44 43  1  0
 43 45  1  0
  6 46  1  6
  7 47  1  0
  7 48  1  0
  8 49  1  0
  8 50  1  0
  9 51  1  0
  9 52  1  0
 10 53  1  0
 10 54  1  0
 11 55  1  0
 11 56  1  0
 12 57  1  0
 16 58  1  0
 16 59  1  0
 18 60  1  0
 20 61  1  0
 21 62  1  0
 23 63  1  0
 28 64  1  0
 28 65  1  0
 29 66  1  0
 31 67  1  0
 32 68  1  0
 33 69  1  0
 34 70  1  0
 36 71  1  0
 38 72  1  0
 42 73  1  0
 45 74  1  0
 45 75  1  0
M  CHG  3   5  -1  22   1  24  -1
M  END
>  <EmbedRMS>  (302) 
0.0745660224611

$$$$

     RDKit          3D

 75 78  0  0  0  0  0  0  0  0999 V2000
    9.4312   42.9410   34.3437 C   0  0  0  0  0  0  0  0  0  0  0  0
   10.4885   43.0409   35.0294 O   0  0  0  0  0  0  0  0  0  0  0  0
    8.8562   41.7127   34.0287 O   0  0  0  0  0  0  0  0  0  0  0  0
    9.4945   40.2160   34.4678 P   0  0  0  0  0  0  0  0  0  0  0  0
    9.7312   40.1739   36.1288 O   0  0  0  0  0  0  0  0  0  0  0  0
    8.7484   44.1359   33.7721 C   0  0  1  0  0  0  0  0  0  0  0  0
    9.3039   45.3664   34.3388 N   0  0  0  0  0  0  0  0  0  0  0  0
    8.8892   44.0518   32.2308 C   0  0  0  0  0  0  0  0  0  0  0  0
    8.2015   45.1721   31.4435 C   0  0  0  0  0  0  0  0  0  0  0  0
    6.6643   45.1066   31.4886 C   0  0  0  0  0  0  0  0  0  0  0  0
    6.0267   46.3237   30.8122 C   0  0  0  0  0  0  0  0  0  0  0  0
    6.5084   47.5645   31.4188 N   0  0  0  0  0  0  0  0  0  0  0  0
    7.2422   48.5408   30.6825 C   0  0  0  0  0  0  0  0  0  0  0  0
    7.5894   49.7442   31.3057 O   0  0  0  0  0  0  0  0  0  0  0  0
    7.5939   48.3102   29.4942 O   0  0  0  0  0  0  0  0  0  0  0  0
    8.2799   50.8046   30.6470 C   0  0  0  0  0  0  0  0  0  0  0  0
    7.3687   51.5129   29.6723 C   0  0  0  0  0  0  0  0  0  0  0  0
    7.5278   51.2570   28.2976 C   0  0  0  0  0  0  0  0  0  0  0  0
    6.3937   52.4578   30.0937 C   0  0  0  0  0  0  0  0  0  0  0  0
    6.7389   51.9142   27.3533 C   0  0  0  0  0  0  0  0  0  0  0  0
    5.6189   53.1190   29.1220 C   0  0  0  0  0  0  0  0  0  0  0  0
    6.1957   52.7832   31.4826 N   0  0  0  0  0  0  0  0  0  0  0  0
    5.7873   52.8443   27.7645 C   0  0  0  0  0  0  0  0  0  0  0  0
    6.2446   51.8080   32.4507 O   0  0  0  0  0  0  0  0  0  0  0  0
    5.8223   53.9293   31.8082 O   0  0  0  0  0  0  0  0  0  0  0  0
    8.5374   39.1400   34.0124 O   0  0  0  0  0  0  0  0  0  0  0  0
   10.9799   40.0879   33.6828 O   0  0  0  0  0  0  0  0  0  0  0  0
   10.8002   40.0907   32.2831 C   0  0  0  0  0  0  0  0  0  0  0  0
   11.5958   38.9271   31.6964 C   0  0  0  0  0  0  0  0  0  0  0  0
   12.9239   38.9409   32.1767 O   0  0  0  0  0  0  0  0  0  0  0  0
   11.0062   37.5719   32.0794 C   0  0  0  0  0  0  0  0  0  0  0  0
   13.3506   37.5905   32.2614 C   0  0  0  0  0  0  0  0  0  0  0  0
    9.9064   37.1793   31.2946 O   0  0  0  0  0  0  0  0  0  0  0  0
   12.1920   36.6672   31.9003 C   0  0  0  0  0  0  0  0  0  0  0  0
   13.8017   37.2948   33.6193 N   0  0  0  0  0  0  0  0  0  0  0  0
   12.3133   36.2788   30.5561 O   0  0  0  0  0  0  0  0  0  0  0  0
   14.7927   36.4717   33.9862 C   0  0  0  0  0  0  0  0  0  0  0  0
   13.2746   37.7284   34.7941 C   0  0  0  0  0  0  0  0  0  0  0  0
   15.6240   35.7576   33.1859 N   0  0  0  0  0  0  0  0  0  0  0  0
   14.8728   36.4406   35.3330 C   0  0  0  0  0  0  0  0  0  0  0  0
   13.9209   37.2258   35.8808 N   0  0  0  0  0  0  0  0  0  0  0  0
   16.5874   34.9920   33.7802 C   0  0  0  0  0  0  0  0  0  0  0  0
   15.8579   35.6716   35.9443 C   0  0  0  0  0  0  0  0  0  0  0  0
   16.7028   34.9584   35.1439 N   0  0  0  0  0  0  0  0  0  0  0  0
   16.0103   35.6383   37.3563 N   0  0  0  0  0  0  0  0  0  0  0  0
    7.6764   44.0634   34.0547 H   0  0  0  0  0  0  0  0  0  0  0  0
   10.2152   45.5878   33.8748 H   0  0  0  0  0  0  0  0  0  0  0  0
    8.6468   46.1558   34.1431 H   0  0  0  0  0  0  0  0  0  0  0  0
    9.9708   44.0642   31.9679 H   0  0  0  0  0  0  0  0  0  0  0  0
    8.4830   43.0818   31.8666 H   0  0  0  0  0  0  0  0  0  0  0  0
    8.5199   45.0959   30.3807 H   0  0  0  0  0  0  0  0  0  0  0  0
    8.5714   46.1487   31.8174 H   0  0  0  0  0  0  0  0  0  0  0  0
    6.3142   45.0783   32.5413 H   0  0  0  0  0  0  0  0  0  0  0  0
    6.3147   44.1801   30.9834 H   0  0  0  0  0  0  0  0  0  0  0  0
    4.9234   46.2700   30.9301 H   0  0  0  0  0  0  0  0  0  0  0  0
    6.2447   46.2897   29.7231 H   0  0  0  0  0  0  0  0  0  0  0  0
    6.2859   47.7539   32.4220 H   0  0  0  0  0  0  0  0  0  0  0  0
    9.1818   50.3985   30.1379 H   0  0  0  0  0  0  0  0  0  0  0  0
    8.6501   51.5280   31.4034 H   0  0  0  0  0  0  0  0  0  0  0  0
    8.2699   50.5477   27.9523 H   0  0  0  0  0  0  0  0  0  0  0  0
    6.8705   51.7057   26.2994 H   0  0  0  0  0  0  0  0  0  0  0  0
    4.8711   53.8438   29.4186 H   0  0  0  0  0  0  0  0  0  0  0  0
    5.1790   53.3559   27.0297 H   0  0  0  0  0  0  0  0  0  0  0  0
   11.2114   41.0421   31.8829 H   0  0  0  0  0  0  0  0  0  0  0  0
    9.7454   40.0168   31.9264 H   0  0  0  0  0  0  0  0  0  0  0  0
   11.6245   39.0449   30.5889 H   0  0  0  0  0  0  0  0  0  0  0  0
   10.7050   37.5581   33.1500 H   0  0  0  0  0  0  0  0  0  0  0  0
   14.1984   37.4426   31.5553 H   0  0  0  0  0  0  0  0  0  0  0  0
   10.0893   37.4057   30.3459 H   0  0  0  0  0  0  0  0  0  0  0  0
   12.1337   35.7754   32.5703 H   0  0  0  0  0  0  0  0  0  0  0  0
   11.7934   35.4394   30.4514 H   0  0  0  0  0  0  0  0  0  0  0  0
   12.4313   38.3973   34.8700 H   0  0  0  0  0  0  0  0  0  0  0  0
   17.2669   34.4142   33.1691 H   0  0  0  0  0  0  0  0  0  0  0  0
   15.3759   36.1864   37.9790 H   0  0  0  0  0  0  0  0  0  0  0  0
   16.7638   35.0599   37.7896 H   0  0  0  0  0  0  0  0  0  0  0  0
  1  2  2  0
  1  3  1  0
  3  4  1  0
  4  5  1  0
  6  1  1  0
  7  6  1  0
  6  8  1  0
  8  9  1  0
  9 10  1  0
 10 11  1  0
 11 12  1  0
 12 13  1  0
 13 14  1  0
 13 15  2  0
 14 16  1  0
 16 17  1  0
 17 18  2  0
 19 17  1  0
 18 20  1  0
 21 19  2  0
 19 22  1  0
 20 23  2  0
 23 21  1  0
 22 24  1  0
 22 25  2  0
  4 26  2  0
  4 27  1  0
 28 27  1  0
 28 29  1  0
 29 30  1  0
 29 31  1  0
 30 32  1  0
 31 33  1  0
 31 34  1  0
 34 32  1  0
 32 35  1  0
 34 36  1  0
 37 35  1  0
 38 35  1  0
 39 37  2  0
 37 40  1  0
 41 38  2  0
 42 39  1  0
 40 43  2  0
 40 41  1  0
 44 42  2  0
 44 43  1  0
 43 45  1  0
  6 46  1  6
  7 47  1  0
  7 48  1  0
  8 49  1  0
  8 50  1  0
  9 51  1  0
  9 52  1  0
 10 53  1  0
 10 54  1  0
 11 55  1  0
 11 56  1  0
 12 57  1  0
 16 58  1  0
 16 59  1  0
 18 60  1  0
 20 61  1  0
 21 62  1  0
 23 63  1  0
 28 64  1  0
 28 65  1  0
 29 66  1  0
 31 67  1  0
 32 68  1  0
 33 69  1  0
 34 70  1  0
 36 71  1  0
 38 72  1  0
 42 73  1  0
 45 74  1  0
 45 75  1  0
M  CHG  3   5  -1  22   1  24  -1
M  END
>  <EmbedRMS>  (303) 
0.0739202703946

$$$$

     RDKit          3D

 75 78  0  0  0  0  0  0  0  0999 V2000
    9.4316   42.9425   34.3423 C   0  0  0  0  0  0  0  0  0  0  0  0
   10.4884   43.0416   35.0288 O   0  0  0  0  0  0  0  0  0  0  0  0
    8.8561   41.7141   34.0275 O   0  0  0  0  0  0  0  0  0  0  0  0
    9.4941   40.2170   34.4672 P   0  0  0  0  0  0  0  0  0  0  0  0
    9.7309   40.1748   36.1284 O   0  0  0  0  0  0  0  0  0  0  0  0
    8.7495   44.1390   33.7712 C   0  0  1  0  0  0  0  0  0  0  0  0
    9.3056   45.3686   34.3395 N   0  0  0  0  0  0  0  0  0  0  0  0
    8.8909   44.0585   32.2298 C   0  0  0  0  0  0  0  0  0  0  0  0
    8.2004   45.1797   31.4446 C   0  0  0  0  0  0  0  0  0  0  0  0
    6.6625   45.1101   31.4882 C   0  0  0  0  0  0  0  0  0  0  0  0
    6.0171   46.3212   30.8046 C   0  0  0  0  0  0  0  0  0  0  0  0
    6.4810   47.5685   31.4106 N   0  0  0  0  0  0  0  0  0  0  0  0
    7.2941   48.5030   30.7058 C   0  0  0  0  0  0  0  0  0  0  0  0
    7.8720   49.5610   31.4120 O   0  0  0  0  0  0  0  0  0  0  0  0
    7.5783   48.3162   29.4918 O   0  0  0  0  0  0  0  0  0  0  0  0
    9.1092   50.1589   31.0317 C   0  0  0  0  0  0  0  0  0  0  0  0
   10.2282   49.1447   31.1286 C   0  0  0  0  0  0  0  0  0  0  0  0
   10.7535   48.6152   29.9350 C   0  0  0  0  0  0  0  0  0  0  0  0
   10.7523   48.6982   32.3751 C   0  0  0  0  0  0  0  0  0  0  0  0
   11.7707   47.6613   29.9636 C   0  0  0  0  0  0  0  0  0  0  0  0
   11.7885   47.7464   32.3768 C   0  0  0  0  0  0  0  0  0  0  0  0
   10.2814   49.2059   33.6387 N   0  0  0  0  0  0  0  0  0  0  0  0
   12.2866   47.2274   31.1818 C   0  0  0  0  0  0  0  0  0  0  0  0
   11.1250   49.2265   34.7257 O   0  0  0  0  0  0  0  0  0  0  0  0
    9.0783   49.4847   33.8135 O   0  0  0  0  0  0  0  0  0  0  0  0
    8.5370   39.1407   34.0122 O   0  0  0  0  0  0  0  0  0  0  0  0
   10.9794   40.0879   33.6824 O   0  0  0  0  0  0  0  0  0  0  0  0
   10.7997   40.0902   32.2827 C   0  0  0  0  0  0  0  0  0  0  0  0
   11.5968   38.9275   31.6962 C   0  0  0  0  0  0  0  0  0  0  0  0
   12.9242   38.9426   32.1785 O   0  0  0  0  0  0  0  0  0  0  0  0
   11.0085   37.5714   32.0780 C   0  0  0  0  0  0  0  0  0  0  0  0
   13.3528   37.5930   32.2623 C   0  0  0  0  0  0  0  0  0  0  0  0
    9.9098   37.1771   31.2925 O   0  0  0  0  0  0  0  0  0  0  0  0
   12.1943   36.6684   31.8995 C   0  0  0  0  0  0  0  0  0  0  0  0
   13.8019   37.2951   33.6199 N   0  0  0  0  0  0  0  0  0  0  0  0
   12.3027   36.2774   30.5558 O   0  0  0  0  0  0  0  0  0  0  0  0
   14.7926   36.4715   33.9865 C   0  0  0  0  0  0  0  0  0  0  0  0
   13.2749   37.7287   34.7947 C   0  0  0  0  0  0  0  0  0  0  0  0
   15.6239   35.7578   33.1861 N   0  0  0  0  0  0  0  0  0  0  0  0
   14.8727   36.4403   35.3332 C   0  0  0  0  0  0  0  0  0  0  0  0
   13.9210   37.2257   35.8812 N   0  0  0  0  0  0  0  0  0  0  0  0
   16.5873   34.9921   33.7802 C   0  0  0  0  0  0  0  0  0  0  0  0
   15.8579   35.6714   35.9444 C   0  0  0  0  0  0  0  0  0  0  0  0
   16.7028   34.9583   35.1439 N   0  0  0  0  0  0  0  0  0  0  0  0
   16.0104   35.6381   37.3564 N   0  0  0  0  0  0  0  0  0  0  0  0
    7.6773   44.0672   34.0531 H   0  0  0  0  0  0  0  0  0  0  0  0
   10.2209   45.5853   33.8815 H   0  0  0  0  0  0  0  0  0  0  0  0
    8.6540   46.1611   34.1380 H   0  0  0  0  0  0  0  0  0  0  0  0
    8.4878   43.0880   31.8632 H   0  0  0  0  0  0  0  0  0  0  0  0
    9.9727   44.0754   31.9675 H   0  0  0  0  0  0  0  0  0  0  0  0
    8.5205   45.1080   30.3820 H   0  0  0  0  0  0  0  0  0  0  0  0
    8.5669   46.1570   31.8207 H   0  0  0  0  0  0  0  0  0  0  0  0
    6.3122   45.0851   32.5409 H   0  0  0  0  0  0  0  0  0  0  0  0
    6.3173   44.1796   30.9877 H   0  0  0  0  0  0  0  0  0  0  0  0
    4.9135   46.2570   30.9140 H   0  0  0  0  0  0  0  0  0  0  0  0
    6.2431   46.2868   29.7172 H   0  0  0  0  0  0  0  0  0  0  0  0
    6.2677   47.7480   32.4176 H   0  0  0  0  0  0  0  0  0  0  0  0
    9.0171   50.5666   30.0010 H   0  0  0  0  0  0  0  0  0  0  0  0
    9.3254   51.0210   31.6968 H   0  0  0  0  0  0  0  0  0  0  0  0
   10.3684   48.9351   28.9746 H   0  0  0  0  0  0  0  0  0  0  0  0
   12.1599   47.2579   29.0377 H   0  0  0  0  0  0  0  0  0  0  0  0
   12.2033   47.3899   33.3110 H   0  0  0  0  0  0  0  0  0  0  0  0
   13.0761   46.4872   31.2013 H   0  0  0  0  0  0  0  0  0  0  0  0
   11.2097   41.0420   31.8823 H   0  0  0  0  0  0  0  0  0  0  0  0
    9.7450   40.0147   31.9259 H   0  0  0  0  0  0  0  0  0  0  0  0
   11.6266   39.0455   30.5888 H   0  0  0  0  0  0  0  0  0  0  0  0
   10.7063   37.5576   33.1485 H   0  0  0  0  0  0  0  0  0  0  0  0
   14.2021   37.4485   31.5574 H   0  0  0  0  0  0  0  0  0  0  0  0
   10.0952   37.3993   30.3433 H   0  0  0  0  0  0  0  0  0  0  0  0
   12.1163   35.7745   32.5633 H   0  0  0  0  0  0  0  0  0  0  0  0
   12.9614   35.5350   30.5312 H   0  0  0  0  0  0  0  0  0  0  0  0
   12.4322   38.3983   34.8706 H   0  0  0  0  0  0  0  0  0  0  0  0
   17.2668   34.4144   33.1690 H   0  0  0  0  0  0  0  0  0  0  0  0
   16.7640   35.0598   37.7897 H   0  0  0  0  0  0  0  0  0  0  0  0
   15.3760   36.1862   37.9791 H   0  0  0  0  0  0  0  0  0  0  0  0
  1  2  2  0
  1  3  1  0
  3  4  1  0
  4  5  1  0
  6  1  1  0
  7  6  1  0
  6  8  1  0
  8  9  1  0
  9 10  1  0
 10 11  1  0
 11 12  1  0
 12 13  1  0
 13 14  1  0
 13 15  2  0
 14 16  1  0
 16 17  1  0
 17 18  2  0
 19 17  1  0
 18 20  1  0
 21 19  2  0
 19 22  1  0
 20 23  2  0
 23 21  1  0
 22 24  1  0
 22 25  2  0
  4 26  2  0
  4 27  1  0
 28 27  1  0
 28 29  1  0
 29 30  1  0
 29 31  1  0
 30 32  1  0
 31 33  1  0
 31 34  1  0
 34 32  1  0
 32 35  1  0
 34 36  1  0
 37 35  1  0
 38 35  1  0
 39 37  2  0
 37 40  1  0
 41 38  2  0
 42 39  1  0
 40 43  2  0
 40 41  1  0
 44 42  2  0
 44 43  1  0
 43 45  1  0
  6 46  1  6
  7 47  1  0
  7 48  1  0
  8 49  1  0
  8 50  1  0
  9 51  1  0
  9 52  1  0
 10 53  1  0
 10 54  1  0
 11 55  1  0
 11 56  1  0
 12 57  1  0
 16 58  1  0
 16 59  1  0
 18 60  1  0
 20 61  1  0
 21 62  1  0
 23 63  1  0
 28 64  1  0
 28 65  1  0
 29 66  1  0
 31 67  1  0
 32 68  1  0
 33 69  1  0
 34 70  1  0
 36 71  1  0
 38 72  1  0
 42 73  1  0
 45 74  1  0
 45 75  1  0
M  CHG  3   5  -1  22   1  24  -1
M  END
>  <EmbedRMS>  (304) 
0.0761023411876

$$$$

     RDKit          3D

 75 78  0  0  0  0  0  0  0  0999 V2000
    9.4335   42.9370   34.3456 C   0  0  0  0  0  0  0  0  0  0  0  0
   10.4908   43.0333   35.0315 O   0  0  0  0  0  0  0  0  0  0  0  0
    8.8563   41.7108   34.0291 O   0  0  0  0  0  0  0  0  0  0  0  0
    9.4942   40.2143   34.4677 P   0  0  0  0  0  0  0  0  0  0  0  0
    9.7310   40.1727   36.1288 O   0  0  0  0  0  0  0  0  0  0  0  0
    8.7509   44.1358   33.7737 C   0  0  1  0  0  0  0  0  0  0  0  0
    9.2966   45.3829   34.3132 N   0  0  0  0  0  0  0  0  0  0  0  0
    8.8895   44.0548   32.2353 C   0  0  0  0  0  0  0  0  0  0  0  0
    8.2023   45.1851   31.4619 C   0  0  0  0  0  0  0  0  0  0  0  0
    6.6647   45.1058   31.4852 C   0  0  0  0  0  0  0  0  0  0  0  0
    6.0239   46.3217   30.8075 C   0  0  0  0  0  0  0  0  0  0  0  0
    6.4970   47.5652   31.4153 N   0  0  0  0  0  0  0  0  0  0  0  0
    7.2609   48.5277   30.6918 C   0  0  0  0  0  0  0  0  0  0  0  0
    7.6832   49.6897   31.3453 O   0  0  0  0  0  0  0  0  0  0  0  0
    7.5886   48.3121   29.4937 O   0  0  0  0  0  0  0  0  0  0  0  0
    8.6455   50.5912   30.8021 C   0  0  0  0  0  0  0  0  0  0  0  0
   10.0156   49.9525   30.7784 C   0  0  0  0  0  0  0  0  0  0  0  0
   10.5375   49.5351   29.5398 C   0  0  0  0  0  0  0  0  0  0  0  0
   10.7990   49.7816   31.9545 C   0  0  0  0  0  0  0  0  0  0  0  0
   11.8040   48.9568   29.4571 C   0  0  0  0  0  0  0  0  0  0  0  0
   12.0789   49.2081   31.8435 C   0  0  0  0  0  0  0  0  0  0  0  0
   10.3431   50.2058   33.2536 N   0  0  0  0  0  0  0  0  0  0  0  0
   12.5735   48.7945   30.6064 C   0  0  0  0  0  0  0  0  0  0  0  0
   11.2570   50.5746   34.2140 O   0  0  0  0  0  0  0  0  0  0  0  0
    9.1440   50.1006   33.5811 O   0  0  0  0  0  0  0  0  0  0  0  0
    8.5369   39.1385   34.0122 O   0  0  0  0  0  0  0  0  0  0  0  0
   10.9795   40.0870   33.6827 O   0  0  0  0  0  0  0  0  0  0  0  0
   10.7997   40.0899   32.2830 C   0  0  0  0  0  0  0  0  0  0  0  0
   11.5968   38.9274   31.6962 C   0  0  0  0  0  0  0  0  0  0  0  0
   12.9242   38.9425   32.1784 O   0  0  0  0  0  0  0  0  0  0  0  0
   11.0086   37.5713   32.0780 C   0  0  0  0  0  0  0  0  0  0  0  0
   13.3529   37.5929   32.2623 C   0  0  0  0  0  0  0  0  0  0  0  0
    9.9098   37.1770   31.2925 O   0  0  0  0  0  0  0  0  0  0  0  0
   12.1943   36.6683   31.8995 C   0  0  0  0  0  0  0  0  0  0  0  0
   13.8019   37.2950   33.6199 N   0  0  0  0  0  0  0  0  0  0  0  0
   12.3027   36.2773   30.5558 O   0  0  0  0  0  0  0  0  0  0  0  0
   14.7926   36.4715   33.9864 C   0  0  0  0  0  0  0  0  0  0  0  0
   13.2749   37.7286   34.7946 C   0  0  0  0  0  0  0  0  0  0  0  0
   15.6239   35.7577   33.1860 N   0  0  0  0  0  0  0  0  0  0  0  0
   14.8727   36.4403   35.3332 C   0  0  0  0  0  0  0  0  0  0  0  0
   13.9210   37.2257   35.8811 N   0  0  0  0  0  0  0  0  0  0  0  0
   16.5873   34.9921   33.7802 C   0  0  0  0  0  0  0  0  0  0  0  0
   15.8579   35.6714   35.9444 C   0  0  0  0  0  0  0  0  0  0  0  0
   16.7028   34.9583   35.1439 N   0  0  0  0  0  0  0  0  0  0  0  0
   16.0104   35.6382   37.3564 N   0  0  0  0  0  0  0  0  0  0  0  0
    7.6773   44.0717   34.0499 H   0  0  0  0  0  0  0  0  0  0  0  0
   10.3191   45.4429   34.0980 H   0  0  0  0  0  0  0  0  0  0  0  0
    9.1848   45.3821   35.3536 H   0  0  0  0  0  0  0  0  0  0  0  0
    9.9713   44.0712   31.9734 H   0  0  0  0  0  0  0  0  0  0  0  0
    8.4824   43.0872   31.8656 H   0  0  0  0  0  0  0  0  0  0  0  0
    8.5534   46.1540   31.8757 H   0  0  0  0  0  0  0  0  0  0  0  0
    8.5387   45.1409   30.4028 H   0  0  0  0  0  0  0  0  0  0  0  0
    6.3011   45.0665   32.5329 H   0  0  0  0  0  0  0  0  0  0  0  0
    6.3306   44.1798   30.9689 H   0  0  0  0  0  0  0  0  0  0  0  0
    4.9203   46.2629   30.9202 H   0  0  0  0  0  0  0  0  0  0  0  0
    6.2466   46.2888   29.7194 H   0  0  0  0  0  0  0  0  0  0  0  0
    6.2752   47.7510   32.4193 H   0  0  0  0  0  0  0  0  0  0  0  0
    8.6758   51.5143   31.4181 H   0  0  0  0  0  0  0  0  0  0  0  0
    8.3235   50.9030   29.7840 H   0  0  0  0  0  0  0  0  0  0  0  0
    9.9615   49.6568   28.6307 H   0  0  0  0  0  0  0  0  0  0  0  0
   12.1911   48.6372   28.4981 H   0  0  0  0  0  0  0  0  0  0  0  0
   12.6944   49.0679   32.7230 H   0  0  0  0  0  0  0  0  0  0  0  0
   13.5572   48.3478   30.5391 H   0  0  0  0  0  0  0  0  0  0  0  0
    9.7450   40.0146   31.9262 H   0  0  0  0  0  0  0  0  0  0  0  0
   11.2097   41.0419   31.8829 H   0  0  0  0  0  0  0  0  0  0  0  0
   11.6265   39.0456   30.5888 H   0  0  0  0  0  0  0  0  0  0  0  0
   10.7064   37.5574   33.1484 H   0  0  0  0  0  0  0  0  0  0  0  0
   14.2021   37.4484   31.5573 H   0  0  0  0  0  0  0  0  0  0  0  0
   10.0952   37.3990   30.3433 H   0  0  0  0  0  0  0  0  0  0  0  0
   12.1163   35.7745   32.5633 H   0  0  0  0  0  0  0  0  0  0  0  0
   12.9615   35.5349   30.5312 H   0  0  0  0  0  0  0  0  0  0  0  0
   12.4321   38.3982   34.8705 H   0  0  0  0  0  0  0  0  0  0  0  0
   17.2668   34.4143   33.1690 H   0  0  0  0  0  0  0  0  0  0  0  0
   15.3761   36.1862   37.9792 H   0  0  0  0  0  0  0  0  0  0  0  0
   16.7641   35.0599   37.7897 H   0  0  0  0  0  0  0  0  0  0  0  0
  1  2  2  0
  1  3  1  0
  3  4  1  0
  4  5  1  0
  6  1  1  0
  7  6  1  0
  6  8  1  0
  8  9  1  0
  9 10  1  0
 10 11  1  0
 11 12  1  0
 12 13  1  0
 13 14  1  0
 13 15  2  0
 14 16  1  0
 16 17  1  0
 17 18  2  0
 19 17  1  0
 18 20  1  0
 21 19  2  0
 19 22  1  0
 20 23  2  0
 23 21  1  0
 22 24  1  0
 22 25  2  0
  4 26  2  0
  4 27  1  0
 28 27  1  0
 28 29  1  0
 29 30  1  0
 29 31  1  0
 30 32  1  0
 31 33  1  0
 31 34  1  0
 34 32  1  0
 32 35  1  0
 34 36  1  0
 37 35  1  0
 38 35  1  0
 39 37  2  0
 37 40  1  0
 41 38  2  0
 42 39  1  0
 40 43  2  0
 40 41  1  0
 44 42  2  0
 44 43  1  0
 43 45  1  0
  6 46  1  6
  7 47  1  0
  7 48  1  0
  8 49  1  0
  8 50  1  0
  9 51  1  0
  9 52  1  0
 10 53  1  0
 10 54  1  0
 11 55  1  0
 11 56  1  0
 12 57  1  0
 16 58  1  0
 16 59  1  0
 18 60  1  0
 20 61  1  0
 21 62  1  0
 23 63  1  0
 28 64  1  0
 28 65  1  0
 29 66  1  0
 31 67  1  0
 32 68  1  0
 33 69  1  0
 34 70  1  0
 36 71  1  0
 38 72  1  0
 42 73  1  0
 45 74  1  0
 45 75  1  0
M  CHG  3   5  -1  22   1  24  -1
M  END
>  <EmbedRMS>  (305) 
0.075175578596

$$$$

     RDKit          3D

 75 78  0  0  0  0  0  0  0  0999 V2000
    9.4328   42.9367   34.3463 C   0  0  0  0  0  0  0  0  0  0  0  0
   10.4905   43.0332   35.0318 O   0  0  0  0  0  0  0  0  0  0  0  0
    8.8558   41.7105   34.0300 O   0  0  0  0  0  0  0  0  0  0  0  0
    9.4944   40.2142   34.4677 P   0  0  0  0  0  0  0  0  0  0  0  0
    9.7317   40.1724   36.1287 O   0  0  0  0  0  0  0  0  0  0  0  0
    8.7502   44.1350   33.7741 C   0  0  1  0  0  0  0  0  0  0  0  0
    9.2956   45.3823   34.3132 N   0  0  0  0  0  0  0  0  0  0  0  0
    8.8891   44.0526   32.2359 C   0  0  0  0  0  0  0  0  0  0  0  0
    8.2031   45.1822   31.4613 C   0  0  0  0  0  0  0  0  0  0  0  0
    6.6656   45.1032   31.4819 C   0  0  0  0  0  0  0  0  0  0  0  0
    6.0281   46.3239   30.8103 C   0  0  0  0  0  0  0  0  0  0  0  0
    6.5101   47.5618   31.4225 N   0  0  0  0  0  0  0  0  0  0  0  0
    7.2430   48.5448   30.6813 C   0  0  0  0  0  0  0  0  0  0  0  0
    7.6087   49.7732   31.2494 O   0  0  0  0  0  0  0  0  0  0  0  0
    7.5905   48.3072   29.4952 O   0  0  0  0  0  0  0  0  0  0  0  0
    7.2765   50.1871   32.5746 C   0  0  0  0  0  0  0  0  0  0  0  0
    5.7934   50.4609   32.6995 C   0  0  0  0  0  0  0  0  0  0  0  0
    5.1762   51.2549   31.7158 C   0  0  0  0  0  0  0  0  0  0  0  0
    5.0018   49.9213   33.7478 C   0  0  0  0  0  0  0  0  0  0  0  0
    3.7974   51.4698   31.7350 C   0  0  0  0  0  0  0  0  0  0  0  0
    3.6125   50.1305   33.7378 C   0  0  0  0  0  0  0  0  0  0  0  0
    5.5820   49.1812   34.8326 N   0  0  0  0  0  0  0  0  0  0  0  0
    3.0154   50.8994   32.7378 C   0  0  0  0  0  0  0  0  0  0  0  0
    4.9095   48.1039   35.3616 O   0  0  0  0  0  0  0  0  0  0  0  0
    6.5617   49.6438   35.4526 O   0  0  0  0  0  0  0  0  0  0  0  0
    8.5373   39.1383   34.0122 O   0  0  0  0  0  0  0  0  0  0  0  0
   10.9795   40.0890   33.6815 O   0  0  0  0  0  0  0  0  0  0  0  0
   10.7982   40.0848   32.2819 C   0  0  0  0  0  0  0  0  0  0  0  0
   11.5886   38.9142   31.7009 C   0  0  0  0  0  0  0  0  0  0  0  0
   12.9213   38.9367   32.1698 O   0  0  0  0  0  0  0  0  0  0  0  0
   11.0047   37.5660   32.0990 C   0  0  0  0  0  0  0  0  0  0  0  0
   13.3510   37.5885   32.2601 C   0  0  0  0  0  0  0  0  0  0  0  0
    9.9296   37.1961   31.2780 O   0  0  0  0  0  0  0  0  0  0  0  0
   12.1923   36.6659   31.9047 C   0  0  0  0  0  0  0  0  0  0  0  0
   13.8033   37.2966   33.6188 N   0  0  0  0  0  0  0  0  0  0  0  0
   12.3007   36.2865   30.5561 O   0  0  0  0  0  0  0  0  0  0  0  0
   14.7933   36.4724   33.9860 C   0  0  0  0  0  0  0  0  0  0  0  0
   13.2753   37.7296   34.7935 C   0  0  0  0  0  0  0  0  0  0  0  0
   15.6243   35.7579   33.1860 N   0  0  0  0  0  0  0  0  0  0  0  0
   14.8728   36.4410   35.3328 C   0  0  0  0  0  0  0  0  0  0  0  0
   13.9209   37.2263   35.8804 N   0  0  0  0  0  0  0  0  0  0  0  0
   16.5873   34.9919   33.7803 C   0  0  0  0  0  0  0  0  0  0  0  0
   15.8577   35.6716   35.9443 C   0  0  0  0  0  0  0  0  0  0  0  0
   16.7025   34.9583   35.1440 N   0  0  0  0  0  0  0  0  0  0  0  0
   16.0100   35.6384   37.3563 N   0  0  0  0  0  0  0  0  0  0  0  0
    7.6765   44.0710   34.0501 H   0  0  0  0  0  0  0  0  0  0  0  0
    9.1809   45.3830   35.3533 H   0  0  0  0  0  0  0  0  0  0  0  0
   10.3187   45.4408   34.1008 H   0  0  0  0  0  0  0  0  0  0  0  0
    8.4814   43.0850   31.8669 H   0  0  0  0  0  0  0  0  0  0  0  0
    9.9710   44.0678   31.9743 H   0  0  0  0  0  0  0  0  0  0  0  0
    8.5543   46.1506   31.8759 H   0  0  0  0  0  0  0  0  0  0  0  0
    8.5409   45.1377   30.4027 H   0  0  0  0  0  0  0  0  0  0  0  0
    6.3314   44.1805   30.9600 H   0  0  0  0  0  0  0  0  0  0  0  0
    6.3002   45.0586   32.5289 H   0  0  0  0  0  0  0  0  0  0  0  0
    4.9248   46.2699   30.9290 H   0  0  0  0  0  0  0  0  0  0  0  0
    6.2448   46.2940   29.7210 H   0  0  0  0  0  0  0  0  0  0  0  0
    6.3030   47.7085   32.4338 H   0  0  0  0  0  0  0  0  0  0  0  0
    7.8212   51.1300   32.7900 H   0  0  0  0  0  0  0  0  0  0  0  0
    7.6448   49.4247   33.2892 H   0  0  0  0  0  0  0  0  0  0  0  0
    5.7635   51.6927   30.9178 H   0  0  0  0  0  0  0  0  0  0  0  0
    3.3334   52.0731   30.9653 H   0  0  0  0  0  0  0  0  0  0  0  0
    2.9926   49.7180   34.5239 H   0  0  0  0  0  0  0  0  0  0  0  0
    1.9455   51.0630   32.7476 H   0  0  0  0  0  0  0  0  0  0  0  0
    9.7427   40.0140   31.9266 H   0  0  0  0  0  0  0  0  0  0  0  0
   11.2131   41.0320   31.8756 H   0  0  0  0  0  0  0  0  0  0  0  0
   11.5980   39.0108   30.5904 H   0  0  0  0  0  0  0  0  0  0  0  0
   10.7009   37.5602   33.1721 H   0  0  0  0  0  0  0  0  0  0  0  0
   14.1977   37.4380   31.5532 H   0  0  0  0  0  0  0  0  0  0  0  0
    9.5180   36.3961   31.6977 H   0  0  0  0  0  0  0  0  0  0  0  0
   12.1419   35.7697   32.5692 H   0  0  0  0  0  0  0  0  0  0  0  0
   11.7730   35.4523   30.4488 H   0  0  0  0  0  0  0  0  0  0  0  0
   12.4321   38.3985   34.8692 H   0  0  0  0  0  0  0  0  0  0  0  0
   17.2667   34.4138   33.1694 H   0  0  0  0  0  0  0  0  0  0  0  0
   15.3757   36.1867   37.9790 H   0  0  0  0  0  0  0  0  0  0  0  0
   16.7634   35.0598   37.7897 H   0  0  0  0  0  0  0  0  0  0  0  0
  1  2  2  0
  1  3  1  0
  3  4  1  0
  4  5  1  0
  6  1  1  0
  7  6  1  0
  6  8  1  0
  8  9  1  0
  9 10  1  0
 10 11  1  0
 11 12  1  0
 12 13  1  0
 13 14  1  0
 13 15  2  0
 14 16  1  0
 16 17  1  0
 17 18  2  0
 19 17  1  0
 18 20  1  0
 21 19  2  0
 19 22  1  0
 20 23  2  0
 23 21  1  0
 22 24  1  0
 22 25  2  0
  4 26  2  0
  4 27  1  0
 28 27  1  0
 28 29  1  0
 29 30  1  0
 29 31  1  0
 30 32  1  0
 31 33  1  0
 31 34  1  0
 34 32  1  0
 32 35  1  0
 34 36  1  0
 37 35  1  0
 38 35  1  0
 39 37  2  0
 37 40  1  0
 41 38  2  0
 42 39  1  0
 40 43  2  0
 40 41  1  0
 44 42  2  0
 44 43  1  0
 43 45  1  0
  6 46  1  6
  7 47  1  0
  7 48  1  0
  8 49  1  0
  8 50  1  0
  9 51  1  0
  9 52  1  0
 10 53  1  0
 10 54  1  0
 11 55  1  0
 11 56  1  0
 12 57  1  0
 16 58  1  0
 16 59  1  0
 18 60  1  0
 20 61  1  0
 21 62  1  0
 23 63  1  0
 28 64  1  0
 28 65  1  0
 29 66  1  0
 31 67  1  0
 32 68  1  0
 33 69  1  0
 34 70  1  0
 36 71  1  0
 38 72  1  0
 42 73  1  0
 45 74  1  0
 45 75  1  0
M  CHG  3   5  -1  22   1  24  -1
M  END
>  <EmbedRMS>  (306) 
0.0742302620188

$$$$

     RDKit          3D

 75 78  0  0  0  0  0  0  0  0999 V2000
    9.4312   42.9415   34.3437 C   0  0  0  0  0  0  0  0  0  0  0  0
   10.4885   43.0413   35.0293 O   0  0  0  0  0  0  0  0  0  0  0  0
    8.8562   41.7132   34.0286 O   0  0  0  0  0  0  0  0  0  0  0  0
    9.4945   40.2164   34.4677 P   0  0  0  0  0  0  0  0  0  0  0  0
    9.7312   40.1741   36.1288 O   0  0  0  0  0  0  0  0  0  0  0  0
    8.7483   44.1368   33.7722 C   0  0  1  0  0  0  0  0  0  0  0  0
    9.3039   45.3674   34.3388 N   0  0  0  0  0  0  0  0  0  0  0  0
    8.8890   44.0529   32.2310 C   0  0  0  0  0  0  0  0  0  0  0  0
    8.2013   45.1737   31.4443 C   0  0  0  0  0  0  0  0  0  0  0  0
    6.6639   45.1066   31.4864 C   0  0  0  0  0  0  0  0  0  0  0  0
    6.0270   46.3230   30.8074 C   0  0  0  0  0  0  0  0  0  0  0  0
    6.5012   47.5639   31.4199 N   0  0  0  0  0  0  0  0  0  0  0  0
    7.2623   48.5335   30.6895 C   0  0  0  0  0  0  0  0  0  0  0  0
    7.7057   49.7176   31.2896 O   0  0  0  0  0  0  0  0  0  0  0  0
    7.5820   48.3119   29.4924 O   0  0  0  0  0  0  0  0  0  0  0  0
    7.4671   50.0563   32.6520 C   0  0  0  0  0  0  0  0  0  0  0  0
    8.1714   51.3477   32.9768 C   0  0  0  0  0  0  0  0  0  0  0  0
    7.4219   52.5382   32.9824 C   0  0  0  0  0  0  0  0  0  0  0  0
    9.5554   51.3958   33.3011 C   0  0  0  0  0  0  0  0  0  0  0  0
    8.0180   53.7537   33.3199 C   0  0  0  0  0  0  0  0  0  0  0  0
   10.1309   52.6299   33.6537 C   0  0  0  0  0  0  0  0  0  0  0  0
   10.3850   50.2184   33.3004 N   0  0  0  0  0  0  0  0  0  0  0  0
    9.3684   53.7987   33.6596 C   0  0  0  0  0  0  0  0  0  0  0  0
   11.4775   50.1482   34.1342 O   0  0  0  0  0  0  0  0  0  0  0  0
   10.2291   49.3251   32.4431 O   0  0  0  0  0  0  0  0  0  0  0  0
    8.5374   39.1402   34.0124 O   0  0  0  0  0  0  0  0  0  0  0  0
   10.9798   40.0880   33.6828 O   0  0  0  0  0  0  0  0  0  0  0  0
   10.8002   40.0907   32.2831 C   0  0  0  0  0  0  0  0  0  0  0  0
   11.5958   38.9271   31.6964 C   0  0  0  0  0  0  0  0  0  0  0  0
   12.9239   38.9409   32.1767 O   0  0  0  0  0  0  0  0  0  0  0  0
   11.0062   37.5720   32.0794 C   0  0  0  0  0  0  0  0  0  0  0  0
   13.3506   37.5906   32.2614 C   0  0  0  0  0  0  0  0  0  0  0  0
    9.9064   37.1793   31.2946 O   0  0  0  0  0  0  0  0  0  0  0  0
   12.1919   36.6672   31.9004 C   0  0  0  0  0  0  0  0  0  0  0  0
   13.8017   37.2948   33.6193 N   0  0  0  0  0  0  0  0  0  0  0  0
   12.3133   36.2788   30.5561 O   0  0  0  0  0  0  0  0  0  0  0  0
   14.7927   36.4717   33.9862 C   0  0  0  0  0  0  0  0  0  0  0  0
   13.2746   37.7284   34.7941 C   0  0  0  0  0  0  0  0  0  0  0  0
   15.6240   35.7576   33.1859 N   0  0  0  0  0  0  0  0  0  0  0  0
   14.8728   36.4406   35.3330 C   0  0  0  0  0  0  0  0  0  0  0  0
   13.9209   37.2258   35.8808 N   0  0  0  0  0  0  0  0  0  0  0  0
   16.5874   34.9920   33.7802 C   0  0  0  0  0  0  0  0  0  0  0  0
   15.8579   35.6716   35.9443 C   0  0  0  0  0  0  0  0  0  0  0  0
   16.7028   34.9584   35.1439 N   0  0  0  0  0  0  0  0  0  0  0  0
   16.0103   35.6383   37.3563 N   0  0  0  0  0  0  0  0  0  0  0  0
    7.6762   44.0645   34.0546 H   0  0  0  0  0  0  0  0  0  0  0  0
   10.2148   45.5895   33.8741 H   0  0  0  0  0  0  0  0  0  0  0  0
    8.6467   46.1570   34.1440 H   0  0  0  0  0  0  0  0  0  0  0  0
    9.9706   44.0655   31.9681 H   0  0  0  0  0  0  0  0  0  0  0  0
    8.4828   43.0829   31.8665 H   0  0  0  0  0  0  0  0  0  0  0  0
    8.5692   46.1503   31.8202 H   0  0  0  0  0  0  0  0  0  0  0  0
    8.5217   45.0994   30.3819 H   0  0  0  0  0  0  0  0  0  0  0  0
    6.3165   44.1796   30.9808 H   0  0  0  0  0  0  0  0  0  0  0  0
    6.3118   45.0782   32.5385 H   0  0  0  0  0  0  0  0  0  0  0  0
    6.2519   46.2903   29.7198 H   0  0  0  0  0  0  0  0  0  0  0  0
    4.9230   46.2659   30.9175 H   0  0  0  0  0  0  0  0  0  0  0  0
    6.2574   47.7300   32.4209 H   0  0  0  0  0  0  0  0  0  0  0  0
    6.3714   50.1581   32.8139 H   0  0  0  0  0  0  0  0  0  0  0  0
    7.8286   49.2505   33.3266 H   0  0  0  0  0  0  0  0  0  0  0  0
    6.3686   52.5261   32.7298 H   0  0  0  0  0  0  0  0  0  0  0  0
    7.4296   54.6622   33.3229 H   0  0  0  0  0  0  0  0  0  0  0  0
   11.1810   52.6914   33.9096 H   0  0  0  0  0  0  0  0  0  0  0  0
    9.8274   54.7424   33.9247 H   0  0  0  0  0  0  0  0  0  0  0  0
    9.7454   40.0168   31.9263 H   0  0  0  0  0  0  0  0  0  0  0  0
   11.2114   41.0421   31.8829 H   0  0  0  0  0  0  0  0  0  0  0  0
   11.6246   39.0449   30.5889 H   0  0  0  0  0  0  0  0  0  0  0  0
   10.7050   37.5582   33.1500 H   0  0  0  0  0  0  0  0  0  0  0  0
   14.1984   37.4426   31.5553 H   0  0  0  0  0  0  0  0  0  0  0  0
   10.0893   37.4058   30.3459 H   0  0  0  0  0  0  0  0  0  0  0  0
   12.1337   35.7755   32.5703 H   0  0  0  0  0  0  0  0  0  0  0  0
   11.7933   35.4394   30.4514 H   0  0  0  0  0  0  0  0  0  0  0  0
   12.4314   38.3973   34.8700 H   0  0  0  0  0  0  0  0  0  0  0  0
   17.2669   34.4142   33.1691 H   0  0  0  0  0  0  0  0  0  0  0  0
   16.7638   35.0599   37.7896 H   0  0  0  0  0  0  0  0  0  0  0  0
   15.3759   36.1865   37.9790 H   0  0  0  0  0  0  0  0  0  0  0  0
  1  2  2  0
  1  3  1  0
  3  4  1  0
  4  5  1  0
  6  1  1  0
  7  6  1  0
  6  8  1  0
  8  9  1  0
  9 10  1  0
 10 11  1  0
 11 12  1  0
 12 13  1  0
 13 14  1  0
 13 15  2  0
 14 16  1  0
 16 17  1  0
 17 18  2  0
 19 17  1  0
 18 20  1  0
 21 19  2  0
 19 22  1  0
 20 23  2  0
 23 21  1  0
 22 24  1  0
 22 25  2  0
  4 26  2  0
  4 27  1  0
 28 27  1  0
 28 29  1  0
 29 30  1  0
 29 31  1  0
 30 32  1  0
 31 33  1  0
 31 34  1  0
 34 32  1  0
 32 35  1  0
 34 36  1  0
 37 35  1  0
 38 35  1  0
 39 37  2  0
 37 40  1  0
 41 38  2  0
 42 39  1  0
 40 43  2  0
 40 41  1  0
 44 42  2  0
 44 43  1  0
 43 45  1  0
  6 46  1  6
  7 47  1  0
  7 48  1  0
  8 49  1  0
  8 50  1  0
  9 51  1  0
  9 52  1  0
 10 53  1  0
 10 54  1  0
 11 55  1  0
 11 56  1  0
 12 57  1  0
 16 58  1  0
 16 59  1  0
 18 60  1  0
 20 61  1  0
 21 62  1  0
 23 63  1  0
 28 64  1  0
 28 65  1  0
 29 66  1  0
 31 67  1  0
 32 68  1  0
 33 69  1  0
 34 70  1  0
 36 71  1  0
 38 72  1  0
 42 73  1  0
 45 74  1  0
 45 75  1  0
M  CHG  3   5  -1  22   1  24  -1
M  END
>  <EmbedRMS>  (307) 
0.074444682137

$$$$

     RDKit          3D

 75 78  0  0  0  0  0  0  0  0999 V2000
    9.4313   42.9411   34.3437 C   0  0  0  0  0  0  0  0  0  0  0  0
   10.4886   43.0410   35.0294 O   0  0  0  0  0  0  0  0  0  0  0  0
    8.8562   41.7129   34.0288 O   0  0  0  0  0  0  0  0  0  0  0  0
    9.4947   40.2163   34.4679 P   0  0  0  0  0  0  0  0  0  0  0  0
    9.7311   40.1742   36.1290 O   0  0  0  0  0  0  0  0  0  0  0  0
    8.7484   44.1360   33.7721 C   0  0  1  0  0  0  0  0  0  0  0  0
    9.3039   45.3665   34.3388 N   0  0  0  0  0  0  0  0  0  0  0  0
    8.8892   44.0519   32.2308 C   0  0  0  0  0  0  0  0  0  0  0  0
    8.2014   45.1722   31.4436 C   0  0  0  0  0  0  0  0  0  0  0  0
    6.6642   45.1066   31.4887 C   0  0  0  0  0  0  0  0  0  0  0  0
    6.0265   46.3234   30.8120 C   0  0  0  0  0  0  0  0  0  0  0  0
    6.5074   47.5645   31.4186 N   0  0  0  0  0  0  0  0  0  0  0  0
    7.2443   48.5393   30.6834 C   0  0  0  0  0  0  0  0  0  0  0  0
    7.5950   49.7401   31.3057 O   0  0  0  0  0  0  0  0  0  0  0  0
    7.5931   48.3115   29.4933 O   0  0  0  0  0  0  0  0  0  0  0  0
    8.3417   50.7582   30.6477 C   0  0  0  0  0  0  0  0  0  0  0  0
    8.5393   51.9218   31.5847 C   0  0  0  0  0  0  0  0  0  0  0  0
    9.7713   52.0421   32.2535 C   0  0  0  0  0  0  0  0  0  0  0  0
    7.5362   52.9081   31.7931 C   0  0  0  0  0  0  0  0  0  0  0  0
   10.0209   53.1243   33.0980 C   0  0  0  0  0  0  0  0  0  0  0  0
    7.8162   53.9985   32.6364 C   0  0  0  0  0  0  0  0  0  0  0  0
    6.2475   52.8386   31.1540 N   0  0  0  0  0  0  0  0  0  0  0  0
    9.0473   54.1030   33.2851 C   0  0  0  0  0  0  0  0  0  0  0  0
    5.5533   53.9951   30.8817 O   0  0  0  0  0  0  0  0  0  0  0  0
    5.6724   51.7435   30.9902 O   0  0  0  0  0  0  0  0  0  0  0  0
    8.5375   39.1404   34.0127 O   0  0  0  0  0  0  0  0  0  0  0  0
   10.9805   40.0889   33.6836 O   0  0  0  0  0  0  0  0  0  0  0  0
   10.8025   40.0902   32.2837 C   0  0  0  0  0  0  0  0  0  0  0  0
   11.5888   38.9175   31.7008 C   0  0  0  0  0  0  0  0  0  0  0  0
   12.9219   38.9373   32.1692 O   0  0  0  0  0  0  0  0  0  0  0  0
   11.0028   37.5683   32.0981 C   0  0  0  0  0  0  0  0  0  0  0  0
   13.3496   37.5886   32.2601 C   0  0  0  0  0  0  0  0  0  0  0  0
    9.9343   37.1823   31.2757 O   0  0  0  0  0  0  0  0  0  0  0  0
   12.1891   36.6677   31.9050 C   0  0  0  0  0  0  0  0  0  0  0  0
   13.8025   37.2965   33.6186 N   0  0  0  0  0  0  0  0  0  0  0  0
   12.2990   36.2868   30.5568 O   0  0  0  0  0  0  0  0  0  0  0  0
   14.7929   36.4725   33.9858 C   0  0  0  0  0  0  0  0  0  0  0  0
   13.2749   37.7294   34.7936 C   0  0  0  0  0  0  0  0  0  0  0  0
   15.6240   35.7580   33.1858 N   0  0  0  0  0  0  0  0  0  0  0  0
   14.8727   36.4411   35.3327 C   0  0  0  0  0  0  0  0  0  0  0  0
   13.9208   37.2263   35.8803 N   0  0  0  0  0  0  0  0  0  0  0  0
   16.5871   34.9921   33.7801 C   0  0  0  0  0  0  0  0  0  0  0  0
   15.8576   35.6718   35.9441 C   0  0  0  0  0  0  0  0  0  0  0  0
   16.7024   34.9584   35.1438 N   0  0  0  0  0  0  0  0  0  0  0  0
   16.0099   35.6384   37.3562 N   0  0  0  0  0  0  0  0  0  0  0  0
    7.6764   44.0635   34.0548 H   0  0  0  0  0  0  0  0  0  0  0  0
    8.6468   46.1559   34.1432 H   0  0  0  0  0  0  0  0  0  0  0  0
   10.2152   45.5880   33.8747 H   0  0  0  0  0  0  0  0  0  0  0  0
    9.9708   44.0644   31.9679 H   0  0  0  0  0  0  0  0  0  0  0  0
    8.4831   43.0819   31.8666 H   0  0  0  0  0  0  0  0  0  0  0  0
    8.5198   45.0961   30.3808 H   0  0  0  0  0  0  0  0  0  0  0  0
    8.5712   46.1488   31.8175 H   0  0  0  0  0  0  0  0  0  0  0  0
    6.3148   44.1799   30.9838 H   0  0  0  0  0  0  0  0  0  0  0  0
    6.3141   45.0785   32.5414 H   0  0  0  0  0  0  0  0  0  0  0  0
    4.9231   46.2693   30.9294 H   0  0  0  0  0  0  0  0  0  0  0  0
    6.2450   46.2894   29.7230 H   0  0  0  0  0  0  0  0  0  0  0  0
    6.2849   47.7537   32.4219 H   0  0  0  0  0  0  0  0  0  0  0  0
    9.3234   50.3407   30.3323 H   0  0  0  0  0  0  0  0  0  0  0  0
    7.8185   51.0914   29.7255 H   0  0  0  0  0  0  0  0  0  0  0  0
   10.5462   51.2976   32.1171 H   0  0  0  0  0  0  0  0  0  0  0  0
   10.9739   53.2064   33.6046 H   0  0  0  0  0  0  0  0  0  0  0  0
    7.0707   54.7648   32.8068 H   0  0  0  0  0  0  0  0  0  0  0  0
    9.2449   54.9434   33.9380 H   0  0  0  0  0  0  0  0  0  0  0  0
    9.7476   40.0332   31.9256 H   0  0  0  0  0  0  0  0  0  0  0  0
   11.2257   41.0358   31.8825 H   0  0  0  0  0  0  0  0  0  0  0  0
   11.5975   39.0148   30.5905 H   0  0  0  0  0  0  0  0  0  0  0  0
   10.7023   37.5457   33.1720 H   0  0  0  0  0  0  0  0  0  0  0  0
   14.1957   37.4366   31.5528 H   0  0  0  0  0  0  0  0  0  0  0  0
    9.1339   37.6658   31.6070 H   0  0  0  0  0  0  0  0  0  0  0  0
   12.1380   35.7717   32.5698 H   0  0  0  0  0  0  0  0  0  0  0  0
   11.7707   35.4530   30.4496 H   0  0  0  0  0  0  0  0  0  0  0  0
   12.4314   38.3980   34.8694 H   0  0  0  0  0  0  0  0  0  0  0  0
   17.2665   34.4140   33.1691 H   0  0  0  0  0  0  0  0  0  0  0  0
   15.3757   36.1867   37.9789 H   0  0  0  0  0  0  0  0  0  0  0  0
   16.7633   35.0598   37.7895 H   0  0  0  0  0  0  0  0  0  0  0  0
  1  2  2  0
  1  3  1  0
  3  4  1  0
  4  5  1  0
  6  1  1  0
  7  6  1  0
  6  8  1  0
  8  9  1  0
  9 10  1  0
 10 11  1  0
 11 12  1  0
 12 13  1  0
 13 14  1  0
 13 15  2  0
 14 16  1  0
 16 17  1  0
 17 18  2  0
 19 17  1  0
 18 20  1  0
 21 19  2  0
 19 22  1  0
 20 23  2  0
 23 21  1  0
 22 24  1  0
 22 25  2  0
  4 26  2  0
  4 27  1  0
 28 27  1  0
 28 29  1  0
 29 30  1  0
 29 31  1  0
 30 32  1  0
 31 33  1  0
 31 34  1  0
 34 32  1  0
 32 35  1  0
 34 36  1  0
 37 35  1  0
 38 35  1  0
 39 37  2  0
 37 40  1  0
 41 38  2  0
 42 39  1  0
 40 43  2  0
 40 41  1  0
 44 42  2  0
 44 43  1  0
 43 45  1  0
  6 46  1  6
  7 47  1  0
  7 48  1  0
  8 49  1  0
  8 50  1  0
  9 51  1  0
  9 52  1  0
 10 53  1  0
 10 54  1  0
 11 55  1  0
 11 56  1  0
 12 57  1  0
 16 58  1  0
 16 59  1  0
 18 60  1  0
 20 61  1  0
 21 62  1  0
 23 63  1  0
 28 64  1  0
 28 65  1  0
 29 66  1  0
 31 67  1  0
 32 68  1  0
 33 69  1  0
 34 70  1  0
 36 71  1  0
 38 72  1  0
 42 73  1  0
 45 74  1  0
 45 75  1  0
M  CHG  3   5  -1  22   1  24  -1
M  END
>  <EmbedRMS>  (308) 
0.0733962861943

$$$$

     RDKit          3D

 75 78  0  0  0  0  0  0  0  0999 V2000
    9.4300   42.9390   34.3431 C   0  0  0  0  0  0  0  0  0  0  0  0
   10.4909   43.0384   35.0236 O   0  0  0  0  0  0  0  0  0  0  0  0
    8.8551   41.7111   34.0283 O   0  0  0  0  0  0  0  0  0  0  0  0
    9.4944   40.2151   34.4676 P   0  0  0  0  0  0  0  0  0  0  0  0
    9.7310   40.1737   36.1287 O   0  0  0  0  0  0  0  0  0  0  0  0
    8.7408   44.1361   33.7774 C   0  0  1  0  0  0  0  0  0  0  0  0
    9.2996   45.3700   34.3306 N   0  0  0  0  0  0  0  0  0  0  0  0
    8.8969   44.0585   32.2390 C   0  0  0  0  0  0  0  0  0  0  0  0
    8.2038   45.1686   31.4392 C   0  0  0  0  0  0  0  0  0  0  0  0
    6.6666   45.1070   31.4912 C   0  0  0  0  0  0  0  0  0  0  0  0
    6.0298   46.3246   30.8151 C   0  0  0  0  0  0  0  0  0  0  0  0
    6.5108   47.5651   31.4241 N   0  0  0  0  0  0  0  0  0  0  0  0
    7.2287   48.5520   30.6737 C   0  0  0  0  0  0  0  0  0  0  0  0
    7.5269   49.8123   31.2088 O   0  0  0  0  0  0  0  0  0  0  0  0
    7.6015   48.2990   29.4986 O   0  0  0  0  0  0  0  0  0  0  0  0
    7.1392   50.2580   32.5078 C   0  0  0  0  0  0  0  0  0  0  0  0
    8.0188   49.6487   33.5775 C   0  0  0  0  0  0  0  0  0  0  0  0
    9.4111   49.6377   33.3739 C   0  0  0  0  0  0  0  0  0  0  0  0
    7.4931   49.0995   34.7769 C   0  0  0  0  0  0  0  0  0  0  0  0
   10.2652   49.0615   34.3153 C   0  0  0  0  0  0  0  0  0  0  0  0
    8.3677   48.5113   35.7060 C   0  0  0  0  0  0  0  0  0  0  0  0
    6.0919   49.1499   35.0840 N   0  0  0  0  0  0  0  0  0  0  0  0
    9.7443   48.4961   35.4775 C   0  0  0  0  0  0  0  0  0  0  0  0
    5.4940   48.0852   35.7178 O   0  0  0  0  0  0  0  0  0  0  0  0
    5.4730   50.2312   35.0082 O   0  0  0  0  0  0  0  0  0  0  0  0
    8.5376   39.1388   34.0124 O   0  0  0  0  0  0  0  0  0  0  0  0
   10.9798   40.0878   33.6827 O   0  0  0  0  0  0  0  0  0  0  0  0
   10.8002   40.0907   32.2831 C   0  0  0  0  0  0  0  0  0  0  0  0
   11.5958   38.9271   31.6963 C   0  0  0  0  0  0  0  0  0  0  0  0
   12.9239   38.9409   32.1767 O   0  0  0  0  0  0  0  0  0  0  0  0
   11.0062   37.5719   32.0794 C   0  0  0  0  0  0  0  0  0  0  0  0
   13.3506   37.5905   32.2614 C   0  0  0  0  0  0  0  0  0  0  0  0
    9.9064   37.1793   31.2946 O   0  0  0  0  0  0  0  0  0  0  0  0
   12.1920   36.6672   31.9003 C   0  0  0  0  0  0  0  0  0  0  0  0
   13.8017   37.2948   33.6193 N   0  0  0  0  0  0  0  0  0  0  0  0
   12.3133   36.2788   30.5561 O   0  0  0  0  0  0  0  0  0  0  0  0
   14.7927   36.4717   33.9862 C   0  0  0  0  0  0  0  0  0  0  0  0
   13.2746   37.7284   34.7941 C   0  0  0  0  0  0  0  0  0  0  0  0
   15.6240   35.7576   33.1859 N   0  0  0  0  0  0  0  0  0  0  0  0
   14.8728   36.4406   35.3330 C   0  0  0  0  0  0  0  0  0  0  0  0
   13.9209   37.2258   35.8808 N   0  0  0  0  0  0  0  0  0  0  0  0
   16.5874   34.9920   33.7802 C   0  0  0  0  0  0  0  0  0  0  0  0
   15.8579   35.6716   35.9443 C   0  0  0  0  0  0  0  0  0  0  0  0
   16.7028   34.9584   35.1439 N   0  0  0  0  0  0  0  0  0  0  0  0
   16.0103   35.6383   37.3563 N   0  0  0  0  0  0  0  0  0  0  0  0
    7.6663   44.0630   34.0530 H   0  0  0  0  0  0  0  0  0  0  0  0
    8.6819   46.1617   34.0431 H   0  0  0  0  0  0  0  0  0  0  0  0
    9.2184   45.3320   35.3733 H   0  0  0  0  0  0  0  0  0  0  0  0
    9.9817   44.0903   31.9914 H   0  0  0  0  0  0  0  0  0  0  0  0
    8.5093   43.0834   31.8679 H   0  0  0  0  0  0  0  0  0  0  0  0
    8.5791   46.1518   31.7890 H   0  0  0  0  0  0  0  0  0  0  0  0
    8.5157   45.0742   30.3760 H   0  0  0  0  0  0  0  0  0  0  0  0
    6.3127   44.1798   30.9906 H   0  0  0  0  0  0  0  0  0  0  0  0
    6.3203   45.0835   32.5451 H   0  0  0  0  0  0  0  0  0  0  0  0
    4.9265   46.2703   30.9338 H   0  0  0  0  0  0  0  0  0  0  0  0
    6.2464   46.2908   29.7258 H   0  0  0  0  0  0  0  0  0  0  0  0
    6.2902   47.7254   32.4310 H   0  0  0  0  0  0  0  0  0  0  0  0
    6.0604   50.0511   32.6541 H   0  0  0  0  0  0  0  0  0  0  0  0
    7.2700   51.3596   32.5464 H   0  0  0  0  0  0  0  0  0  0  0  0
    9.8372   50.0693   32.4765 H   0  0  0  0  0  0  0  0  0  0  0  0
   11.3335   49.0517   34.1417 H   0  0  0  0  0  0  0  0  0  0  0  0
    7.9826   48.0828   36.6227 H   0  0  0  0  0  0  0  0  0  0  0  0
   10.4083   48.0468   36.2046 H   0  0  0  0  0  0  0  0  0  0  0  0
    9.7454   40.0168   31.9262 H   0  0  0  0  0  0  0  0  0  0  0  0
   11.2115   41.0421   31.8829 H   0  0  0  0  0  0  0  0  0  0  0  0
   11.6246   39.0449   30.5888 H   0  0  0  0  0  0  0  0  0  0  0  0
   10.7050   37.5581   33.1500 H   0  0  0  0  0  0  0  0  0  0  0  0
   14.1985   37.4426   31.5553 H   0  0  0  0  0  0  0  0  0  0  0  0
   10.0893   37.4057   30.3459 H   0  0  0  0  0  0  0  0  0  0  0  0
   12.1337   35.7754   32.5703 H   0  0  0  0  0  0  0  0  0  0  0  0
   11.7934   35.4394   30.4514 H   0  0  0  0  0  0  0  0  0  0  0  0
   12.4314   38.3973   34.8699 H   0  0  0  0  0  0  0  0  0  0  0  0
   17.2669   34.4142   33.1692 H   0  0  0  0  0  0  0  0  0  0  0  0
   16.7638   35.0599   37.7896 H   0  0  0  0  0  0  0  0  0  0  0  0
   15.3759   36.1865   37.9790 H   0  0  0  0  0  0  0  0  0  0  0  0
  1  2  2  0
  1  3  1  0
  3  4  1  0
  4  5  1  0
  6  1  1  0
  7  6  1  0
  6  8  1  0
  8  9  1  0
  9 10  1  0
 10 11  1  0
 11 12  1  0
 12 13  1  0
 13 14  1  0
 13 15  2  0
 14 16  1  0
 16 17  1  0
 17 18  2  0
 19 17  1  0
 18 20  1  0
 21 19  2  0
 19 22  1  0
 20 23  2  0
 23 21  1  0
 22 24  1  0
 22 25  2  0
  4 26  2  0
  4 27  1  0
 28 27  1  0
 28 29  1  0
 29 30  1  0
 29 31  1  0
 30 32  1  0
 31 33  1  0
 31 34  1  0
 34 32  1  0
 32 35  1  0
 34 36  1  0
 37 35  1  0
 38 35  1  0
 39 37  2  0
 37 40  1  0
 41 38  2  0
 42 39  1  0
 40 43  2  0
 40 41  1  0
 44 42  2  0
 44 43  1  0
 43 45  1  0
  6 46  1  6
  7 47  1  0
  7 48  1  0
  8 49  1  0
  8 50  1  0
  9 51  1  0
  9 52  1  0
 10 53  1  0
 10 54  1  0
 11 55  1  0
 11 56  1  0
 12 57  1  0
 16 58  1  0
 16 59  1  0
 18 60  1  0
 20 61  1  0
 21 62  1  0
 23 63  1  0
 28 64  1  0
 28 65  1  0
 29 66  1  0
 31 67  1  0
 32 68  1  0
 33 69  1  0
 34 70  1  0
 36 71  1  0
 38 72  1  0
 42 73  1  0
 45 74  1  0
 45 75  1  0
M  CHG  3   5  -1  22   1  24  -1
M  END
>  <EmbedRMS>  (309) 
0.0739938108492

$$$$

     RDKit          3D

 75 78  0  0  0  0  0  0  0  0999 V2000
    9.4337   42.9375   34.3450 C   0  0  0  0  0  0  0  0  0  0  0  0
   10.4908   43.0337   35.0312 O   0  0  0  0  0  0  0  0  0  0  0  0
    8.8564   41.7113   34.0288 O   0  0  0  0  0  0  0  0  0  0  0  0
    9.4942   40.2148   34.4677 P   0  0  0  0  0  0  0  0  0  0  0  0
    9.7307   40.1732   36.1288 O   0  0  0  0  0  0  0  0  0  0  0  0
    8.7514   44.1366   33.7733 C   0  0  1  0  0  0  0  0  0  0  0  0
    9.2971   45.3835   34.3132 N   0  0  0  0  0  0  0  0  0  0  0  0
    8.8901   44.0569   32.2349 C   0  0  0  0  0  0  0  0  0  0  0  0
    8.2020   45.1876   31.4624 C   0  0  0  0  0  0  0  0  0  0  0  0
    6.6642   45.1069   31.4851 C   0  0  0  0  0  0  0  0  0  0  0  0
    6.0209   46.3211   30.8055 C   0  0  0  0  0  0  0  0  0  0  0  0
    6.4884   47.5667   31.4130 N   0  0  0  0  0  0  0  0  0  0  0  0
    7.2742   48.5175   30.6982 C   0  0  0  0  0  0  0  0  0  0  0  0
    7.7680   49.6364   31.3759 O   0  0  0  0  0  0  0  0  0  0  0  0
    7.5864   48.3123   29.4937 O   0  0  0  0  0  0  0  0  0  0  0  0
    8.8556   50.4185   30.8860 C   0  0  0  0  0  0  0  0  0  0  0  0
   10.1291   49.5991   30.8873 C   0  0  0  0  0  0  0  0  0  0  0  0
   10.4513   48.8726   32.0491 C   0  0  0  0  0  0  0  0  0  0  0  0
   10.9645   49.4808   29.7456 C   0  0  0  0  0  0  0  0  0  0  0  0
   11.5441   48.0053   32.0679 C   0  0  0  0  0  0  0  0  0  0  0  0
   12.0509   48.5897   29.7786 C   0  0  0  0  0  0  0  0  0  0  0  0
   10.7452   50.2620   28.5611 N   0  0  0  0  0  0  0  0  0  0  0  0
   12.3364   47.8562   30.9313 C   0  0  0  0  0  0  0  0  0  0  0  0
   10.9977   49.7143   27.3245 O   0  0  0  0  0  0  0  0  0  0  0  0
   10.5659   51.4943   28.6486 O   0  0  0  0  0  0  0  0  0  0  0  0
    8.5369   39.1391   34.0124 O   0  0  0  0  0  0  0  0  0  0  0  0
   10.9801   40.0880   33.6834 O   0  0  0  0  0  0  0  0  0  0  0  0
   10.8020   40.0895   32.2836 C   0  0  0  0  0  0  0  0  0  0  0  0
   11.5900   38.9179   31.7006 C   0  0  0  0  0  0  0  0  0  0  0  0
   12.9224   38.9391   32.1711 O   0  0  0  0  0  0  0  0  0  0  0  0
   11.0052   37.5677   32.0966 C   0  0  0  0  0  0  0  0  0  0  0  0
   13.3518   37.5910   32.2610 C   0  0  0  0  0  0  0  0  0  0  0  0
    9.9381   37.1795   31.2733 O   0  0  0  0  0  0  0  0  0  0  0  0
   12.1912   36.6690   31.9042 C   0  0  0  0  0  0  0  0  0  0  0  0
   13.8027   37.2968   33.6192 N   0  0  0  0  0  0  0  0  0  0  0  0
   12.2877   36.2853   30.5567 O   0  0  0  0  0  0  0  0  0  0  0  0
   14.7928   36.4724   33.9861 C   0  0  0  0  0  0  0  0  0  0  0  0
   13.2751   37.7297   34.7941 C   0  0  0  0  0  0  0  0  0  0  0  0
   15.6239   35.7581   33.1859 N   0  0  0  0  0  0  0  0  0  0  0  0
   14.8726   36.4408   35.3329 C   0  0  0  0  0  0  0  0  0  0  0  0
   13.9209   37.2262   35.8807 N   0  0  0  0  0  0  0  0  0  0  0  0
   16.5870   34.9922   33.7801 C   0  0  0  0  0  0  0  0  0  0  0  0
   15.8576   35.6716   35.9442 C   0  0  0  0  0  0  0  0  0  0  0  0
   16.7024   34.9584   35.1438 N   0  0  0  0  0  0  0  0  0  0  0  0
   16.0101   35.6383   37.3562 N   0  0  0  0  0  0  0  0  0  0  0  0
    7.6777   44.0727   34.0492 H   0  0  0  0  0  0  0  0  0  0  0  0
    9.1852   45.3825   35.3535 H   0  0  0  0  0  0  0  0  0  0  0  0
   10.3196   45.4432   34.0981 H   0  0  0  0  0  0  0  0  0  0  0  0
    9.9720   44.0751   31.9732 H   0  0  0  0  0  0  0  0  0  0  0  0
    8.4841   43.0893   31.8643 H   0  0  0  0  0  0  0  0  0  0  0  0
    8.5391   45.1455   30.4035 H   0  0  0  0  0  0  0  0  0  0  0  0
    8.5516   46.1565   31.8777 H   0  0  0  0  0  0  0  0  0  0  0  0
    6.3003   45.0682   32.5328 H   0  0  0  0  0  0  0  0  0  0  0  0
    6.3315   44.1798   30.9698 H   0  0  0  0  0  0  0  0  0  0  0  0
    4.9172   46.2589   30.9157 H   0  0  0  0  0  0  0  0  0  0  0  0
    6.2457   46.2883   29.7178 H   0  0  0  0  0  0  0  0  0  0  0  0
    6.2690   47.7498   32.4180 H   0  0  0  0  0  0  0  0  0  0  0  0
    8.9946   51.2904   31.5586 H   0  0  0  0  0  0  0  0  0  0  0  0
    8.5895   50.8030   29.8813 H   0  0  0  0  0  0  0  0  0  0  0  0
    9.8340   48.9551   32.9355 H   0  0  0  0  0  0  0  0  0  0  0  0
   11.7705   47.4399   32.9627 H   0  0  0  0  0  0  0  0  0  0  0  0
   12.6940   48.4805   28.9145 H   0  0  0  0  0  0  0  0  0  0  0  0
   13.1806   47.1790   30.9464 H   0  0  0  0  0  0  0  0  0  0  0  0
   11.2240   41.0358   31.8826 H   0  0  0  0  0  0  0  0  0  0  0  0
    9.7473   40.0310   31.9254 H   0  0  0  0  0  0  0  0  0  0  0  0
   11.5999   39.0159   30.5904 H   0  0  0  0  0  0  0  0  0  0  0  0
   10.7034   37.5450   33.1702 H   0  0  0  0  0  0  0  0  0  0  0  0
   14.1992   37.4424   31.5548 H   0  0  0  0  0  0  0  0  0  0  0  0
    9.1370   37.6635   31.6023 H   0  0  0  0  0  0  0  0  0  0  0  0
   12.1204   35.7712   32.5637 H   0  0  0  0  0  0  0  0  0  0  0  0
   12.9457   35.5426   30.5221 H   0  0  0  0  0  0  0  0  0  0  0  0
   12.4322   38.3989   34.8700 H   0  0  0  0  0  0  0  0  0  0  0  0
   17.2664   34.4142   33.1690 H   0  0  0  0  0  0  0  0  0  0  0  0
   16.7636   35.0598   37.7895 H   0  0  0  0  0  0  0  0  0  0  0  0
   15.3759   36.1865   37.9790 H   0  0  0  0  0  0  0  0  0  0  0  0
  1  2  2  0
  1  3  1  0
  3  4  1  0
  4  5  1  0
  6  1  1  0
  7  6  1  0
  6  8  1  0
  8  9  1  0
  9 10  1  0
 10 11  1  0
 11 12  1  0
 12 13  1  0
 13 14  1  0
 13 15  2  0
 14 16  1  0
 16 17  1  0
 17 18  2  0
 19 17  1  0
 18 20  1  0
 21 19  2  0
 19 22  1  0
 20 23  2  0
 23 21  1  0
 22 24  1  0
 22 25  2  0
  4 26  2  0
  4 27  1  0
 28 27  1  0
 28 29  1  0
 29 30  1  0
 29 31  1  0
 30 32  1  0
 31 33  1  0
 31 34  1  0
 34 32  1  0
 32 35  1  0
 34 36  1  0
 37 35  1  0
 38 35  1  0
 39 37  2  0
 37 40  1  0
 41 38  2  0
 42 39  1  0
 40 43  2  0
 40 41  1  0
 44 42  2  0
 44 43  1  0
 43 45  1  0
  6 46  1  6
  7 47  1  0
  7 48  1  0
  8 49  1  0
  8 50  1  0
  9 51  1  0
  9 52  1  0
 10 53  1  0
 10 54  1  0
 11 55  1  0
 11 56  1  0
 12 57  1  0
 16 58  1  0
 16 59  1  0
 18 60  1  0
 20 61  1  0
 21 62  1  0
 23 63  1  0
 28 64  1  0
 28 65  1  0
 29 66  1  0
 31 67  1  0
 32 68  1  0
 33 69  1  0
 34 70  1  0
 36 71  1  0
 38 72  1  0
 42 73  1  0
 45 74  1  0
 45 75  1  0
M  CHG  3   5  -1  22   1  24  -1
M  END
>  <EmbedRMS>  (310) 
0.0753372596088

$$$$

     RDKit          3D

 75 78  0  0  0  0  0  0  0  0999 V2000
    9.4331   42.9365   34.3461 C   0  0  0  0  0  0  0  0  0  0  0  0
   10.4905   43.0331   35.0318 O   0  0  0  0  0  0  0  0  0  0  0  0
    8.8562   41.7103   34.0295 O   0  0  0  0  0  0  0  0  0  0  0  0
    9.4943   40.2140   34.4679 P   0  0  0  0  0  0  0  0  0  0  0  0
    9.7310   40.1724   36.1290 O   0  0  0  0  0  0  0  0  0  0  0  0
    8.7504   44.1348   33.7740 C   0  0  1  0  0  0  0  0  0  0  0  0
    9.2960   45.3821   34.3131 N   0  0  0  0  0  0  0  0  0  0  0  0
    8.8892   44.0526   32.2357 C   0  0  0  0  0  0  0  0  0  0  0  0
    8.2032   45.1823   31.4611 C   0  0  0  0  0  0  0  0  0  0  0  0
    6.6657   45.1033   31.4817 C   0  0  0  0  0  0  0  0  0  0  0  0
    6.0276   46.3245   30.8114 C   0  0  0  0  0  0  0  0  0  0  0  0
    6.5104   47.5626   31.4230 N   0  0  0  0  0  0  0  0  0  0  0  0
    7.2377   48.5472   30.6791 C   0  0  0  0  0  0  0  0  0  0  0  0
    7.5847   49.7848   31.2379 O   0  0  0  0  0  0  0  0  0  0  0  0
    7.5951   48.3040   29.4970 O   0  0  0  0  0  0  0  0  0  0  0  0
    7.1787   50.2417   32.5278 C   0  0  0  0  0  0  0  0  0  0  0  0
    5.6903   50.5068   32.5686 C   0  0  0  0  0  0  0  0  0  0  0  0
    4.9243   49.8917   33.5762 C   0  0  0  0  0  0  0  0  0  0  0  0
    5.0397   51.3253   31.6062 C   0  0  0  0  0  0  0  0  0  0  0  0
    3.5395   50.0556   33.6197 C   0  0  0  0  0  0  0  0  0  0  0  0
    3.6404   51.4644   31.6599 C   0  0  0  0  0  0  0  0  0  0  0  0
    5.7699   52.0060   30.5694 N   0  0  0  0  0  0  0  0  0  0  0  0
    2.8981   50.8355   32.6600 C   0  0  0  0  0  0  0  0  0  0  0  0
    6.9783   52.6046   30.8393 O   0  0  0  0  0  0  0  0  0  0  0  0
    5.2390   52.2029   29.4566 O   0  0  0  0  0  0  0  0  0  0  0  0
    8.5372   39.1382   34.0121 O   0  0  0  0  0  0  0  0  0  0  0  0
   10.9798   40.0871   33.6829 O   0  0  0  0  0  0  0  0  0  0  0  0
   10.8002   40.0905   32.2832 C   0  0  0  0  0  0  0  0  0  0  0  0
   11.5958   38.9271   31.6963 C   0  0  0  0  0  0  0  0  0  0  0  0
   12.9239   38.9409   32.1766 O   0  0  0  0  0  0  0  0  0  0  0  0
   11.0062   37.5719   32.0793 C   0  0  0  0  0  0  0  0  0  0  0  0
   13.3507   37.5905   32.2614 C   0  0  0  0  0  0  0  0  0  0  0  0
    9.9064   37.1792   31.2946 O   0  0  0  0  0  0  0  0  0  0  0  0
   12.1920   36.6671   31.9003 C   0  0  0  0  0  0  0  0  0  0  0  0
   13.8017   37.2948   33.6193 N   0  0  0  0  0  0  0  0  0  0  0  0
   12.3133   36.2788   30.5560 O   0  0  0  0  0  0  0  0  0  0  0  0
   14.7927   36.4717   33.9861 C   0  0  0  0  0  0  0  0  0  0  0  0
   13.2746   37.7284   34.7941 C   0  0  0  0  0  0  0  0  0  0  0  0
   15.6240   35.7576   33.1859 N   0  0  0  0  0  0  0  0  0  0  0  0
   14.8728   36.4406   35.3329 C   0  0  0  0  0  0  0  0  0  0  0  0
   13.9209   37.2258   35.8807 N   0  0  0  0  0  0  0  0  0  0  0  0
   16.5874   34.9920   33.7802 C   0  0  0  0  0  0  0  0  0  0  0  0
   15.8579   35.6716   35.9443 C   0  0  0  0  0  0  0  0  0  0  0  0
   16.7028   34.9584   35.1439 N   0  0  0  0  0  0  0  0  0  0  0  0
   16.0103   35.6383   37.3563 N   0  0  0  0  0  0  0  0  0  0  0  0
    7.6767   44.0708   34.0501 H   0  0  0  0  0  0  0  0  0  0  0  0
    9.1820   45.3824   35.3533 H   0  0  0  0  0  0  0  0  0  0  0  0
   10.3189   45.4407   34.1001 H   0  0  0  0  0  0  0  0  0  0  0  0
    9.9711   44.0677   31.9740 H   0  0  0  0  0  0  0  0  0  0  0  0
    8.4814   43.0850   31.8667 H   0  0  0  0  0  0  0  0  0  0  0  0
    8.5545   46.1507   31.8754 H   0  0  0  0  0  0  0  0  0  0  0  0
    8.5408   45.1377   30.4024 H   0  0  0  0  0  0  0  0  0  0  0  0
    6.3315   44.1810   30.9591 H   0  0  0  0  0  0  0  0  0  0  0  0
    6.3005   45.0575   32.5287 H   0  0  0  0  0  0  0  0  0  0  0  0
    6.2423   46.2948   29.7217 H   0  0  0  0  0  0  0  0  0  0  0  0
    4.9245   46.2705   30.9318 H   0  0  0  0  0  0  0  0  0  0  0  0
    6.3112   47.7075   32.4361 H   0  0  0  0  0  0  0  0  0  0  0  0
    7.7174   51.1825   32.7612 H   0  0  0  0  0  0  0  0  0  0  0  0
    7.4958   49.5076   33.3000 H   0  0  0  0  0  0  0  0  0  0  0  0
    5.3981   49.2704   34.3263 H   0  0  0  0  0  0  0  0  0  0  0  0
    2.9618   49.5714   34.3965 H   0  0  0  0  0  0  0  0  0  0  0  0
    3.1231   52.0777   30.9329 H   0  0  0  0  0  0  0  0  0  0  0  0
    1.8232   50.9579   32.6937 H   0  0  0  0  0  0  0  0  0  0  0  0
    9.7454   40.0168   31.9263 H   0  0  0  0  0  0  0  0  0  0  0  0
   11.2116   41.0420   31.8834 H   0  0  0  0  0  0  0  0  0  0  0  0
   11.6245   39.0449   30.5888 H   0  0  0  0  0  0  0  0  0  0  0  0
   10.7050   37.5579   33.1500 H   0  0  0  0  0  0  0  0  0  0  0  0
   14.1985   37.4426   31.5553 H   0  0  0  0  0  0  0  0  0  0  0  0
   10.0893   37.4057   30.3459 H   0  0  0  0  0  0  0  0  0  0  0  0
   12.1337   35.7754   32.5703 H   0  0  0  0  0  0  0  0  0  0  0  0
   11.7934   35.4394   30.4513 H   0  0  0  0  0  0  0  0  0  0  0  0
   12.4314   38.3972   34.8700 H   0  0  0  0  0  0  0  0  0  0  0  0
   17.2670   34.4142   33.1692 H   0  0  0  0  0  0  0  0  0  0  0  0
   15.3759   36.1865   37.9790 H   0  0  0  0  0  0  0  0  0  0  0  0
   16.7638   35.0599   37.7897 H   0  0  0  0  0  0  0  0  0  0  0  0
  1  2  2  0
  1  3  1  0
  3  4  1  0
  4  5  1  0
  6  1  1  0
  7  6  1  0
  6  8  1  0
  8  9  1  0
  9 10  1  0
 10 11  1  0
 11 12  1  0
 12 13  1  0
 13 14  1  0
 13 15  2  0
 14 16  1  0
 16 17  1  0
 17 18  2  0
 19 17  1  0
 18 20  1  0
 21 19  2  0
 19 22  1  0
 20 23  2  0
 23 21  1  0
 22 24  1  0
 22 25  2  0
  4 26  2  0
  4 27  1  0
 28 27  1  0
 28 29  1  0
 29 30  1  0
 29 31  1  0
 30 32  1  0
 31 33  1  0
 31 34  1  0
 34 32  1  0
 32 35  1  0
 34 36  1  0
 37 35  1  0
 38 35  1  0
 39 37  2  0
 37 40  1  0
 41 38  2  0
 42 39  1  0
 40 43  2  0
 40 41  1  0
 44 42  2  0
 44 43  1  0
 43 45  1  0
  6 46  1  6
  7 47  1  0
  7 48  1  0
  8 49  1  0
  8 50  1  0
  9 51  1  0
  9 52  1  0
 10 53  1  0
 10 54  1  0
 11 55  1  0
 11 56  1  0
 12 57  1  0
 16 58  1  0
 16 59  1  0
 18 60  1  0
 20 61  1  0
 21 62  1  0
 23 63  1  0
 28 64  1  0
 28 65  1  0
 29 66  1  0
 31 67  1  0
 32 68  1  0
 33 69  1  0
 34 70  1  0
 36 71  1  0
 38 72  1  0
 42 73  1  0
 45 74  1  0
 45 75  1  0
M  CHG  3   5  -1  22   1  24  -1
M  END
>  <EmbedRMS>  (311) 
0.0745498611971

$$$$

     RDKit          3D

 75 78  0  0  0  0  0  0  0  0999 V2000
    9.4313   42.9416   34.3436 C   0  0  0  0  0  0  0  0  0  0  0  0
   10.4886   43.0413   35.0294 O   0  0  0  0  0  0  0  0  0  0  0  0
    8.8562   41.7133   34.0287 O   0  0  0  0  0  0  0  0  0  0  0  0
    9.4946   40.2166   34.4678 P   0  0  0  0  0  0  0  0  0  0  0  0
    9.7310   40.1743   36.1289 O   0  0  0  0  0  0  0  0  0  0  0  0
    8.7485   44.1368   33.7721 C   0  0  1  0  0  0  0  0  0  0  0  0
    9.3043   45.3674   34.3387 N   0  0  0  0  0  0  0  0  0  0  0  0
    8.8891   44.0529   32.2308 C   0  0  0  0  0  0  0  0  0  0  0  0
    8.2010   45.1734   31.4440 C   0  0  0  0  0  0  0  0  0  0  0  0
    6.6636   45.1067   31.4880 C   0  0  0  0  0  0  0  0  0  0  0  0
    6.0248   46.3226   30.8098 C   0  0  0  0  0  0  0  0  0  0  0  0
    6.5027   47.5642   31.4169 N   0  0  0  0  0  0  0  0  0  0  0  0
    7.2571   48.5312   30.6895 C   0  0  0  0  0  0  0  0  0  0  0  0
    7.6676   49.6985   31.3371 O   0  0  0  0  0  0  0  0  0  0  0  0
    7.5876   48.3147   29.4921 O   0  0  0  0  0  0  0  0  0  0  0  0
    8.4952   50.6764   30.7151 C   0  0  0  0  0  0  0  0  0  0  0  0
    8.8926   51.7202   31.7287 C   0  0  0  0  0  0  0  0  0  0  0  0
    8.5583   53.0643   31.4792 C   0  0  0  0  0  0  0  0  0  0  0  0
    9.5552   51.3834   32.9423 C   0  0  0  0  0  0  0  0  0  0  0  0
    8.8599   54.0585   32.4105 C   0  0  0  0  0  0  0  0  0  0  0  0
    9.8346   52.4005   33.8727 C   0  0  0  0  0  0  0  0  0  0  0  0
    9.9285   50.0298   33.2633 N   0  0  0  0  0  0  0  0  0  0  0  0
    9.4931   53.7269   33.6061 C   0  0  0  0  0  0  0  0  0  0  0  0
    9.9854   49.6268   34.5778 O   0  0  0  0  0  0  0  0  0  0  0  0
   10.3547   49.2560   32.3820 O   0  0  0  0  0  0  0  0  0  0  0  0
    8.5374   39.1406   34.0127 O   0  0  0  0  0  0  0  0  0  0  0  0
   10.9805   40.0889   33.6836 O   0  0  0  0  0  0  0  0  0  0  0  0
   10.8025   40.0902   32.2837 C   0  0  0  0  0  0  0  0  0  0  0  0
   11.5888   38.9175   31.7008 C   0  0  0  0  0  0  0  0  0  0  0  0
   12.9219   38.9374   32.1692 O   0  0  0  0  0  0  0  0  0  0  0  0
   11.0028   37.5683   32.0981 C   0  0  0  0  0  0  0  0  0  0  0  0
   13.3496   37.5886   32.2601 C   0  0  0  0  0  0  0  0  0  0  0  0
    9.9343   37.1823   31.2757 O   0  0  0  0  0  0  0  0  0  0  0  0
   12.1890   36.6677   31.9050 C   0  0  0  0  0  0  0  0  0  0  0  0
   13.8025   37.2965   33.6186 N   0  0  0  0  0  0  0  0  0  0  0  0
   12.2990   36.2868   30.5568 O   0  0  0  0  0  0  0  0  0  0  0  0
   14.7929   36.4725   33.9858 C   0  0  0  0  0  0  0  0  0  0  0  0
   13.2749   37.7294   34.7935 C   0  0  0  0  0  0  0  0  0  0  0  0
   15.6240   35.7580   33.1858 N   0  0  0  0  0  0  0  0  0  0  0  0
   14.8727   36.4411   35.3327 C   0  0  0  0  0  0  0  0  0  0  0  0
   13.9208   37.2263   35.8803 N   0  0  0  0  0  0  0  0  0  0  0  0
   16.5871   34.9921   33.7801 C   0  0  0  0  0  0  0  0  0  0  0  0
   15.8576   35.6718   35.9441 C   0  0  0  0  0  0  0  0  0  0  0  0
   16.7024   34.9584   35.1438 N   0  0  0  0  0  0  0  0  0  0  0  0
   16.0099   35.6384   37.3562 N   0  0  0  0  0  0  0  0  0  0  0  0
    7.6765   44.0645   34.0548 H   0  0  0  0  0  0  0  0  0  0  0  0
   10.2153   45.5893   33.8742 H   0  0  0  0  0  0  0  0  0  0  0  0
    8.6473   46.1570   34.1437 H   0  0  0  0  0  0  0  0  0  0  0  0
    9.9706   44.0657   31.9678 H   0  0  0  0  0  0  0  0  0  0  0  0
    8.4830   43.0828   31.8665 H   0  0  0  0  0  0  0  0  0  0  0  0
    8.5698   46.1501   31.8189 H   0  0  0  0  0  0  0  0  0  0  0  0
    8.5201   45.0983   30.3813 H   0  0  0  0  0  0  0  0  0  0  0  0
    6.3154   44.1794   30.9835 H   0  0  0  0  0  0  0  0  0  0  0  0
    6.3129   45.0789   32.5405 H   0  0  0  0  0  0  0  0  0  0  0  0
    6.2453   46.2887   29.7212 H   0  0  0  0  0  0  0  0  0  0  0  0
    4.9213   46.2668   30.9253 H   0  0  0  0  0  0  0  0  0  0  0  0
    6.2846   47.7495   32.4219 H   0  0  0  0  0  0  0  0  0  0  0  0
    7.9391   51.1292   29.8653 H   0  0  0  0  0  0  0  0  0  0  0  0
    9.4076   50.2020   30.2957 H   0  0  0  0  0  0  0  0  0  0  0  0
    8.0540   53.3465   30.5632 H   0  0  0  0  0  0  0  0  0  0  0  0
    8.5959   55.0883   32.2068 H   0  0  0  0  0  0  0  0  0  0  0  0
   10.3340   52.1679   34.8046 H   0  0  0  0  0  0  0  0  0  0  0  0
    9.7220   54.4998   34.3285 H   0  0  0  0  0  0  0  0  0  0  0  0
   11.2257   41.0358   31.8824 H   0  0  0  0  0  0  0  0  0  0  0  0
    9.7476   40.0332   31.9255 H   0  0  0  0  0  0  0  0  0  0  0  0
   11.5975   39.0148   30.5905 H   0  0  0  0  0  0  0  0  0  0  0  0
   10.7023   37.5457   33.1720 H   0  0  0  0  0  0  0  0  0  0  0  0
   14.1957   37.4366   31.5528 H   0  0  0  0  0  0  0  0  0  0  0  0
    9.1339   37.6659   31.6070 H   0  0  0  0  0  0  0  0  0  0  0  0
   12.1380   35.7718   32.5698 H   0  0  0  0  0  0  0  0  0  0  0  0
   11.7706   35.4530   30.4497 H   0  0  0  0  0  0  0  0  0  0  0  0
   12.4314   38.3980   34.8694 H   0  0  0  0  0  0  0  0  0  0  0  0
   17.2665   34.4140   33.1691 H   0  0  0  0  0  0  0  0  0  0  0  0
   15.3757   36.1868   37.9789 H   0  0  0  0  0  0  0  0  0  0  0  0
   16.7633   35.0598   37.7895 H   0  0  0  0  0  0  0  0  0  0  0  0
  1  2  2  0
  1  3  1  0
  3  4  1  0
  4  5  1  0
  6  1  1  0
  7  6  1  0
  6  8  1  0
  8  9  1  0
  9 10  1  0
 10 11  1  0
 11 12  1  0
 12 13  1  0
 13 14  1  0
 13 15  2  0
 14 16  1  0
 16 17  1  0
 17 18  2  0
 19 17  1  0
 18 20  1  0
 21 19  2  0
 19 22  1  0
 20 23  2  0
 23 21  1  0
 22 24  1  0
 22 25  2  0
  4 26  2  0
  4 27  1  0
 28 27  1  0
 28 29  1  0
 29 30  1  0
 29 31  1  0
 30 32  1  0
 31 33  1  0
 31 34  1  0
 34 32  1  0
 32 35  1  0
 34 36  1  0
 37 35  1  0
 38 35  1  0
 39 37  2  0
 37 40  1  0
 41 38  2  0
 42 39  1  0
 40 43  2  0
 40 41  1  0
 44 42  2  0
 44 43  1  0
 43 45  1  0
  6 46  1  6
  7 47  1  0
  7 48  1  0
  8 49  1  0
  8 50  1  0
  9 51  1  0
  9 52  1  0
 10 53  1  0
 10 54  1  0
 11 55  1  0
 11 56  1  0
 12 57  1  0
 16 58  1  0
 16 59  1  0
 18 60  1  0
 20 61  1  0
 21 62  1  0
 23 63  1  0
 28 64  1  0
 28 65  1  0
 29 66  1  0
 31 67  1  0
 32 68  1  0
 33 69  1  0
 34 70  1  0
 36 71  1  0
 38 72  1  0
 42 73  1  0
 45 74  1  0
 45 75  1  0
M  CHG  3   5  -1  22   1  24  -1
M  END
>  <EmbedRMS>  (312) 
0.0737333049779

$$$$

     RDKit          3D

 75 78  0  0  0  0  0  0  0  0999 V2000
    9.4315   42.9413   34.3430 C   0  0  0  0  0  0  0  0  0  0  0  0
   10.4886   43.0411   35.0290 O   0  0  0  0  0  0  0  0  0  0  0  0
    8.8563   41.7130   34.0283 O   0  0  0  0  0  0  0  0  0  0  0  0
    9.4945   40.2162   34.4676 P   0  0  0  0  0  0  0  0  0  0  0  0
    9.7311   40.1742   36.1287 O   0  0  0  0  0  0  0  0  0  0  0  0
    8.7486   44.1363   33.7716 C   0  0  1  0  0  0  0  0  0  0  0  0
    9.3035   45.3665   34.3392 N   0  0  0  0  0  0  0  0  0  0  0  0
    8.8898   44.0541   32.2303 C   0  0  0  0  0  0  0  0  0  0  0  0
    8.2015   45.1755   31.4445 C   0  0  0  0  0  0  0  0  0  0  0  0
    6.6641   45.1081   31.4889 C   0  0  0  0  0  0  0  0  0  0  0  0
    6.0238   46.3231   30.8105 C   0  0  0  0  0  0  0  0  0  0  0  0
    6.4998   47.5663   31.4167 N   0  0  0  0  0  0  0  0  0  0  0  0
    7.2566   48.5308   30.6887 C   0  0  0  0  0  0  0  0  0  0  0  0
    7.6656   49.7029   31.3328 O   0  0  0  0  0  0  0  0  0  0  0  0
    7.5903   48.3097   29.4930 O   0  0  0  0  0  0  0  0  0  0  0  0
    8.5942   50.6221   30.7607 C   0  0  0  0  0  0  0  0  0  0  0  0
    9.9690   49.9989   30.6695 C   0  0  0  0  0  0  0  0  0  0  0  0
   10.5939   49.9313   29.4105 C   0  0  0  0  0  0  0  0  0  0  0  0
   10.6167   49.4244   31.7973 C   0  0  0  0  0  0  0  0  0  0  0  0
   11.8277   49.2976   29.2601 C   0  0  0  0  0  0  0  0  0  0  0  0
   11.8528   48.7757   31.6185 C   0  0  0  0  0  0  0  0  0  0  0  0
   10.0355   49.4690   33.1141 N   0  0  0  0  0  0  0  0  0  0  0  0
   12.4534   48.7167   30.3607 C   0  0  0  0  0  0  0  0  0  0  0  0
    9.3760   50.5925   33.5545 O   0  0  0  0  0  0  0  0  0  0  0  0
   10.2665   48.5534   33.9307 O   0  0  0  0  0  0  0  0  0  0  0  0
    8.5374   39.1401   34.0124 O   0  0  0  0  0  0  0  0  0  0  0  0
   10.9799   40.0879   33.6828 O   0  0  0  0  0  0  0  0  0  0  0  0
   10.8003   40.0907   32.2831 C   0  0  0  0  0  0  0  0  0  0  0  0
   11.5958   38.9272   31.6964 C   0  0  0  0  0  0  0  0  0  0  0  0
   12.9239   38.9409   32.1767 O   0  0  0  0  0  0  0  0  0  0  0  0
   11.0062   37.5720   32.0794 C   0  0  0  0  0  0  0  0  0  0  0  0
   13.3506   37.5906   32.2614 C   0  0  0  0  0  0  0  0  0  0  0  0
    9.9064   37.1793   31.2946 O   0  0  0  0  0  0  0  0  0  0  0  0
   12.1919   36.6672   31.9003 C   0  0  0  0  0  0  0  0  0  0  0  0
   13.8017   37.2948   33.6193 N   0  0  0  0  0  0  0  0  0  0  0  0
   12.3133   36.2788   30.5561 O   0  0  0  0  0  0  0  0  0  0  0  0
   14.7927   36.4717   33.9862 C   0  0  0  0  0  0  0  0  0  0  0  0
   13.2746   37.7284   34.7941 C   0  0  0  0  0  0  0  0  0  0  0  0
   15.6240   35.7576   33.1859 N   0  0  0  0  0  0  0  0  0  0  0  0
   14.8728   36.4406   35.3330 C   0  0  0  0  0  0  0  0  0  0  0  0
   13.9209   37.2258   35.8808 N   0  0  0  0  0  0  0  0  0  0  0  0
   16.5874   34.9920   33.7802 C   0  0  0  0  0  0  0  0  0  0  0  0
   15.8579   35.6716   35.9443 C   0  0  0  0  0  0  0  0  0  0  0  0
   16.7028   34.9584   35.1439 N   0  0  0  0  0  0  0  0  0  0  0  0
   16.0103   35.6383   37.3563 N   0  0  0  0  0  0  0  0  0  0  0  0
    7.6765   44.0633   34.0538 H   0  0  0  0  0  0  0  0  0  0  0  0
   10.2132   45.5904   33.8731 H   0  0  0  0  0  0  0  0  0  0  0  0
    8.6441   46.1546   34.1463 H   0  0  0  0  0  0  0  0  0  0  0  0
    8.4844   43.0842   31.8648 H   0  0  0  0  0  0  0  0  0  0  0  0
    9.9715   44.0679   31.9677 H   0  0  0  0  0  0  0  0  0  0  0  0
    8.5207   45.1018   30.3818 H   0  0  0  0  0  0  0  0  0  0  0  0
    8.5701   46.1523   31.8202 H   0  0  0  0  0  0  0  0  0  0  0  0
    6.3139   45.0806   32.5415 H   0  0  0  0  0  0  0  0  0  0  0  0
    6.3164   44.1803   30.9850 H   0  0  0  0  0  0  0  0  0  0  0  0
    4.9205   46.2659   30.9260 H   0  0  0  0  0  0  0  0  0  0  0  0
    6.2440   46.2888   29.7219 H   0  0  0  0  0  0  0  0  0  0  0  0
    6.2806   47.7531   32.4211 H   0  0  0  0  0  0  0  0  0  0  0  0
    8.2217   50.9463   29.7640 H   0  0  0  0  0  0  0  0  0  0  0  0
    8.6422   51.5348   31.3882 H   0  0  0  0  0  0  0  0  0  0  0  0
   10.1189   50.3585   28.5360 H   0  0  0  0  0  0  0  0  0  0  0  0
   12.2955   49.2496   28.2852 H   0  0  0  0  0  0  0  0  0  0  0  0
   12.3618   48.3253   32.4613 H   0  0  0  0  0  0  0  0  0  0  0  0
   13.4079   48.2207   30.2399 H   0  0  0  0  0  0  0  0  0  0  0  0
   11.2115   41.0421   31.8829 H   0  0  0  0  0  0  0  0  0  0  0  0
    9.7455   40.0169   31.9263 H   0  0  0  0  0  0  0  0  0  0  0  0
   11.6246   39.0449   30.5889 H   0  0  0  0  0  0  0  0  0  0  0  0
   10.7050   37.5582   33.1500 H   0  0  0  0  0  0  0  0  0  0  0  0
   14.1984   37.4426   31.5553 H   0  0  0  0  0  0  0  0  0  0  0  0
   10.0893   37.4058   30.3459 H   0  0  0  0  0  0  0  0  0  0  0  0
   12.1337   35.7755   32.5703 H   0  0  0  0  0  0  0  0  0  0  0  0
   11.7933   35.4394   30.4514 H   0  0  0  0  0  0  0  0  0  0  0  0
   12.4314   38.3973   34.8699 H   0  0  0  0  0  0  0  0  0  0  0  0
   17.2669   34.4142   33.1691 H   0  0  0  0  0  0  0  0  0  0  0  0
   16.7638   35.0599   37.7896 H   0  0  0  0  0  0  0  0  0  0  0  0
   15.3759   36.1865   37.9790 H   0  0  0  0  0  0  0  0  0  0  0  0
  1  2  2  0
  1  3  1  0
  3  4  1  0
  4  5  1  0
  6  1  1  0
  7  6  1  0
  6  8  1  0
  8  9  1  0
  9 10  1  0
 10 11  1  0
 11 12  1  0
 12 13  1  0
 13 14  1  0
 13 15  2  0
 14 16  1  0
 16 17  1  0
 17 18  2  0
 19 17  1  0
 18 20  1  0
 21 19  2  0
 19 22  1  0
 20 23  2  0
 23 21  1  0
 22 24  1  0
 22 25  2  0
  4 26  2  0
  4 27  1  0
 28 27  1  0
 28 29  1  0
 29 30  1  0
 29 31  1  0
 30 32  1  0
 31 33  1  0
 31 34  1  0
 34 32  1  0
 32 35  1  0
 34 36  1  0
 37 35  1  0
 38 35  1  0
 39 37  2  0
 37 40  1  0
 41 38  2  0
 42 39  1  0
 40 43  2  0
 40 41  1  0
 44 42  2  0
 44 43  1  0
 43 45  1  0
  6 46  1  6
  7 47  1  0
  7 48  1  0
  8 49  1  0
  8 50  1  0
  9 51  1  0
  9 52  1  0
 10 53  1  0
 10 54  1  0
 11 55  1  0
 11 56  1  0
 12 57  1  0
 16 58  1  0
 16 59  1  0
 18 60  1  0
 20 61  1  0
 21 62  1  0
 23 63  1  0
 28 64  1  0
 28 65  1  0
 29 66  1  0
 31 67  1  0
 32 68  1  0
 33 69  1  0
 34 70  1  0
 36 71  1  0
 38 72  1  0
 42 73  1  0
 45 74  1  0
 45 75  1  0
M  CHG  3   5  -1  22   1  24  -1
M  END
>  <EmbedRMS>  (313) 
0.0743897704775

$$$$

     RDKit          3D

 75 78  0  0  0  0  0  0  0  0999 V2000
    9.4300   42.9398   34.3435 C   0  0  0  0  0  0  0  0  0  0  0  0
   10.4913   43.0382   35.0235 O   0  0  0  0  0  0  0  0  0  0  0  0
    8.8546   41.7119   34.0290 O   0  0  0  0  0  0  0  0  0  0  0  0
    9.4929   40.2157   34.4698 P   0  0  0  0  0  0  0  0  0  0  0  0
    9.7292   40.1742   36.1308 O   0  0  0  0  0  0  0  0  0  0  0  0
    8.7414   44.1384   33.7787 C   0  0  1  0  0  0  0  0  0  0  0  0
    9.3024   45.3724   34.3325 N   0  0  0  0  0  0  0  0  0  0  0  0
    8.8962   44.0600   32.2399 C   0  0  0  0  0  0  0  0  0  0  0  0
    8.2023   45.1697   31.4403 C   0  0  0  0  0  0  0  0  0  0  0  0
    6.6648   45.1063   31.4904 C   0  0  0  0  0  0  0  0  0  0  0  0
    6.0260   46.3213   30.8102 C   0  0  0  0  0  0  0  0  0  0  0  0
    6.5029   47.5638   31.4169 N   0  0  0  0  0  0  0  0  0  0  0  0
    7.2548   48.5321   30.6886 C   0  0  0  0  0  0  0  0  0  0  0  0
    7.6568   49.7040   31.3333 O   0  0  0  0  0  0  0  0  0  0  0  0
    7.5885   48.3142   29.4923 O   0  0  0  0  0  0  0  0  0  0  0  0
    8.4795   50.6850   30.7097 C   0  0  0  0  0  0  0  0  0  0  0  0
    8.8582   51.7423   31.7160 C   0  0  0  0  0  0  0  0  0  0  0  0
    8.5340   53.0838   31.4406 C   0  0  0  0  0  0  0  0  0  0  0  0
    9.4930   51.4206   32.9470 C   0  0  0  0  0  0  0  0  0  0  0  0
    8.8197   54.0903   32.3637 C   0  0  0  0  0  0  0  0  0  0  0  0
    9.7578   52.4502   33.8692 C   0  0  0  0  0  0  0  0  0  0  0  0
    9.8532   50.0685   33.2881 N   0  0  0  0  0  0  0  0  0  0  0  0
    9.4269   53.7738   33.5769 C   0  0  0  0  0  0  0  0  0  0  0  0
   10.3797   49.2194   32.3430 O   0  0  0  0  0  0  0  0  0  0  0  0
    9.8368   49.6994   34.4808 O   0  0  0  0  0  0  0  0  0  0  0  0
    8.5368   39.1391   34.0137 O   0  0  0  0  0  0  0  0  0  0  0  0
   10.9787   40.0875   33.6871 O   0  0  0  0  0  0  0  0  0  0  0  0
   10.7992   40.0946   32.2883 C   0  0  0  0  0  0  0  0  0  0  0  0
   11.5957   38.9351   31.6994 C   0  0  0  0  0  0  0  0  0  0  0  0
   12.9257   38.9478   32.1799 O   0  0  0  0  0  0  0  0  0  0  0  0
   11.0070   37.5758   32.0732 C   0  0  0  0  0  0  0  0  0  0  0  0
   13.3571   37.5980   32.2612 C   0  0  0  0  0  0  0  0  0  0  0  0
    9.9093   37.1808   31.2875 O   0  0  0  0  0  0  0  0  0  0  0  0
   12.1967   36.6764   31.8894 C   0  0  0  0  0  0  0  0  0  0  0  0
   13.8018   37.2956   33.6197 N   0  0  0  0  0  0  0  0  0  0  0  0
   12.3048   36.2360   30.5555 O   0  0  0  0  0  0  0  0  0  0  0  0
   14.7922   36.4716   33.9864 C   0  0  0  0  0  0  0  0  0  0  0  0
   13.2747   37.7291   34.7944 C   0  0  0  0  0  0  0  0  0  0  0  0
   15.6240   35.7581   33.1861 N   0  0  0  0  0  0  0  0  0  0  0  0
   14.8721   36.4401   35.3331 C   0  0  0  0  0  0  0  0  0  0  0  0
   13.9206   37.2257   35.8810 N   0  0  0  0  0  0  0  0  0  0  0  0
   16.5873   34.9924   33.7802 C   0  0  0  0  0  0  0  0  0  0  0  0
   15.8576   35.6714   35.9444 C   0  0  0  0  0  0  0  0  0  0  0  0
   16.7026   34.9585   35.1439 N   0  0  0  0  0  0  0  0  0  0  0  0
   16.0102   35.6382   37.3564 N   0  0  0  0  0  0  0  0  0  0  0  0
    7.6670   44.0664   34.0549 H   0  0  0  0  0  0  0  0  0  0  0  0
    8.6833   46.1683   34.0576 H   0  0  0  0  0  0  0  0  0  0  0  0
    9.2332   45.3286   35.3758 H   0  0  0  0  0  0  0  0  0  0  0  0
    9.9809   44.0918   31.9914 H   0  0  0  0  0  0  0  0  0  0  0  0
    8.5085   43.0847   31.8695 H   0  0  0  0  0  0  0  0  0  0  0  0
    8.5159   45.0772   30.3773 H   0  0  0  0  0  0  0  0  0  0  0  0
    8.5756   46.1525   31.7928 H   0  0  0  0  0  0  0  0  0  0  0  0
    6.3172   45.0841   32.5440 H   0  0  0  0  0  0  0  0  0  0  0  0
    6.3130   44.1775   30.9913 H   0  0  0  0  0  0  0  0  0  0  0  0
    6.2475   46.2866   29.7219 H   0  0  0  0  0  0  0  0  0  0  0  0
    4.9225   46.2652   30.9249 H   0  0  0  0  0  0  0  0  0  0  0  0
    6.2836   47.7498   32.4214 H   0  0  0  0  0  0  0  0  0  0  0  0
    9.3998   50.2163   30.3020 H   0  0  0  0  0  0  0  0  0  0  0  0
    7.9260   51.1248   29.8512 H   0  0  0  0  0  0  0  0  0  0  0  0
    8.0503   53.3545   30.5100 H   0  0  0  0  0  0  0  0  0  0  0  0
    8.5638   55.1179   32.1398 H   0  0  0  0  0  0  0  0  0  0  0  0
   10.2367   52.2282   34.8145 H   0  0  0  0  0  0  0  0  0  0  0  0
    9.6437   54.5561   34.2928 H   0  0  0  0  0  0  0  0  0  0  0  0
    9.7448   40.0200   31.9301 H   0  0  0  0  0  0  0  0  0  0  0  0
   11.2093   41.0480   31.8915 H   0  0  0  0  0  0  0  0  0  0  0  0
   11.6208   39.0684   30.5942 H   0  0  0  0  0  0  0  0  0  0  0  0
   10.7059   37.5564   33.1439 H   0  0  0  0  0  0  0  0  0  0  0  0
   14.2095   37.4543   31.5601 H   0  0  0  0  0  0  0  0  0  0  0  0
   10.0864   37.4210   30.3413 H   0  0  0  0  0  0  0  0  0  0  0  0
   12.1275   35.7872   32.5550 H   0  0  0  0  0  0  0  0  0  0  0  0
   12.5031   37.0109   29.9673 H   0  0  0  0  0  0  0  0  0  0  0  0
   12.4328   38.3997   34.8703 H   0  0  0  0  0  0  0  0  0  0  0  0
   17.2670   34.4149   33.1691 H   0  0  0  0  0  0  0  0  0  0  0  0
   15.3758   36.1862   37.9792 H   0  0  0  0  0  0  0  0  0  0  0  0
   16.7640   35.0601   37.7896 H   0  0  0  0  0  0  0  0  0  0  0  0
  1  2  2  0
  1  3  1  0
  3  4  1  0
  4  5  1  0
  6  1  1  0
  7  6  1  0
  6  8  1  0
  8  9  1  0
  9 10  1  0
 10 11  1  0
 11 12  1  0
 12 13  1  0
 13 14  1  0
 13 15  2  0
 14 16  1  0
 16 17  1  0
 17 18  2  0
 19 17  1  0
 18 20  1  0
 21 19  2  0
 19 22  1  0
 20 23  2  0
 23 21  1  0
 22 24  1  0
 22 25  2  0
  4 26  2  0
  4 27  1  0
 28 27  1  0
 28 29  1  0
 29 30  1  0
 29 31  1  0
 30 32  1  0
 31 33  1  0
 31 34  1  0
 34 32  1  0
 32 35  1  0
 34 36  1  0
 37 35  1  0
 38 35  1  0
 39 37  2  0
 37 40  1  0
 41 38  2  0
 42 39  1  0
 40 43  2  0
 40 41  1  0
 44 42  2  0
 44 43  1  0
 43 45  1  0
  6 46  1  6
  7 47  1  0
  7 48  1  0
  8 49  1  0
  8 50  1  0
  9 51  1  0
  9 52  1  0
 10 53  1  0
 10 54  1  0
 11 55  1  0
 11 56  1  0
 12 57  1  0
 16 58  1  0
 16 59  1  0
 18 60  1  0
 20 61  1  0
 21 62  1  0
 23 63  1  0
 28 64  1  0
 28 65  1  0
 29 66  1  0
 31 67  1  0
 32 68  1  0
 33 69  1  0
 34 70  1  0
 36 71  1  0
 38 72  1  0
 42 73  1  0
 45 74  1  0
 45 75  1  0
M  CHG  3   5  -1  22   1  24  -1
M  END
>  <EmbedRMS>  (314) 
0.0758151192244

$$$$

     RDKit          3D

 75 78  0  0  0  0  0  0  0  0999 V2000
    9.4314   42.9421   34.3428 C   0  0  0  0  0  0  0  0  0  0  0  0
   10.4885   43.0414   35.0288 O   0  0  0  0  0  0  0  0  0  0  0  0
    8.8558   41.7137   34.0284 O   0  0  0  0  0  0  0  0  0  0  0  0
    9.4944   40.2169   34.4673 P   0  0  0  0  0  0  0  0  0  0  0  0
    9.7317   40.1745   36.1283 O   0  0  0  0  0  0  0  0  0  0  0  0
    8.7491   44.1379   33.7714 C   0  0  1  0  0  0  0  0  0  0  0  0
    9.3053   45.3679   34.3386 N   0  0  0  0  0  0  0  0  0  0  0  0
    8.8901   44.0559   32.2300 C   0  0  0  0  0  0  0  0  0  0  0  0
    8.2007   45.1770   31.4441 C   0  0  0  0  0  0  0  0  0  0  0  0
    6.6631   45.1088   31.4884 C   0  0  0  0  0  0  0  0  0  0  0  0
    6.0207   46.3219   30.8071 C   0  0  0  0  0  0  0  0  0  0  0  0
    6.4902   47.5670   31.4139 N   0  0  0  0  0  0  0  0  0  0  0  0
    7.2728   48.5189   30.6973 C   0  0  0  0  0  0  0  0  0  0  0  0
    7.7590   49.6432   31.3719 O   0  0  0  0  0  0  0  0  0  0  0  0
    7.5867   48.3119   29.4936 O   0  0  0  0  0  0  0  0  0  0  0  0
    8.8327   50.4392   30.8739 C   0  0  0  0  0  0  0  0  0  0  0  0
   10.1174   49.6385   30.8691 C   0  0  0  0  0  0  0  0  0  0  0  0
   10.4585   48.9184   32.0295 C   0  0  0  0  0  0  0  0  0  0  0  0
   10.9460   49.5328   29.7225 C   0  0  0  0  0  0  0  0  0  0  0  0
   11.5670   48.0710   32.0427 C   0  0  0  0  0  0  0  0  0  0  0  0
   12.0497   48.6617   29.7498 C   0  0  0  0  0  0  0  0  0  0  0  0
   10.7032   50.3152   28.5432 N   0  0  0  0  0  0  0  0  0  0  0  0
   12.3552   47.9349   30.9015 C   0  0  0  0  0  0  0  0  0  0  0  0
   10.4942   51.6710   28.6496 O   0  0  0  0  0  0  0  0  0  0  0  0
   10.9083   49.8235   27.4142 O   0  0  0  0  0  0  0  0  0  0  0  0
    8.5373   39.1406   34.0123 O   0  0  0  0  0  0  0  0  0  0  0  0
   10.9795   40.0899   33.6814 O   0  0  0  0  0  0  0  0  0  0  0  0
   10.7982   40.0851   32.2817 C   0  0  0  0  0  0  0  0  0  0  0  0
   11.5886   38.9143   31.7009 C   0  0  0  0  0  0  0  0  0  0  0  0
   12.9214   38.9368   32.1699 O   0  0  0  0  0  0  0  0  0  0  0  0
   11.0047   37.5661   32.0991 C   0  0  0  0  0  0  0  0  0  0  0  0
   13.3510   37.5885   32.2602 C   0  0  0  0  0  0  0  0  0  0  0  0
    9.9296   37.1962   31.2780 O   0  0  0  0  0  0  0  0  0  0  0  0
   12.1922   36.6659   31.9047 C   0  0  0  0  0  0  0  0  0  0  0  0
   13.8033   37.2967   33.6188 N   0  0  0  0  0  0  0  0  0  0  0  0
   12.3006   36.2865   30.5562 O   0  0  0  0  0  0  0  0  0  0  0  0
   14.7933   36.4724   33.9860 C   0  0  0  0  0  0  0  0  0  0  0  0
   13.2753   37.7296   34.7935 C   0  0  0  0  0  0  0  0  0  0  0  0
   15.6243   35.7579   33.1860 N   0  0  0  0  0  0  0  0  0  0  0  0
   14.8728   36.4410   35.3328 C   0  0  0  0  0  0  0  0  0  0  0  0
   13.9209   37.2263   35.8804 N   0  0  0  0  0  0  0  0  0  0  0  0
   16.5873   34.9919   33.7803 C   0  0  0  0  0  0  0  0  0  0  0  0
   15.8577   35.6717   35.9443 C   0  0  0  0  0  0  0  0  0  0  0  0
   16.7025   34.9583   35.1440 N   0  0  0  0  0  0  0  0  0  0  0  0
   16.0100   35.6384   37.3563 N   0  0  0  0  0  0  0  0  0  0  0  0
    7.6770   44.0661   34.0537 H   0  0  0  0  0  0  0  0  0  0  0  0
    8.6514   46.1591   34.1395 H   0  0  0  0  0  0  0  0  0  0  0  0
   10.2186   45.5866   33.8773 H   0  0  0  0  0  0  0  0  0  0  0  0
    9.9717   44.0709   31.9673 H   0  0  0  0  0  0  0  0  0  0  0  0
    8.4855   43.0857   31.8645 H   0  0  0  0  0  0  0  0  0  0  0  0
    8.5685   46.1541   31.8192 H   0  0  0  0  0  0  0  0  0  0  0  0
    8.5201   45.1035   30.3814 H   0  0  0  0  0  0  0  0  0  0  0  0
    6.3163   44.1797   30.9863 H   0  0  0  0  0  0  0  0  0  0  0  0
    6.3129   45.0828   32.5411 H   0  0  0  0  0  0  0  0  0  0  0  0
    6.2446   46.2878   29.7193 H   0  0  0  0  0  0  0  0  0  0  0  0
    4.9171   46.2611   30.9188 H   0  0  0  0  0  0  0  0  0  0  0  0
    6.2721   47.7504   32.4191 H   0  0  0  0  0  0  0  0  0  0  0  0
    8.9632   51.3147   31.5437 H   0  0  0  0  0  0  0  0  0  0  0  0
    8.5563   50.8171   29.8693 H   0  0  0  0  0  0  0  0  0  0  0  0
    9.8453   48.9913   32.9195 H   0  0  0  0  0  0  0  0  0  0  0  0
   11.8095   47.5115   32.9369 H   0  0  0  0  0  0  0  0  0  0  0  0
   12.6897   48.5637   28.8819 H   0  0  0  0  0  0  0  0  0  0  0  0
   13.2120   47.2735   30.9125 H   0  0  0  0  0  0  0  0  0  0  0  0
   11.2131   41.0322   31.8751 H   0  0  0  0  0  0  0  0  0  0  0  0
    9.7427   40.0142   31.9264 H   0  0  0  0  0  0  0  0  0  0  0  0
   11.5981   39.0108   30.5905 H   0  0  0  0  0  0  0  0  0  0  0  0
   10.7008   37.5604   33.1721 H   0  0  0  0  0  0  0  0  0  0  0  0
   14.1976   37.4380   31.5532 H   0  0  0  0  0  0  0  0  0  0  0  0
    9.5180   36.3962   31.6978 H   0  0  0  0  0  0  0  0  0  0  0  0
   12.1418   35.7698   32.5693 H   0  0  0  0  0  0  0  0  0  0  0  0
   11.7729   35.4524   30.4489 H   0  0  0  0  0  0  0  0  0  0  0  0
   12.4321   38.3985   34.8692 H   0  0  0  0  0  0  0  0  0  0  0  0
   17.2667   34.4138   33.1693 H   0  0  0  0  0  0  0  0  0  0  0  0
   15.3757   36.1867   37.9790 H   0  0  0  0  0  0  0  0  0  0  0  0
   16.7634   35.0598   37.7897 H   0  0  0  0  0  0  0  0  0  0  0  0
  1  2  2  0
  1  3  1  0
  3  4  1  0
  4  5  1  0
  6  1  1  0
  7  6  1  0
  6  8  1  0
  8  9  1  0
  9 10  1  0
 10 11  1  0
 11 12  1  0
 12 13  1  0
 13 14  1  0
 13 15  2  0
 14 16  1  0
 16 17  1  0
 17 18  2  0
 19 17  1  0
 18 20  1  0
 21 19  2  0
 19 22  1  0
 20 23  2  0
 23 21  1  0
 22 24  1  0
 22 25  2  0
  4 26  2  0
  4 27  1  0
 28 27  1  0
 28 29  1  0
 29 30  1  0
 29 31  1  0
 30 32  1  0
 31 33  1  0
 31 34  1  0
 34 32  1  0
 32 35  1  0
 34 36  1  0
 37 35  1  0
 38 35  1  0
 39 37  2  0
 37 40  1  0
 41 38  2  0
 42 39  1  0
 40 43  2  0
 40 41  1  0
 44 42  2  0
 44 43  1  0
 43 45  1  0
  6 46  1  6
  7 47  1  0
  7 48  1  0
  8 49  1  0
  8 50  1  0
  9 51  1  0
  9 52  1  0
 10 53  1  0
 10 54  1  0
 11 55  1  0
 11 56  1  0
 12 57  1  0
 16 58  1  0
 16 59  1  0
 18 60  1  0
 20 61  1  0
 21 62  1  0
 23 63  1  0
 28 64  1  0
 28 65  1  0
 29 66  1  0
 31 67  1  0
 32 68  1  0
 33 69  1  0
 34 70  1  0
 36 71  1  0
 38 72  1  0
 42 73  1  0
 45 74  1  0
 45 75  1  0
M  CHG  3   5  -1  22   1  24  -1
M  END
>  <EmbedRMS>  (315) 
0.0747567945344

$$$$

     RDKit          3D

 75 78  0  0  0  0  0  0  0  0999 V2000
    9.4300   42.9390   34.3431 C   0  0  0  0  0  0  0  0  0  0  0  0
   10.4911   43.0384   35.0233 O   0  0  0  0  0  0  0  0  0  0  0  0
    8.8552   41.7111   34.0282 O   0  0  0  0  0  0  0  0  0  0  0  0
    9.4944   40.2151   34.4676 P   0  0  0  0  0  0  0  0  0  0  0  0
    9.7311   40.1737   36.1287 O   0  0  0  0  0  0  0  0  0  0  0  0
    8.7403   44.1361   33.7779 C   0  0  1  0  0  0  0  0  0  0  0  0
    9.2975   45.3706   34.3316 N   0  0  0  0  0  0  0  0  0  0  0  0
    8.8969   44.0591   32.2395 C   0  0  0  0  0  0  0  0  0  0  0  0
    8.2039   45.1697   31.4406 C   0  0  0  0  0  0  0  0  0  0  0  0
    6.6666   45.1065   31.4899 C   0  0  0  0  0  0  0  0  0  0  0  0
    6.0296   46.3244   30.8141 C   0  0  0  0  0  0  0  0  0  0  0  0
    6.5120   47.5641   31.4233 N   0  0  0  0  0  0  0  0  0  0  0  0
    7.2395   48.5466   30.6780 C   0  0  0  0  0  0  0  0  0  0  0  0
    7.5861   49.7855   31.2332 O   0  0  0  0  0  0  0  0  0  0  0  0
    7.5917   48.3035   29.4944 O   0  0  0  0  0  0  0  0  0  0  0  0
    7.2917   50.1977   32.5681 C   0  0  0  0  0  0  0  0  0  0  0  0
    8.1714   49.4884   33.5767 C   0  0  0  0  0  0  0  0  0  0  0  0
    9.5329   49.3037   33.2675 C   0  0  0  0  0  0  0  0  0  0  0  0
    7.7089   49.1394   34.8740 C   0  0  0  0  0  0  0  0  0  0  0  0
   10.4136   48.7677   34.2080 C   0  0  0  0  0  0  0  0  0  0  0  0
    8.6154   48.6204   35.8133 C   0  0  0  0  0  0  0  0  0  0  0  0
    6.3452   49.3375   35.2739 N   0  0  0  0  0  0  0  0  0  0  0  0
    9.9570   48.4317   35.4805 C   0  0  0  0  0  0  0  0  0  0  0  0
    6.0739   49.8638   36.5156 O   0  0  0  0  0  0  0  0  0  0  0  0
    5.4211   48.7905   34.6387 O   0  0  0  0  0  0  0  0  0  0  0  0
    8.5376   39.1388   34.0124 O   0  0  0  0  0  0  0  0  0  0  0  0
   10.9799   40.0877   33.6827 O   0  0  0  0  0  0  0  0  0  0  0  0
   10.8003   40.0907   32.2831 C   0  0  0  0  0  0  0  0  0  0  0  0
   11.5958   38.9271   31.6963 C   0  0  0  0  0  0  0  0  0  0  0  0
   12.9239   38.9409   32.1767 O   0  0  0  0  0  0  0  0  0  0  0  0
   11.0062   37.5719   32.0794 C   0  0  0  0  0  0  0  0  0  0  0  0
   13.3507   37.5905   32.2614 C   0  0  0  0  0  0  0  0  0  0  0  0
    9.9064   37.1793   31.2946 O   0  0  0  0  0  0  0  0  0  0  0  0
   12.1920   36.6672   31.9003 C   0  0  0  0  0  0  0  0  0  0  0  0
   13.8017   37.2948   33.6193 N   0  0  0  0  0  0  0  0  0  0  0  0
   12.3133   36.2788   30.5561 O   0  0  0  0  0  0  0  0  0  0  0  0
   14.7927   36.4716   33.9862 C   0  0  0  0  0  0  0  0  0  0  0  0
   13.2746   37.7284   34.7941 C   0  0  0  0  0  0  0  0  0  0  0  0
   15.6240   35.7576   33.1859 N   0  0  0  0  0  0  0  0  0  0  0  0
   14.8728   36.4406   35.3330 C   0  0  0  0  0  0  0  0  0  0  0  0
   13.9209   37.2258   35.8808 N   0  0  0  0  0  0  0  0  0  0  0  0
   16.5874   34.9920   33.7802 C   0  0  0  0  0  0  0  0  0  0  0  0
   15.8579   35.6716   35.9443 C   0  0  0  0  0  0  0  0  0  0  0  0
   16.7028   34.9584   35.1439 N   0  0  0  0  0  0  0  0  0  0  0  0
   16.0103   35.6383   37.3563 N   0  0  0  0  0  0  0  0  0  0  0  0
    7.6657   44.0618   34.0529 H   0  0  0  0  0  0  0  0  0  0  0  0
    8.6722   46.1606   34.0551 H   0  0  0  0  0  0  0  0  0  0  0  0
    9.2268   45.3278   35.3749 H   0  0  0  0  0  0  0  0  0  0  0  0
    8.5096   43.0841   31.8677 H   0  0  0  0  0  0  0  0  0  0  0  0
    9.9818   44.0914   31.9923 H   0  0  0  0  0  0  0  0  0  0  0  0
    8.5778   46.1523   31.7940 H   0  0  0  0  0  0  0  0  0  0  0  0
    8.5180   45.0781   30.3777 H   0  0  0  0  0  0  0  0  0  0  0  0
    6.3188   45.0812   32.5433 H   0  0  0  0  0  0  0  0  0  0  0  0
    6.3144   44.1796   30.9875 H   0  0  0  0  0  0  0  0  0  0  0  0
    6.2458   46.2907   29.7248 H   0  0  0  0  0  0  0  0  0  0  0  0
    4.9264   46.2707   30.9336 H   0  0  0  0  0  0  0  0  0  0  0  0
    6.2992   47.7206   32.4312 H   0  0  0  0  0  0  0  0  0  0  0  0
    7.5082   51.2837   32.6429 H   0  0  0  0  0  0  0  0  0  0  0  0
    6.2087   50.0792   32.7610 H   0  0  0  0  0  0  0  0  0  0  0  0
    9.9210   49.5912   32.2983 H   0  0  0  0  0  0  0  0  0  0  0  0
   11.4561   48.6265   33.9537 H   0  0  0  0  0  0  0  0  0  0  0  0
    8.2768   48.3521   36.8062 H   0  0  0  0  0  0  0  0  0  0  0  0
   10.6433   48.0227   36.2107 H   0  0  0  0  0  0  0  0  0  0  0  0
    9.7455   40.0168   31.9262 H   0  0  0  0  0  0  0  0  0  0  0  0
   11.2115   41.0420   31.8829 H   0  0  0  0  0  0  0  0  0  0  0  0
   11.6246   39.0449   30.5888 H   0  0  0  0  0  0  0  0  0  0  0  0
   10.7050   37.5581   33.1500 H   0  0  0  0  0  0  0  0  0  0  0  0
   14.1985   37.4426   31.5553 H   0  0  0  0  0  0  0  0  0  0  0  0
   10.0893   37.4057   30.3459 H   0  0  0  0  0  0  0  0  0  0  0  0
   12.1337   35.7754   32.5703 H   0  0  0  0  0  0  0  0  0  0  0  0
   11.7934   35.4394   30.4514 H   0  0  0  0  0  0  0  0  0  0  0  0
   12.4314   38.3973   34.8699 H   0  0  0  0  0  0  0  0  0  0  0  0
   17.2669   34.4142   33.1692 H   0  0  0  0  0  0  0  0  0  0  0  0
   16.7638   35.0599   37.7896 H   0  0  0  0  0  0  0  0  0  0  0  0
   15.3759   36.1865   37.9790 H   0  0  0  0  0  0  0  0  0  0  0  0
  1  2  2  0
  1  3  1  0
  3  4  1  0
  4  5  1  0
  6  1  1  0
  7  6  1  0
  6  8  1  0
  8  9  1  0
  9 10  1  0
 10 11  1  0
 11 12  1  0
 12 13  1  0
 13 14  1  0
 13 15  2  0
 14 16  1  0
 16 17  1  0
 17 18  2  0
 19 17  1  0
 18 20  1  0
 21 19  2  0
 19 22  1  0
 20 23  2  0
 23 21  1  0
 22 24  1  0
 22 25  2  0
  4 26  2  0
  4 27  1  0
 28 27  1  0
 28 29  1  0
 29 30  1  0
 29 31  1  0
 30 32  1  0
 31 33  1  0
 31 34  1  0
 34 32  1  0
 32 35  1  0
 34 36  1  0
 37 35  1  0
 38 35  1  0
 39 37  2  0
 37 40  1  0
 41 38  2  0
 42 39  1  0
 40 43  2  0
 40 41  1  0
 44 42  2  0
 44 43  1  0
 43 45  1  0
  6 46  1  6
  7 47  1  0
  7 48  1  0
  8 49  1  0
  8 50  1  0
  9 51  1  0
  9 52  1  0
 10 53  1  0
 10 54  1  0
 11 55  1  0
 11 56  1  0
 12 57  1  0
 16 58  1  0
 16 59  1  0
 18 60  1  0
 20 61  1  0
 21 62  1  0
 23 63  1  0
 28 64  1  0
 28 65  1  0
 29 66  1  0
 31 67  1  0
 32 68  1  0
 33 69  1  0
 34 70  1  0
 36 71  1  0
 38 72  1  0
 42 73  1  0
 45 74  1  0
 45 75  1  0
M  CHG  3   5  -1  22   1  24  -1
M  END
>  <EmbedRMS>  (316) 
0.0739174456601

$$$$

     RDKit          3D

 75 78  0  0  0  0  0  0  0  0999 V2000
    9.4332   42.9365   34.3462 C   0  0  0  0  0  0  0  0  0  0  0  0
   10.4907   43.0330   35.0319 O   0  0  0  0  0  0  0  0  0  0  0  0
    8.8562   41.7104   34.0296 O   0  0  0  0  0  0  0  0  0  0  0  0
    9.4944   40.2141   34.4680 P   0  0  0  0  0  0  0  0  0  0  0  0
    9.7309   40.1726   36.1291 O   0  0  0  0  0  0  0  0  0  0  0  0
    8.7506   44.1348   33.7741 C   0  0  1  0  0  0  0  0  0  0  0  0
    9.2963   45.3820   34.3133 N   0  0  0  0  0  0  0  0  0  0  0  0
    8.8893   44.0526   32.2358 C   0  0  0  0  0  0  0  0  0  0  0  0
    8.2029   45.1822   31.4613 C   0  0  0  0  0  0  0  0  0  0  0  0
    6.6654   45.1045   31.4852 C   0  0  0  0  0  0  0  0  0  0  0  0
    6.0273   46.3229   30.8107 C   0  0  0  0  0  0  0  0  0  0  0  0
    6.5076   47.5639   31.4183 N   0  0  0  0  0  0  0  0  0  0  0  0
    7.2409   48.5414   30.6826 C   0  0  0  0  0  0  0  0  0  0  0  0
    7.5871   49.7446   31.3084 O   0  0  0  0  0  0  0  0  0  0  0  0
    7.5943   48.3101   29.4947 O   0  0  0  0  0  0  0  0  0  0  0  0
    8.2532   50.8247   30.6536 C   0  0  0  0  0  0  0  0  0  0  0  0
    7.2479   51.8627   30.2065 C   0  0  0  0  0  0  0  0  0  0  0  0
    6.2763   51.4910   29.2589 C   0  0  0  0  0  0  0  0  0  0  0  0
    7.2170   53.1771   30.7431 C   0  0  0  0  0  0  0  0  0  0  0  0
    5.2730   52.3829   28.8767 C   0  0  0  0  0  0  0  0  0  0  0  0
    6.1879   54.0547   30.3604 C   0  0  0  0  0  0  0  0  0  0  0  0
    8.2263   53.6463   31.6485 N   0  0  0  0  0  0  0  0  0  0  0  0
    5.2230   53.6591   29.4337 C   0  0  0  0  0  0  0  0  0  0  0  0
    9.5509   53.5942   31.2803 O   0  0  0  0  0  0  0  0  0  0  0  0
    7.9021   54.3342   32.6385 O   0  0  0  0  0  0  0  0  0  0  0  0
    8.5371   39.1386   34.0125 O   0  0  0  0  0  0  0  0  0  0  0  0
   10.9802   40.0879   33.6835 O   0  0  0  0  0  0  0  0  0  0  0  0
   10.8020   40.0894   32.2837 C   0  0  0  0  0  0  0  0  0  0  0  0
   11.5900   38.9178   31.7006 C   0  0  0  0  0  0  0  0  0  0  0  0
   12.9224   38.9390   32.1711 O   0  0  0  0  0  0  0  0  0  0  0  0
   11.0052   37.5676   32.0966 C   0  0  0  0  0  0  0  0  0  0  0  0
   13.3518   37.5909   32.2610 C   0  0  0  0  0  0  0  0  0  0  0  0
    9.9381   37.1795   31.2732 O   0  0  0  0  0  0  0  0  0  0  0  0
   12.1912   36.6689   31.9042 C   0  0  0  0  0  0  0  0  0  0  0  0
   13.8027   37.2968   33.6192 N   0  0  0  0  0  0  0  0  0  0  0  0
   12.2877   36.2853   30.5567 O   0  0  0  0  0  0  0  0  0  0  0  0
   14.7928   36.4724   33.9861 C   0  0  0  0  0  0  0  0  0  0  0  0
   13.2751   37.7297   34.7941 C   0  0  0  0  0  0  0  0  0  0  0  0
   15.6239   35.7581   33.1859 N   0  0  0  0  0  0  0  0  0  0  0  0
   14.8726   36.4408   35.3329 C   0  0  0  0  0  0  0  0  0  0  0  0
   13.9209   37.2262   35.8807 N   0  0  0  0  0  0  0  0  0  0  0  0
   16.5870   34.9921   33.7801 C   0  0  0  0  0  0  0  0  0  0  0  0
   15.8576   35.6716   35.9442 C   0  0  0  0  0  0  0  0  0  0  0  0
   16.7024   34.9584   35.1438 N   0  0  0  0  0  0  0  0  0  0  0  0
   16.0101   35.6383   37.3563 N   0  0  0  0  0  0  0  0  0  0  0  0
    7.6770   44.0706   34.0504 H   0  0  0  0  0  0  0  0  0  0  0  0
   10.3192   45.4406   34.0999 H   0  0  0  0  0  0  0  0  0  0  0  0
    9.1827   45.3820   35.3534 H   0  0  0  0  0  0  0  0  0  0  0  0
    8.4816   43.0850   31.8669 H   0  0  0  0  0  0  0  0  0  0  0  0
    9.9711   44.0679   31.9739 H   0  0  0  0  0  0  0  0  0  0  0  0
    8.5554   46.1508   31.8740 H   0  0  0  0  0  0  0  0  0  0  0  0
    8.5386   45.1360   30.4021 H   0  0  0  0  0  0  0  0  0  0  0  0
    6.3296   44.1801   30.9672 H   0  0  0  0  0  0  0  0  0  0  0  0
    6.3020   45.0639   32.5330 H   0  0  0  0  0  0  0  0  0  0  0  0
    4.9239   46.2682   30.9273 H   0  0  0  0  0  0  0  0  0  0  0  0
    6.2461   46.2902   29.7217 H   0  0  0  0  0  0  0  0  0  0  0  0
    6.2837   47.7527   32.4212 H   0  0  0  0  0  0  0  0  0  0  0  0
    8.8446   50.4689   29.7823 H   0  0  0  0  0  0  0  0  0  0  0  0
    8.9778   51.2398   31.3776 H   0  0  0  0  0  0  0  0  0  0  0  0
    6.2859   50.5030   28.8192 H   0  0  0  0  0  0  0  0  0  0  0  0
    4.5283   52.0805   28.1518 H   0  0  0  0  0  0  0  0  0  0  0  0
    6.1486   55.0584   30.7651 H   0  0  0  0  0  0  0  0  0  0  0  0
    4.4415   54.3475   29.1389 H   0  0  0  0  0  0  0  0  0  0  0  0
    9.7472   40.0309   31.9256 H   0  0  0  0  0  0  0  0  0  0  0  0
   11.2239   41.0357   31.8826 H   0  0  0  0  0  0  0  0  0  0  0  0
   11.5999   39.0159   30.5904 H   0  0  0  0  0  0  0  0  0  0  0  0
   10.7034   37.5449   33.1702 H   0  0  0  0  0  0  0  0  0  0  0  0
   14.1992   37.4424   31.5548 H   0  0  0  0  0  0  0  0  0  0  0  0
    9.1370   37.6634   31.6024 H   0  0  0  0  0  0  0  0  0  0  0  0
   12.1204   35.7712   32.5637 H   0  0  0  0  0  0  0  0  0  0  0  0
   12.9457   35.5426   30.5221 H   0  0  0  0  0  0  0  0  0  0  0  0
   12.4322   38.3988   34.8700 H   0  0  0  0  0  0  0  0  0  0  0  0
   17.2665   34.4142   33.1690 H   0  0  0  0  0  0  0  0  0  0  0  0
   15.3759   36.1865   37.9790 H   0  0  0  0  0  0  0  0  0  0  0  0
   16.7636   35.0598   37.7895 H   0  0  0  0  0  0  0  0  0  0  0  0
  1  2  2  0
  1  3  1  0
  3  4  1  0
  4  5  1  0
  6  1  1  0
  7  6  1  0
  6  8  1  0
  8  9  1  0
  9 10  1  0
 10 11  1  0
 11 12  1  0
 12 13  1  0
 13 14  1  0
 13 15  2  0
 14 16  1  0
 16 17  1  0
 17 18  2  0
 19 17  1  0
 18 20  1  0
 21 19  2  0
 19 22  1  0
 20 23  2  0
 23 21  1  0
 22 24  1  0
 22 25  2  0
  4 26  2  0
  4 27  1  0
 28 27  1  0
 28 29  1  0
 29 30  1  0
 29 31  1  0
 30 32  1  0
 31 33  1  0
 31 34  1  0
 34 32  1  0
 32 35  1  0
 34 36  1  0
 37 35  1  0
 38 35  1  0
 39 37  2  0
 37 40  1  0
 41 38  2  0
 42 39  1  0
 40 43  2  0
 40 41  1  0
 44 42  2  0
 44 43  1  0
 43 45  1  0
  6 46  1  6
  7 47  1  0
  7 48  1  0
  8 49  1  0
  8 50  1  0
  9 51  1  0
  9 52  1  0
 10 53  1  0
 10 54  1  0
 11 55  1  0
 11 56  1  0
 12 57  1  0
 16 58  1  0
 16 59  1  0
 18 60  1  0
 20 61  1  0
 21 62  1  0
 23 63  1  0
 28 64  1  0
 28 65  1  0
 29 66  1  0
 31 67  1  0
 32 68  1  0
 33 69  1  0
 34 70  1  0
 36 71  1  0
 38 72  1  0
 42 73  1  0
 45 74  1  0
 45 75  1  0
M  CHG  3   5  -1  22   1  24  -1
M  END
>  <EmbedRMS>  (317) 
0.0740115967925

$$$$

     RDKit          3D

 75 78  0  0  0  0  0  0  0  0999 V2000
    9.4299   42.9396   34.3434 C   0  0  0  0  0  0  0  0  0  0  0  0
   10.4911   43.0382   35.0234 O   0  0  0  0  0  0  0  0  0  0  0  0
    8.8549   41.7116   34.0283 O   0  0  0  0  0  0  0  0  0  0  0  0
    9.4943   40.2156   34.4676 P   0  0  0  0  0  0  0  0  0  0  0  0
    9.7308   40.1740   36.1287 O   0  0  0  0  0  0  0  0  0  0  0  0
    8.7410   44.1378   33.7785 C   0  0  1  0  0  0  0  0  0  0  0  0
    9.3010   45.3720   34.3323 N   0  0  0  0  0  0  0  0  0  0  0  0
    8.8962   44.0590   32.2397 C   0  0  0  0  0  0  0  0  0  0  0  0
    8.2030   45.1685   31.4395 C   0  0  0  0  0  0  0  0  0  0  0  0
    6.6655   45.1048   31.4871 C   0  0  0  0  0  0  0  0  0  0  0  0
    6.0281   46.3242   30.8132 C   0  0  0  0  0  0  0  0  0  0  0  0
    6.5118   47.5624   31.4236 N   0  0  0  0  0  0  0  0  0  0  0  0
    7.2384   48.5470   30.6790 C   0  0  0  0  0  0  0  0  0  0  0  0
    7.5883   49.7836   31.2382 O   0  0  0  0  0  0  0  0  0  0  0  0
    7.5941   48.3039   29.4964 O   0  0  0  0  0  0  0  0  0  0  0  0
    7.1879   50.2395   32.5302 C   0  0  0  0  0  0  0  0  0  0  0  0
    5.7003   50.5097   32.5757 C   0  0  0  0  0  0  0  0  0  0  0  0
    4.9329   49.8831   33.5751 C   0  0  0  0  0  0  0  0  0  0  0  0
    5.0510   51.3466   31.6265 C   0  0  0  0  0  0  0  0  0  0  0  0
    3.5488   50.0511   33.6221 C   0  0  0  0  0  0  0  0  0  0  0  0
    3.6530   51.4885   31.6833 C   0  0  0  0  0  0  0  0  0  0  0  0
    5.7769   52.0431   30.5970 N   0  0  0  0  0  0  0  0  0  0  0  0
    2.9094   50.8470   32.6745 C   0  0  0  0  0  0  0  0  0  0  0  0
    5.1681   52.3182   29.3940 O   0  0  0  0  0  0  0  0  0  0  0  0
    6.8913   52.5519   30.8344 O   0  0  0  0  0  0  0  0  0  0  0  0
    8.5375   39.1394   34.0126 O   0  0  0  0  0  0  0  0  0  0  0  0
   10.9804   40.0889   33.6834 O   0  0  0  0  0  0  0  0  0  0  0  0
   10.8025   40.0901   32.2836 C   0  0  0  0  0  0  0  0  0  0  0  0
   11.5888   38.9174   31.7007 C   0  0  0  0  0  0  0  0  0  0  0  0
   12.9219   38.9373   32.1692 O   0  0  0  0  0  0  0  0  0  0  0  0
   11.0028   37.5682   32.0981 C   0  0  0  0  0  0  0  0  0  0  0  0
   13.3496   37.5885   32.2601 C   0  0  0  0  0  0  0  0  0  0  0  0
    9.9343   37.1823   31.2757 O   0  0  0  0  0  0  0  0  0  0  0  0
   12.1891   36.6677   31.9050 C   0  0  0  0  0  0  0  0  0  0  0  0
   13.8025   37.2965   33.6186 N   0  0  0  0  0  0  0  0  0  0  0  0
   12.2990   36.2867   30.5568 O   0  0  0  0  0  0  0  0  0  0  0  0
   14.7929   36.4725   33.9858 C   0  0  0  0  0  0  0  0  0  0  0  0
   13.2749   37.7294   34.7935 C   0  0  0  0  0  0  0  0  0  0  0  0
   15.6240   35.7580   33.1858 N   0  0  0  0  0  0  0  0  0  0  0  0
   14.8727   36.4411   35.3327 C   0  0  0  0  0  0  0  0  0  0  0  0
   13.9208   37.2263   35.8803 N   0  0  0  0  0  0  0  0  0  0  0  0
   16.5871   34.9921   33.7801 C   0  0  0  0  0  0  0  0  0  0  0  0
   15.8576   35.6718   35.9441 C   0  0  0  0  0  0  0  0  0  0  0  0
   16.7024   34.9584   35.1438 N   0  0  0  0  0  0  0  0  0  0  0  0
   16.0099   35.6384   37.3562 N   0  0  0  0  0  0  0  0  0  0  0  0
    7.6665   44.0653   34.0544 H   0  0  0  0  0  0  0  0  0  0  0  0
    9.2334   45.3275   35.3757 H   0  0  0  0  0  0  0  0  0  0  0  0
    8.6798   46.1668   34.0590 H   0  0  0  0  0  0  0  0  0  0  0  0
    9.9809   44.0903   31.9916 H   0  0  0  0  0  0  0  0  0  0  0  0
    8.5082   43.0837   31.8694 H   0  0  0  0  0  0  0  0  0  0  0  0
    8.5181   45.0766   30.3769 H   0  0  0  0  0  0  0  0  0  0  0  0
    8.5761   46.1510   31.7930 H   0  0  0  0  0  0  0  0  0  0  0  0
    6.3164   45.0763   32.5399 H   0  0  0  0  0  0  0  0  0  0  0  0
    6.3143   44.1789   30.9821 H   0  0  0  0  0  0  0  0  0  0  0  0
    6.2426   46.2925   29.7235 H   0  0  0  0  0  0  0  0  0  0  0  0
    4.9251   46.2711   30.9346 H   0  0  0  0  0  0  0  0  0  0  0  0
    6.3159   47.7066   32.4374 H   0  0  0  0  0  0  0  0  0  0  0  0
    7.5051   49.5031   33.3002 H   0  0  0  0  0  0  0  0  0  0  0  0
    7.7305   51.1785   32.7629 H   0  0  0  0  0  0  0  0  0  0  0  0
    5.4050   49.2495   34.3159 H   0  0  0  0  0  0  0  0  0  0  0  0
    2.9701   49.5576   34.3923 H   0  0  0  0  0  0  0  0  0  0  0  0
    3.1366   52.1144   30.9667 H   0  0  0  0  0  0  0  0  0  0  0  0
    1.8349   50.9724   32.7108 H   0  0  0  0  0  0  0  0  0  0  0  0
    9.7476   40.0332   31.9253 H   0  0  0  0  0  0  0  0  0  0  0  0
   11.2257   41.0357   31.8824 H   0  0  0  0  0  0  0  0  0  0  0  0
   11.5975   39.0147   30.5905 H   0  0  0  0  0  0  0  0  0  0  0  0
   10.7023   37.5457   33.1720 H   0  0  0  0  0  0  0  0  0  0  0  0
   14.1957   37.4366   31.5528 H   0  0  0  0  0  0  0  0  0  0  0  0
    9.1339   37.6658   31.6070 H   0  0  0  0  0  0  0  0  0  0  0  0
   12.1380   35.7717   32.5698 H   0  0  0  0  0  0  0  0  0  0  0  0
   11.7707   35.4530   30.4497 H   0  0  0  0  0  0  0  0  0  0  0  0
   12.4314   38.3980   34.8694 H   0  0  0  0  0  0  0  0  0  0  0  0
   17.2665   34.4140   33.1691 H   0  0  0  0  0  0  0  0  0  0  0  0
   16.7633   35.0598   37.7895 H   0  0  0  0  0  0  0  0  0  0  0  0
   15.3757   36.1867   37.9789 H   0  0  0  0  0  0  0  0  0  0  0  0
  1  2  2  0
  1  3  1  0
  3  4  1  0
  4  5  1  0
  6  1  1  0
  7  6  1  0
  6  8  1  0
  8  9  1  0
  9 10  1  0
 10 11  1  0
 11 12  1  0
 12 13  1  0
 13 14  1  0
 13 15  2  0
 14 16  1  0
 16 17  1  0
 17 18  2  0
 19 17  1  0
 18 20  1  0
 21 19  2  0
 19 22  1  0
 20 23  2  0
 23 21  1  0
 22 24  1  0
 22 25  2  0
  4 26  2  0
  4 27  1  0
 28 27  1  0
 28 29  1  0
 29 30  1  0
 29 31  1  0
 30 32  1  0
 31 33  1  0
 31 34  1  0
 34 32  1  0
 32 35  1  0
 34 36  1  0
 37 35  1  0
 38 35  1  0
 39 37  2  0
 37 40  1  0
 41 38  2  0
 42 39  1  0
 40 43  2  0
 40 41  1  0
 44 42  2  0
 44 43  1  0
 43 45  1  0
  6 46  1  6
  7 47  1  0
  7 48  1  0
  8 49  1  0
  8 50  1  0
  9 51  1  0
  9 52  1  0
 10 53  1  0
 10 54  1  0
 11 55  1  0
 11 56  1  0
 12 57  1  0
 16 58  1  0
 16 59  1  0
 18 60  1  0
 20 61  1  0
 21 62  1  0
 23 63  1  0
 28 64  1  0
 28 65  1  0
 29 66  1  0
 31 67  1  0
 32 68  1  0
 33 69  1  0
 34 70  1  0
 36 71  1  0
 38 72  1  0
 42 73  1  0
 45 74  1  0
 45 75  1  0
M  CHG  3   5  -1  22   1  24  -1
M  END
>  <EmbedRMS>  (318) 
0.0732772372216

$$$$

     RDKit          3D

 75 78  0  0  0  0  0  0  0  0999 V2000
    9.4313   42.9413   34.3436 C   0  0  0  0  0  0  0  0  0  0  0  0
   10.4885   43.0410   35.0293 O   0  0  0  0  0  0  0  0  0  0  0  0
    8.8562   41.7130   34.0286 O   0  0  0  0  0  0  0  0  0  0  0  0
    9.4944   40.2162   34.4677 P   0  0  0  0  0  0  0  0  0  0  0  0
    9.7312   40.1741   36.1288 O   0  0  0  0  0  0  0  0  0  0  0  0
    8.7485   44.1364   33.7721 C   0  0  1  0  0  0  0  0  0  0  0  0
    9.3042   45.3669   34.3387 N   0  0  0  0  0  0  0  0  0  0  0  0
    8.8892   44.0526   32.2308 C   0  0  0  0  0  0  0  0  0  0  0  0
    8.2011   45.1731   31.4439 C   0  0  0  0  0  0  0  0  0  0  0  0
    6.6638   45.1067   31.4884 C   0  0  0  0  0  0  0  0  0  0  0  0
    6.0253   46.3229   30.8107 C   0  0  0  0  0  0  0  0  0  0  0  0
    6.5041   47.5645   31.4176 N   0  0  0  0  0  0  0  0  0  0  0  0
    7.2519   48.5345   30.6871 C   0  0  0  0  0  0  0  0  0  0  0  0
    7.6392   49.7155   31.3248 O   0  0  0  0  0  0  0  0  0  0  0  0
    7.5903   48.3129   29.4928 O   0  0  0  0  0  0  0  0  0  0  0  0
    8.4466   50.7026   30.6924 C   0  0  0  0  0  0  0  0  0  0  0  0
    8.7518   51.8036   31.6737 C   0  0  0  0  0  0  0  0  0  0  0  0
    7.9799   52.9787   31.6263 C   0  0  0  0  0  0  0  0  0  0  0  0
    9.8054   51.7017   32.6215 C   0  0  0  0  0  0  0  0  0  0  0  0
    8.2521   54.0448   32.4844 C   0  0  0  0  0  0  0  0  0  0  0  0
   10.0721   52.7952   33.4665 C   0  0  0  0  0  0  0  0  0  0  0  0
   10.6177   50.5178   32.7323 N   0  0  0  0  0  0  0  0  0  0  0  0
    9.2992   53.9552   33.3992 C   0  0  0  0  0  0  0  0  0  0  0  0
   10.0562   49.2666   32.6264 O   0  0  0  0  0  0  0  0  0  0  0  0
   11.8104   50.6095   33.0898 O   0  0  0  0  0  0  0  0  0  0  0  0
    8.5372   39.1401   34.0125 O   0  0  0  0  0  0  0  0  0  0  0  0
   10.9796   40.0877   33.6826 O   0  0  0  0  0  0  0  0  0  0  0  0
   10.7996   40.0901   32.2829 C   0  0  0  0  0  0  0  0  0  0  0  0
   11.5968   38.9274   31.6963 C   0  0  0  0  0  0  0  0  0  0  0  0
   12.9242   38.9426   32.1785 O   0  0  0  0  0  0  0  0  0  0  0  0
   11.0086   37.5714   32.0780 C   0  0  0  0  0  0  0  0  0  0  0  0
   13.3528   37.5929   32.2623 C   0  0  0  0  0  0  0  0  0  0  0  0
    9.9098   37.1771   31.2926 O   0  0  0  0  0  0  0  0  0  0  0  0
   12.1942   36.6683   31.8995 C   0  0  0  0  0  0  0  0  0  0  0  0
   13.8019   37.2950   33.6199 N   0  0  0  0  0  0  0  0  0  0  0  0
   12.3026   36.2773   30.5559 O   0  0  0  0  0  0  0  0  0  0  0  0
   14.7926   36.4715   33.9865 C   0  0  0  0  0  0  0  0  0  0  0  0
   13.2749   37.7286   34.7946 C   0  0  0  0  0  0  0  0  0  0  0  0
   15.6239   35.7577   33.1860 N   0  0  0  0  0  0  0  0  0  0  0  0
   14.8727   36.4403   35.3332 C   0  0  0  0  0  0  0  0  0  0  0  0
   13.9210   37.2257   35.8812 N   0  0  0  0  0  0  0  0  0  0  0  0
   16.5873   34.9921   33.7802 C   0  0  0  0  0  0  0  0  0  0  0  0
   15.8579   35.6714   35.9444 C   0  0  0  0  0  0  0  0  0  0  0  0
   16.7028   34.9583   35.1439 N   0  0  0  0  0  0  0  0  0  0  0  0
   16.0104   35.6381   37.3564 N   0  0  0  0  0  0  0  0  0  0  0  0
    7.6765   44.0640   34.0547 H   0  0  0  0  0  0  0  0  0  0  0  0
    8.6472   46.1565   34.1433 H   0  0  0  0  0  0  0  0  0  0  0  0
   10.2153   45.5887   33.8744 H   0  0  0  0  0  0  0  0  0  0  0  0
    9.9707   44.0653   31.9678 H   0  0  0  0  0  0  0  0  0  0  0  0
    8.4831   43.0825   31.8664 H   0  0  0  0  0  0  0  0  0  0  0  0
    8.5200   45.0977   30.3811 H   0  0  0  0  0  0  0  0  0  0  0  0
    8.5703   46.1498   31.8184 H   0  0  0  0  0  0  0  0  0  0  0  0
    6.3134   45.0789   32.5410 H   0  0  0  0  0  0  0  0  0  0  0  0
    6.3152   44.1796   30.9838 H   0  0  0  0  0  0  0  0  0  0  0  0
    6.2451   46.2890   29.7220 H   0  0  0  0  0  0  0  0  0  0  0  0
    4.9219   46.2676   30.9268 H   0  0  0  0  0  0  0  0  0  0  0  0
    6.2842   47.7513   32.4218 H   0  0  0  0  0  0  0  0  0  0  0  0
    7.9027   51.1050   29.8094 H   0  0  0  0  0  0  0  0  0  0  0  0
    9.3906   50.2520   30.3167 H   0  0  0  0  0  0  0  0  0  0  0  0
    7.1662   53.0737   30.9176 H   0  0  0  0  0  0  0  0  0  0  0  0
    7.6524   54.9446   32.4362 H   0  0  0  0  0  0  0  0  0  0  0  0
   10.8729   52.7428   34.1934 H   0  0  0  0  0  0  0  0  0  0  0  0
    9.5106   54.7850   34.0612 H   0  0  0  0  0  0  0  0  0  0  0  0
   11.2095   41.0419   31.8824 H   0  0  0  0  0  0  0  0  0  0  0  0
    9.7449   40.0145   31.9263 H   0  0  0  0  0  0  0  0  0  0  0  0
   11.6265   39.0456   30.5888 H   0  0  0  0  0  0  0  0  0  0  0  0
   10.7064   37.5575   33.1485 H   0  0  0  0  0  0  0  0  0  0  0  0
   14.2020   37.4484   31.5574 H   0  0  0  0  0  0  0  0  0  0  0  0
   10.0952   37.3991   30.3433 H   0  0  0  0  0  0  0  0  0  0  0  0
   12.1162   35.7745   32.5634 H   0  0  0  0  0  0  0  0  0  0  0  0
   12.9614   35.5349   30.5312 H   0  0  0  0  0  0  0  0  0  0  0  0
   12.4321   38.3982   34.8705 H   0  0  0  0  0  0  0  0  0  0  0  0
   17.2669   34.4143   33.1690 H   0  0  0  0  0  0  0  0  0  0  0  0
   16.7641   35.0599   37.7896 H   0  0  0  0  0  0  0  0  0  0  0  0
   15.3761   36.1862   37.9792 H   0  0  0  0  0  0  0  0  0  0  0  0
  1  2  2  0
  1  3  1  0
  3  4  1  0
  4  5  1  0
  6  1  1  0
  7  6  1  0
  6  8  1  0
  8  9  1  0
  9 10  1  0
 10 11  1  0
 11 12  1  0
 12 13  1  0
 13 14  1  0
 13 15  2  0
 14 16  1  0
 16 17  1  0
 17 18  2  0
 19 17  1  0
 18 20  1  0
 21 19  2  0
 19 22  1  0
 20 23  2  0
 23 21  1  0
 22 24  1  0
 22 25  2  0
  4 26  2  0
  4 27  1  0
 28 27  1  0
 28 29  1  0
 29 30  1  0
 29 31  1  0
 30 32  1  0
 31 33  1  0
 31 34  1  0
 34 32  1  0
 32 35  1  0
 34 36  1  0
 37 35  1  0
 38 35  1  0
 39 37  2  0
 37 40  1  0
 41 38  2  0
 42 39  1  0
 40 43  2  0
 40 41  1  0
 44 42  2  0
 44 43  1  0
 43 45  1  0
  6 46  1  6
  7 47  1  0
  7 48  1  0
  8 49  1  0
  8 50  1  0
  9 51  1  0
  9 52  1  0
 10 53  1  0
 10 54  1  0
 11 55  1  0
 11 56  1  0
 12 57  1  0
 16 58  1  0
 16 59  1  0
 18 60  1  0
 20 61  1  0
 21 62  1  0
 23 63  1  0
 28 64  1  0
 28 65  1  0
 29 66  1  0
 31 67  1  0
 32 68  1  0
 33 69  1  0
 34 70  1  0
 36 71  1  0
 38 72  1  0
 42 73  1  0
 45 74  1  0
 45 75  1  0
M  CHG  3   5  -1  22   1  24  -1
M  END
>  <EmbedRMS>  (319) 
0.0739878970898

$$$$

     RDKit          3D

 75 78  0  0  0  0  0  0  0  0999 V2000
    9.4312   42.9411   34.3439 C   0  0  0  0  0  0  0  0  0  0  0  0
   10.4886   43.0410   35.0294 O   0  0  0  0  0  0  0  0  0  0  0  0
    8.8558   41.7128   34.0296 O   0  0  0  0  0  0  0  0  0  0  0  0
    9.4933   40.2162   34.4702 P   0  0  0  0  0  0  0  0  0  0  0  0
    9.7295   40.1742   36.1312 O   0  0  0  0  0  0  0  0  0  0  0  0
    8.7484   44.1359   33.7721 C   0  0  1  0  0  0  0  0  0  0  0  0
    9.3039   45.3664   34.3388 N   0  0  0  0  0  0  0  0  0  0  0  0
    8.8893   44.0518   32.2309 C   0  0  0  0  0  0  0  0  0  0  0  0
    8.2015   45.1720   31.4435 C   0  0  0  0  0  0  0  0  0  0  0  0
    6.6643   45.1065   31.4886 C   0  0  0  0  0  0  0  0  0  0  0  0
    6.0268   46.3237   30.8122 C   0  0  0  0  0  0  0  0  0  0  0  0
    6.5085   47.5645   31.4189 N   0  0  0  0  0  0  0  0  0  0  0  0
    7.2420   48.5409   30.6824 C   0  0  0  0  0  0  0  0  0  0  0  0
    7.5881   49.7449   31.3050 O   0  0  0  0  0  0  0  0  0  0  0  0
    7.5939   48.3102   29.4941 O   0  0  0  0  0  0  0  0  0  0  0  0
    8.2808   50.8035   30.6456 C   0  0  0  0  0  0  0  0  0  0  0  0
    7.3763   51.5014   29.6564 C   0  0  0  0  0  0  0  0  0  0  0  0
    7.5746   51.2620   28.2838 C   0  0  0  0  0  0  0  0  0  0  0  0
    6.3661   52.4181   30.0621 C   0  0  0  0  0  0  0  0  0  0  0  0
    6.7930   51.9083   27.3262 C   0  0  0  0  0  0  0  0  0  0  0  0
    5.6002   53.0684   29.0772 C   0  0  0  0  0  0  0  0  0  0  0  0
    6.1211   52.7315   31.4467 N   0  0  0  0  0  0  0  0  0  0  0  0
    5.8090   52.8108   27.7220 C   0  0  0  0  0  0  0  0  0  0  0  0
    5.6107   53.9621   31.7915 O   0  0  0  0  0  0  0  0  0  0  0  0
    6.2175   51.8568   32.3310 O   0  0  0  0  0  0  0  0  0  0  0  0
    8.5368   39.1399   34.0139 O   0  0  0  0  0  0  0  0  0  0  0  0
   10.9789   40.0874   33.6872 O   0  0  0  0  0  0  0  0  0  0  0  0
   10.7993   40.0946   32.2884 C   0  0  0  0  0  0  0  0  0  0  0  0
   11.5957   38.9351   31.6994 C   0  0  0  0  0  0  0  0  0  0  0  0
   12.9257   38.9478   32.1798 O   0  0  0  0  0  0  0  0  0  0  0  0
   11.0070   37.5758   32.0732 C   0  0  0  0  0  0  0  0  0  0  0  0
   13.3571   37.5980   32.2612 C   0  0  0  0  0  0  0  0  0  0  0  0
    9.9093   37.1808   31.2875 O   0  0  0  0  0  0  0  0  0  0  0  0
   12.1967   36.6764   31.8894 C   0  0  0  0  0  0  0  0  0  0  0  0
   13.8018   37.2956   33.6197 N   0  0  0  0  0  0  0  0  0  0  0  0
   12.3048   36.2360   30.5555 O   0  0  0  0  0  0  0  0  0  0  0  0
   14.7922   36.4716   33.9864 C   0  0  0  0  0  0  0  0  0  0  0  0
   13.2747   37.7291   34.7944 C   0  0  0  0  0  0  0  0  0  0  0  0
   15.6240   35.7581   33.1861 N   0  0  0  0  0  0  0  0  0  0  0  0
   14.8721   36.4401   35.3331 C   0  0  0  0  0  0  0  0  0  0  0  0
   13.9206   37.2257   35.8810 N   0  0  0  0  0  0  0  0  0  0  0  0
   16.5873   34.9924   33.7802 C   0  0  0  0  0  0  0  0  0  0  0  0
   15.8576   35.6714   35.9444 C   0  0  0  0  0  0  0  0  0  0  0  0
   16.7026   34.9585   35.1439 N   0  0  0  0  0  0  0  0  0  0  0  0
   16.0102   35.6382   37.3564 N   0  0  0  0  0  0  0  0  0  0  0  0
    7.6764   44.0634   34.0547 H   0  0  0  0  0  0  0  0  0  0  0  0
    8.6468   46.1558   34.1430 H   0  0  0  0  0  0  0  0  0  0  0  0
   10.2152   45.5879   33.8747 H   0  0  0  0  0  0  0  0  0  0  0  0
    9.9708   44.0641   31.9680 H   0  0  0  0  0  0  0  0  0  0  0  0
    8.4830   43.0817   31.8667 H   0  0  0  0  0  0  0  0  0  0  0  0
    8.5199   45.0957   30.3807 H   0  0  0  0  0  0  0  0  0  0  0  0
    8.5715   46.1486   31.8173 H   0  0  0  0  0  0  0  0  0  0  0  0
    6.3147   44.1801   30.9835 H   0  0  0  0  0  0  0  0  0  0  0  0
    6.3142   45.0783   32.5413 H   0  0  0  0  0  0  0  0  0  0  0  0
    4.9234   46.2700   30.9302 H   0  0  0  0  0  0  0  0  0  0  0  0
    6.2447   46.2897   29.7232 H   0  0  0  0  0  0  0  0  0  0  0  0
    6.2859   47.7539   32.4220 H   0  0  0  0  0  0  0  0  0  0  0  0
    8.6404   51.5344   31.3999 H   0  0  0  0  0  0  0  0  0  0  0  0
    9.1892   50.3962   30.1493 H   0  0  0  0  0  0  0  0  0  0  0  0
    8.3410   50.5731   27.9504 H   0  0  0  0  0  0  0  0  0  0  0  0
    6.9550   51.7126   26.2741 H   0  0  0  0  0  0  0  0  0  0  0  0
    4.8270   53.7713   29.3601 H   0  0  0  0  0  0  0  0  0  0  0  0
    5.2063   53.3139   26.9768 H   0  0  0  0  0  0  0  0  0  0  0  0
    9.7448   40.0200   31.9304 H   0  0  0  0  0  0  0  0  0  0  0  0
   11.2092   41.0481   31.8916 H   0  0  0  0  0  0  0  0  0  0  0  0
   11.6207   39.0685   30.5942 H   0  0  0  0  0  0  0  0  0  0  0  0
   10.7059   37.5564   33.1439 H   0  0  0  0  0  0  0  0  0  0  0  0
   14.2095   37.4543   31.5601 H   0  0  0  0  0  0  0  0  0  0  0  0
   10.0864   37.4210   30.3414 H   0  0  0  0  0  0  0  0  0  0  0  0
   12.1275   35.7872   32.5550 H   0  0  0  0  0  0  0  0  0  0  0  0
   12.5030   37.0109   29.9673 H   0  0  0  0  0  0  0  0  0  0  0  0
   12.4328   38.3996   34.8703 H   0  0  0  0  0  0  0  0  0  0  0  0
   17.2670   34.4149   33.1690 H   0  0  0  0  0  0  0  0  0  0  0  0
   15.3758   36.1862   37.9792 H   0  0  0  0  0  0  0  0  0  0  0  0
   16.7640   35.0601   37.7896 H   0  0  0  0  0  0  0  0  0  0  0  0
  1  2  2  0
  1  3  1  0
  3  4  1  0
  4  5  1  0
  6  1  1  0
  7  6  1  0
  6  8  1  0
  8  9  1  0
  9 10  1  0
 10 11  1  0
 11 12  1  0
 12 13  1  0
 13 14  1  0
 13 15  2  0
 14 16  1  0
 16 17  1  0
 17 18  2  0
 19 17  1  0
 18 20  1  0
 21 19  2  0
 19 22  1  0
 20 23  2  0
 23 21  1  0
 22 24  1  0
 22 25  2  0
  4 26  2  0
  4 27  1  0
 28 27  1  0
 28 29  1  0
 29 30  1  0
 29 31  1  0
 30 32  1  0
 31 33  1  0
 31 34  1  0
 34 32  1  0
 32 35  1  0
 34 36  1  0
 37 35  1  0
 38 35  1  0
 39 37  2  0
 37 40  1  0
 41 38  2  0
 42 39  1  0
 40 43  2  0
 40 41  1  0
 44 42  2  0
 44 43  1  0
 43 45  1  0
  6 46  1  6
  7 47  1  0
  7 48  1  0
  8 49  1  0
  8 50  1  0
  9 51  1  0
  9 52  1  0
 10 53  1  0
 10 54  1  0
 11 55  1  0
 11 56  1  0
 12 57  1  0
 16 58  1  0
 16 59  1  0
 18 60  1  0
 20 61  1  0
 21 62  1  0
 23 63  1  0
 28 64  1  0
 28 65  1  0
 29 66  1  0
 31 67  1  0
 32 68  1  0
 33 69  1  0
 34 70  1  0
 36 71  1  0
 38 72  1  0
 42 73  1  0
 45 74  1  0
 45 75  1  0
M  CHG  3   5  -1  22   1  24  -1
M  END
>  <EmbedRMS>  (320) 
0.0753185777656

$$$$

     RDKit          3D

 75 78  0  0  0  0  0  0  0  0999 V2000
    9.4301   42.9394   34.3434 C   0  0  0  0  0  0  0  0  0  0  0  0
   10.4913   43.0380   35.0234 O   0  0  0  0  0  0  0  0  0  0  0  0
    8.8550   41.7115   34.0283 O   0  0  0  0  0  0  0  0  0  0  0  0
    9.4943   40.2156   34.4676 P   0  0  0  0  0  0  0  0  0  0  0  0
    9.7308   40.1740   36.1287 O   0  0  0  0  0  0  0  0  0  0  0  0
    8.7413   44.1376   33.7786 C   0  0  1  0  0  0  0  0  0  0  0  0
    9.3016   45.3717   34.3325 N   0  0  0  0  0  0  0  0  0  0  0  0
    8.8963   44.0592   32.2398 C   0  0  0  0  0  0  0  0  0  0  0  0
    8.2027   45.1687   31.4400 C   0  0  0  0  0  0  0  0  0  0  0  0
    6.6653   45.1064   31.4910 C   0  0  0  0  0  0  0  0  0  0  0  0
    6.0277   46.3225   30.8123 C   0  0  0  0  0  0  0  0  0  0  0  0
    6.5079   47.5643   31.4185 N   0  0  0  0  0  0  0  0  0  0  0  0
    7.2424   48.5403   30.6824 C   0  0  0  0  0  0  0  0  0  0  0  0
    7.5841   49.7463   31.3034 O   0  0  0  0  0  0  0  0  0  0  0  0
    7.5935   48.3099   29.4943 O   0  0  0  0  0  0  0  0  0  0  0  0
    8.3204   50.7866   30.6607 C   0  0  0  0  0  0  0  0  0  0  0  0
    7.4953   51.4390   29.5742 C   0  0  0  0  0  0  0  0  0  0  0  0
    6.2460   51.9776   29.9320 C   0  0  0  0  0  0  0  0  0  0  0  0
    7.9607   51.6003   28.2415 C   0  0  0  0  0  0  0  0  0  0  0  0
    5.4676   52.6592   28.9955 C   0  0  0  0  0  0  0  0  0  0  0  0
    7.1708   52.3066   27.3187 C   0  0  0  0  0  0  0  0  0  0  0  0
    9.2249   51.0780   27.8065 N   0  0  0  0  0  0  0  0  0  0  0  0
    5.9308   52.8264   27.6920 C   0  0  0  0  0  0  0  0  0  0  0  0
   10.0177   51.8287   26.9695 O   0  0  0  0  0  0  0  0  0  0  0  0
    9.4884   49.8678   27.9576 O   0  0  0  0  0  0  0  0  0  0  0  0
    8.5375   39.1393   34.0126 O   0  0  0  0  0  0  0  0  0  0  0  0
   10.9804   40.0888   33.6834 O   0  0  0  0  0  0  0  0  0  0  0  0
   10.8025   40.0901   32.2836 C   0  0  0  0  0  0  0  0  0  0  0  0
   11.5888   38.9174   31.7007 C   0  0  0  0  0  0  0  0  0  0  0  0
   12.9219   38.9373   32.1692 O   0  0  0  0  0  0  0  0  0  0  0  0
   11.0028   37.5682   32.0981 C   0  0  0  0  0  0  0  0  0  0  0  0
   13.3496   37.5885   32.2601 C   0  0  0  0  0  0  0  0  0  0  0  0
    9.9343   37.1823   31.2757 O   0  0  0  0  0  0  0  0  0  0  0  0
   12.1891   36.6677   31.9050 C   0  0  0  0  0  0  0  0  0  0  0  0
   13.8025   37.2965   33.6186 N   0  0  0  0  0  0  0  0  0  0  0  0
   12.2991   36.2867   30.5568 O   0  0  0  0  0  0  0  0  0  0  0  0
   14.7929   36.4725   33.9858 C   0  0  0  0  0  0  0  0  0  0  0  0
   13.2749   37.7294   34.7935 C   0  0  0  0  0  0  0  0  0  0  0  0
   15.6240   35.7580   33.1858 N   0  0  0  0  0  0  0  0  0  0  0  0
   14.8727   36.4411   35.3327 C   0  0  0  0  0  0  0  0  0  0  0  0
   13.9208   37.2263   35.8803 N   0  0  0  0  0  0  0  0  0  0  0  0
   16.5871   34.9921   33.7801 C   0  0  0  0  0  0  0  0  0  0  0  0
   15.8576   35.6718   35.9441 C   0  0  0  0  0  0  0  0  0  0  0  0
   16.7024   34.9584   35.1438 N   0  0  0  0  0  0  0  0  0  0  0  0
   16.0099   35.6384   37.3562 N   0  0  0  0  0  0  0  0  0  0  0  0
    7.6669   44.0651   34.0547 H   0  0  0  0  0  0  0  0  0  0  0  0
    8.6808   46.1666   34.0587 H   0  0  0  0  0  0  0  0  0  0  0  0
    9.2334   45.3272   35.3759 H   0  0  0  0  0  0  0  0  0  0  0  0
    8.5084   43.0839   31.8694 H   0  0  0  0  0  0  0  0  0  0  0  0
    9.9810   44.0906   31.9915 H   0  0  0  0  0  0  0  0  0  0  0  0
    8.5157   45.0754   30.3769 H   0  0  0  0  0  0  0  0  0  0  0  0
    8.5769   46.1513   31.7918 H   0  0  0  0  0  0  0  0  0  0  0  0
    6.3124   44.1783   30.9912 H   0  0  0  0  0  0  0  0  0  0  0  0
    6.3182   45.0837   32.5446 H   0  0  0  0  0  0  0  0  0  0  0  0
    6.2470   46.2875   29.7235 H   0  0  0  0  0  0  0  0  0  0  0  0
    4.9243   46.2682   30.9291 H   0  0  0  0  0  0  0  0  0  0  0  0
    6.2840   47.7542   32.4212 H   0  0  0  0  0  0  0  0  0  0  0  0
    8.5592   51.5595   31.4213 H   0  0  0  0  0  0  0  0  0  0  0  0
    9.2913   50.3918   30.3049 H   0  0  0  0  0  0  0  0  0  0  0  0
    5.8779   51.8777   30.9460 H   0  0  0  0  0  0  0  0  0  0  0  0
    4.5076   53.0672   29.2844 H   0  0  0  0  0  0  0  0  0  0  0  0
    7.5121   52.4413   26.2999 H   0  0  0  0  0  0  0  0  0  0  0  0
    5.3283   53.3608   26.9687 H   0  0  0  0  0  0  0  0  0  0  0  0
    9.7476   40.0331   31.9253 H   0  0  0  0  0  0  0  0  0  0  0  0
   11.2257   41.0357   31.8824 H   0  0  0  0  0  0  0  0  0  0  0  0
   11.5975   39.0147   30.5904 H   0  0  0  0  0  0  0  0  0  0  0  0
   10.7023   37.5456   33.1720 H   0  0  0  0  0  0  0  0  0  0  0  0
   14.1957   37.4366   31.5528 H   0  0  0  0  0  0  0  0  0  0  0  0
    9.1339   37.6658   31.6070 H   0  0  0  0  0  0  0  0  0  0  0  0
   12.1380   35.7717   32.5698 H   0  0  0  0  0  0  0  0  0  0  0  0
   11.7707   35.4530   30.4496 H   0  0  0  0  0  0  0  0  0  0  0  0
   12.4314   38.3980   34.8694 H   0  0  0  0  0  0  0  0  0  0  0  0
   17.2665   34.4140   33.1691 H   0  0  0  0  0  0  0  0  0  0  0  0
   15.3757   36.1868   37.9789 H   0  0  0  0  0  0  0  0  0  0  0  0
   16.7633   35.0599   37.7895 H   0  0  0  0  0  0  0  0  0  0  0  0
  1  2  2  0
  1  3  1  0
  3  4  1  0
  4  5  1  0
  6  1  1  0
  7  6  1  0
  6  8  1  0
  8  9  1  0
  9 10  1  0
 10 11  1  0
 11 12  1  0
 12 13  1  0
 13 14  1  0
 13 15  2  0
 14 16  1  0
 16 17  1  0
 17 18  2  0
 19 17  1  0
 18 20  1  0
 21 19  2  0
 19 22  1  0
 20 23  2  0
 23 21  1  0
 22 24  1  0
 22 25  2  0
  4 26  2  0
  4 27  1  0
 28 27  1  0
 28 29  1  0
 29 30  1  0
 29 31  1  0
 30 32  1  0
 31 33  1  0
 31 34  1  0
 34 32  1  0
 32 35  1  0
 34 36  1  0
 37 35  1  0
 38 35  1  0
 39 37  2  0
 37 40  1  0
 41 38  2  0
 42 39  1  0
 40 43  2  0
 40 41  1  0
 44 42  2  0
 44 43  1  0
 43 45  1  0
  6 46  1  6
  7 47  1  0
  7 48  1  0
  8 49  1  0
  8 50  1  0
  9 51  1  0
  9 52  1  0
 10 53  1  0
 10 54  1  0
 11 55  1  0
 11 56  1  0
 12 57  1  0
 16 58  1  0
 16 59  1  0
 18 60  1  0
 20 61  1  0
 21 62  1  0
 23 63  1  0
 28 64  1  0
 28 65  1  0
 29 66  1  0
 31 67  1  0
 32 68  1  0
 33 69  1  0
 34 70  1  0
 36 71  1  0
 38 72  1  0
 42 73  1  0
 45 74  1  0
 45 75  1  0
M  CHG  3   5  -1  22   1  24  -1
M  END
>  <EmbedRMS>  (321) 
0.0735025494767

$$$$

     RDKit          3D

 75 78  0  0  0  0  0  0  0  0999 V2000
    9.4333   42.9364   34.3461 C   0  0  0  0  0  0  0  0  0  0  0  0
   10.4907   43.0329   35.0319 O   0  0  0  0  0  0  0  0  0  0  0  0
    8.8563   41.7103   34.0295 O   0  0  0  0  0  0  0  0  0  0  0  0
    9.4943   40.2139   34.4679 P   0  0  0  0  0  0  0  0  0  0  0  0
    9.7310   40.1724   36.1290 O   0  0  0  0  0  0  0  0  0  0  0  0
    8.7506   44.1348   33.7741 C   0  0  1  0  0  0  0  0  0  0  0  0
    9.2963   45.3820   34.3133 N   0  0  0  0  0  0  0  0  0  0  0  0
    8.8893   44.0528   32.2358 C   0  0  0  0  0  0  0  0  0  0  0  0
    8.2028   45.1824   31.4615 C   0  0  0  0  0  0  0  0  0  0  0  0
    6.6653   45.1046   31.4855 C   0  0  0  0  0  0  0  0  0  0  0  0
    6.0269   46.3226   30.8105 C   0  0  0  0  0  0  0  0  0  0  0  0
    6.5062   47.5640   31.4180 N   0  0  0  0  0  0  0  0  0  0  0  0
    7.2439   48.5391   30.6836 C   0  0  0  0  0  0  0  0  0  0  0  0
    7.5943   49.7396   31.3067 O   0  0  0  0  0  0  0  0  0  0  0  0
    7.5933   48.3117   29.4936 O   0  0  0  0  0  0  0  0  0  0  0  0
    8.3421   50.7575   30.6497 C   0  0  0  0  0  0  0  0  0  0  0  0
    8.5433   51.9177   31.5890 C   0  0  0  0  0  0  0  0  0  0  0  0
    9.7533   52.0018   32.3016 C   0  0  0  0  0  0  0  0  0  0  0  0
    7.5662   52.9352   31.7561 C   0  0  0  0  0  0  0  0  0  0  0  0
   10.0075   53.0811   33.1487 C   0  0  0  0  0  0  0  0  0  0  0  0
    7.8501   54.0227   32.6032 C   0  0  0  0  0  0  0  0  0  0  0  0
    6.2985   52.8911   31.0751 N   0  0  0  0  0  0  0  0  0  0  0  0
    9.0601   54.0922   33.2950 C   0  0  0  0  0  0  0  0  0  0  0  0
    5.6195   51.7037   30.9313 O   0  0  0  0  0  0  0  0  0  0  0  0
    5.7233   53.9520   30.7551 O   0  0  0  0  0  0  0  0  0  0  0  0
    8.5372   39.1382   34.0121 O   0  0  0  0  0  0  0  0  0  0  0  0
   10.9798   40.0871   33.6829 O   0  0  0  0  0  0  0  0  0  0  0  0
   10.8002   40.0905   32.2832 C   0  0  0  0  0  0  0  0  0  0  0  0
   11.5958   38.9271   31.6963 C   0  0  0  0  0  0  0  0  0  0  0  0
   12.9239   38.9409   32.1766 O   0  0  0  0  0  0  0  0  0  0  0  0
   11.0062   37.5719   32.0793 C   0  0  0  0  0  0  0  0  0  0  0  0
   13.3507   37.5905   32.2614 C   0  0  0  0  0  0  0  0  0  0  0  0
    9.9064   37.1792   31.2946 O   0  0  0  0  0  0  0  0  0  0  0  0
   12.1920   36.6671   31.9003 C   0  0  0  0  0  0  0  0  0  0  0  0
   13.8017   37.2948   33.6193 N   0  0  0  0  0  0  0  0  0  0  0  0
   12.3134   36.2787   30.5560 O   0  0  0  0  0  0  0  0  0  0  0  0
   14.7927   36.4716   33.9861 C   0  0  0  0  0  0  0  0  0  0  0  0
   13.2746   37.7284   34.7941 C   0  0  0  0  0  0  0  0  0  0  0  0
   15.6240   35.7576   33.1859 N   0  0  0  0  0  0  0  0  0  0  0  0
   14.8728   36.4406   35.3330 C   0  0  0  0  0  0  0  0  0  0  0  0
   13.9209   37.2258   35.8808 N   0  0  0  0  0  0  0  0  0  0  0  0
   16.5874   34.9920   33.7802 C   0  0  0  0  0  0  0  0  0  0  0  0
   15.8579   35.6716   35.9443 C   0  0  0  0  0  0  0  0  0  0  0  0
   16.7028   34.9584   35.1439 N   0  0  0  0  0  0  0  0  0  0  0  0
   16.0103   35.6383   37.3563 N   0  0  0  0  0  0  0  0  0  0  0  0
    7.6770   44.0706   34.0504 H   0  0  0  0  0  0  0  0  0  0  0  0
   10.3192   45.4406   34.1000 H   0  0  0  0  0  0  0  0  0  0  0  0
    9.1827   45.3820   35.3535 H   0  0  0  0  0  0  0  0  0  0  0  0
    8.4816   43.0851   31.8668 H   0  0  0  0  0  0  0  0  0  0  0  0
    9.9711   44.0682   31.9739 H   0  0  0  0  0  0  0  0  0  0  0  0
    8.5551   46.1510   31.8743 H   0  0  0  0  0  0  0  0  0  0  0  0
    8.5384   45.1364   30.4023 H   0  0  0  0  0  0  0  0  0  0  0  0
    6.3296   44.1800   30.9678 H   0  0  0  0  0  0  0  0  0  0  0  0
    6.3019   45.0643   32.5333 H   0  0  0  0  0  0  0  0  0  0  0  0
    6.2465   46.2898   29.7217 H   0  0  0  0  0  0  0  0  0  0  0  0
    4.9235   46.2673   30.9264 H   0  0  0  0  0  0  0  0  0  0  0  0
    6.2817   47.7532   32.4208 H   0  0  0  0  0  0  0  0  0  0  0  0
    9.3237   50.3408   30.3328 H   0  0  0  0  0  0  0  0  0  0  0  0
    7.8187   51.0917   29.7281 H   0  0  0  0  0  0  0  0  0  0  0  0
   10.5076   51.2315   32.1965 H   0  0  0  0  0  0  0  0  0  0  0  0
   10.9438   53.1357   33.6890 H   0  0  0  0  0  0  0  0  0  0  0  0
    7.1228   54.8126   32.7425 H   0  0  0  0  0  0  0  0  0  0  0  0
    9.2612   54.9302   33.9500 H   0  0  0  0  0  0  0  0  0  0  0  0
    9.7455   40.0168   31.9263 H   0  0  0  0  0  0  0  0  0  0  0  0
   11.2116   41.0420   31.8834 H   0  0  0  0  0  0  0  0  0  0  0  0
   11.6245   39.0449   30.5888 H   0  0  0  0  0  0  0  0  0  0  0  0
   10.7050   37.5579   33.1499 H   0  0  0  0  0  0  0  0  0  0  0  0
   14.1985   37.4426   31.5553 H   0  0  0  0  0  0  0  0  0  0  0  0
   10.0893   37.4057   30.3459 H   0  0  0  0  0  0  0  0  0  0  0  0
   12.1337   35.7754   32.5703 H   0  0  0  0  0  0  0  0  0  0  0  0
   11.7934   35.4394   30.4513 H   0  0  0  0  0  0  0  0  0  0  0  0
   12.4314   38.3972   34.8700 H   0  0  0  0  0  0  0  0  0  0  0  0
   17.2669   34.4142   33.1692 H   0  0  0  0  0  0  0  0  0  0  0  0
   16.7638   35.0599   37.7896 H   0  0  0  0  0  0  0  0  0  0  0  0
   15.3759   36.1865   37.9790 H   0  0  0  0  0  0  0  0  0  0  0  0
  1  2  2  0
  1  3  1  0
  3  4  1  0
  4  5  1  0
  6  1  1  0
  7  6  1  0
  6  8  1  0
  8  9  1  0
  9 10  1  0
 10 11  1  0
 11 12  1  0
 12 13  1  0
 13 14  1  0
 13 15  2  0
 14 16  1  0
 16 17  1  0
 17 18  2  0
 19 17  1  0
 18 20  1  0
 21 19  2  0
 19 22  1  0
 20 23  2  0
 23 21  1  0
 22 24  1  0
 22 25  2  0
  4 26  2  0
  4 27  1  0
 28 27  1  0
 28 29  1  0
 29 30  1  0
 29 31  1  0
 30 32  1  0
 31 33  1  0
 31 34  1  0
 34 32  1  0
 32 35  1  0
 34 36  1  0
 37 35  1  0
 38 35  1  0
 39 37  2  0
 37 40  1  0
 41 38  2  0
 42 39  1  0
 40 43  2  0
 40 41  1  0
 44 42  2  0
 44 43  1  0
 43 45  1  0
  6 46  1  6
  7 47  1  0
  7 48  1  0
  8 49  1  0
  8 50  1  0
  9 51  1  0
  9 52  1  0
 10 53  1  0
 10 54  1  0
 11 55  1  0
 11 56  1  0
 12 57  1  0
 16 58  1  0
 16 59  1  0
 18 60  1  0
 20 61  1  0
 21 62  1  0
 23 63  1  0
 28 64  1  0
 28 65  1  0
 29 66  1  0
 31 67  1  0
 32 68  1  0
 33 69  1  0
 34 70  1  0
 36 71  1  0
 38 72  1  0
 42 73  1  0
 45 74  1  0
 45 75  1  0
M  CHG  3   5  -1  22   1  24  -1
M  END
>  <EmbedRMS>  (322) 
0.0747949549924

$$$$

     RDKit          3D

 75 78  0  0  0  0  0  0  0  0999 V2000
    9.4329   42.9367   34.3464 C   0  0  0  0  0  0  0  0  0  0  0  0
   10.4905   43.0333   35.0319 O   0  0  0  0  0  0  0  0  0  0  0  0
    8.8562   41.7105   34.0296 O   0  0  0  0  0  0  0  0  0  0  0  0
    9.4943   40.2141   34.4679 P   0  0  0  0  0  0  0  0  0  0  0  0
    9.7310   40.1724   36.1290 O   0  0  0  0  0  0  0  0  0  0  0  0
    8.7501   44.1350   33.7743 C   0  0  1  0  0  0  0  0  0  0  0  0
    9.2953   45.3825   34.3134 N   0  0  0  0  0  0  0  0  0  0  0  0
    8.8891   44.0528   32.2361 C   0  0  0  0  0  0  0  0  0  0  0  0
    8.2030   45.1825   31.4618 C   0  0  0  0  0  0  0  0  0  0  0  0
    6.6655   45.1037   31.4825 C   0  0  0  0  0  0  0  0  0  0  0  0
    6.0289   46.3231   30.8080 C   0  0  0  0  0  0  0  0  0  0  0  0
    6.5083   47.5618   31.4208 N   0  0  0  0  0  0  0  0  0  0  0  0
    7.2520   48.5399   30.6856 C   0  0  0  0  0  0  0  0  0  0  0  0
    7.6515   49.7514   31.2663 O   0  0  0  0  0  0  0  0  0  0  0  0
    7.5833   48.3112   29.4930 O   0  0  0  0  0  0  0  0  0  0  0  0
    7.4385   50.1183   32.6303 C   0  0  0  0  0  0  0  0  0  0  0  0
    5.9748   50.3783   32.9176 C   0  0  0  0  0  0  0  0  0  0  0  0
    5.2262   51.1091   31.9754 C   0  0  0  0  0  0  0  0  0  0  0  0
    5.3631   50.0110   34.1464 C   0  0  0  0  0  0  0  0  0  0  0  0
    3.8938   51.4412   32.2242 C   0  0  0  0  0  0  0  0  0  0  0  0
    4.0265   50.3708   34.3854 C   0  0  0  0  0  0  0  0  0  0  0  0
    6.0806   49.3154   35.1766 N   0  0  0  0  0  0  0  0  0  0  0  0
    3.2947   51.0721   33.4268 C   0  0  0  0  0  0  0  0  0  0  0  0
    5.9518   49.7246   36.4836 O   0  0  0  0  0  0  0  0  0  0  0  0
    6.5839   48.1973   34.9447 O   0  0  0  0  0  0  0  0  0  0  0  0
    8.5372   39.1383   34.0121 O   0  0  0  0  0  0  0  0  0  0  0  0
   10.9798   40.0871   33.6829 O   0  0  0  0  0  0  0  0  0  0  0  0
   10.8002   40.0905   32.2832 C   0  0  0  0  0  0  0  0  0  0  0  0
   11.5958   38.9271   31.6963 C   0  0  0  0  0  0  0  0  0  0  0  0
   12.9239   38.9409   32.1766 O   0  0  0  0  0  0  0  0  0  0  0  0
   11.0062   37.5719   32.0793 C   0  0  0  0  0  0  0  0  0  0  0  0
   13.3507   37.5905   32.2614 C   0  0  0  0  0  0  0  0  0  0  0  0
    9.9064   37.1793   31.2946 O   0  0  0  0  0  0  0  0  0  0  0  0
   12.1920   36.6671   31.9003 C   0  0  0  0  0  0  0  0  0  0  0  0
   13.8017   37.2948   33.6193 N   0  0  0  0  0  0  0  0  0  0  0  0
   12.3134   36.2788   30.5560 O   0  0  0  0  0  0  0  0  0  0  0  0
   14.7927   36.4716   33.9861 C   0  0  0  0  0  0  0  0  0  0  0  0
   13.2746   37.7284   34.7941 C   0  0  0  0  0  0  0  0  0  0  0  0
   15.6240   35.7576   33.1859 N   0  0  0  0  0  0  0  0  0  0  0  0
   14.8728   36.4406   35.3330 C   0  0  0  0  0  0  0  0  0  0  0  0
   13.9209   37.2258   35.8808 N   0  0  0  0  0  0  0  0  0  0  0  0
   16.5874   34.9920   33.7802 C   0  0  0  0  0  0  0  0  0  0  0  0
   15.8579   35.6716   35.9443 C   0  0  0  0  0  0  0  0  0  0  0  0
   16.7028   34.9584   35.1439 N   0  0  0  0  0  0  0  0  0  0  0  0
   16.0103   35.6383   37.3563 N   0  0  0  0  0  0  0  0  0  0  0  0
    7.6763   44.0709   34.0501 H   0  0  0  0  0  0  0  0  0  0  0  0
    9.1795   45.3838   35.3533 H   0  0  0  0  0  0  0  0  0  0  0  0
   10.3185   45.4408   34.1019 H   0  0  0  0  0  0  0  0  0  0  0  0
    8.4814   43.0852   31.8670 H   0  0  0  0  0  0  0  0  0  0  0  0
    9.9710   44.0681   31.9745 H   0  0  0  0  0  0  0  0  0  0  0  0
    8.5408   45.1381   30.4032 H   0  0  0  0  0  0  0  0  0  0  0  0
    8.5540   46.1509   31.8767 H   0  0  0  0  0  0  0  0  0  0  0  0
    6.3313   44.1800   30.9623 H   0  0  0  0  0  0  0  0  0  0  0  0
    6.3000   45.0614   32.5296 H   0  0  0  0  0  0  0  0  0  0  0  0
    4.9252   46.2684   30.9225 H   0  0  0  0  0  0  0  0  0  0  0  0
    6.2497   46.2921   29.7196 H   0  0  0  0  0  0  0  0  0  0  0  0
    6.2826   47.7174   32.4254 H   0  0  0  0  0  0  0  0  0  0  0  0
    7.8896   49.3521   33.2886 H   0  0  0  0  0  0  0  0  0  0  0  0
    7.9904   51.0628   32.8181 H   0  0  0  0  0  0  0  0  0  0  0  0
    5.6777   51.4305   31.0449 H   0  0  0  0  0  0  0  0  0  0  0  0
    3.3282   51.9965   31.4871 H   0  0  0  0  0  0  0  0  0  0  0  0
    3.5481   50.0984   35.3179 H   0  0  0  0  0  0  0  0  0  0  0  0
    2.2633   51.3371   33.6207 H   0  0  0  0  0  0  0  0  0  0  0  0
    9.7454   40.0168   31.9263 H   0  0  0  0  0  0  0  0  0  0  0  0
   11.2115   41.0420   31.8834 H   0  0  0  0  0  0  0  0  0  0  0  0
   11.6245   39.0449   30.5888 H   0  0  0  0  0  0  0  0  0  0  0  0
   10.7050   37.5580   33.1500 H   0  0  0  0  0  0  0  0  0  0  0  0
   14.1985   37.4426   31.5553 H   0  0  0  0  0  0  0  0  0  0  0  0
   10.0893   37.4057   30.3459 H   0  0  0  0  0  0  0  0  0  0  0  0
   12.1337   35.7754   32.5703 H   0  0  0  0  0  0  0  0  0  0  0  0
   11.7934   35.4394   30.4513 H   0  0  0  0  0  0  0  0  0  0  0  0
   12.4314   38.3973   34.8700 H   0  0  0  0  0  0  0  0  0  0  0  0
   17.2669   34.4142   33.1691 H   0  0  0  0  0  0  0  0  0  0  0  0
   16.7638   35.0599   37.7896 H   0  0  0  0  0  0  0  0  0  0  0  0
   15.3759   36.1864   37.9790 H   0  0  0  0  0  0  0  0  0  0  0  0
  1  2  2  0
  1  3  1  0
  3  4  1  0
  4  5  1  0
  6  1  1  0
  7  6  1  0
  6  8  1  0
  8  9  1  0
  9 10  1  0
 10 11  1  0
 11 12  1  0
 12 13  1  0
 13 14  1  0
 13 15  2  0
 14 16  1  0
 16 17  1  0
 17 18  2  0
 19 17  1  0
 18 20  1  0
 21 19  2  0
 19 22  1  0
 20 23  2  0
 23 21  1  0
 22 24  1  0
 22 25  2  0
  4 26  2  0
  4 27  1  0
 28 27  1  0
 28 29  1  0
 29 30  1  0
 29 31  1  0
 30 32  1  0
 31 33  1  0
 31 34  1  0
 34 32  1  0
 32 35  1  0
 34 36  1  0
 37 35  1  0
 38 35  1  0
 39 37  2  0
 37 40  1  0
 41 38  2  0
 42 39  1  0
 40 43  2  0
 40 41  1  0
 44 42  2  0
 44 43  1  0
 43 45  1  0
  6 46  1  6
  7 47  1  0
  7 48  1  0
  8 49  1  0
  8 50  1  0
  9 51  1  0
  9 52  1  0
 10 53  1  0
 10 54  1  0
 11 55  1  0
 11 56  1  0
 12 57  1  0
 16 58  1  0
 16 59  1  0
 18 60  1  0
 20 61  1  0
 21 62  1  0
 23 63  1  0
 28 64  1  0
 28 65  1  0
 29 66  1  0
 31 67  1  0
 32 68  1  0
 33 69  1  0
 34 70  1  0
 36 71  1  0
 38 72  1  0
 42 73  1  0
 45 74  1  0
 45 75  1  0
M  CHG  3   5  -1  22   1  24  -1
M  END
>  <EmbedRMS>  (323) 
0.0748210506788

$$$$

     RDKit          3D

 75 78  0  0  0  0  0  0  0  0999 V2000
    9.4332   42.9365   34.3464 C   0  0  0  0  0  0  0  0  0  0  0  0
   10.4907   43.0330   35.0319 O   0  0  0  0  0  0  0  0  0  0  0  0
    8.8559   41.7103   34.0304 O   0  0  0  0  0  0  0  0  0  0  0  0
    9.4931   40.2140   34.4703 P   0  0  0  0  0  0  0  0  0  0  0  0
    9.7293   40.1727   36.1313 O   0  0  0  0  0  0  0  0  0  0  0  0
    8.7506   44.1348   33.7741 C   0  0  1  0  0  0  0  0  0  0  0  0
    9.2963   45.3820   34.3133 N   0  0  0  0  0  0  0  0  0  0  0  0
    8.8893   44.0526   32.2358 C   0  0  0  0  0  0  0  0  0  0  0  0
    8.2029   45.1822   31.4614 C   0  0  0  0  0  0  0  0  0  0  0  0
    6.6654   45.1046   31.4854 C   0  0  0  0  0  0  0  0  0  0  0  0
    6.0272   46.3228   30.8107 C   0  0  0  0  0  0  0  0  0  0  0  0
    6.5072   47.5640   31.4182 N   0  0  0  0  0  0  0  0  0  0  0  0
    7.2414   48.5407   30.6826 C   0  0  0  0  0  0  0  0  0  0  0  0
    7.5871   49.7444   31.3061 O   0  0  0  0  0  0  0  0  0  0  0  0
    7.5943   48.3104   29.4946 O   0  0  0  0  0  0  0  0  0  0  0  0
    8.2776   50.8052   30.6481 C   0  0  0  0  0  0  0  0  0  0  0  0
    7.3673   51.5123   29.6715 C   0  0  0  0  0  0  0  0  0  0  0  0
    7.5291   51.2562   28.2972 C   0  0  0  0  0  0  0  0  0  0  0  0
    6.3906   52.4563   30.0910 C   0  0  0  0  0  0  0  0  0  0  0  0
    6.7412   51.9123   27.3514 C   0  0  0  0  0  0  0  0  0  0  0  0
    5.6168   53.1164   29.1178 C   0  0  0  0  0  0  0  0  0  0  0  0
    6.1899   52.7820   31.4795 N   0  0  0  0  0  0  0  0  0  0  0  0
    5.7878   52.8415   27.7607 C   0  0  0  0  0  0  0  0  0  0  0  0
    6.2382   51.8072   32.4479 O   0  0  0  0  0  0  0  0  0  0  0  0
    5.8148   53.9278   31.8040 O   0  0  0  0  0  0  0  0  0  0  0  0
    8.5366   39.1381   34.0136 O   0  0  0  0  0  0  0  0  0  0  0  0
   10.9788   40.0866   33.6873 O   0  0  0  0  0  0  0  0  0  0  0  0
   10.7993   40.0944   32.2886 C   0  0  0  0  0  0  0  0  0  0  0  0
   11.5957   38.9351   31.6994 C   0  0  0  0  0  0  0  0  0  0  0  0
   12.9257   38.9477   32.1798 O   0  0  0  0  0  0  0  0  0  0  0  0
   11.0070   37.5757   32.0732 C   0  0  0  0  0  0  0  0  0  0  0  0
   13.3571   37.5979   32.2612 C   0  0  0  0  0  0  0  0  0  0  0  0
    9.9093   37.1807   31.2875 O   0  0  0  0  0  0  0  0  0  0  0  0
   12.1968   36.6763   31.8893 C   0  0  0  0  0  0  0  0  0  0  0  0
   13.8018   37.2956   33.6197 N   0  0  0  0  0  0  0  0  0  0  0  0
   12.3049   36.2360   30.5555 O   0  0  0  0  0  0  0  0  0  0  0  0
   14.7922   36.4716   33.9864 C   0  0  0  0  0  0  0  0  0  0  0  0
   13.2747   37.7291   34.7944 C   0  0  0  0  0  0  0  0  0  0  0  0
   15.6240   35.7581   33.1861 N   0  0  0  0  0  0  0  0  0  0  0  0
   14.8721   36.4401   35.3331 C   0  0  0  0  0  0  0  0  0  0  0  0
   13.9206   37.2257   35.8810 N   0  0  0  0  0  0  0  0  0  0  0  0
   16.5873   34.9924   33.7802 C   0  0  0  0  0  0  0  0  0  0  0  0
   15.8576   35.6714   35.9444 C   0  0  0  0  0  0  0  0  0  0  0  0
   16.7026   34.9585   35.1439 N   0  0  0  0  0  0  0  0  0  0  0  0
   16.0102   35.6382   37.3564 N   0  0  0  0  0  0  0  0  0  0  0  0
    7.6770   44.0706   34.0504 H   0  0  0  0  0  0  0  0  0  0  0  0
   10.3192   45.4406   34.1000 H   0  0  0  0  0  0  0  0  0  0  0  0
    9.1827   45.3821   35.3534 H   0  0  0  0  0  0  0  0  0  0  0  0
    9.9711   44.0679   31.9740 H   0  0  0  0  0  0  0  0  0  0  0  0
    8.4816   43.0849   31.8669 H   0  0  0  0  0  0  0  0  0  0  0  0
    8.5385   45.1360   30.4021 H   0  0  0  0  0  0  0  0  0  0  0  0
    8.5554   46.1508   31.8740 H   0  0  0  0  0  0  0  0  0  0  0  0
    6.3021   45.0641   32.5332 H   0  0  0  0  0  0  0  0  0  0  0  0
    6.3296   44.1801   30.9675 H   0  0  0  0  0  0  0  0  0  0  0  0
    6.2462   46.2901   29.7218 H   0  0  0  0  0  0  0  0  0  0  0  0
    4.9238   46.2679   30.9272 H   0  0  0  0  0  0  0  0  0  0  0  0
    6.2827   47.7534   32.4209 H   0  0  0  0  0  0  0  0  0  0  0  0
    9.1807   50.3997   30.1405 H   0  0  0  0  0  0  0  0  0  0  0  0
    8.6459   51.5293   31.4047 H   0  0  0  0  0  0  0  0  0  0  0  0
    8.2725   50.5476   27.9534 H   0  0  0  0  0  0  0  0  0  0  0  0
    6.8748   51.7037   26.2977 H   0  0  0  0  0  0  0  0  0  0  0  0
    4.8677   53.8404   29.4128 H   0  0  0  0  0  0  0  0  0  0  0  0
    5.1804   53.3522   27.0246 H   0  0  0  0  0  0  0  0  0  0  0  0
    9.7448   40.0200   31.9304 H   0  0  0  0  0  0  0  0  0  0  0  0
   11.2094   41.0479   31.8921 H   0  0  0  0  0  0  0  0  0  0  0  0
   11.6207   39.0685   30.5942 H   0  0  0  0  0  0  0  0  0  0  0  0
   10.7059   37.5563   33.1438 H   0  0  0  0  0  0  0  0  0  0  0  0
   14.2095   37.4543   31.5601 H   0  0  0  0  0  0  0  0  0  0  0  0
   10.0865   37.4209   30.3413 H   0  0  0  0  0  0  0  0  0  0  0  0
   12.1276   35.7872   32.5549 H   0  0  0  0  0  0  0  0  0  0  0  0
   12.5031   37.0108   29.9672 H   0  0  0  0  0  0  0  0  0  0  0  0
   12.4328   38.3996   34.8703 H   0  0  0  0  0  0  0  0  0  0  0  0
   17.2670   34.4149   33.1690 H   0  0  0  0  0  0  0  0  0  0  0  0
   16.7640   35.0601   37.7896 H   0  0  0  0  0  0  0  0  0  0  0  0
   15.3758   36.1862   37.9792 H   0  0  0  0  0  0  0  0  0  0  0  0
  1  2  2  0
  1  3  1  0
  3  4  1  0
  4  5  1  0
  6  1  1  0
  7  6  1  0
  6  8  1  0
  8  9  1  0
  9 10  1  0
 10 11  1  0
 11 12  1  0
 12 13  1  0
 13 14  1  0
 13 15  2  0
 14 16  1  0
 16 17  1  0
 17 18  2  0
 19 17  1  0
 18 20  1  0
 21 19  2  0
 19 22  1  0
 20 23  2  0
 23 21  1  0
 22 24  1  0
 22 25  2  0
  4 26  2  0
  4 27  1  0
 28 27  1  0
 28 29  1  0
 29 30  1  0
 29 31  1  0
 30 32  1  0
 31 33  1  0
 31 34  1  0
 34 32  1  0
 32 35  1  0
 34 36  1  0
 37 35  1  0
 38 35  1  0
 39 37  2  0
 37 40  1  0
 41 38  2  0
 42 39  1  0
 40 43  2  0
 40 41  1  0
 44 42  2  0
 44 43  1  0
 43 45  1  0
  6 46  1  6
  7 47  1  0
  7 48  1  0
  8 49  1  0
  8 50  1  0
  9 51  1  0
  9 52  1  0
 10 53  1  0
 10 54  1  0
 11 55  1  0
 11 56  1  0
 12 57  1  0
 16 58  1  0
 16 59  1  0
 18 60  1  0
 20 61  1  0
 21 62  1  0
 23 63  1  0
 28 64  1  0
 28 65  1  0
 29 66  1  0
 31 67  1  0
 32 68  1  0
 33 69  1  0
 34 70  1  0
 36 71  1  0
 38 72  1  0
 42 73  1  0
 45 74  1  0
 45 75  1  0
M  CHG  3   5  -1  22   1  24  -1
M  END
>  <EmbedRMS>  (324) 
0.0761193774414

$$$$

     RDKit          3D

 75 78  0  0  0  0  0  0  0  0999 V2000
    9.4332   42.9366   34.3464 C   0  0  0  0  0  0  0  0  0  0  0  0
   10.4908   43.0331   35.0319 O   0  0  0  0  0  0  0  0  0  0  0  0
    8.8559   41.7105   34.0306 O   0  0  0  0  0  0  0  0  0  0  0  0
    9.4931   40.2143   34.4708 P   0  0  0  0  0  0  0  0  0  0  0  0
    9.7288   40.1729   36.1318 O   0  0  0  0  0  0  0  0  0  0  0  0
    8.7506   44.1348   33.7742 C   0  0  1  0  0  0  0  0  0  0  0  0
    9.2963   45.3821   34.3133 N   0  0  0  0  0  0  0  0  0  0  0  0
    8.8893   44.0527   32.2359 C   0  0  0  0  0  0  0  0  0  0  0  0
    8.2028   45.1822   31.4615 C   0  0  0  0  0  0  0  0  0  0  0  0
    6.6653   45.1045   31.4855 C   0  0  0  0  0  0  0  0  0  0  0  0
    6.0270   46.3226   30.8105 C   0  0  0  0  0  0  0  0  0  0  0  0
    6.5064   47.5639   31.4180 N   0  0  0  0  0  0  0  0  0  0  0  0
    7.2434   48.5393   30.6834 C   0  0  0  0  0  0  0  0  0  0  0  0
    7.5913   49.7408   31.3057 O   0  0  0  0  0  0  0  0  0  0  0  0
    7.5935   48.3118   29.4937 O   0  0  0  0  0  0  0  0  0  0  0  0
    8.3325   50.7632   30.6466 C   0  0  0  0  0  0  0  0  0  0  0  0
    8.5085   51.9417   31.5717 C   0  0  0  0  0  0  0  0  0  0  0  0
    9.8140   52.3692   31.8786 C   0  0  0  0  0  0  0  0  0  0  0  0
    7.4031   52.6031   32.1733 C   0  0  0  0  0  0  0  0  0  0  0  0
   10.0290   53.4217   32.7690 C   0  0  0  0  0  0  0  0  0  0  0  0
    7.6446   53.6522   33.0799 C   0  0  0  0  0  0  0  0  0  0  0  0
    6.0432   52.2176   31.8987 N   0  0  0  0  0  0  0  0  0  0  0  0
    8.9469   54.0594   33.3712 C   0  0  0  0  0  0  0  0  0  0  0  0
    5.6510   51.8777   30.6252 O   0  0  0  0  0  0  0  0  0  0  0  0
    5.1684   52.3416   32.7808 O   0  0  0  0  0  0  0  0  0  0  0  0
    8.5366   39.1385   34.0140 O   0  0  0  0  0  0  0  0  0  0  0  0
   10.9795   40.0875   33.6890 O   0  0  0  0  0  0  0  0  0  0  0  0
   10.8017   40.0947   32.2902 C   0  0  0  0  0  0  0  0  0  0  0  0
   11.5885   38.9266   31.7041 C   0  0  0  0  0  0  0  0  0  0  0  0
   12.9237   38.9445   32.1721 O   0  0  0  0  0  0  0  0  0  0  0  0
   11.0029   37.5725   32.0908 C   0  0  0  0  0  0  0  0  0  0  0  0
   13.3555   37.5960   32.2594 C   0  0  0  0  0  0  0  0  0  0  0  0
    9.9380   37.1846   31.2656 O   0  0  0  0  0  0  0  0  0  0  0  0
   12.1932   36.6769   31.8952 C   0  0  0  0  0  0  0  0  0  0  0  0
   13.8028   37.2977   33.6186 N   0  0  0  0  0  0  0  0  0  0  0  0
   12.2918   36.2396   30.5587 O   0  0  0  0  0  0  0  0  0  0  0  0
   14.7926   36.4727   33.9858 C   0  0  0  0  0  0  0  0  0  0  0  0
   13.2750   37.7302   34.7935 C   0  0  0  0  0  0  0  0  0  0  0  0
   15.6241   35.7586   33.1857 N   0  0  0  0  0  0  0  0  0  0  0  0
   14.8721   36.4408   35.3326 C   0  0  0  0  0  0  0  0  0  0  0  0
   13.9204   37.2263   35.8802 N   0  0  0  0  0  0  0  0  0  0  0  0
   16.5870   34.9924   33.7800 C   0  0  0  0  0  0  0  0  0  0  0  0
   15.8572   35.6717   35.9441 C   0  0  0  0  0  0  0  0  0  0  0  0
   16.7022   34.9585   35.1437 N   0  0  0  0  0  0  0  0  0  0  0  0
   16.0097   35.6384   37.3561 N   0  0  0  0  0  0  0  0  0  0  0  0
    7.6770   44.0707   34.0504 H   0  0  0  0  0  0  0  0  0  0  0  0
    9.1827   45.3822   35.3534 H   0  0  0  0  0  0  0  0  0  0  0  0
   10.3192   45.4407   34.0999 H   0  0  0  0  0  0  0  0  0  0  0  0
    9.9711   44.0680   31.9740 H   0  0  0  0  0  0  0  0  0  0  0  0
    8.4816   43.0850   31.8670 H   0  0  0  0  0  0  0  0  0  0  0  0
    8.5384   45.1361   30.4022 H   0  0  0  0  0  0  0  0  0  0  0  0
    8.5553   46.1509   31.8741 H   0  0  0  0  0  0  0  0  0  0  0  0
    6.3296   44.1799   30.9679 H   0  0  0  0  0  0  0  0  0  0  0  0
    6.3020   45.0643   32.5334 H   0  0  0  0  0  0  0  0  0  0  0  0
    4.9236   46.2673   30.9265 H   0  0  0  0  0  0  0  0  0  0  0  0
    6.2465   46.2897   29.7217 H   0  0  0  0  0  0  0  0  0  0  0  0
    6.2816   47.7534   32.4207 H   0  0  0  0  0  0  0  0  0  0  0  0
    7.8077   51.0869   29.7235 H   0  0  0  0  0  0  0  0  0  0  0  0
    9.3168   50.3492   30.3356 H   0  0  0  0  0  0  0  0  0  0  0  0
   10.6730   51.8819   31.4340 H   0  0  0  0  0  0  0  0  0  0  0  0
   11.0383   53.7393   32.9972 H   0  0  0  0  0  0  0  0  0  0  0  0
    6.8183   54.1679   33.5529 H   0  0  0  0  0  0  0  0  0  0  0  0
    9.1168   54.8730   34.0646 H   0  0  0  0  0  0  0  0  0  0  0  0
   11.2242   41.0427   31.8934 H   0  0  0  0  0  0  0  0  0  0  0  0
    9.7472   40.0378   31.9304 H   0  0  0  0  0  0  0  0  0  0  0  0
   11.5927   39.0434   30.5965 H   0  0  0  0  0  0  0  0  0  0  0  0
   10.7003   37.5442   33.1640 H   0  0  0  0  0  0  0  0  0  0  0  0
   14.2052   37.4477   31.5560 H   0  0  0  0  0  0  0  0  0  0  0  0
    9.1374   37.6722   31.5905 H   0  0  0  0  0  0  0  0  0  0  0  0
   12.1305   35.7855   32.5585 H   0  0  0  0  0  0  0  0  0  0  0  0
   12.4606   37.0186   29.9674 H   0  0  0  0  0  0  0  0  0  0  0  0
   12.4327   38.4001   34.8694 H   0  0  0  0  0  0  0  0  0  0  0  0
   17.2666   34.4146   33.1690 H   0  0  0  0  0  0  0  0  0  0  0  0
   15.3754   36.1866   37.9788 H   0  0  0  0  0  0  0  0  0  0  0  0
   16.7634   35.0601   37.7894 H   0  0  0  0  0  0  0  0  0  0  0  0
  1  2  2  0
  1  3  1  0
  3  4  1  0
  4  5  1  0
  6  1  1  0
  7  6  1  0
  6  8  1  0
  8  9  1  0
  9 10  1  0
 10 11  1  0
 11 12  1  0
 12 13  1  0
 13 14  1  0
 13 15  2  0
 14 16  1  0
 16 17  1  0
 17 18  2  0
 19 17  1  0
 18 20  1  0
 21 19  2  0
 19 22  1  0
 20 23  2  0
 23 21  1  0
 22 24  1  0
 22 25  2  0
  4 26  2  0
  4 27  1  0
 28 27  1  0
 28 29  1  0
 29 30  1  0
 29 31  1  0
 30 32  1  0
 31 33  1  0
 31 34  1  0
 34 32  1  0
 32 35  1  0
 34 36  1  0
 37 35  1  0
 38 35  1  0
 39 37  2  0
 37 40  1  0
 41 38  2  0
 42 39  1  0
 40 43  2  0
 40 41  1  0
 44 42  2  0
 44 43  1  0
 43 45  1  0
  6 46  1  6
  7 47  1  0
  7 48  1  0
  8 49  1  0
  8 50  1  0
  9 51  1  0
  9 52  1  0
 10 53  1  0
 10 54  1  0
 11 55  1  0
 11 56  1  0
 12 57  1  0
 16 58  1  0
 16 59  1  0
 18 60  1  0
 20 61  1  0
 21 62  1  0
 23 63  1  0
 28 64  1  0
 28 65  1  0
 29 66  1  0
 31 67  1  0
 32 68  1  0
 33 69  1  0
 34 70  1  0
 36 71  1  0
 38 72  1  0
 42 73  1  0
 45 74  1  0
 45 75  1  0
M  CHG  3   5  -1  22   1  24  -1
M  END
>  <EmbedRMS>  (325) 
0.075700920392

$$$$

     RDKit          3D

 75 78  0  0  0  0  0  0  0  0999 V2000
    9.4312   42.9412   34.3440 C   0  0  0  0  0  0  0  0  0  0  0  0
   10.4886   43.0411   35.0294 O   0  0  0  0  0  0  0  0  0  0  0  0
    8.8558   41.7129   34.0298 O   0  0  0  0  0  0  0  0  0  0  0  0
    9.4933   40.2164   34.4707 P   0  0  0  0  0  0  0  0  0  0  0  0
    9.7290   40.1745   36.1317 O   0  0  0  0  0  0  0  0  0  0  0  0
    8.7484   44.1360   33.7721 C   0  0  1  0  0  0  0  0  0  0  0  0
    9.3039   45.3665   34.3387 N   0  0  0  0  0  0  0  0  0  0  0  0
    8.8892   44.0518   32.2309 C   0  0  0  0  0  0  0  0  0  0  0  0
    8.2015   45.1721   31.4435 C   0  0  0  0  0  0  0  0  0  0  0  0
    6.6643   45.1066   31.4887 C   0  0  0  0  0  0  0  0  0  0  0  0
    6.0267   46.3237   30.8122 C   0  0  0  0  0  0  0  0  0  0  0  0
    6.5080   47.5646   31.4190 N   0  0  0  0  0  0  0  0  0  0  0  0
    7.2425   48.5404   30.6827 C   0  0  0  0  0  0  0  0  0  0  0  0
    7.5867   49.7464   31.3030 O   0  0  0  0  0  0  0  0  0  0  0  0
    7.5940   48.3104   29.4938 O   0  0  0  0  0  0  0  0  0  0  0  0
    8.3092   50.7850   30.6433 C   0  0  0  0  0  0  0  0  0  0  0  0
    7.4463   51.4454   29.5912 C   0  0  0  0  0  0  0  0  0  0  0  0
    6.1780   51.9174   29.9749 C   0  0  0  0  0  0  0  0  0  0  0  0
    7.8454   51.5630   28.2337 C   0  0  0  0  0  0  0  0  0  0  0  0
    5.3027   52.4571   29.0313 C   0  0  0  0  0  0  0  0  0  0  0  0
    6.9425   52.0897   27.2948 C   0  0  0  0  0  0  0  0  0  0  0  0
    9.1557   51.1783   27.7919 N   0  0  0  0  0  0  0  0  0  0  0  0
    5.6804   52.5340   27.6919 C   0  0  0  0  0  0  0  0  0  0  0  0
    9.3117   50.5732   26.5663 O   0  0  0  0  0  0  0  0  0  0  0  0
   10.1661   51.6140   28.3813 O   0  0  0  0  0  0  0  0  0  0  0  0
    8.5369   39.1403   34.0143 O   0  0  0  0  0  0  0  0  0  0  0  0
   10.9796   40.0883   33.6889 O   0  0  0  0  0  0  0  0  0  0  0  0
   10.8017   40.0949   32.2901 C   0  0  0  0  0  0  0  0  0  0  0  0
   11.5885   38.9267   31.7042 C   0  0  0  0  0  0  0  0  0  0  0  0
   12.9237   38.9445   32.1722 O   0  0  0  0  0  0  0  0  0  0  0  0
   11.0029   37.5726   32.0908 C   0  0  0  0  0  0  0  0  0  0  0  0
   13.3555   37.5960   32.2595 C   0  0  0  0  0  0  0  0  0  0  0  0
    9.9379   37.1847   31.2657 O   0  0  0  0  0  0  0  0  0  0  0  0
   12.1931   36.6769   31.8952 C   0  0  0  0  0  0  0  0  0  0  0  0
   13.8028   37.2977   33.6186 N   0  0  0  0  0  0  0  0  0  0  0  0
   12.2918   36.2396   30.5587 O   0  0  0  0  0  0  0  0  0  0  0  0
   14.7926   36.4727   33.9858 C   0  0  0  0  0  0  0  0  0  0  0  0
   13.2750   37.7302   34.7935 C   0  0  0  0  0  0  0  0  0  0  0  0
   15.6241   35.7586   33.1857 N   0  0  0  0  0  0  0  0  0  0  0  0
   14.8721   36.4408   35.3326 C   0  0  0  0  0  0  0  0  0  0  0  0
   13.9204   37.2263   35.8802 N   0  0  0  0  0  0  0  0  0  0  0  0
   16.5870   34.9925   33.7800 C   0  0  0  0  0  0  0  0  0  0  0  0
   15.8572   35.6717   35.9441 C   0  0  0  0  0  0  0  0  0  0  0  0
   16.7022   34.9585   35.1437 N   0  0  0  0  0  0  0  0  0  0  0  0
   16.0097   35.6384   37.3561 N   0  0  0  0  0  0  0  0  0  0  0  0
    7.6764   44.0635   34.0547 H   0  0  0  0  0  0  0  0  0  0  0  0
    8.6468   46.1559   34.1430 H   0  0  0  0  0  0  0  0  0  0  0  0
   10.2152   45.5879   33.8747 H   0  0  0  0  0  0  0  0  0  0  0  0
    8.4830   43.0817   31.8667 H   0  0  0  0  0  0  0  0  0  0  0  0
    9.9708   44.0642   31.9679 H   0  0  0  0  0  0  0  0  0  0  0  0
    8.5198   45.0958   30.3807 H   0  0  0  0  0  0  0  0  0  0  0  0
    8.5714   46.1487   31.8172 H   0  0  0  0  0  0  0  0  0  0  0  0
    6.3142   45.0784   32.5413 H   0  0  0  0  0  0  0  0  0  0  0  0
    6.3147   44.1801   30.9836 H   0  0  0  0  0  0  0  0  0  0  0  0
    4.9233   46.2698   30.9299 H   0  0  0  0  0  0  0  0  0  0  0  0
    6.2449   46.2897   29.7232 H   0  0  0  0  0  0  0  0  0  0  0  0
    6.2850   47.7542   32.4220 H   0  0  0  0  0  0  0  0  0  0  0  0
    8.5932   51.5495   31.3964 H   0  0  0  0  0  0  0  0  0  0  0  0
    9.2455   50.3575   30.2337 H   0  0  0  0  0  0  0  0  0  0  0  0
    5.8584   51.8483   31.0077 H   0  0  0  0  0  0  0  0  0  0  0  0
    4.3258   52.8079   29.3383 H   0  0  0  0  0  0  0  0  0  0  0  0
    7.2280   52.1800   26.2542 H   0  0  0  0  0  0  0  0  0  0  0  0
    4.9980   52.9480   26.9609 H   0  0  0  0  0  0  0  0  0  0  0  0
    9.7472   40.0378   31.9304 H   0  0  0  0  0  0  0  0  0  0  0  0
   11.2240   41.0428   31.8929 H   0  0  0  0  0  0  0  0  0  0  0  0
   11.5927   39.0434   30.5966 H   0  0  0  0  0  0  0  0  0  0  0  0
   10.7003   37.5444   33.1641 H   0  0  0  0  0  0  0  0  0  0  0  0
   14.2051   37.4477   31.5560 H   0  0  0  0  0  0  0  0  0  0  0  0
    9.1373   37.6722   31.5906 H   0  0  0  0  0  0  0  0  0  0  0  0
   12.1305   35.7856   32.5586 H   0  0  0  0  0  0  0  0  0  0  0  0
   12.4606   37.0186   29.9674 H   0  0  0  0  0  0  0  0  0  0  0  0
   12.4327   38.4001   34.8694 H   0  0  0  0  0  0  0  0  0  0  0  0
   17.2666   34.4146   33.1690 H   0  0  0  0  0  0  0  0  0  0  0  0
   16.7634   35.0601   37.7894 H   0  0  0  0  0  0  0  0  0  0  0  0
   15.3754   36.1866   37.9788 H   0  0  0  0  0  0  0  0  0  0  0  0
  1  2  2  0
  1  3  1  0
  3  4  1  0
  4  5  1  0
  6  1  1  0
  7  6  1  0
  6  8  1  0
  8  9  1  0
  9 10  1  0
 10 11  1  0
 11 12  1  0
 12 13  1  0
 13 14  1  0
 13 15  2  0
 14 16  1  0
 16 17  1  0
 17 18  2  0
 19 17  1  0
 18 20  1  0
 21 19  2  0
 19 22  1  0
 20 23  2  0
 23 21  1  0
 22 24  1  0
 22 25  2  0
  4 26  2  0
  4 27  1  0
 28 27  1  0
 28 29  1  0
 29 30  1  0
 29 31  1  0
 30 32  1  0
 31 33  1  0
 31 34  1  0
 34 32  1  0
 32 35  1  0
 34 36  1  0
 37 35  1  0
 38 35  1  0
 39 37  2  0
 37 40  1  0
 41 38  2  0
 42 39  1  0
 40 43  2  0
 40 41  1  0
 44 42  2  0
 44 43  1  0
 43 45  1  0
  6 46  1  6
  7 47  1  0
  7 48  1  0
  8 49  1  0
  8 50  1  0
  9 51  1  0
  9 52  1  0
 10 53  1  0
 10 54  1  0
 11 55  1  0
 11 56  1  0
 12 57  1  0
 16 58  1  0
 16 59  1  0
 18 60  1  0
 20 61  1  0
 21 62  1  0
 23 63  1  0
 28 64  1  0
 28 65  1  0
 29 66  1  0
 31 67  1  0
 32 68  1  0
 33 69  1  0
 34 70  1  0
 36 71  1  0
 38 72  1  0
 42 73  1  0
 45 74  1  0
 45 75  1  0
M  CHG  3   5  -1  22   1  24  -1
M  END
>  <EmbedRMS>  (326) 
0.0748602572611

$$$$

     RDKit          3D

 75 78  0  0  0  0  0  0  0  0999 V2000
    9.4332   42.9368   34.3461 C   0  0  0  0  0  0  0  0  0  0  0  0
   10.4907   43.0332   35.0318 O   0  0  0  0  0  0  0  0  0  0  0  0
    8.8563   41.7105   34.0294 O   0  0  0  0  0  0  0  0  0  0  0  0
    9.4943   40.2141   34.4678 P   0  0  0  0  0  0  0  0  0  0  0  0
    9.7310   40.1725   36.1289 O   0  0  0  0  0  0  0  0  0  0  0  0
    8.7505   44.1353   33.7741 C   0  0  1  0  0  0  0  0  0  0  0  0
    9.2961   45.3825   34.3134 N   0  0  0  0  0  0  0  0  0  0  0  0
    8.8892   44.0535   32.2359 C   0  0  0  0  0  0  0  0  0  0  0  0
    8.2028   45.1837   31.4622 C   0  0  0  0  0  0  0  0  0  0  0  0
    6.6653   45.1046   31.4834 C   0  0  0  0  0  0  0  0  0  0  0  0
    6.0278   46.3226   30.8069 C   0  0  0  0  0  0  0  0  0  0  0  0
    6.5016   47.5636   31.4198 N   0  0  0  0  0  0  0  0  0  0  0  0
    7.2567   48.5363   30.6873 C   0  0  0  0  0  0  0  0  0  0  0  0
    7.6784   49.7323   31.2795 O   0  0  0  0  0  0  0  0  0  0  0  0
    7.5849   48.3104   29.4933 O   0  0  0  0  0  0  0  0  0  0  0  0
    7.4194   50.0844   32.6352 C   0  0  0  0  0  0  0  0  0  0  0  0
    8.0979   51.3927   32.9568 C   0  0  0  0  0  0  0  0  0  0  0  0
    7.3064   52.4752   33.3845 C   0  0  0  0  0  0  0  0  0  0  0  0
    9.5006   51.5770   32.8034 C   0  0  0  0  0  0  0  0  0  0  0  0
    7.8811   53.7193   33.6463 C   0  0  0  0  0  0  0  0  0  0  0  0
   10.0547   52.8444   33.0583 C   0  0  0  0  0  0  0  0  0  0  0  0
   10.3726   50.5145   32.3723 N   0  0  0  0  0  0  0  0  0  0  0  0
    9.2516   53.9045   33.4800 C   0  0  0  0  0  0  0  0  0  0  0  0
   11.5224   50.8106   31.6767 O   0  0  0  0  0  0  0  0  0  0  0  0
   10.1912   49.3408   32.7549 O   0  0  0  0  0  0  0  0  0  0  0  0
    8.5371   39.1384   34.0121 O   0  0  0  0  0  0  0  0  0  0  0  0
   10.9798   40.0871   33.6829 O   0  0  0  0  0  0  0  0  0  0  0  0
   10.8002   40.0905   32.2832 C   0  0  0  0  0  0  0  0  0  0  0  0
   11.5958   38.9271   31.6963 C   0  0  0  0  0  0  0  0  0  0  0  0
   12.9239   38.9409   32.1766 O   0  0  0  0  0  0  0  0  0  0  0  0
   11.0062   37.5719   32.0793 C   0  0  0  0  0  0  0  0  0  0  0  0
   13.3507   37.5905   32.2614 C   0  0  0  0  0  0  0  0  0  0  0  0
    9.9064   37.1793   31.2946 O   0  0  0  0  0  0  0  0  0  0  0  0
   12.1920   36.6671   31.9003 C   0  0  0  0  0  0  0  0  0  0  0  0
   13.8017   37.2948   33.6193 N   0  0  0  0  0  0  0  0  0  0  0  0
   12.3134   36.2788   30.5560 O   0  0  0  0  0  0  0  0  0  0  0  0
   14.7927   36.4716   33.9861 C   0  0  0  0  0  0  0  0  0  0  0  0
   13.2746   37.7284   34.7941 C   0  0  0  0  0  0  0  0  0  0  0  0
   15.6240   35.7576   33.1859 N   0  0  0  0  0  0  0  0  0  0  0  0
   14.8728   36.4406   35.3330 C   0  0  0  0  0  0  0  0  0  0  0  0
   13.9209   37.2258   35.8807 N   0  0  0  0  0  0  0  0  0  0  0  0
   16.5874   34.9920   33.7802 C   0  0  0  0  0  0  0  0  0  0  0  0
   15.8579   35.6716   35.9443 C   0  0  0  0  0  0  0  0  0  0  0  0
   16.7028   34.9584   35.1439 N   0  0  0  0  0  0  0  0  0  0  0  0
   16.0103   35.6383   37.3563 N   0  0  0  0  0  0  0  0  0  0  0  0
    7.6769   44.0712   34.0502 H   0  0  0  0  0  0  0  0  0  0  0  0
   10.3188   45.4418   34.0994 H   0  0  0  0  0  0  0  0  0  0  0  0
    9.1830   45.3825   35.3536 H   0  0  0  0  0  0  0  0  0  0  0  0
    8.4815   43.0860   31.8666 H   0  0  0  0  0  0  0  0  0  0  0  0
    9.9710   44.0690   31.9741 H   0  0  0  0  0  0  0  0  0  0  0  0
    8.5403   45.1396   30.4035 H   0  0  0  0  0  0  0  0  0  0  0  0
    8.5534   46.1523   31.8770 H   0  0  0  0  0  0  0  0  0  0  0  0
    6.3314   44.1799   30.9646 H   0  0  0  0  0  0  0  0  0  0  0  0
    6.3000   45.0635   32.5305 H   0  0  0  0  0  0  0  0  0  0  0  0
    4.9238   46.2648   30.9169 H   0  0  0  0  0  0  0  0  0  0  0  0
    6.2523   46.2911   29.7192 H   0  0  0  0  0  0  0  0  0  0  0  0
    6.2595   47.7289   32.4215 H   0  0  0  0  0  0  0  0  0  0  0  0
    7.7960   49.2968   33.3212 H   0  0  0  0  0  0  0  0  0  0  0  0
    6.3197   50.1581   32.7836 H   0  0  0  0  0  0  0  0  0  0  0  0
    6.2366   52.3613   33.5092 H   0  0  0  0  0  0  0  0  0  0  0  0
    7.2605   54.5436   33.9731 H   0  0  0  0  0  0  0  0  0  0  0  0
   11.1186   53.0099   32.9448 H   0  0  0  0  0  0  0  0  0  0  0  0
    9.6940   54.8719   33.6800 H   0  0  0  0  0  0  0  0  0  0  0  0
    9.7455   40.0168   31.9263 H   0  0  0  0  0  0  0  0  0  0  0  0
   11.2116   41.0420   31.8834 H   0  0  0  0  0  0  0  0  0  0  0  0
   11.6245   39.0449   30.5888 H   0  0  0  0  0  0  0  0  0  0  0  0
   10.7050   37.5580   33.1500 H   0  0  0  0  0  0  0  0  0  0  0  0
   14.1985   37.4426   31.5553 H   0  0  0  0  0  0  0  0  0  0  0  0
   10.0893   37.4057   30.3459 H   0  0  0  0  0  0  0  0  0  0  0  0
   12.1337   35.7754   32.5703 H   0  0  0  0  0  0  0  0  0  0  0  0
   11.7934   35.4394   30.4513 H   0  0  0  0  0  0  0  0  0  0  0  0
   12.4314   38.3973   34.8700 H   0  0  0  0  0  0  0  0  0  0  0  0
   17.2669   34.4141   33.1692 H   0  0  0  0  0  0  0  0  0  0  0  0
   15.3759   36.1865   37.9790 H   0  0  0  0  0  0  0  0  0  0  0  0
   16.7638   35.0599   37.7896 H   0  0  0  0  0  0  0  0  0  0  0  0
  1  2  2  0
  1  3  1  0
  3  4  1  0
  4  5  1  0
  6  1  1  0
  7  6  1  0
  6  8  1  0
  8  9  1  0
  9 10  1  0
 10 11  1  0
 11 12  1  0
 12 13  1  0
 13 14  1  0
 13 15  2  0
 14 16  1  0
 16 17  1  0
 17 18  2  0
 19 17  1  0
 18 20  1  0
 21 19  2  0
 19 22  1  0
 20 23  2  0
 23 21  1  0
 22 24  1  0
 22 25  2  0
  4 26  2  0
  4 27  1  0
 28 27  1  0
 28 29  1  0
 29 30  1  0
 29 31  1  0
 30 32  1  0
 31 33  1  0
 31 34  1  0
 34 32  1  0
 32 35  1  0
 34 36  1  0
 37 35  1  0
 38 35  1  0
 39 37  2  0
 37 40  1  0
 41 38  2  0
 42 39  1  0
 40 43  2  0
 40 41  1  0
 44 42  2  0
 44 43  1  0
 43 45  1  0
  6 46  1  6
  7 47  1  0
  7 48  1  0
  8 49  1  0
  8 50  1  0
  9 51  1  0
  9 52  1  0
 10 53  1  0
 10 54  1  0
 11 55  1  0
 11 56  1  0
 12 57  1  0
 16 58  1  0
 16 59  1  0
 18 60  1  0
 20 61  1  0
 21 62  1  0
 23 63  1  0
 28 64  1  0
 28 65  1  0
 29 66  1  0
 31 67  1  0
 32 68  1  0
 33 69  1  0
 34 70  1  0
 36 71  1  0
 38 72  1  0
 42 73  1  0
 45 74  1  0
 45 75  1  0
M  CHG  3   5  -1  22   1  24  -1
M  END
>  <EmbedRMS>  (327) 
0.075110886973

$$$$

     RDKit          3D

 75 78  0  0  0  0  0  0  0  0999 V2000
    9.4314   42.9414   34.3433 C   0  0  0  0  0  0  0  0  0  0  0  0
   10.4887   43.0413   35.0290 O   0  0  0  0  0  0  0  0  0  0  0  0
    8.8559   41.7131   34.0294 O   0  0  0  0  0  0  0  0  0  0  0  0
    9.4933   40.2166   34.4706 P   0  0  0  0  0  0  0  0  0  0  0  0
    9.7289   40.1747   36.1316 O   0  0  0  0  0  0  0  0  0  0  0  0
    8.7486   44.1364   33.7717 C   0  0  1  0  0  0  0  0  0  0  0  0
    9.3035   45.3666   34.3391 N   0  0  0  0  0  0  0  0  0  0  0  0
    8.8898   44.0540   32.2304 C   0  0  0  0  0  0  0  0  0  0  0  0
    8.2016   45.1754   31.4445 C   0  0  0  0  0  0  0  0  0  0  0  0
    6.6642   45.1081   31.4889 C   0  0  0  0  0  0  0  0  0  0  0  0
    6.0239   46.3231   30.8104 C   0  0  0  0  0  0  0  0  0  0  0  0
    6.4998   47.5662   31.4167 N   0  0  0  0  0  0  0  0  0  0  0  0
    7.2566   48.5308   30.6887 C   0  0  0  0  0  0  0  0  0  0  0  0
    7.6655   49.7030   31.3328 O   0  0  0  0  0  0  0  0  0  0  0  0
    7.5903   48.3097   29.4930 O   0  0  0  0  0  0  0  0  0  0  0  0
    8.5937   50.6224   30.7606 C   0  0  0  0  0  0  0  0  0  0  0  0
    9.9686   49.9995   30.6687 C   0  0  0  0  0  0  0  0  0  0  0  0
   10.5931   49.9325   29.4095 C   0  0  0  0  0  0  0  0  0  0  0  0
   10.6167   49.4246   31.7960 C   0  0  0  0  0  0  0  0  0  0  0  0
   11.8269   49.2990   29.2584 C   0  0  0  0  0  0  0  0  0  0  0  0
   11.8529   48.7762   31.6166 C   0  0  0  0  0  0  0  0  0  0  0  0
   10.0361   49.4686   33.1130 N   0  0  0  0  0  0  0  0  0  0  0  0
   12.4531   48.7177   30.3585 C   0  0  0  0  0  0  0  0  0  0  0  0
    9.3766   50.5919   33.5542 O   0  0  0  0  0  0  0  0  0  0  0  0
   10.2675   48.5528   33.9292 O   0  0  0  0  0  0  0  0  0  0  0  0
    8.5369   39.1404   34.0142 O   0  0  0  0  0  0  0  0  0  0  0  0
   10.9795   40.0883   33.6888 O   0  0  0  0  0  0  0  0  0  0  0  0
   10.8018   40.0950   32.2900 C   0  0  0  0  0  0  0  0  0  0  0  0
   11.5885   38.9267   31.7041 C   0  0  0  0  0  0  0  0  0  0  0  0
   12.9237   38.9445   32.1722 O   0  0  0  0  0  0  0  0  0  0  0  0
   11.0029   37.5727   32.0908 C   0  0  0  0  0  0  0  0  0  0  0  0
   13.3555   37.5960   32.2595 C   0  0  0  0  0  0  0  0  0  0  0  0
    9.9379   37.1847   31.2657 O   0  0  0  0  0  0  0  0  0  0  0  0
   12.1931   36.6770   31.8952 C   0  0  0  0  0  0  0  0  0  0  0  0
   13.8028   37.2977   33.6186 N   0  0  0  0  0  0  0  0  0  0  0  0
   12.2918   36.2396   30.5587 O   0  0  0  0  0  0  0  0  0  0  0  0
   14.7926   36.4727   33.9858 C   0  0  0  0  0  0  0  0  0  0  0  0
   13.2750   37.7302   34.7935 C   0  0  0  0  0  0  0  0  0  0  0  0
   15.6241   35.7586   33.1857 N   0  0  0  0  0  0  0  0  0  0  0  0
   14.8721   36.4408   35.3326 C   0  0  0  0  0  0  0  0  0  0  0  0
   13.9204   37.2263   35.8802 N   0  0  0  0  0  0  0  0  0  0  0  0
   16.5870   34.9924   33.7800 C   0  0  0  0  0  0  0  0  0  0  0  0
   15.8572   35.6717   35.9441 C   0  0  0  0  0  0  0  0  0  0  0  0
   16.7022   34.9585   35.1437 N   0  0  0  0  0  0  0  0  0  0  0  0
   16.0097   35.6384   37.3561 N   0  0  0  0  0  0  0  0  0  0  0  0
    7.6765   44.0634   34.0538 H   0  0  0  0  0  0  0  0  0  0  0  0
    8.6441   46.1547   34.1462 H   0  0  0  0  0  0  0  0  0  0  0  0
   10.2132   45.5904   33.8731 H   0  0  0  0  0  0  0  0  0  0  0  0
    8.4844   43.0841   31.8650 H   0  0  0  0  0  0  0  0  0  0  0  0
    9.9715   44.0677   31.9678 H   0  0  0  0  0  0  0  0  0  0  0  0
    8.5207   45.1016   30.3818 H   0  0  0  0  0  0  0  0  0  0  0  0
    8.5702   46.1522   31.8200 H   0  0  0  0  0  0  0  0  0  0  0  0
    6.3139   45.0806   32.5415 H   0  0  0  0  0  0  0  0  0  0  0  0
    6.3164   44.1803   30.9850 H   0  0  0  0  0  0  0  0  0  0  0  0
    4.9205   46.2659   30.9259 H   0  0  0  0  0  0  0  0  0  0  0  0
    6.2441   46.2888   29.7218 H   0  0  0  0  0  0  0  0  0  0  0  0
    6.2806   47.7530   32.4211 H   0  0  0  0  0  0  0  0  0  0  0  0
    8.2207   50.9468   29.7642 H   0  0  0  0  0  0  0  0  0  0  0  0
    8.6418   51.5350   31.3884 H   0  0  0  0  0  0  0  0  0  0  0  0
   10.1177   50.3599   28.5353 H   0  0  0  0  0  0  0  0  0  0  0  0
   12.2945   49.2515   28.2833 H   0  0  0  0  0  0  0  0  0  0  0  0
   12.3623   48.3254   32.4590 H   0  0  0  0  0  0  0  0  0  0  0  0
   13.4076   48.2219   30.2372 H   0  0  0  0  0  0  0  0  0  0  0  0
    9.7472   40.0379   31.9303 H   0  0  0  0  0  0  0  0  0  0  0  0
   11.2241   41.0428   31.8929 H   0  0  0  0  0  0  0  0  0  0  0  0
   11.5927   39.0434   30.5966 H   0  0  0  0  0  0  0  0  0  0  0  0
   10.7003   37.5444   33.1640 H   0  0  0  0  0  0  0  0  0  0  0  0
   14.2051   37.4477   31.5560 H   0  0  0  0  0  0  0  0  0  0  0  0
    9.1374   37.6723   31.5905 H   0  0  0  0  0  0  0  0  0  0  0  0
   12.1305   35.7856   32.5586 H   0  0  0  0  0  0  0  0  0  0  0  0
   12.4606   37.0186   29.9674 H   0  0  0  0  0  0  0  0  0  0  0  0
   12.4327   38.4001   34.8694 H   0  0  0  0  0  0  0  0  0  0  0  0
   17.2666   34.4146   33.1690 H   0  0  0  0  0  0  0  0  0  0  0  0
   15.3754   36.1866   37.9788 H   0  0  0  0  0  0  0  0  0  0  0  0
   16.7633   35.0601   37.7894 H   0  0  0  0  0  0  0  0  0  0  0  0
  1  2  2  0
  1  3  1  0
  3  4  1  0
  4  5  1  0
  6  1  1  0
  7  6  1  0
  6  8  1  0
  8  9  1  0
  9 10  1  0
 10 11  1  0
 11 12  1  0
 12 13  1  0
 13 14  1  0
 13 15  2  0
 14 16  1  0
 16 17  1  0
 17 18  2  0
 19 17  1  0
 18 20  1  0
 21 19  2  0
 19 22  1  0
 20 23  2  0
 23 21  1  0
 22 24  1  0
 22 25  2  0
  4 26  2  0
  4 27  1  0
 28 27  1  0
 28 29  1  0
 29 30  1  0
 29 31  1  0
 30 32  1  0
 31 33  1  0
 31 34  1  0
 34 32  1  0
 32 35  1  0
 34 36  1  0
 37 35  1  0
 38 35  1  0
 39 37  2  0
 37 40  1  0
 41 38  2  0
 42 39  1  0
 40 43  2  0
 40 41  1  0
 44 42  2  0
 44 43  1  0
 43 45  1  0
  6 46  1  6
  7 47  1  0
  7 48  1  0
  8 49  1  0
  8 50  1  0
  9 51  1  0
  9 52  1  0
 10 53  1  0
 10 54  1  0
 11 55  1  0
 11 56  1  0
 12 57  1  0
 16 58  1  0
 16 59  1  0
 18 60  1  0
 20 61  1  0
 21 62  1  0
 23 63  1  0
 28 64  1  0
 28 65  1  0
 29 66  1  0
 31 67  1  0
 32 68  1  0
 33 69  1  0
 34 70  1  0
 36 71  1  0
 38 72  1  0
 42 73  1  0
 45 74  1  0
 45 75  1  0
M  CHG  3   5  -1  22   1  24  -1
M  END
>  <EmbedRMS>  (328) 
0.0753084829052

$$$$

     RDKit          3D

 75 78  0  0  0  0  0  0  0  0999 V2000
    9.4301   42.9393   34.3434 C   0  0  0  0  0  0  0  0  0  0  0  0
   10.4913   43.0379   35.0235 O   0  0  0  0  0  0  0  0  0  0  0  0
    8.8550   41.7115   34.0282 O   0  0  0  0  0  0  0  0  0  0  0  0
    9.4942   40.2154   34.4674 P   0  0  0  0  0  0  0  0  0  0  0  0
    9.7309   40.1738   36.1286 O   0  0  0  0  0  0  0  0  0  0  0  0
    8.7413   44.1377   33.7786 C   0  0  1  0  0  0  0  0  0  0  0  0
    9.3017   45.3717   34.3326 N   0  0  0  0  0  0  0  0  0  0  0  0
    8.8963   44.0592   32.2399 C   0  0  0  0  0  0  0  0  0  0  0  0
    8.2026   45.1687   31.4401 C   0  0  0  0  0  0  0  0  0  0  0  0
    6.6653   45.1062   31.4910 C   0  0  0  0  0  0  0  0  0  0  0  0
    6.0274   46.3221   30.8121 C   0  0  0  0  0  0  0  0  0  0  0  0
    6.5070   47.5640   31.4184 N   0  0  0  0  0  0  0  0  0  0  0  0
    7.2444   48.5388   30.6835 C   0  0  0  0  0  0  0  0  0  0  0  0
    7.5982   49.7379   31.3076 O   0  0  0  0  0  0  0  0  0  0  0  0
    7.5927   48.3116   29.4932 O   0  0  0  0  0  0  0  0  0  0  0  0
    8.3532   50.7541   30.6533 C   0  0  0  0  0  0  0  0  0  0  0  0
    8.6228   51.8846   31.6163 C   0  0  0  0  0  0  0  0  0  0  0  0
    9.1722   51.5711   32.8731 C   0  0  0  0  0  0  0  0  0  0  0  0
    8.3151   53.2370   31.3152 C   0  0  0  0  0  0  0  0  0  0  0  0
    9.3704   52.5651   33.8327 C   0  0  0  0  0  0  0  0  0  0  0  0
    8.5036   54.2213   32.3016 C   0  0  0  0  0  0  0  0  0  0  0  0
    7.8509   53.6336   30.0157 N   0  0  0  0  0  0  0  0  0  0  0  0
    9.0268   53.8861   33.5512 C   0  0  0  0  0  0  0  0  0  0  0  0
    8.5383   53.2374   28.8916 O   0  0  0  0  0  0  0  0  0  0  0  0
    6.9824   54.5240   29.9086 O   0  0  0  0  0  0  0  0  0  0  0  0
    8.5374   39.1390   34.0122 O   0  0  0  0  0  0  0  0  0  0  0  0
   10.9797   40.0878   33.6827 O   0  0  0  0  0  0  0  0  0  0  0  0
   10.8002   40.0907   32.2830 C   0  0  0  0  0  0  0  0  0  0  0  0
   11.5958   38.9271   31.6963 C   0  0  0  0  0  0  0  0  0  0  0  0
   12.9239   38.9409   32.1767 O   0  0  0  0  0  0  0  0  0  0  0  0
   11.0062   37.5719   32.0794 C   0  0  0  0  0  0  0  0  0  0  0  0
   13.3506   37.5905   32.2614 C   0  0  0  0  0  0  0  0  0  0  0  0
    9.9064   37.1793   31.2946 O   0  0  0  0  0  0  0  0  0  0  0  0
   12.1920   36.6672   31.9003 C   0  0  0  0  0  0  0  0  0  0  0  0
   13.8017   37.2948   33.6193 N   0  0  0  0  0  0  0  0  0  0  0  0
   12.3133   36.2788   30.5561 O   0  0  0  0  0  0  0  0  0  0  0  0
   14.7927   36.4716   33.9862 C   0  0  0  0  0  0  0  0  0  0  0  0
   13.2746   37.7284   34.7941 C   0  0  0  0  0  0  0  0  0  0  0  0
   15.6240   35.7576   33.1859 N   0  0  0  0  0  0  0  0  0  0  0  0
   14.8728   36.4406   35.3330 C   0  0  0  0  0  0  0  0  0  0  0  0
   13.9209   37.2258   35.8808 N   0  0  0  0  0  0  0  0  0  0  0  0
   16.5874   34.9920   33.7802 C   0  0  0  0  0  0  0  0  0  0  0  0
   15.8579   35.6716   35.9443 C   0  0  0  0  0  0  0  0  0  0  0  0
   16.7028   34.9584   35.1439 N   0  0  0  0  0  0  0  0  0  0  0  0
   16.0103   35.6383   37.3563 N   0  0  0  0  0  0  0  0  0  0  0  0
    7.6669   44.0652   34.0548 H   0  0  0  0  0  0  0  0  0  0  0  0
    8.6811   46.1668   34.0588 H   0  0  0  0  0  0  0  0  0  0  0  0
    9.2335   45.3273   35.3760 H   0  0  0  0  0  0  0  0  0  0  0  0
    9.9810   44.0908   31.9915 H   0  0  0  0  0  0  0  0  0  0  0  0
    8.5085   43.0839   31.8695 H   0  0  0  0  0  0  0  0  0  0  0  0
    8.5157   45.0756   30.3771 H   0  0  0  0  0  0  0  0  0  0  0  0
    8.5767   46.1514   31.7921 H   0  0  0  0  0  0  0  0  0  0  0  0
    6.3126   44.1780   30.9913 H   0  0  0  0  0  0  0  0  0  0  0  0
    6.3181   45.0835   32.5446 H   0  0  0  0  0  0  0  0  0  0  0  0
    4.9240   46.2675   30.9286 H   0  0  0  0  0  0  0  0  0  0  0  0
    6.2471   46.2872   29.7234 H   0  0  0  0  0  0  0  0  0  0  0  0
    6.2848   47.7529   32.4217 H   0  0  0  0  0  0  0  0  0  0  0  0
    9.3254   50.3342   30.3158 H   0  0  0  0  0  0  0  0  0  0  0  0
    7.7840   51.0892   29.7638 H   0  0  0  0  0  0  0  0  0  0  0  0
    9.4312   50.5478   33.1174 H   0  0  0  0  0  0  0  0  0  0  0  0
    9.7844   52.3086   34.7994 H   0  0  0  0  0  0  0  0  0  0  0  0
    8.2695   55.2573   32.0908 H   0  0  0  0  0  0  0  0  0  0  0  0
    9.1777   54.6547   34.2983 H   0  0  0  0  0  0  0  0  0  0  0  0
    9.7454   40.0168   31.9261 H   0  0  0  0  0  0  0  0  0  0  0  0
   11.2115   41.0420   31.8828 H   0  0  0  0  0  0  0  0  0  0  0  0
   11.6246   39.0448   30.5888 H   0  0  0  0  0  0  0  0  0  0  0  0
   10.7050   37.5581   33.1500 H   0  0  0  0  0  0  0  0  0  0  0  0
   14.1985   37.4426   31.5553 H   0  0  0  0  0  0  0  0  0  0  0  0
   10.0893   37.4057   30.3459 H   0  0  0  0  0  0  0  0  0  0  0  0
   12.1337   35.7754   32.5703 H   0  0  0  0  0  0  0  0  0  0  0  0
   11.7934   35.4394   30.4514 H   0  0  0  0  0  0  0  0  0  0  0  0
   12.4314   38.3973   34.8699 H   0  0  0  0  0  0  0  0  0  0  0  0
   17.2669   34.4142   33.1692 H   0  0  0  0  0  0  0  0  0  0  0  0
   16.7638   35.0599   37.7896 H   0  0  0  0  0  0  0  0  0  0  0  0
   15.3759   36.1864   37.9790 H   0  0  0  0  0  0  0  0  0  0  0  0
  1  2  2  0
  1  3  1  0
  3  4  1  0
  4  5  1  0
  6  1  1  0
  7  6  1  0
  6  8  1  0
  8  9  1  0
  9 10  1  0
 10 11  1  0
 11 12  1  0
 12 13  1  0
 13 14  1  0
 13 15  2  0
 14 16  1  0
 16 17  1  0
 17 18  2  0
 19 17  1  0
 18 20  1  0
 21 19  2  0
 19 22  1  0
 20 23  2  0
 23 21  1  0
 22 24  1  0
 22 25  2  0
  4 26  2  0
  4 27  1  0
 28 27  1  0
 28 29  1  0
 29 30  1  0
 29 31  1  0
 30 32  1  0
 31 33  1  0
 31 34  1  0
 34 32  1  0
 32 35  1  0
 34 36  1  0
 37 35  1  0
 38 35  1  0
 39 37  2  0
 37 40  1  0
 41 38  2  0
 42 39  1  0
 40 43  2  0
 40 41  1  0
 44 42  2  0
 44 43  1  0
 43 45  1  0
  6 46  1  6
  7 47  1  0
  7 48  1  0
  8 49  1  0
  8 50  1  0
  9 51  1  0
  9 52  1  0
 10 53  1  0
 10 54  1  0
 11 55  1  0
 11 56  1  0
 12 57  1  0
 16 58  1  0
 16 59  1  0
 18 60  1  0
 20 61  1  0
 21 62  1  0
 23 63  1  0
 28 64  1  0
 28 65  1  0
 29 66  1  0
 31 67  1  0
 32 68  1  0
 33 69  1  0
 34 70  1  0
 36 71  1  0
 38 72  1  0
 42 73  1  0
 45 74  1  0
 45 75  1  0
M  CHG  3   5  -1  22   1  24  -1
M  END
>  <EmbedRMS>  (329) 
0.0741408270332

$$$$

     RDKit          3D

 75 78  0  0  0  0  0  0  0  0999 V2000
    9.4312   42.9415   34.3439 C   0  0  0  0  0  0  0  0  0  0  0  0
   10.4886   43.0413   35.0294 O   0  0  0  0  0  0  0  0  0  0  0  0
    8.8558   41.7132   34.0297 O   0  0  0  0  0  0  0  0  0  0  0  0
    9.4933   40.2166   34.4707 P   0  0  0  0  0  0  0  0  0  0  0  0
    9.7290   40.1746   36.1316 O   0  0  0  0  0  0  0  0  0  0  0  0
    8.7485   44.1365   33.7721 C   0  0  1  0  0  0  0  0  0  0  0  0
    9.3042   45.3671   34.3386 N   0  0  0  0  0  0  0  0  0  0  0  0
    8.8892   44.0525   32.2308 C   0  0  0  0  0  0  0  0  0  0  0  0
    8.2012   45.1730   31.4438 C   0  0  0  0  0  0  0  0  0  0  0  0
    6.6638   45.1067   31.4884 C   0  0  0  0  0  0  0  0  0  0  0  0
    6.0254   46.3229   30.8106 C   0  0  0  0  0  0  0  0  0  0  0  0
    6.5041   47.5645   31.4176 N   0  0  0  0  0  0  0  0  0  0  0  0
    7.2519   48.5345   30.6871 C   0  0  0  0  0  0  0  0  0  0  0  0
    7.6390   49.7156   31.3247 O   0  0  0  0  0  0  0  0  0  0  0  0
    7.5903   48.3129   29.4928 O   0  0  0  0  0  0  0  0  0  0  0  0
    8.4464   50.7027   30.6924 C   0  0  0  0  0  0  0  0  0  0  0  0
    8.7512   51.8040   31.6735 C   0  0  0  0  0  0  0  0  0  0  0  0
    7.9792   52.9790   31.6257 C   0  0  0  0  0  0  0  0  0  0  0  0
    9.8046   51.7022   32.6216 C   0  0  0  0  0  0  0  0  0  0  0  0
    8.2511   54.0452   32.4837 C   0  0  0  0  0  0  0  0  0  0  0  0
   10.0709   52.7959   33.4665 C   0  0  0  0  0  0  0  0  0  0  0  0
   10.6170   50.5185   32.7328 N   0  0  0  0  0  0  0  0  0  0  0  0
    9.2979   53.9558   33.3988 C   0  0  0  0  0  0  0  0  0  0  0  0
   10.0557   49.2673   32.6270 O   0  0  0  0  0  0  0  0  0  0  0  0
   11.8096   50.6105   33.0907 O   0  0  0  0  0  0  0  0  0  0  0  0
    8.5369   39.1405   34.0143 O   0  0  0  0  0  0  0  0  0  0  0  0
   10.9795   40.0883   33.6889 O   0  0  0  0  0  0  0  0  0  0  0  0
   10.8017   40.0950   32.2900 C   0  0  0  0  0  0  0  0  0  0  0  0
   11.5885   38.9267   31.7042 C   0  0  0  0  0  0  0  0  0  0  0  0
   12.9237   38.9445   32.1722 O   0  0  0  0  0  0  0  0  0  0  0  0
   11.0029   37.5726   32.0908 C   0  0  0  0  0  0  0  0  0  0  0  0
   13.3555   37.5960   32.2595 C   0  0  0  0  0  0  0  0  0  0  0  0
    9.9379   37.1847   31.2657 O   0  0  0  0  0  0  0  0  0  0  0  0
   12.1931   36.6769   31.8952 C   0  0  0  0  0  0  0  0  0  0  0  0
   13.8028   37.2977   33.6186 N   0  0  0  0  0  0  0  0  0  0  0  0
   12.2918   36.2396   30.5587 O   0  0  0  0  0  0  0  0  0  0  0  0
   14.7926   36.4727   33.9858 C   0  0  0  0  0  0  0  0  0  0  0  0
   13.2750   37.7302   34.7935 C   0  0  0  0  0  0  0  0  0  0  0  0
   15.6241   35.7586   33.1857 N   0  0  0  0  0  0  0  0  0  0  0  0
   14.8721   36.4408   35.3326 C   0  0  0  0  0  0  0  0  0  0  0  0
   13.9204   37.2263   35.8802 N   0  0  0  0  0  0  0  0  0  0  0  0
   16.5870   34.9925   33.7800 C   0  0  0  0  0  0  0  0  0  0  0  0
   15.8572   35.6717   35.9441 C   0  0  0  0  0  0  0  0  0  0  0  0
   16.7022   34.9585   35.1437 N   0  0  0  0  0  0  0  0  0  0  0  0
   16.0097   35.6384   37.3561 N   0  0  0  0  0  0  0  0  0  0  0  0
    7.6765   44.0642   34.0547 H   0  0  0  0  0  0  0  0  0  0  0  0
    8.6472   46.1566   34.1432 H   0  0  0  0  0  0  0  0  0  0  0  0
   10.2153   45.5888   33.8742 H   0  0  0  0  0  0  0  0  0  0  0  0
    9.9707   44.0651   31.9678 H   0  0  0  0  0  0  0  0  0  0  0  0
    8.4831   43.0824   31.8666 H   0  0  0  0  0  0  0  0  0  0  0  0
    8.5704   46.1497   31.8183 H   0  0  0  0  0  0  0  0  0  0  0  0
    8.5200   45.0975   30.3811 H   0  0  0  0  0  0  0  0  0  0  0  0
    6.3152   44.1796   30.9838 H   0  0  0  0  0  0  0  0  0  0  0  0
    6.3135   45.0789   32.5410 H   0  0  0  0  0  0  0  0  0  0  0  0
    4.9219   46.2676   30.9268 H   0  0  0  0  0  0  0  0  0  0  0  0
    6.2452   46.2889   29.7220 H   0  0  0  0  0  0  0  0  0  0  0  0
    6.2842   47.7513   32.4218 H   0  0  0  0  0  0  0  0  0  0  0  0
    7.9027   51.1048   29.8092 H   0  0  0  0  0  0  0  0  0  0  0  0
    9.3906   50.2522   30.3169 H   0  0  0  0  0  0  0  0  0  0  0  0
    7.1657   53.0737   30.9168 H   0  0  0  0  0  0  0  0  0  0  0  0
    7.6513   54.9450   32.4352 H   0  0  0  0  0  0  0  0  0  0  0  0
   10.8715   52.7437   34.1936 H   0  0  0  0  0  0  0  0  0  0  0  0
    9.5090   54.7858   34.0608 H   0  0  0  0  0  0  0  0  0  0  0  0
   11.2240   41.0428   31.8929 H   0  0  0  0  0  0  0  0  0  0  0  0
    9.7472   40.0379   31.9304 H   0  0  0  0  0  0  0  0  0  0  0  0
   11.5927   39.0434   30.5966 H   0  0  0  0  0  0  0  0  0  0  0  0
   10.7003   37.5444   33.1641 H   0  0  0  0  0  0  0  0  0  0  0  0
   14.2051   37.4477   31.5560 H   0  0  0  0  0  0  0  0  0  0  0  0
    9.1373   37.6722   31.5906 H   0  0  0  0  0  0  0  0  0  0  0  0
   12.1305   35.7856   32.5586 H   0  0  0  0  0  0  0  0  0  0  0  0
   12.4606   37.0186   29.9674 H   0  0  0  0  0  0  0  0  0  0  0  0
   12.4327   38.4001   34.8694 H   0  0  0  0  0  0  0  0  0  0  0  0
   17.2666   34.4146   33.1690 H   0  0  0  0  0  0  0  0  0  0  0  0
   16.7634   35.0601   37.7894 H   0  0  0  0  0  0  0  0  0  0  0  0
   15.3754   36.1866   37.9788 H   0  0  0  0  0  0  0  0  0  0  0  0
  1  2  2  0
  1  3  1  0
  3  4  1  0
  4  5  1  0
  6  1  1  0
  7  6  1  0
  6  8  1  0
  8  9  1  0
  9 10  1  0
 10 11  1  0
 11 12  1  0
 12 13  1  0
 13 14  1  0
 13 15  2  0
 14 16  1  0
 16 17  1  0
 17 18  2  0
 19 17  1  0
 18 20  1  0
 21 19  2  0
 19 22  1  0
 20 23  2  0
 23 21  1  0
 22 24  1  0
 22 25  2  0
  4 26  2  0
  4 27  1  0
 28 27  1  0
 28 29  1  0
 29 30  1  0
 29 31  1  0
 30 32  1  0
 31 33  1  0
 31 34  1  0
 34 32  1  0
 32 35  1  0
 34 36  1  0
 37 35  1  0
 38 35  1  0
 39 37  2  0
 37 40  1  0
 41 38  2  0
 42 39  1  0
 40 43  2  0
 40 41  1  0
 44 42  2  0
 44 43  1  0
 43 45  1  0
  6 46  1  6
  7 47  1  0
  7 48  1  0
  8 49  1  0
  8 50  1  0
  9 51  1  0
  9 52  1  0
 10 53  1  0
 10 54  1  0
 11 55  1  0
 11 56  1  0
 12 57  1  0
 16 58  1  0
 16 59  1  0
 18 60  1  0
 20 61  1  0
 21 62  1  0
 23 63  1  0
 28 64  1  0
 28 65  1  0
 29 66  1  0
 31 67  1  0
 32 68  1  0
 33 69  1  0
 34 70  1  0
 36 71  1  0
 38 72  1  0
 42 73  1  0
 45 74  1  0
 45 75  1  0
M  CHG  3   5  -1  22   1  24  -1
M  END
>  <EmbedRMS>  (330) 
0.0751011115813

$$$$

     RDKit          3D

 75 78  0  0  0  0  0  0  0  0999 V2000
    9.4331   42.9365   34.3462 C   0  0  0  0  0  0  0  0  0  0  0  0
   10.4907   43.0329   35.0318 O   0  0  0  0  0  0  0  0  0  0  0  0
    8.8558   41.7103   34.0299 O   0  0  0  0  0  0  0  0  0  0  0  0
    9.4944   40.2141   34.4677 P   0  0  0  0  0  0  0  0  0  0  0  0
    9.7317   40.1723   36.1287 O   0  0  0  0  0  0  0  0  0  0  0  0
    8.7506   44.1348   33.7741 C   0  0  1  0  0  0  0  0  0  0  0  0
    9.2963   45.3820   34.3133 N   0  0  0  0  0  0  0  0  0  0  0  0
    8.8893   44.0527   32.2358 C   0  0  0  0  0  0  0  0  0  0  0  0
    8.2028   45.1822   31.4614 C   0  0  0  0  0  0  0  0  0  0  0  0
    6.6654   45.1046   31.4854 C   0  0  0  0  0  0  0  0  0  0  0  0
    6.0272   46.3228   30.8107 C   0  0  0  0  0  0  0  0  0  0  0  0
    6.5071   47.5639   31.4183 N   0  0  0  0  0  0  0  0  0  0  0  0
    7.2415   48.5404   30.6828 C   0  0  0  0  0  0  0  0  0  0  0  0
    7.5830   49.7466   31.3035 O   0  0  0  0  0  0  0  0  0  0  0  0
    7.5944   48.3108   29.4942 O   0  0  0  0  0  0  0  0  0  0  0  0
    8.2903   50.7943   30.6420 C   0  0  0  0  0  0  0  0  0  0  0  0
    7.4275   51.4395   29.5817 C   0  0  0  0  0  0  0  0  0  0  0  0
    7.9035   51.4759   28.2579 C   0  0  0  0  0  0  0  0  0  0  0  0
    6.1380   51.9634   29.8696 C   0  0  0  0  0  0  0  0  0  0  0  0
    7.1203   52.0075   27.2329 C   0  0  0  0  0  0  0  0  0  0  0  0
    5.3596   52.4810   28.8177 C   0  0  0  0  0  0  0  0  0  0  0  0
    5.5963   51.9612   31.2033 N   0  0  0  0  0  0  0  0  0  0  0  0
    5.8495   52.5055   27.5115 C   0  0  0  0  0  0  0  0  0  0  0  0
    6.3909   52.2579   32.2858 O   0  0  0  0  0  0  0  0  0  0  0  0
    4.3653   51.8471   31.3778 O   0  0  0  0  0  0  0  0  0  0  0  0
    8.5373   39.1382   34.0122 O   0  0  0  0  0  0  0  0  0  0  0  0
   10.9795   40.0889   33.6815 O   0  0  0  0  0  0  0  0  0  0  0  0
   10.7982   40.0848   32.2819 C   0  0  0  0  0  0  0  0  0  0  0  0
   11.5886   38.9142   31.7009 C   0  0  0  0  0  0  0  0  0  0  0  0
   12.9214   38.9367   32.1698 O   0  0  0  0  0  0  0  0  0  0  0  0
   11.0047   37.5660   32.0990 C   0  0  0  0  0  0  0  0  0  0  0  0
   13.3511   37.5885   32.2601 C   0  0  0  0  0  0  0  0  0  0  0  0
    9.9296   37.1961   31.2780 O   0  0  0  0  0  0  0  0  0  0  0  0
   12.1923   36.6658   31.9047 C   0  0  0  0  0  0  0  0  0  0  0  0
   13.8033   37.2966   33.6188 N   0  0  0  0  0  0  0  0  0  0  0  0
   12.3007   36.2864   30.5561 O   0  0  0  0  0  0  0  0  0  0  0  0
   14.7933   36.4724   33.9860 C   0  0  0  0  0  0  0  0  0  0  0  0
   13.2753   37.7296   34.7935 C   0  0  0  0  0  0  0  0  0  0  0  0
   15.6243   35.7579   33.1860 N   0  0  0  0  0  0  0  0  0  0  0  0
   14.8728   36.4410   35.3328 C   0  0  0  0  0  0  0  0  0  0  0  0
   13.9209   37.2263   35.8804 N   0  0  0  0  0  0  0  0  0  0  0  0
   16.5873   34.9919   33.7803 C   0  0  0  0  0  0  0  0  0  0  0  0
   15.8577   35.6716   35.9443 C   0  0  0  0  0  0  0  0  0  0  0  0
   16.7025   34.9583   35.1440 N   0  0  0  0  0  0  0  0  0  0  0  0
   16.0100   35.6384   37.3563 N   0  0  0  0  0  0  0  0  0  0  0  0
    7.6770   44.0707   34.0504 H   0  0  0  0  0  0  0  0  0  0  0  0
   10.3192   45.4405   34.1000 H   0  0  0  0  0  0  0  0  0  0  0  0
    9.1827   45.3820   35.3535 H   0  0  0  0  0  0  0  0  0  0  0  0
    9.9711   44.0680   31.9739 H   0  0  0  0  0  0  0  0  0  0  0  0
    8.4816   43.0850   31.8668 H   0  0  0  0  0  0  0  0  0  0  0  0
    8.5385   45.1361   30.4021 H   0  0  0  0  0  0  0  0  0  0  0  0
    8.5554   46.1509   31.8740 H   0  0  0  0  0  0  0  0  0  0  0  0
    6.3296   44.1801   30.9675 H   0  0  0  0  0  0  0  0  0  0  0  0
    6.3020   45.0641   32.5332 H   0  0  0  0  0  0  0  0  0  0  0  0
    4.9238   46.2679   30.9270 H   0  0  0  0  0  0  0  0  0  0  0  0
    6.2463   46.2901   29.7218 H   0  0  0  0  0  0  0  0  0  0  0  0
    6.2816   47.7539   32.4207 H   0  0  0  0  0  0  0  0  0  0  0  0
    8.5924   51.5587   31.3862 H   0  0  0  0  0  0  0  0  0  0  0  0
    9.2322   50.3857   30.2141 H   0  0  0  0  0  0  0  0  0  0  0  0
    8.8820   51.0812   28.0132 H   0  0  0  0  0  0  0  0  0  0  0  0
    7.4977   52.0270   26.2186 H   0  0  0  0  0  0  0  0  0  0  0  0
    4.3728   52.8815   29.0129 H   0  0  0  0  0  0  0  0  0  0  0  0
    5.2424   52.9135   26.7137 H   0  0  0  0  0  0  0  0  0  0  0  0
    9.7427   40.0140   31.9266 H   0  0  0  0  0  0  0  0  0  0  0  0
   11.2131   41.0320   31.8757 H   0  0  0  0  0  0  0  0  0  0  0  0
   11.5980   39.0108   30.5904 H   0  0  0  0  0  0  0  0  0  0  0  0
   10.7009   37.5601   33.1721 H   0  0  0  0  0  0  0  0  0  0  0  0
   14.1977   37.4380   31.5532 H   0  0  0  0  0  0  0  0  0  0  0  0
    9.5181   36.3960   31.6977 H   0  0  0  0  0  0  0  0  0  0  0  0
   12.1419   35.7697   32.5692 H   0  0  0  0  0  0  0  0  0  0  0  0
   11.7730   35.4523   30.4488 H   0  0  0  0  0  0  0  0  0  0  0  0
   12.4321   38.3984   34.8692 H   0  0  0  0  0  0  0  0  0  0  0  0
   17.2667   34.4138   33.1694 H   0  0  0  0  0  0  0  0  0  0  0  0
   15.3757   36.1867   37.9790 H   0  0  0  0  0  0  0  0  0  0  0  0
   16.7634   35.0598   37.7897 H   0  0  0  0  0  0  0  0  0  0  0  0
  1  2  2  0
  1  3  1  0
  3  4  1  0
  4  5  1  0
  6  1  1  0
  7  6  1  0
  6  8  1  0
  8  9  1  0
  9 10  1  0
 10 11  1  0
 11 12  1  0
 12 13  1  0
 13 14  1  0
 13 15  2  0
 14 16  1  0
 16 17  1  0
 17 18  2  0
 19 17  1  0
 18 20  1  0
 21 19  2  0
 19 22  1  0
 20 23  2  0
 23 21  1  0
 22 24  1  0
 22 25  2  0
  4 26  2  0
  4 27  1  0
 28 27  1  0
 28 29  1  0
 29 30  1  0
 29 31  1  0
 30 32  1  0
 31 33  1  0
 31 34  1  0
 34 32  1  0
 32 35  1  0
 34 36  1  0
 37 35  1  0
 38 35  1  0
 39 37  2  0
 37 40  1  0
 41 38  2  0
 42 39  1  0
 40 43  2  0
 40 41  1  0
 44 42  2  0
 44 43  1  0
 43 45  1  0
  6 46  1  6
  7 47  1  0
  7 48  1  0
  8 49  1  0
  8 50  1  0
  9 51  1  0
  9 52  1  0
 10 53  1  0
 10 54  1  0
 11 55  1  0
 11 56  1  0
 12 57  1  0
 16 58  1  0
 16 59  1  0
 18 60  1  0
 20 61  1  0
 21 62  1  0
 23 63  1  0
 28 64  1  0
 28 65  1  0
 29 66  1  0
 31 67  1  0
 32 68  1  0
 33 69  1  0
 34 70  1  0
 36 71  1  0
 38 72  1  0
 42 73  1  0
 45 74  1  0
 45 75  1  0
M  CHG  3   5  -1  22   1  24  -1
M  END
>  <EmbedRMS>  (331) 
0.0743490116109

$$$$

     RDKit          3D

 75 78  0  0  0  0  0  0  0  0999 V2000
    9.4298   42.9396   34.3435 C   0  0  0  0  0  0  0  0  0  0  0  0
   10.4908   43.0383   35.0240 O   0  0  0  0  0  0  0  0  0  0  0  0
    8.8544   41.7117   34.0292 O   0  0  0  0  0  0  0  0  0  0  0  0
    9.4929   40.2158   34.4704 P   0  0  0  0  0  0  0  0  0  0  0  0
    9.7287   40.1744   36.1314 O   0  0  0  0  0  0  0  0  0  0  0  0
    8.7421   44.1377   33.7778 C   0  0  1  0  0  0  0  0  0  0  0  0
    9.3053   45.3698   34.3305 N   0  0  0  0  0  0  0  0  0  0  0  0
    8.8966   44.0592   32.2391 C   0  0  0  0  0  0  0  0  0  0  0  0
    8.2028   45.1687   31.4385 C   0  0  0  0  0  0  0  0  0  0  0  0
    6.6657   45.1087   31.4927 C   0  0  0  0  0  0  0  0  0  0  0  0
    6.0295   46.3228   30.8093 C   0  0  0  0  0  0  0  0  0  0  0  0
    6.4999   47.5668   31.4197 N   0  0  0  0  0  0  0  0  0  0  0  0
    7.2374   48.5464   30.6804 C   0  0  0  0  0  0  0  0  0  0  0  0
    7.5758   49.7903   31.2298 O   0  0  0  0  0  0  0  0  0  0  0  0
    7.6008   48.2988   29.5010 O   0  0  0  0  0  0  0  0  0  0  0  0
    7.2070   50.2595   32.5255 C   0  0  0  0  0  0  0  0  0  0  0  0
    8.0399   49.6248   33.6176 C   0  0  0  0  0  0  0  0  0  0  0  0
    7.3880   48.8840   34.6224 C   0  0  0  0  0  0  0  0  0  0  0  0
    9.4351   49.8608   33.7343 C   0  0  0  0  0  0  0  0  0  0  0  0
    8.1015   48.3611   35.7017 C   0  0  0  0  0  0  0  0  0  0  0  0
   10.1354   49.3283   34.8307 C   0  0  0  0  0  0  0  0  0  0  0  0
   10.1437   50.6823   32.7941 N   0  0  0  0  0  0  0  0  0  0  0  0
    9.4739   48.5774   35.8025 C   0  0  0  0  0  0  0  0  0  0  0  0
   10.1367   50.3678   31.4561 O   0  0  0  0  0  0  0  0  0  0  0  0
   10.9617   51.5300   33.2071 O   0  0  0  0  0  0  0  0  0  0  0  0
    8.5369   39.1393   34.0142 O   0  0  0  0  0  0  0  0  0  0  0  0
   10.9793   40.0883   33.6887 O   0  0  0  0  0  0  0  0  0  0  0  0
   10.8017   40.0949   32.2899 C   0  0  0  0  0  0  0  0  0  0  0  0
   11.5885   38.9266   31.7041 C   0  0  0  0  0  0  0  0  0  0  0  0
   12.9236   38.9445   32.1722 O   0  0  0  0  0  0  0  0  0  0  0  0
   11.0029   37.5726   32.0908 C   0  0  0  0  0  0  0  0  0  0  0  0
   13.3555   37.5960   32.2595 C   0  0  0  0  0  0  0  0  0  0  0  0
    9.9379   37.1846   31.2657 O   0  0  0  0  0  0  0  0  0  0  0  0
   12.1931   36.6769   31.8952 C   0  0  0  0  0  0  0  0  0  0  0  0
   13.8028   37.2977   33.6186 N   0  0  0  0  0  0  0  0  0  0  0  0
   12.2918   36.2396   30.5587 O   0  0  0  0  0  0  0  0  0  0  0  0
   14.7926   36.4727   33.9858 C   0  0  0  0  0  0  0  0  0  0  0  0
   13.2750   37.7302   34.7935 C   0  0  0  0  0  0  0  0  0  0  0  0
   15.6241   35.7586   33.1857 N   0  0  0  0  0  0  0  0  0  0  0  0
   14.8721   36.4408   35.3326 C   0  0  0  0  0  0  0  0  0  0  0  0
   13.9204   37.2263   35.8802 N   0  0  0  0  0  0  0  0  0  0  0  0
   16.5870   34.9925   33.7800 C   0  0  0  0  0  0  0  0  0  0  0  0
   15.8572   35.6717   35.9441 C   0  0  0  0  0  0  0  0  0  0  0  0
   16.7022   34.9585   35.1437 N   0  0  0  0  0  0  0  0  0  0  0  0
   16.0097   35.6384   37.3561 N   0  0  0  0  0  0  0  0  0  0  0  0
    7.6676   44.0677   34.0543 H   0  0  0  0  0  0  0  0  0  0  0  0
    8.7021   46.1671   34.0296 H   0  0  0  0  0  0  0  0  0  0  0  0
    9.2108   45.3385   35.3724 H   0  0  0  0  0  0  0  0  0  0  0  0
    8.5084   43.0839   31.8692 H   0  0  0  0  0  0  0  0  0  0  0  0
    9.9812   44.0904   31.9904 H   0  0  0  0  0  0  0  0  0  0  0  0
    8.5786   46.1529   31.7845 H   0  0  0  0  0  0  0  0  0  0  0  0
    8.5131   45.0716   30.3750 H   0  0  0  0  0  0  0  0  0  0  0  0
    6.3107   44.1790   30.9976 H   0  0  0  0  0  0  0  0  0  0  0  0
    6.3205   45.0917   32.5471 H   0  0  0  0  0  0  0  0  0  0  0  0
    4.9254   46.2643   30.9175 H   0  0  0  0  0  0  0  0  0  0  0  0
    6.2558   46.2874   29.7221 H   0  0  0  0  0  0  0  0  0  0  0  0
    6.2390   47.7414   32.4122 H   0  0  0  0  0  0  0  0  0  0  0  0
    7.3698   51.3572   32.5588 H   0  0  0  0  0  0  0  0  0  0  0  0
    6.1181   50.0992   32.6831 H   0  0  0  0  0  0  0  0  0  0  0  0
    6.3177   48.7245   34.5844 H   0  0  0  0  0  0  0  0  0  0  0  0
    7.5876   47.7890   36.4635 H   0  0  0  0  0  0  0  0  0  0  0  0
   11.1999   49.4988   34.9317 H   0  0  0  0  0  0  0  0  0  0  0  0
   10.0253   48.1702   36.6401 H   0  0  0  0  0  0  0  0  0  0  0  0
   11.2240   41.0428   31.8928 H   0  0  0  0  0  0  0  0  0  0  0  0
    9.7472   40.0379   31.9302 H   0  0  0  0  0  0  0  0  0  0  0  0
   11.5928   39.0433   30.5966 H   0  0  0  0  0  0  0  0  0  0  0  0
   10.7003   37.5443   33.1640 H   0  0  0  0  0  0  0  0  0  0  0  0
   14.2051   37.4478   31.5560 H   0  0  0  0  0  0  0  0  0  0  0  0
    9.1373   37.6722   31.5905 H   0  0  0  0  0  0  0  0  0  0  0  0
   12.1305   35.7856   32.5586 H   0  0  0  0  0  0  0  0  0  0  0  0
   12.4606   37.0186   29.9674 H   0  0  0  0  0  0  0  0  0  0  0  0
   12.4327   38.4001   34.8694 H   0  0  0  0  0  0  0  0  0  0  0  0
   17.2666   34.4146   33.1690 H   0  0  0  0  0  0  0  0  0  0  0  0
   15.3754   36.1866   37.9788 H   0  0  0  0  0  0  0  0  0  0  0  0
   16.7634   35.0601   37.7894 H   0  0  0  0  0  0  0  0  0  0  0  0
  1  2  2  0
  1  3  1  0
  3  4  1  0
  4  5  1  0
  6  1  1  0
  7  6  1  0
  6  8  1  0
  8  9  1  0
  9 10  1  0
 10 11  1  0
 11 12  1  0
 12 13  1  0
 13 14  1  0
 13 15  2  0
 14 16  1  0
 16 17  1  0
 17 18  2  0
 19 17  1  0
 18 20  1  0
 21 19  2  0
 19 22  1  0
 20 23  2  0
 23 21  1  0
 22 24  1  0
 22 25  2  0
  4 26  2  0
  4 27  1  0
 28 27  1  0
 28 29  1  0
 29 30  1  0
 29 31  1  0
 30 32  1  0
 31 33  1  0
 31 34  1  0
 34 32  1  0
 32 35  1  0
 34 36  1  0
 37 35  1  0
 38 35  1  0
 39 37  2  0
 37 40  1  0
 41 38  2  0
 42 39  1  0
 40 43  2  0
 40 41  1  0
 44 42  2  0
 44 43  1  0
 43 45  1  0
  6 46  1  6
  7 47  1  0
  7 48  1  0
  8 49  1  0
  8 50  1  0
  9 51  1  0
  9 52  1  0
 10 53  1  0
 10 54  1  0
 11 55  1  0
 11 56  1  0
 12 57  1  0
 16 58  1  0
 16 59  1  0
 18 60  1  0
 20 61  1  0
 21 62  1  0
 23 63  1  0
 28 64  1  0
 28 65  1  0
 29 66  1  0
 31 67  1  0
 32 68  1  0
 33 69  1  0
 34 70  1  0
 36 71  1  0
 38 72  1  0
 42 73  1  0
 45 74  1  0
 45 75  1  0
M  CHG  3   5  -1  22   1  24  -1
M  END
>  <EmbedRMS>  (332) 
0.0753764210149

$$$$

     RDKit          3D

 75 78  0  0  0  0  0  0  0  0999 V2000
    9.4336   42.9358   34.3455 C   0  0  0  0  0  0  0  0  0  0  0  0
   10.4912   43.0321   35.0312 O   0  0  0  0  0  0  0  0  0  0  0  0
    8.8558   41.7100   34.0301 O   0  0  0  0  0  0  0  0  0  0  0  0
    9.4930   40.2140   34.4707 P   0  0  0  0  0  0  0  0  0  0  0  0
    9.7287   40.1730   36.1317 O   0  0  0  0  0  0  0  0  0  0  0  0
    8.7514   44.1343   33.7741 C   0  0  1  0  0  0  0  0  0  0  0  0
    9.2989   45.3795   34.3141 N   0  0  0  0  0  0  0  0  0  0  0  0
    8.8892   44.0539   32.2360 C   0  0  0  0  0  0  0  0  0  0  0  0
    8.2033   45.1858   31.4645 C   0  0  0  0  0  0  0  0  0  0  0  0
    6.6662   45.1074   31.4872 C   0  0  0  0  0  0  0  0  0  0  0  0
    6.0296   46.3233   30.8072 C   0  0  0  0  0  0  0  0  0  0  0  0
    6.4996   47.5673   31.4182 N   0  0  0  0  0  0  0  0  0  0  0  0
    7.2369   48.5468   30.6783 C   0  0  0  0  0  0  0  0  0  0  0  0
    7.5712   49.7938   31.2231 O   0  0  0  0  0  0  0  0  0  0  0  0
    7.5991   48.2986   29.4988 O   0  0  0  0  0  0  0  0  0  0  0  0
    7.2649   50.2435   32.5428 C   0  0  0  0  0  0  0  0  0  0  0  0
    8.1788   49.6168   33.5738 C   0  0  0  0  0  0  0  0  0  0  0  0
    7.6049   48.7852   34.5553 C   0  0  0  0  0  0  0  0  0  0  0  0
    9.5699   49.9187   33.6534 C   0  0  0  0  0  0  0  0  0  0  0  0
    8.3844   48.2286   35.5679 C   0  0  0  0  0  0  0  0  0  0  0  0
   10.3349   49.3405   34.6835 C   0  0  0  0  0  0  0  0  0  0  0  0
   10.2155   50.8508   32.7633 N   0  0  0  0  0  0  0  0  0  0  0  0
    9.7484   48.4973   35.6263 C   0  0  0  0  0  0  0  0  0  0  0  0
   11.3061   51.5686   33.1984 O   0  0  0  0  0  0  0  0  0  0  0  0
    9.8982   50.9239   31.5598 O   0  0  0  0  0  0  0  0  0  0  0  0
    8.5366   39.1382   34.0140 O   0  0  0  0  0  0  0  0  0  0  0  0
   10.9794   40.0873   33.6890 O   0  0  0  0  0  0  0  0  0  0  0  0
   10.8018   40.0947   32.2902 C   0  0  0  0  0  0  0  0  0  0  0  0
   11.5885   38.9266   31.7041 C   0  0  0  0  0  0  0  0  0  0  0  0
   12.9237   38.9445   32.1721 O   0  0  0  0  0  0  0  0  0  0  0  0
   11.0029   37.5725   32.0907 C   0  0  0  0  0  0  0  0  0  0  0  0
   13.3555   37.5960   32.2594 C   0  0  0  0  0  0  0  0  0  0  0  0
    9.9380   37.1846   31.2656 O   0  0  0  0  0  0  0  0  0  0  0  0
   12.1932   36.6769   31.8952 C   0  0  0  0  0  0  0  0  0  0  0  0
   13.8028   37.2977   33.6186 N   0  0  0  0  0  0  0  0  0  0  0  0
   12.2918   36.2396   30.5587 O   0  0  0  0  0  0  0  0  0  0  0  0
   14.7926   36.4727   33.9858 C   0  0  0  0  0  0  0  0  0  0  0  0
   13.2750   37.7302   34.7935 C   0  0  0  0  0  0  0  0  0  0  0  0
   15.6241   35.7586   33.1857 N   0  0  0  0  0  0  0  0  0  0  0  0
   14.8721   36.4408   35.3326 C   0  0  0  0  0  0  0  0  0  0  0  0
   13.9204   37.2263   35.8802 N   0  0  0  0  0  0  0  0  0  0  0  0
   16.5870   34.9924   33.7800 C   0  0  0  0  0  0  0  0  0  0  0  0
   15.8572   35.6717   35.9441 C   0  0  0  0  0  0  0  0  0  0  0  0
   16.7022   34.9585   35.1437 N   0  0  0  0  0  0  0  0  0  0  0  0
   16.0097   35.6384   37.3561 N   0  0  0  0  0  0  0  0  0  0  0  0
    7.6779   44.0717   34.0513 H   0  0  0  0  0  0  0  0  0  0  0  0
    9.2011   45.3692   35.3557 H   0  0  0  0  0  0  0  0  0  0  0  0
   10.3185   45.4447   34.0875 H   0  0  0  0  0  0  0  0  0  0  0  0
    8.4804   43.0872   31.8660 H   0  0  0  0  0  0  0  0  0  0  0  0
    9.9708   44.0688   31.9735 H   0  0  0  0  0  0  0  0  0  0  0  0
    8.5402   45.1432   30.4055 H   0  0  0  0  0  0  0  0  0  0  0  0
    8.5537   46.1541   31.8809 H   0  0  0  0  0  0  0  0  0  0  0  0
    6.3020   45.0708   32.5350 H   0  0  0  0  0  0  0  0  0  0  0  0
    6.3313   44.1813   30.9718 H   0  0  0  0  0  0  0  0  0  0  0  0
    4.9254   46.2641   30.9143 H   0  0  0  0  0  0  0  0  0  0  0  0
    6.2562   46.2892   29.7201 H   0  0  0  0  0  0  0  0  0  0  0  0
    6.2284   47.7458   32.4068 H   0  0  0  0  0  0  0  0  0  0  0  0
    6.1916   50.0541   32.7617 H   0  0  0  0  0  0  0  0  0  0  0  0
    7.3962   51.3452   32.5811 H   0  0  0  0  0  0  0  0  0  0  0  0
    6.5422   48.5794   34.5541 H   0  0  0  0  0  0  0  0  0  0  0  0
    7.9276   47.5886   36.3119 H   0  0  0  0  0  0  0  0  0  0  0  0
   11.3948   49.5470   34.7603 H   0  0  0  0  0  0  0  0  0  0  0  0
   10.3518   48.0608   36.4118 H   0  0  0  0  0  0  0  0  0  0  0  0
    9.7473   40.0379   31.9303 H   0  0  0  0  0  0  0  0  0  0  0  0
   11.2243   41.0427   31.8935 H   0  0  0  0  0  0  0  0  0  0  0  0
   11.5927   39.0434   30.5965 H   0  0  0  0  0  0  0  0  0  0  0  0
   10.7004   37.5442   33.1640 H   0  0  0  0  0  0  0  0  0  0  0  0
   14.2052   37.4477   31.5560 H   0  0  0  0  0  0  0  0  0  0  0  0
    9.1374   37.6722   31.5904 H   0  0  0  0  0  0  0  0  0  0  0  0
   12.1305   35.7855   32.5585 H   0  0  0  0  0  0  0  0  0  0  0  0
   12.4607   37.0186   29.9673 H   0  0  0  0  0  0  0  0  0  0  0  0
   12.4327   38.4001   34.8694 H   0  0  0  0  0  0  0  0  0  0  0  0
   17.2666   34.4146   33.1690 H   0  0  0  0  0  0  0  0  0  0  0  0
   15.3754   36.1866   37.9788 H   0  0  0  0  0  0  0  0  0  0  0  0
   16.7634   35.0601   37.7894 H   0  0  0  0  0  0  0  0  0  0  0  0
  1  2  2  0
  1  3  1  0
  3  4  1  0
  4  5  1  0
  6  1  1  0
  7  6  1  0
  6  8  1  0
  8  9  1  0
  9 10  1  0
 10 11  1  0
 11 12  1  0
 12 13  1  0
 13 14  1  0
 13 15  2  0
 14 16  1  0
 16 17  1  0
 17 18  2  0
 19 17  1  0
 18 20  1  0
 21 19  2  0
 19 22  1  0
 20 23  2  0
 23 21  1  0
 22 24  1  0
 22 25  2  0
  4 26  2  0
  4 27  1  0
 28 27  1  0
 28 29  1  0
 29 30  1  0
 29 31  1  0
 30 32  1  0
 31 33  1  0
 31 34  1  0
 34 32  1  0
 32 35  1  0
 34 36  1  0
 37 35  1  0
 38 35  1  0
 39 37  2  0
 37 40  1  0
 41 38  2  0
 42 39  1  0
 40 43  2  0
 40 41  1  0
 44 42  2  0
 44 43  1  0
 43 45  1  0
  6 46  1  6
  7 47  1  0
  7 48  1  0
  8 49  1  0
  8 50  1  0
  9 51  1  0
  9 52  1  0
 10 53  1  0
 10 54  1  0
 11 55  1  0
 11 56  1  0
 12 57  1  0
 16 58  1  0
 16 59  1  0
 18 60  1  0
 20 61  1  0
 21 62  1  0
 23 63  1  0
 28 64  1  0
 28 65  1  0
 29 66  1  0
 31 67  1  0
 32 68  1  0
 33 69  1  0
 34 70  1  0
 36 71  1  0
 38 72  1  0
 42 73  1  0
 45 74  1  0
 45 75  1  0
M  CHG  3   5  -1  22   1  24  -1
M  END
>  <EmbedRMS>  (333) 
0.0760231892041

$$$$

     RDKit          3D

 75 78  0  0  0  0  0  0  0  0999 V2000
    9.4310   42.9412   34.3440 C   0  0  0  0  0  0  0  0  0  0  0  0
   10.4886   43.0410   35.0293 O   0  0  0  0  0  0  0  0  0  0  0  0
    8.8554   41.7129   34.0302 O   0  0  0  0  0  0  0  0  0  0  0  0
    9.4932   40.2164   34.4705 P   0  0  0  0  0  0  0  0  0  0  0  0
    9.7298   40.1743   36.1314 O   0  0  0  0  0  0  0  0  0  0  0  0
    8.7484   44.1360   33.7722 C   0  0  1  0  0  0  0  0  0  0  0  0
    9.3039   45.3666   34.3388 N   0  0  0  0  0  0  0  0  0  0  0  0
    8.8892   44.0519   32.2309 C   0  0  0  0  0  0  0  0  0  0  0  0
    8.2014   45.1721   31.4436 C   0  0  0  0  0  0  0  0  0  0  0  0
    6.6642   45.1065   31.4887 C   0  0  0  0  0  0  0  0  0  0  0  0
    6.0265   46.3234   30.8120 C   0  0  0  0  0  0  0  0  0  0  0  0
    6.5073   47.5645   31.4186 N   0  0  0  0  0  0  0  0  0  0  0  0
    7.2445   48.5393   30.6834 C   0  0  0  0  0  0  0  0  0  0  0  0
    7.5967   49.7395   31.3063 O   0  0  0  0  0  0  0  0  0  0  0  0
    7.5931   48.3115   29.4933 O   0  0  0  0  0  0  0  0  0  0  0  0
    8.3495   50.7563   30.6505 C   0  0  0  0  0  0  0  0  0  0  0  0
    8.5244   51.9350   31.5774 C   0  0  0  0  0  0  0  0  0  0  0  0
    7.3778   52.4734   32.1901 C   0  0  0  0  0  0  0  0  0  0  0  0
    9.7946   52.4952   31.8774 C   0  0  0  0  0  0  0  0  0  0  0  0
    7.4851   53.5114   33.1168 C   0  0  0  0  0  0  0  0  0  0  0  0
    9.8842   53.5255   32.8290 C   0  0  0  0  0  0  0  0  0  0  0  0
   10.9921   52.0603   31.2156 N   0  0  0  0  0  0  0  0  0  0  0  0
    8.7371   54.0292   33.4437 C   0  0  0  0  0  0  0  0  0  0  0  0
   12.1723   51.9876   31.9189 O   0  0  0  0  0  0  0  0  0  0  0  0
   11.0291   51.9971   29.9695 O   0  0  0  0  0  0  0  0  0  0  0  0
    8.5368   39.1400   34.0142 O   0  0  0  0  0  0  0  0  0  0  0  0
   10.9786   40.0891   33.6868 O   0  0  0  0  0  0  0  0  0  0  0  0
   10.7973   40.0898   32.2882 C   0  0  0  0  0  0  0  0  0  0  0  0
   11.5882   38.9235   31.7043 C   0  0  0  0  0  0  0  0  0  0  0  0
   12.9230   38.9440   32.1728 O   0  0  0  0  0  0  0  0  0  0  0  0
   11.0048   37.5704   32.0917 C   0  0  0  0  0  0  0  0  0  0  0  0
   13.3570   37.5961   32.2595 C   0  0  0  0  0  0  0  0  0  0  0  0
    9.9331   37.1987   31.2677 O   0  0  0  0  0  0  0  0  0  0  0  0
   12.1965   36.6751   31.8950 C   0  0  0  0  0  0  0  0  0  0  0  0
   13.8037   37.2979   33.6187 N   0  0  0  0  0  0  0  0  0  0  0  0
   12.2934   36.2389   30.5582 O   0  0  0  0  0  0  0  0  0  0  0  0
   14.7929   36.4726   33.9860 C   0  0  0  0  0  0  0  0  0  0  0  0
   13.2755   37.7304   34.7935 C   0  0  0  0  0  0  0  0  0  0  0  0
   15.6244   35.7585   33.1859 N   0  0  0  0  0  0  0  0  0  0  0  0
   14.8722   36.4406   35.3328 C   0  0  0  0  0  0  0  0  0  0  0  0
   13.9205   37.2262   35.8803 N   0  0  0  0  0  0  0  0  0  0  0  0
   16.5872   34.9923   33.7802 C   0  0  0  0  0  0  0  0  0  0  0  0
   15.8573   35.6715   35.9442 C   0  0  0  0  0  0  0  0  0  0  0  0
   16.7023   34.9584   35.1439 N   0  0  0  0  0  0  0  0  0  0  0  0
   16.0098   35.6384   37.3563 N   0  0  0  0  0  0  0  0  0  0  0  0
    7.6763   44.0636   34.0548 H   0  0  0  0  0  0  0  0  0  0  0  0
   10.2152   45.5880   33.8747 H   0  0  0  0  0  0  0  0  0  0  0  0
    8.6469   46.1560   34.1431 H   0  0  0  0  0  0  0  0  0  0  0  0
    8.4831   43.0817   31.8668 H   0  0  0  0  0  0  0  0  0  0  0  0
    9.9708   44.0643   31.9680 H   0  0  0  0  0  0  0  0  0  0  0  0
    8.5198   45.0959   30.3808 H   0  0  0  0  0  0  0  0  0  0  0  0
    8.5713   46.1488   31.8174 H   0  0  0  0  0  0  0  0  0  0  0  0
    6.3141   45.0785   32.5414 H   0  0  0  0  0  0  0  0  0  0  0  0
    6.3148   44.1799   30.9839 H   0  0  0  0  0  0  0  0  0  0  0  0
    6.2450   46.2893   29.7230 H   0  0  0  0  0  0  0  0  0  0  0  0
    4.9231   46.2692   30.9294 H   0  0  0  0  0  0  0  0  0  0  0  0
    6.2851   47.7536   32.4219 H   0  0  0  0  0  0  0  0  0  0  0  0
    9.3193   50.3212   30.3382 H   0  0  0  0  0  0  0  0  0  0  0  0
    7.8040   51.0938   29.7428 H   0  0  0  0  0  0  0  0  0  0  0  0
    6.3970   52.0738   31.9622 H   0  0  0  0  0  0  0  0  0  0  0  0
    6.5959   53.9094   33.5884 H   0  0  0  0  0  0  0  0  0  0  0  0
   10.8453   53.9593   33.0748 H   0  0  0  0  0  0  0  0  0  0  0  0
    8.8183   54.8310   34.1662 H   0  0  0  0  0  0  0  0  0  0  0  0
    9.7422   40.0186   31.9315 H   0  0  0  0  0  0  0  0  0  0  0  0
   11.2112   41.0391   31.8857 H   0  0  0  0  0  0  0  0  0  0  0  0
   11.5932   39.0396   30.5966 H   0  0  0  0  0  0  0  0  0  0  0  0
   10.6985   37.5587   33.1640 H   0  0  0  0  0  0  0  0  0  0  0  0
   14.2072   37.4493   31.5564 H   0  0  0  0  0  0  0  0  0  0  0  0
    9.5320   36.3882   31.6772 H   0  0  0  0  0  0  0  0  0  0  0  0
   12.1344   35.7838   32.5583 H   0  0  0  0  0  0  0  0  0  0  0  0
   12.4641   37.0180   29.9675 H   0  0  0  0  0  0  0  0  0  0  0  0
   12.4333   38.4006   34.8692 H   0  0  0  0  0  0  0  0  0  0  0  0
   17.2668   34.4144   33.1692 H   0  0  0  0  0  0  0  0  0  0  0  0
   15.3755   36.1866   37.9790 H   0  0  0  0  0  0  0  0  0  0  0  0
   16.7634   35.0600   37.7896 H   0  0  0  0  0  0  0  0  0  0  0  0
  1  2  2  0
  1  3  1  0
  3  4  1  0
  4  5  1  0
  6  1  1  0
  7  6  1  0
  6  8  1  0
  8  9  1  0
  9 10  1  0
 10 11  1  0
 11 12  1  0
 12 13  1  0
 13 14  1  0
 13 15  2  0
 14 16  1  0
 16 17  1  0
 17 18  2  0
 19 17  1  0
 18 20  1  0
 21 19  2  0
 19 22  1  0
 20 23  2  0
 23 21  1  0
 22 24  1  0
 22 25  2  0
  4 26  2  0
  4 27  1  0
 28 27  1  0
 28 29  1  0
 29 30  1  0
 29 31  1  0
 30 32  1  0
 31 33  1  0
 31 34  1  0
 34 32  1  0
 32 35  1  0
 34 36  1  0
 37 35  1  0
 38 35  1  0
 39 37  2  0
 37 40  1  0
 41 38  2  0
 42 39  1  0
 40 43  2  0
 40 41  1  0
 44 42  2  0
 44 43  1  0
 43 45  1  0
  6 46  1  6
  7 47  1  0
  7 48  1  0
  8 49  1  0
  8 50  1  0
  9 51  1  0
  9 52  1  0
 10 53  1  0
 10 54  1  0
 11 55  1  0
 11 56  1  0
 12 57  1  0
 16 58  1  0
 16 59  1  0
 18 60  1  0
 20 61  1  0
 21 62  1  0
 23 63  1  0
 28 64  1  0
 28 65  1  0
 29 66  1  0
 31 67  1  0
 32 68  1  0
 33 69  1  0
 34 70  1  0
 36 71  1  0
 38 72  1  0
 42 73  1  0
 45 74  1  0
 45 75  1  0
M  CHG  3   5  -1  22   1  24  -1
M  END
>  <EmbedRMS>  (334) 
0.0750881938222

$$$$

     RDKit          3D

 75 78  0  0  0  0  0  0  0  0999 V2000
    9.4330   42.9360   34.3458 C   0  0  0  0  0  0  0  0  0  0  0  0
   10.4904   43.0329   35.0315 O   0  0  0  0  0  0  0  0  0  0  0  0
    8.8562   41.7099   34.0294 O   0  0  0  0  0  0  0  0  0  0  0  0
    9.4945   40.2139   34.4680 P   0  0  0  0  0  0  0  0  0  0  0  0
    9.7308   40.1726   36.1291 O   0  0  0  0  0  0  0  0  0  0  0  0
    8.7499   44.1338   33.7738 C   0  0  1  0  0  0  0  0  0  0  0  0
    9.2941   45.3801   34.3142 N   0  0  0  0  0  0  0  0  0  0  0  0
    8.8901   44.0536   32.2359 C   0  0  0  0  0  0  0  0  0  0  0  0
    8.2042   45.1847   31.4634 C   0  0  0  0  0  0  0  0  0  0  0  0
    6.6669   45.1047   31.4841 C   0  0  0  0  0  0  0  0  0  0  0  0
    6.0290   46.3243   30.8117 C   0  0  0  0  0  0  0  0  0  0  0  0
    6.5105   47.5637   31.4220 N   0  0  0  0  0  0  0  0  0  0  0  0
    7.2396   48.5462   30.6780 C   0  0  0  0  0  0  0  0  0  0  0  0
    7.5899   49.7828   31.2358 O   0  0  0  0  0  0  0  0  0  0  0  0
    7.5906   48.3046   29.4938 O   0  0  0  0  0  0  0  0  0  0  0  0
    7.3109   50.1859   32.5768 C   0  0  0  0  0  0  0  0  0  0  0  0
    8.1871   49.4544   33.5718 C   0  0  0  0  0  0  0  0  0  0  0  0
    9.5393   49.2339   33.2456 C   0  0  0  0  0  0  0  0  0  0  0  0
    7.7304   49.1148   34.8723 C   0  0  0  0  0  0  0  0  0  0  0  0
   10.4153   48.6690   34.1735 C   0  0  0  0  0  0  0  0  0  0  0  0
    8.6316   48.5620   35.7981 C   0  0  0  0  0  0  0  0  0  0  0  0
    6.3771   49.3547   35.2843 N   0  0  0  0  0  0  0  0  0  0  0  0
    9.9637   48.3385   35.4492 C   0  0  0  0  0  0  0  0  0  0  0  0
    5.3375   48.7562   34.6120 O   0  0  0  0  0  0  0  0  0  0  0  0
    6.1527   49.8793   36.3945 O   0  0  0  0  0  0  0  0  0  0  0  0
    8.5373   39.1383   34.0125 O   0  0  0  0  0  0  0  0  0  0  0  0
   10.9805   40.0880   33.6837 O   0  0  0  0  0  0  0  0  0  0  0  0
   10.8025   40.0900   32.2839 C   0  0  0  0  0  0  0  0  0  0  0  0
   11.5888   38.9174   31.7007 C   0  0  0  0  0  0  0  0  0  0  0  0
   12.9220   38.9373   32.1692 O   0  0  0  0  0  0  0  0  0  0  0  0
   11.0028   37.5682   32.0980 C   0  0  0  0  0  0  0  0  0  0  0  0
   13.3496   37.5885   32.2601 C   0  0  0  0  0  0  0  0  0  0  0  0
    9.9343   37.1822   31.2756 O   0  0  0  0  0  0  0  0  0  0  0  0
   12.1891   36.6677   31.9049 C   0  0  0  0  0  0  0  0  0  0  0  0
   13.8025   37.2965   33.6186 N   0  0  0  0  0  0  0  0  0  0  0  0
   12.2991   36.2867   30.5567 O   0  0  0  0  0  0  0  0  0  0  0  0
   14.7929   36.4725   33.9858 C   0  0  0  0  0  0  0  0  0  0  0  0
   13.2749   37.7294   34.7935 C   0  0  0  0  0  0  0  0  0  0  0  0
   15.6240   35.7580   33.1858 N   0  0  0  0  0  0  0  0  0  0  0  0
   14.8727   36.4411   35.3327 C   0  0  0  0  0  0  0  0  0  0  0  0
   13.9208   37.2263   35.8803 N   0  0  0  0  0  0  0  0  0  0  0  0
   16.5871   34.9921   33.7801 C   0  0  0  0  0  0  0  0  0  0  0  0
   15.8576   35.6718   35.9441 C   0  0  0  0  0  0  0  0  0  0  0  0
   16.7024   34.9584   35.1438 N   0  0  0  0  0  0  0  0  0  0  0  0
   16.0099   35.6384   37.3562 N   0  0  0  0  0  0  0  0  0  0  0  0
    7.6761   44.0690   34.0492 H   0  0  0  0  0  0  0  0  0  0  0  0
   10.3170   45.4405   34.1017 H   0  0  0  0  0  0  0  0  0  0  0  0
    9.1791   45.3789   35.3542 H   0  0  0  0  0  0  0  0  0  0  0  0
    8.4831   43.0864   31.8651 H   0  0  0  0  0  0  0  0  0  0  0  0
    9.9722   44.0700   31.9752 H   0  0  0  0  0  0  0  0  0  0  0  0
    8.5423   45.1425   30.4048 H   0  0  0  0  0  0  0  0  0  0  0  0
    8.5548   46.1527   31.8804 H   0  0  0  0  0  0  0  0  0  0  0  0
    6.3331   44.1813   30.9631 H   0  0  0  0  0  0  0  0  0  0  0  0
    6.3018   45.0612   32.5313 H   0  0  0  0  0  0  0  0  0  0  0  0
    4.9258   46.2696   30.9302 H   0  0  0  0  0  0  0  0  0  0  0  0
    6.2456   46.2927   29.7224 H   0  0  0  0  0  0  0  0  0  0  0  0
    6.2959   47.7197   32.4295 H   0  0  0  0  0  0  0  0  0  0  0  0
    7.5407   51.2685   32.6611 H   0  0  0  0  0  0  0  0  0  0  0  0
    6.2283   50.0758   32.7779 H   0  0  0  0  0  0  0  0  0  0  0  0
    9.9239   49.5143   32.2730 H   0  0  0  0  0  0  0  0  0  0  0  0
   11.4505   48.4998   33.9065 H   0  0  0  0  0  0  0  0  0  0  0  0
    8.2964   48.2985   36.7934 H   0  0  0  0  0  0  0  0  0  0  0  0
   10.6463   47.9060   36.1692 H   0  0  0  0  0  0  0  0  0  0  0  0
    9.7477   40.0332   31.9256 H   0  0  0  0  0  0  0  0  0  0  0  0
   11.2259   41.0357   31.8830 H   0  0  0  0  0  0  0  0  0  0  0  0
   11.5974   39.0148   30.5904 H   0  0  0  0  0  0  0  0  0  0  0  0
   10.7024   37.5455   33.1719 H   0  0  0  0  0  0  0  0  0  0  0  0
   14.1957   37.4366   31.5528 H   0  0  0  0  0  0  0  0  0  0  0  0
    9.1340   37.6659   31.6068 H   0  0  0  0  0  0  0  0  0  0  0  0
   12.1381   35.7717   32.5697 H   0  0  0  0  0  0  0  0  0  0  0  0
   11.7707   35.4530   30.4496 H   0  0  0  0  0  0  0  0  0  0  0  0
   12.4314   38.3980   34.8694 H   0  0  0  0  0  0  0  0  0  0  0  0
   17.2665   34.4140   33.1691 H   0  0  0  0  0  0  0  0  0  0  0  0
   16.7633   35.0598   37.7895 H   0  0  0  0  0  0  0  0  0  0  0  0
   15.3757   36.1868   37.9789 H   0  0  0  0  0  0  0  0  0  0  0  0
  1  2  2  0
  1  3  1  0
  3  4  1  0
  4  5  1  0
  6  1  1  0
  7  6  1  0
  6  8  1  0
  8  9  1  0
  9 10  1  0
 10 11  1  0
 11 12  1  0
 12 13  1  0
 13 14  1  0
 13 15  2  0
 14 16  1  0
 16 17  1  0
 17 18  2  0
 19 17  1  0
 18 20  1  0
 21 19  2  0
 19 22  1  0
 20 23  2  0
 23 21  1  0
 22 24  1  0
 22 25  2  0
  4 26  2  0
  4 27  1  0
 28 27  1  0
 28 29  1  0
 29 30  1  0
 29 31  1  0
 30 32  1  0
 31 33  1  0
 31 34  1  0
 34 32  1  0
 32 35  1  0
 34 36  1  0
 37 35  1  0
 38 35  1  0
 39 37  2  0
 37 40  1  0
 41 38  2  0
 42 39  1  0
 40 43  2  0
 40 41  1  0
 44 42  2  0
 44 43  1  0
 43 45  1  0
  6 46  1  6
  7 47  1  0
  7 48  1  0
  8 49  1  0
  8 50  1  0
  9 51  1  0
  9 52  1  0
 10 53  1  0
 10 54  1  0
 11 55  1  0
 11 56  1  0
 12 57  1  0
 16 58  1  0
 16 59  1  0
 18 60  1  0
 20 61  1  0
 21 62  1  0
 23 63  1  0
 28 64  1  0
 28 65  1  0
 29 66  1  0
 31 67  1  0
 32 68  1  0
 33 69  1  0
 34 70  1  0
 36 71  1  0
 38 72  1  0
 42 73  1  0
 45 74  1  0
 45 75  1  0
M  CHG  3   5  -1  22   1  24  -1
M  END
>  <EmbedRMS>  (335) 
0.0740707835579

$$$$

     RDKit          3D

 75 78  0  0  0  0  0  0  0  0999 V2000
    9.4331   42.9365   34.3462 C   0  0  0  0  0  0  0  0  0  0  0  0
   10.4907   43.0329   35.0318 O   0  0  0  0  0  0  0  0  0  0  0  0
    8.8558   41.7103   34.0300 O   0  0  0  0  0  0  0  0  0  0  0  0
    9.4944   40.2141   34.4677 P   0  0  0  0  0  0  0  0  0  0  0  0
    9.7317   40.1723   36.1287 O   0  0  0  0  0  0  0  0  0  0  0  0
    8.7506   44.1348   33.7741 C   0  0  1  0  0  0  0  0  0  0  0  0
    9.2963   45.3820   34.3133 N   0  0  0  0  0  0  0  0  0  0  0  0
    8.8893   44.0527   32.2358 C   0  0  0  0  0  0  0  0  0  0  0  0
    8.2029   45.1822   31.4614 C   0  0  0  0  0  0  0  0  0  0  0  0
    6.6654   45.1046   31.4855 C   0  0  0  0  0  0  0  0  0  0  0  0
    6.0272   46.3228   30.8108 C   0  0  0  0  0  0  0  0  0  0  0  0
    6.5072   47.5639   31.4183 N   0  0  0  0  0  0  0  0  0  0  0  0
    7.2413   48.5405   30.6826 C   0  0  0  0  0  0  0  0  0  0  0  0
    7.5817   49.7473   31.3029 O   0  0  0  0  0  0  0  0  0  0  0  0
    7.5944   48.3107   29.4942 O   0  0  0  0  0  0  0  0  0  0  0  0
    8.2872   50.7957   30.6407 C   0  0  0  0  0  0  0  0  0  0  0  0
    7.4227   51.4392   29.5806 C   0  0  0  0  0  0  0  0  0  0  0  0
    7.8980   51.4759   28.2566 C   0  0  0  0  0  0  0  0  0  0  0  0
    6.1326   51.9612   29.8690 C   0  0  0  0  0  0  0  0  0  0  0  0
    7.1134   52.0060   27.2318 C   0  0  0  0  0  0  0  0  0  0  0  0
    5.3528   52.4771   28.8173 C   0  0  0  0  0  0  0  0  0  0  0  0
    5.5916   51.9585   31.2031 N   0  0  0  0  0  0  0  0  0  0  0  0
    5.8419   52.5019   27.5109 C   0  0  0  0  0  0  0  0  0  0  0  0
    6.3863   52.2571   32.2850 O   0  0  0  0  0  0  0  0  0  0  0  0
    4.3609   51.8423   31.3782 O   0  0  0  0  0  0  0  0  0  0  0  0
    8.5373   39.1382   34.0122 O   0  0  0  0  0  0  0  0  0  0  0  0
   10.9795   40.0889   33.6815 O   0  0  0  0  0  0  0  0  0  0  0  0
   10.7982   40.0848   32.2819 C   0  0  0  0  0  0  0  0  0  0  0  0
   11.5886   38.9142   31.7009 C   0  0  0  0  0  0  0  0  0  0  0  0
   12.9214   38.9367   32.1698 O   0  0  0  0  0  0  0  0  0  0  0  0
   11.0047   37.5660   32.0990 C   0  0  0  0  0  0  0  0  0  0  0  0
   13.3511   37.5885   32.2601 C   0  0  0  0  0  0  0  0  0  0  0  0
    9.9296   37.1961   31.2780 O   0  0  0  0  0  0  0  0  0  0  0  0
   12.1923   36.6658   31.9047 C   0  0  0  0  0  0  0  0  0  0  0  0
   13.8033   37.2966   33.6187 N   0  0  0  0  0  0  0  0  0  0  0  0
   12.3007   36.2864   30.5561 O   0  0  0  0  0  0  0  0  0  0  0  0
   14.7933   36.4724   33.9860 C   0  0  0  0  0  0  0  0  0  0  0  0
   13.2753   37.7296   34.7935 C   0  0  0  0  0  0  0  0  0  0  0  0
   15.6243   35.7579   33.1860 N   0  0  0  0  0  0  0  0  0  0  0  0
   14.8728   36.4410   35.3328 C   0  0  0  0  0  0  0  0  0  0  0  0
   13.9209   37.2263   35.8804 N   0  0  0  0  0  0  0  0  0  0  0  0
   16.5873   34.9919   33.7803 C   0  0  0  0  0  0  0  0  0  0  0  0
   15.8577   35.6716   35.9443 C   0  0  0  0  0  0  0  0  0  0  0  0
   16.7025   34.9583   35.1440 N   0  0  0  0  0  0  0  0  0  0  0  0
   16.0100   35.6384   37.3564 N   0  0  0  0  0  0  0  0  0  0  0  0
    7.6770   44.0707   34.0503 H   0  0  0  0  0  0  0  0  0  0  0  0
    9.1827   45.3820   35.3535 H   0  0  0  0  0  0  0  0  0  0  0  0
   10.3192   45.4406   34.1000 H   0  0  0  0  0  0  0  0  0  0  0  0
    8.4816   43.0850   31.8668 H   0  0  0  0  0  0  0  0  0  0  0  0
    9.9711   44.0680   31.9740 H   0  0  0  0  0  0  0  0  0  0  0  0
    8.5385   45.1361   30.4021 H   0  0  0  0  0  0  0  0  0  0  0  0
    8.5554   46.1509   31.8740 H   0  0  0  0  0  0  0  0  0  0  0  0
    6.3296   44.1801   30.9675 H   0  0  0  0  0  0  0  0  0  0  0  0
    6.3020   45.0641   32.5333 H   0  0  0  0  0  0  0  0  0  0  0  0
    6.2463   46.2901   29.7219 H   0  0  0  0  0  0  0  0  0  0  0  0
    4.9238   46.2680   30.9271 H   0  0  0  0  0  0  0  0  0  0  0  0
    6.2817   47.7539   32.4207 H   0  0  0  0  0  0  0  0  0  0  0  0
    8.5886   51.5608   31.3844 H   0  0  0  0  0  0  0  0  0  0  0  0
    9.2294   50.3884   30.2124 H   0  0  0  0  0  0  0  0  0  0  0  0
    8.8770   51.0828   28.0114 H   0  0  0  0  0  0  0  0  0  0  0  0
    7.4902   52.0257   26.2173 H   0  0  0  0  0  0  0  0  0  0  0  0
    4.3654   52.8760   29.0129 H   0  0  0  0  0  0  0  0  0  0  0  0
    5.2337   52.9086   26.7132 H   0  0  0  0  0  0  0  0  0  0  0  0
    9.7427   40.0140   31.9266 H   0  0  0  0  0  0  0  0  0  0  0  0
   11.2131   41.0320   31.8757 H   0  0  0  0  0  0  0  0  0  0  0  0
   11.5980   39.0108   30.5904 H   0  0  0  0  0  0  0  0  0  0  0  0
   10.7008   37.5602   33.1721 H   0  0  0  0  0  0  0  0  0  0  0  0
   14.1977   37.4380   31.5532 H   0  0  0  0  0  0  0  0  0  0  0  0
    9.5181   36.3960   31.6977 H   0  0  0  0  0  0  0  0  0  0  0  0
   12.1419   35.7697   32.5692 H   0  0  0  0  0  0  0  0  0  0  0  0
   11.7730   35.4523   30.4489 H   0  0  0  0  0  0  0  0  0  0  0  0
   12.4321   38.3984   34.8692 H   0  0  0  0  0  0  0  0  0  0  0  0
   17.2667   34.4138   33.1694 H   0  0  0  0  0  0  0  0  0  0  0  0
   16.7634   35.0598   37.7897 H   0  0  0  0  0  0  0  0  0  0  0  0
   15.3757   36.1867   37.9790 H   0  0  0  0  0  0  0  0  0  0  0  0
  1  2  2  0
  1  3  1  0
  3  4  1  0
  4  5  1  0
  6  1  1  0
  7  6  1  0
  6  8  1  0
  8  9  1  0
  9 10  1  0
 10 11  1  0
 11 12  1  0
 12 13  1  0
 13 14  1  0
 13 15  2  0
 14 16  1  0
 16 17  1  0
 17 18  2  0
 19 17  1  0
 18 20  1  0
 21 19  2  0
 19 22  1  0
 20 23  2  0
 23 21  1  0
 22 24  1  0
 22 25  2  0
  4 26  2  0
  4 27  1  0
 28 27  1  0
 28 29  1  0
 29 30  1  0
 29 31  1  0
 30 32  1  0
 31 33  1  0
 31 34  1  0
 34 32  1  0
 32 35  1  0
 34 36  1  0
 37 35  1  0
 38 35  1  0
 39 37  2  0
 37 40  1  0
 41 38  2  0
 42 39  1  0
 40 43  2  0
 40 41  1  0
 44 42  2  0
 44 43  1  0
 43 45  1  0
  6 46  1  6
  7 47  1  0
  7 48  1  0
  8 49  1  0
  8 50  1  0
  9 51  1  0
  9 52  1  0
 10 53  1  0
 10 54  1  0
 11 55  1  0
 11 56  1  0
 12 57  1  0
 16 58  1  0
 16 59  1  0
 18 60  1  0
 20 61  1  0
 21 62  1  0
 23 63  1  0
 28 64  1  0
 28 65  1  0
 29 66  1  0
 31 67  1  0
 32 68  1  0
 33 69  1  0
 34 70  1  0
 36 71  1  0
 38 72  1  0
 42 73  1  0
 45 74  1  0
 45 75  1  0
M  CHG  3   5  -1  22   1  24  -1
M  END
>  <EmbedRMS>  (336) 
0.0743461065522

$$$$

     RDKit          3D

 75 78  0  0  0  0  0  0  0  0999 V2000
    9.4332   42.9365   34.3464 C   0  0  0  0  0  0  0  0  0  0  0  0
   10.4908   43.0330   35.0319 O   0  0  0  0  0  0  0  0  0  0  0  0
    8.8559   41.7104   34.0304 O   0  0  0  0  0  0  0  0  0  0  0  0
    9.4931   40.2141   34.4703 P   0  0  0  0  0  0  0  0  0  0  0  0
    9.7293   40.1727   36.1313 O   0  0  0  0  0  0  0  0  0  0  0  0
    8.7506   44.1348   33.7741 C   0  0  1  0  0  0  0  0  0  0  0  0
    9.2963   45.3820   34.3133 N   0  0  0  0  0  0  0  0  0  0  0  0
    8.8893   44.0527   32.2359 C   0  0  0  0  0  0  0  0  0  0  0  0
    8.2028   45.1823   31.4615 C   0  0  0  0  0  0  0  0  0  0  0  0
    6.6653   45.1045   31.4855 C   0  0  0  0  0  0  0  0  0  0  0  0
    6.0270   46.3225   30.8105 C   0  0  0  0  0  0  0  0  0  0  0  0
    6.5063   47.5639   31.4180 N   0  0  0  0  0  0  0  0  0  0  0  0
    7.2436   48.5392   30.6836 C   0  0  0  0  0  0  0  0  0  0  0  0
    7.5927   49.7403   31.3062 O   0  0  0  0  0  0  0  0  0  0  0  0
    7.5934   48.3117   29.4937 O   0  0  0  0  0  0  0  0  0  0  0  0
    8.3385   50.7592   30.6485 C   0  0  0  0  0  0  0  0  0  0  0  0
    8.5376   51.9204   31.5872 C   0  0  0  0  0  0  0  0  0  0  0  0
    9.7481   52.0078   32.2987 C   0  0  0  0  0  0  0  0  0  0  0  0
    7.5582   52.9356   31.7546 C   0  0  0  0  0  0  0  0  0  0  0  0
   10.0003   53.0880   33.1452 C   0  0  0  0  0  0  0  0  0  0  0  0
    7.8401   54.0241   32.6011 C   0  0  0  0  0  0  0  0  0  0  0  0
    6.2902   52.8882   31.0745 N   0  0  0  0  0  0  0  0  0  0  0  0
    9.0505   54.0968   33.2919 C   0  0  0  0  0  0  0  0  0  0  0  0
    5.6139   51.6991   30.9314 O   0  0  0  0  0  0  0  0  0  0  0  0
    5.7122   53.9476   30.7547 O   0  0  0  0  0  0  0  0  0  0  0  0
    8.5366   39.1382   34.0136 O   0  0  0  0  0  0  0  0  0  0  0  0
   10.9788   40.0866   33.6873 O   0  0  0  0  0  0  0  0  0  0  0  0
   10.7993   40.0944   32.2886 C   0  0  0  0  0  0  0  0  0  0  0  0
   11.5957   38.9351   31.6994 C   0  0  0  0  0  0  0  0  0  0  0  0
   12.9257   38.9477   32.1798 O   0  0  0  0  0  0  0  0  0  0  0  0
   11.0070   37.5757   32.0732 C   0  0  0  0  0  0  0  0  0  0  0  0
   13.3571   37.5979   32.2612 C   0  0  0  0  0  0  0  0  0  0  0  0
    9.9093   37.1807   31.2875 O   0  0  0  0  0  0  0  0  0  0  0  0
   12.1967   36.6763   31.8894 C   0  0  0  0  0  0  0  0  0  0  0  0
   13.8018   37.2956   33.6197 N   0  0  0  0  0  0  0  0  0  0  0  0
   12.3049   36.2360   30.5555 O   0  0  0  0  0  0  0  0  0  0  0  0
   14.7922   36.4716   33.9864 C   0  0  0  0  0  0  0  0  0  0  0  0
   13.2747   37.7291   34.7944 C   0  0  0  0  0  0  0  0  0  0  0  0
   15.6240   35.7581   33.1861 N   0  0  0  0  0  0  0  0  0  0  0  0
   14.8721   36.4402   35.3331 C   0  0  0  0  0  0  0  0  0  0  0  0
   13.9206   37.2257   35.8810 N   0  0  0  0  0  0  0  0  0  0  0  0
   16.5873   34.9924   33.7802 C   0  0  0  0  0  0  0  0  0  0  0  0
   15.8576   35.6714   35.9444 C   0  0  0  0  0  0  0  0  0  0  0  0
   16.7026   34.9585   35.1439 N   0  0  0  0  0  0  0  0  0  0  0  0
   16.0102   35.6383   37.3564 N   0  0  0  0  0  0  0  0  0  0  0  0
    7.6771   44.0707   34.0504 H   0  0  0  0  0  0  0  0  0  0  0  0
   10.3192   45.4407   34.1000 H   0  0  0  0  0  0  0  0  0  0  0  0
    9.1827   45.3821   35.3535 H   0  0  0  0  0  0  0  0  0  0  0  0
    9.9711   44.0681   31.9740 H   0  0  0  0  0  0  0  0  0  0  0  0
    8.4817   43.0850   31.8669 H   0  0  0  0  0  0  0  0  0  0  0  0
    8.5385   45.1362   30.4023 H   0  0  0  0  0  0  0  0  0  0  0  0
    8.5552   46.1510   31.8742 H   0  0  0  0  0  0  0  0  0  0  0  0
    6.3296   44.1799   30.9678 H   0  0  0  0  0  0  0  0  0  0  0  0
    6.3020   45.0643   32.5333 H   0  0  0  0  0  0  0  0  0  0  0  0
    4.9236   46.2673   30.9264 H   0  0  0  0  0  0  0  0  0  0  0  0
    6.2466   46.2897   29.7217 H   0  0  0  0  0  0  0  0  0  0  0  0
    6.2818   47.7531   32.4208 H   0  0  0  0  0  0  0  0  0  0  0  0
    9.3208   50.3442   30.3316 H   0  0  0  0  0  0  0  0  0  0  0  0
    7.8142   51.0921   29.7269 H   0  0  0  0  0  0  0  0  0  0  0  0
   10.5042   51.2393   32.1933 H   0  0  0  0  0  0  0  0  0  0  0  0
   10.9369   53.1452   33.6847 H   0  0  0  0  0  0  0  0  0  0  0  0
    7.1110   54.8123   32.7407 H   0  0  0  0  0  0  0  0  0  0  0  0
    9.2501   54.9356   33.9464 H   0  0  0  0  0  0  0  0  0  0  0  0
   11.2094   41.0479   31.8922 H   0  0  0  0  0  0  0  0  0  0  0  0
    9.7448   40.0200   31.9304 H   0  0  0  0  0  0  0  0  0  0  0  0
   11.6206   39.0685   30.5942 H   0  0  0  0  0  0  0  0  0  0  0  0
   10.7059   37.5563   33.1438 H   0  0  0  0  0  0  0  0  0  0  0  0
   14.2095   37.4543   31.5601 H   0  0  0  0  0  0  0  0  0  0  0  0
   10.0865   37.4209   30.3413 H   0  0  0  0  0  0  0  0  0  0  0  0
   12.1276   35.7872   32.5549 H   0  0  0  0  0  0  0  0  0  0  0  0
   12.5031   37.0108   29.9672 H   0  0  0  0  0  0  0  0  0  0  0  0
   12.4328   38.3996   34.8703 H   0  0  0  0  0  0  0  0  0  0  0  0
   17.2670   34.4149   33.1690 H   0  0  0  0  0  0  0  0  0  0  0  0
   15.3758   36.1862   37.9791 H   0  0  0  0  0  0  0  0  0  0  0  0
   16.7640   35.0601   37.7896 H   0  0  0  0  0  0  0  0  0  0  0  0
  1  2  2  0
  1  3  1  0
  3  4  1  0
  4  5  1  0
  6  1  1  0
  7  6  1  0
  6  8  1  0
  8  9  1  0
  9 10  1  0
 10 11  1  0
 11 12  1  0
 12 13  1  0
 13 14  1  0
 13 15  2  0
 14 16  1  0
 16 17  1  0
 17 18  2  0
 19 17  1  0
 18 20  1  0
 21 19  2  0
 19 22  1  0
 20 23  2  0
 23 21  1  0
 22 24  1  0
 22 25  2  0
  4 26  2  0
  4 27  1  0
 28 27  1  0
 28 29  1  0
 29 30  1  0
 29 31  1  0
 30 32  1  0
 31 33  1  0
 31 34  1  0
 34 32  1  0
 32 35  1  0
 34 36  1  0
 37 35  1  0
 38 35  1  0
 39 37  2  0
 37 40  1  0
 41 38  2  0
 42 39  1  0
 40 43  2  0
 40 41  1  0
 44 42  2  0
 44 43  1  0
 43 45  1  0
  6 46  1  6
  7 47  1  0
  7 48  1  0
  8 49  1  0
  8 50  1  0
  9 51  1  0
  9 52  1  0
 10 53  1  0
 10 54  1  0
 11 55  1  0
 11 56  1  0
 12 57  1  0
 16 58  1  0
 16 59  1  0
 18 60  1  0
 20 61  1  0
 21 62  1  0
 23 63  1  0
 28 64  1  0
 28 65  1  0
 29 66  1  0
 31 67  1  0
 32 68  1  0
 33 69  1  0
 34 70  1  0
 36 71  1  0
 38 72  1  0
 42 73  1  0
 45 74  1  0
 45 75  1  0
M  CHG  3   5  -1  22   1  24  -1
M  END
>  <EmbedRMS>  (337) 
0.0761740140648

$$$$

     RDKit          3D

 75 78  0  0  0  0  0  0  0  0999 V2000
    9.4299   42.9392   34.3432 C   0  0  0  0  0  0  0  0  0  0  0  0
   10.4909   43.0384   35.0236 O   0  0  0  0  0  0  0  0  0  0  0  0
    8.8546   41.7113   34.0291 O   0  0  0  0  0  0  0  0  0  0  0  0
    9.4930   40.2153   34.4700 P   0  0  0  0  0  0  0  0  0  0  0  0
    9.7293   40.1741   36.1310 O   0  0  0  0  0  0  0  0  0  0  0  0
    8.7413   44.1365   33.7774 C   0  0  1  0  0  0  0  0  0  0  0  0
    9.3013   45.3699   34.3305 N   0  0  0  0  0  0  0  0  0  0  0  0
    8.8969   44.0589   32.2389 C   0  0  0  0  0  0  0  0  0  0  0  0
    8.2035   45.1689   31.4391 C   0  0  0  0  0  0  0  0  0  0  0  0
    6.6664   45.1077   31.4918 C   0  0  0  0  0  0  0  0  0  0  0  0
    6.0295   46.3241   30.8135 C   0  0  0  0  0  0  0  0  0  0  0  0
    6.5069   47.5660   31.4229 N   0  0  0  0  0  0  0  0  0  0  0  0
    7.2306   48.5504   30.6754 C   0  0  0  0  0  0  0  0  0  0  0  0
    7.5379   49.8073   31.2126 O   0  0  0  0  0  0  0  0  0  0  0  0
    7.6025   48.2977   29.4998 O   0  0  0  0  0  0  0  0  0  0  0  0
    7.1434   50.2676   32.5044 C   0  0  0  0  0  0  0  0  0  0  0  0
    7.9889   49.6488   33.5944 C   0  0  0  0  0  0  0  0  0  0  0  0
    7.3402   49.0555   34.6934 C   0  0  0  0  0  0  0  0  0  0  0  0
    9.4090   49.6558   33.5504 C   0  0  0  0  0  0  0  0  0  0  0  0
    8.0750   48.4681   35.7238 C   0  0  0  0  0  0  0  0  0  0  0  0
   10.1299   49.0379   34.5888 C   0  0  0  0  0  0  0  0  0  0  0  0
   10.1322   50.2764   32.4726 N   0  0  0  0  0  0  0  0  0  0  0  0
    9.4671   48.4574   35.6706 C   0  0  0  0  0  0  0  0  0  0  0  0
    9.7337   51.4935   31.9711 O   0  0  0  0  0  0  0  0  0  0  0  0
   11.2251   49.8024   32.0989 O   0  0  0  0  0  0  0  0  0  0  0  0
    8.5370   39.1388   34.0138 O   0  0  0  0  0  0  0  0  0  0  0  0
   10.9788   40.0873   33.6871 O   0  0  0  0  0  0  0  0  0  0  0  0
   10.7993   40.0946   32.2883 C   0  0  0  0  0  0  0  0  0  0  0  0
   11.5957   38.9351   31.6994 C   0  0  0  0  0  0  0  0  0  0  0  0
   12.9257   38.9478   32.1798 O   0  0  0  0  0  0  0  0  0  0  0  0
   11.0070   37.5758   32.0732 C   0  0  0  0  0  0  0  0  0  0  0  0
   13.3571   37.5980   32.2612 C   0  0  0  0  0  0  0  0  0  0  0  0
    9.9093   37.1808   31.2875 O   0  0  0  0  0  0  0  0  0  0  0  0
   12.1967   36.6764   31.8894 C   0  0  0  0  0  0  0  0  0  0  0  0
   13.8018   37.2956   33.6197 N   0  0  0  0  0  0  0  0  0  0  0  0
   12.3048   36.2360   30.5555 O   0  0  0  0  0  0  0  0  0  0  0  0
   14.7922   36.4716   33.9864 C   0  0  0  0  0  0  0  0  0  0  0  0
   13.2747   37.7291   34.7944 C   0  0  0  0  0  0  0  0  0  0  0  0
   15.6240   35.7581   33.1861 N   0  0  0  0  0  0  0  0  0  0  0  0
   14.8721   36.4401   35.3331 C   0  0  0  0  0  0  0  0  0  0  0  0
   13.9206   37.2257   35.8810 N   0  0  0  0  0  0  0  0  0  0  0  0
   16.5873   34.9924   33.7802 C   0  0  0  0  0  0  0  0  0  0  0  0
   15.8576   35.6714   35.9444 C   0  0  0  0  0  0  0  0  0  0  0  0
   16.7026   34.9585   35.1439 N   0  0  0  0  0  0  0  0  0  0  0  0
   16.0102   35.6382   37.3564 N   0  0  0  0  0  0  0  0  0  0  0  0
    7.6667   44.0643   34.0532 H   0  0  0  0  0  0  0  0  0  0  0  0
    9.2168   45.3332   35.3730 H   0  0  0  0  0  0  0  0  0  0  0  0
    8.6874   46.1634   34.0398 H   0  0  0  0  0  0  0  0  0  0  0  0
    9.9817   44.0905   31.9910 H   0  0  0  0  0  0  0  0  0  0  0  0
    8.5092   43.0837   31.8682 H   0  0  0  0  0  0  0  0  0  0  0  0
    8.5789   46.1524   31.7879 H   0  0  0  0  0  0  0  0  0  0  0  0
    8.5150   45.0739   30.3757 H   0  0  0  0  0  0  0  0  0  0  0  0
    6.3205   45.0861   32.5458 H   0  0  0  0  0  0  0  0  0  0  0  0
    6.3122   44.1797   30.9928 H   0  0  0  0  0  0  0  0  0  0  0  0
    4.9260   46.2683   30.9289 H   0  0  0  0  0  0  0  0  0  0  0  0
    6.2491   46.2898   29.7249 H   0  0  0  0  0  0  0  0  0  0  0  0
    6.2725   47.7318   32.4252 H   0  0  0  0  0  0  0  0  0  0  0  0
    6.0580   50.0787   32.6550 H   0  0  0  0  0  0  0  0  0  0  0  0
    7.2721   51.3686   32.5424 H   0  0  0  0  0  0  0  0  0  0  0  0
    6.2590   49.0457   34.7549 H   0  0  0  0  0  0  0  0  0  0  0  0
    7.5632   48.0136   36.5622 H   0  0  0  0  0  0  0  0  0  0  0  0
   11.2124   49.0266   34.5718 H   0  0  0  0  0  0  0  0  0  0  0  0
   10.0347   47.9949   36.4677 H   0  0  0  0  0  0  0  0  0  0  0  0
   11.2093   41.0480   31.8916 H   0  0  0  0  0  0  0  0  0  0  0  0
    9.7448   40.0200   31.9302 H   0  0  0  0  0  0  0  0  0  0  0  0
   11.6207   39.0685   30.5942 H   0  0  0  0  0  0  0  0  0  0  0  0
   10.7059   37.5564   33.1439 H   0  0  0  0  0  0  0  0  0  0  0  0
   14.2095   37.4543   31.5601 H   0  0  0  0  0  0  0  0  0  0  0  0
   10.0864   37.4210   30.3413 H   0  0  0  0  0  0  0  0  0  0  0  0
   12.1275   35.7872   32.5550 H   0  0  0  0  0  0  0  0  0  0  0  0
   12.5031   37.0109   29.9673 H   0  0  0  0  0  0  0  0  0  0  0  0
   12.4328   38.3997   34.8703 H   0  0  0  0  0  0  0  0  0  0  0  0
   17.2670   34.4149   33.1691 H   0  0  0  0  0  0  0  0  0  0  0  0
   16.7640   35.0601   37.7896 H   0  0  0  0  0  0  0  0  0  0  0  0
   15.3758   36.1862   37.9792 H   0  0  0  0  0  0  0  0  0  0  0  0
  1  2  2  0
  1  3  1  0
  3  4  1  0
  4  5  1  0
  6  1  1  0
  7  6  1  0
  6  8  1  0
  8  9  1  0
  9 10  1  0
 10 11  1  0
 11 12  1  0
 12 13  1  0
 13 14  1  0
 13 15  2  0
 14 16  1  0
 16 17  1  0
 17 18  2  0
 19 17  1  0
 18 20  1  0
 21 19  2  0
 19 22  1  0
 20 23  2  0
 23 21  1  0
 22 24  1  0
 22 25  2  0
  4 26  2  0
  4 27  1  0
 28 27  1  0
 28 29  1  0
 29 30  1  0
 29 31  1  0
 30 32  1  0
 31 33  1  0
 31 34  1  0
 34 32  1  0
 32 35  1  0
 34 36  1  0
 37 35  1  0
 38 35  1  0
 39 37  2  0
 37 40  1  0
 41 38  2  0
 42 39  1  0
 40 43  2  0
 40 41  1  0
 44 42  2  0
 44 43  1  0
 43 45  1  0
  6 46  1  6
  7 47  1  0
  7 48  1  0
  8 49  1  0
  8 50  1  0
  9 51  1  0
  9 52  1  0
 10 53  1  0
 10 54  1  0
 11 55  1  0
 11 56  1  0
 12 57  1  0
 16 58  1  0
 16 59  1  0
 18 60  1  0
 20 61  1  0
 21 62  1  0
 23 63  1  0
 28 64  1  0
 28 65  1  0
 29 66  1  0
 31 67  1  0
 32 68  1  0
 33 69  1  0
 34 70  1  0
 36 71  1  0
 38 72  1  0
 42 73  1  0
 45 74  1  0
 45 75  1  0
M  CHG  3   5  -1  22   1  24  -1
M  END
>  <EmbedRMS>  (338) 
0.075540242809

$$$$

     RDKit          3D

 75 78  0  0  0  0  0  0  0  0999 V2000
    9.4315   42.9405   34.3432 C   0  0  0  0  0  0  0  0  0  0  0  0
   10.4885   43.0412   35.0291 O   0  0  0  0  0  0  0  0  0  0  0  0
    8.8565   41.7122   34.0288 O   0  0  0  0  0  0  0  0  0  0  0  0
    9.4948   40.2157   34.4679 P   0  0  0  0  0  0  0  0  0  0  0  0
    9.7314   40.1738   36.1290 O   0  0  0  0  0  0  0  0  0  0  0  0
    8.7479   44.1339   33.7708 C   0  0  1  0  0  0  0  0  0  0  0  0
    9.2991   45.3652   34.3374 N   0  0  0  0  0  0  0  0  0  0  0  0
    8.8902   44.0516   32.2298 C   0  0  0  0  0  0  0  0  0  0  0  0
    8.2028   45.1727   31.4432 C   0  0  0  0  0  0  0  0  0  0  0  0
    6.6657   45.1075   31.4891 C   0  0  0  0  0  0  0  0  0  0  0  0
    6.0286   46.3263   30.8158 C   0  0  0  0  0  0  0  0  0  0  0  0
    6.5119   47.5661   31.4248 N   0  0  0  0  0  0  0  0  0  0  0  0
    7.2299   48.5520   30.6732 C   0  0  0  0  0  0  0  0  0  0  0  0
    7.5316   49.8116   31.2077 O   0  0  0  0  0  0  0  0  0  0  0  0
    7.6006   48.2985   29.4976 O   0  0  0  0  0  0  0  0  0  0  0  0
    7.1543   50.2557   32.5103 C   0  0  0  0  0  0  0  0  0  0  0  0
    8.0379   49.6422   33.5739 C   0  0  0  0  0  0  0  0  0  0  0  0
    9.4263   49.5926   33.3498 C   0  0  0  0  0  0  0  0  0  0  0  0
    7.5170   49.1295   34.7902 C   0  0  0  0  0  0  0  0  0  0  0  0
   10.2802   49.0127   34.2893 C   0  0  0  0  0  0  0  0  0  0  0  0
    8.3914   48.5390   35.7194 C   0  0  0  0  0  0  0  0  0  0  0  0
    6.1220   49.2300   35.1139 N   0  0  0  0  0  0  0  0  0  0  0  0
    9.7635   48.4841   35.4705 C   0  0  0  0  0  0  0  0  0  0  0  0
    5.4775   50.4411   35.0099 O   0  0  0  0  0  0  0  0  0  0  0  0
    5.5496   48.2907   35.7042 O   0  0  0  0  0  0  0  0  0  0  0  0
    8.5376   39.1397   34.0125 O   0  0  0  0  0  0  0  0  0  0  0  0
   10.9801   40.0877   33.6829 O   0  0  0  0  0  0  0  0  0  0  0  0
   10.8003   40.0907   32.2832 C   0  0  0  0  0  0  0  0  0  0  0  0
   11.5958   38.9271   31.6964 C   0  0  0  0  0  0  0  0  0  0  0  0
   12.9239   38.9409   32.1766 O   0  0  0  0  0  0  0  0  0  0  0  0
   11.0062   37.5719   32.0794 C   0  0  0  0  0  0  0  0  0  0  0  0
   13.3506   37.5905   32.2614 C   0  0  0  0  0  0  0  0  0  0  0  0
    9.9064   37.1793   31.2946 O   0  0  0  0  0  0  0  0  0  0  0  0
   12.1920   36.6672   31.9003 C   0  0  0  0  0  0  0  0  0  0  0  0
   13.8017   37.2948   33.6193 N   0  0  0  0  0  0  0  0  0  0  0  0
   12.3133   36.2788   30.5561 O   0  0  0  0  0  0  0  0  0  0  0  0
   14.7927   36.4717   33.9862 C   0  0  0  0  0  0  0  0  0  0  0  0
   13.2746   37.7284   34.7941 C   0  0  0  0  0  0  0  0  0  0  0  0
   15.6240   35.7576   33.1859 N   0  0  0  0  0  0  0  0  0  0  0  0
   14.8728   36.4406   35.3330 C   0  0  0  0  0  0  0  0  0  0  0  0
   13.9209   37.2258   35.8808 N   0  0  0  0  0  0  0  0  0  0  0  0
   16.5874   34.9920   33.7802 C   0  0  0  0  0  0  0  0  0  0  0  0
   15.8579   35.6716   35.9443 C   0  0  0  0  0  0  0  0  0  0  0  0
   16.7028   34.9584   35.1439 N   0  0  0  0  0  0  0  0  0  0  0  0
   16.0103   35.6383   37.3563 N   0  0  0  0  0  0  0  0  0  0  0  0
    7.6757   44.0592   34.0522 H   0  0  0  0  0  0  0  0  0  0  0  0
    8.6408   46.1491   34.1275 H   0  0  0  0  0  0  0  0  0  0  0  0
   10.2129   45.5870   33.8783 H   0  0  0  0  0  0  0  0  0  0  0  0
    8.4849   43.0817   31.8643 H   0  0  0  0  0  0  0  0  0  0  0  0
    9.9721   44.0650   31.9681 H   0  0  0  0  0  0  0  0  0  0  0  0
    8.5203   45.0962   30.3802 H   0  0  0  0  0  0  0  0  0  0  0  0
    8.5735   46.1496   31.8160 H   0  0  0  0  0  0  0  0  0  0  0  0
    6.3154   44.1821   30.9827 H   0  0  0  0  0  0  0  0  0  0  0  0
    6.3164   45.0779   32.5420 H   0  0  0  0  0  0  0  0  0  0  0  0
    6.2429   46.2933   29.7261 H   0  0  0  0  0  0  0  0  0  0  0  0
    4.9255   46.2728   30.9366 H   0  0  0  0  0  0  0  0  0  0  0  0
    6.2944   47.7260   32.4325 H   0  0  0  0  0  0  0  0  0  0  0  0
    6.0763   50.0491   32.6651 H   0  0  0  0  0  0  0  0  0  0  0  0
    7.2881   51.3569   32.5502 H   0  0  0  0  0  0  0  0  0  0  0  0
    9.8496   49.9968   32.4385 H   0  0  0  0  0  0  0  0  0  0  0  0
   11.3451   48.9723   34.0999 H   0  0  0  0  0  0  0  0  0  0  0  0
    8.0100   48.1401   36.6510 H   0  0  0  0  0  0  0  0  0  0  0  0
   10.4273   48.0331   36.1967 H   0  0  0  0  0  0  0  0  0  0  0  0
    9.7455   40.0168   31.9265 H   0  0  0  0  0  0  0  0  0  0  0  0
   11.2115   41.0421   31.8830 H   0  0  0  0  0  0  0  0  0  0  0  0
   11.6245   39.0450   30.5889 H   0  0  0  0  0  0  0  0  0  0  0  0
   10.7050   37.5581   33.1500 H   0  0  0  0  0  0  0  0  0  0  0  0
   14.1985   37.4426   31.5553 H   0  0  0  0  0  0  0  0  0  0  0  0
   10.0893   37.4058   30.3459 H   0  0  0  0  0  0  0  0  0  0  0  0
   12.1337   35.7754   32.5703 H   0  0  0  0  0  0  0  0  0  0  0  0
   11.7933   35.4394   30.4514 H   0  0  0  0  0  0  0  0  0  0  0  0
   12.4314   38.3973   34.8700 H   0  0  0  0  0  0  0  0  0  0  0  0
   17.2669   34.4142   33.1692 H   0  0  0  0  0  0  0  0  0  0  0  0
   16.7638   35.0599   37.7896 H   0  0  0  0  0  0  0  0  0  0  0  0
   15.3759   36.1865   37.9790 H   0  0  0  0  0  0  0  0  0  0  0  0
  1  2  2  0
  1  3  1  0
  3  4  1  0
  4  5  1  0
  6  1  1  0
  7  6  1  0
  6  8  1  0
  8  9  1  0
  9 10  1  0
 10 11  1  0
 11 12  1  0
 12 13  1  0
 13 14  1  0
 13 15  2  0
 14 16  1  0
 16 17  1  0
 17 18  2  0
 19 17  1  0
 18 20  1  0
 21 19  2  0
 19 22  1  0
 20 23  2  0
 23 21  1  0
 22 24  1  0
 22 25  2  0
  4 26  2  0
  4 27  1  0
 28 27  1  0
 28 29  1  0
 29 30  1  0
 29 31  1  0
 30 32  1  0
 31 33  1  0
 31 34  1  0
 34 32  1  0
 32 35  1  0
 34 36  1  0
 37 35  1  0
 38 35  1  0
 39 37  2  0
 37 40  1  0
 41 38  2  0
 42 39  1  0
 40 43  2  0
 40 41  1  0
 44 42  2  0
 44 43  1  0
 43 45  1  0
  6 46  1  6
  7 47  1  0
  7 48  1  0
  8 49  1  0
  8 50  1  0
  9 51  1  0
  9 52  1  0
 10 53  1  0
 10 54  1  0
 11 55  1  0
 11 56  1  0
 12 57  1  0
 16 58  1  0
 16 59  1  0
 18 60  1  0
 20 61  1  0
 21 62  1  0
 23 63  1  0
 28 64  1  0
 28 65  1  0
 29 66  1  0
 31 67  1  0
 32 68  1  0
 33 69  1  0
 34 70  1  0
 36 71  1  0
 38 72  1  0
 42 73  1  0
 45 74  1  0
 45 75  1  0
M  CHG  3   5  -1  22   1  24  -1
M  END
>  <EmbedRMS>  (339) 
0.0737861117495

$$$$

     RDKit          3D

 75 78  0  0  0  0  0  0  0  0999 V2000
    9.4302   42.9407   34.3425 C   0  0  0  0  0  0  0  0  0  0  0  0
   10.4913   43.0387   35.0229 O   0  0  0  0  0  0  0  0  0  0  0  0
    8.8541   41.7128   34.0287 O   0  0  0  0  0  0  0  0  0  0  0  0
    9.4926   40.2165   34.4698 P   0  0  0  0  0  0  0  0  0  0  0  0
    9.7293   40.1748   36.1308 O   0  0  0  0  0  0  0  0  0  0  0  0
    8.7423   44.1401   33.7777 C   0  0  1  0  0  0  0  0  0  0  0  0
    9.3039   45.3732   34.3327 N   0  0  0  0  0  0  0  0  0  0  0  0
    8.8976   44.0642   32.2389 C   0  0  0  0  0  0  0  0  0  0  0  0
    8.2014   45.1742   31.4405 C   0  0  0  0  0  0  0  0  0  0  0  0
    6.6637   45.1089   31.4907 C   0  0  0  0  0  0  0  0  0  0  0  0
    6.0201   46.3203   30.8062 C   0  0  0  0  0  0  0  0  0  0  0  0
    6.4855   47.5673   31.4122 N   0  0  0  0  0  0  0  0  0  0  0  0
    7.2795   48.5133   30.7004 C   0  0  0  0  0  0  0  0  0  0  0  0
    7.7998   49.6142   31.3873 O   0  0  0  0  0  0  0  0  0  0  0  0
    7.5854   48.3123   29.4937 O   0  0  0  0  0  0  0  0  0  0  0  0
    8.9503   50.3276   30.9383 C   0  0  0  0  0  0  0  0  0  0  0  0
   10.1706   49.4324   30.9974 C   0  0  0  0  0  0  0  0  0  0  0  0
   10.4005   48.6995   32.1771 C   0  0  0  0  0  0  0  0  0  0  0  0
   11.0372   49.2450   29.8888 C   0  0  0  0  0  0  0  0  0  0  0  0
   11.4294   47.7595   32.2439 C   0  0  0  0  0  0  0  0  0  0  0  0
   12.0586   48.2828   29.9703 C   0  0  0  0  0  0  0  0  0  0  0  0
   10.9142   50.0251   28.6897 N   0  0  0  0  0  0  0  0  0  0  0  0
   12.2503   47.5439   31.1388 C   0  0  0  0  0  0  0  0  0  0  0  0
   11.1770   49.4481   27.4687 O   0  0  0  0  0  0  0  0  0  0  0  0
   10.8111   51.2672   28.7591 O   0  0  0  0  0  0  0  0  0  0  0  0
    8.5367   39.1396   34.0139 O   0  0  0  0  0  0  0  0  0  0  0  0
   10.9782   40.0892   33.6866 O   0  0  0  0  0  0  0  0  0  0  0  0
   10.7973   40.0898   32.2879 C   0  0  0  0  0  0  0  0  0  0  0  0
   11.5882   38.9235   31.7043 C   0  0  0  0  0  0  0  0  0  0  0  0
   12.9230   38.9440   32.1729 O   0  0  0  0  0  0  0  0  0  0  0  0
   11.0048   37.5704   32.0916 C   0  0  0  0  0  0  0  0  0  0  0  0
   13.3570   37.5961   32.2595 C   0  0  0  0  0  0  0  0  0  0  0  0
    9.9331   37.1987   31.2677 O   0  0  0  0  0  0  0  0  0  0  0  0
   12.1965   36.6751   31.8950 C   0  0  0  0  0  0  0  0  0  0  0  0
   13.8037   37.2979   33.6187 N   0  0  0  0  0  0  0  0  0  0  0  0
   12.2934   36.2389   30.5582 O   0  0  0  0  0  0  0  0  0  0  0  0
   14.7929   36.4726   33.9860 C   0  0  0  0  0  0  0  0  0  0  0  0
   13.2755   37.7304   34.7934 C   0  0  0  0  0  0  0  0  0  0  0  0
   15.6244   35.7585   33.1859 N   0  0  0  0  0  0  0  0  0  0  0  0
   14.8722   36.4407   35.3328 C   0  0  0  0  0  0  0  0  0  0  0  0
   13.9205   37.2263   35.8803 N   0  0  0  0  0  0  0  0  0  0  0  0
   16.5872   34.9923   33.7802 C   0  0  0  0  0  0  0  0  0  0  0  0
   15.8573   35.6715   35.9442 C   0  0  0  0  0  0  0  0  0  0  0  0
   16.7023   34.9584   35.1439 N   0  0  0  0  0  0  0  0  0  0  0  0
   16.0098   35.6384   37.3563 N   0  0  0  0  0  0  0  0  0  0  0  0
    7.6677   44.0688   34.0533 H   0  0  0  0  0  0  0  0  0  0  0  0
    8.6887   46.1710   34.0547 H   0  0  0  0  0  0  0  0  0  0  0  0
    9.2310   45.3303   35.3758 H   0  0  0  0  0  0  0  0  0  0  0  0
    9.9824   44.0998   31.9912 H   0  0  0  0  0  0  0  0  0  0  0  0
    8.5126   43.0885   31.8669 H   0  0  0  0  0  0  0  0  0  0  0  0
    8.5724   46.1573   31.7940 H   0  0  0  0  0  0  0  0  0  0  0  0
    8.5157   45.0843   30.3776 H   0  0  0  0  0  0  0  0  0  0  0  0
    6.3165   45.0890   32.5443 H   0  0  0  0  0  0  0  0  0  0  0  0
    6.3140   44.1776   30.9947 H   0  0  0  0  0  0  0  0  0  0  0  0
    4.9165   46.2575   30.9156 H   0  0  0  0  0  0  0  0  0  0  0  0
    6.2463   46.2853   29.7188 H   0  0  0  0  0  0  0  0  0  0  0  0
    6.2678   47.7499   32.4177 H   0  0  0  0  0  0  0  0  0  0  0  0
    9.1134   51.1951   31.6114 H   0  0  0  0  0  0  0  0  0  0  0  0
    8.7491   50.7190   29.9213 H   0  0  0  0  0  0  0  0  0  0  0  0
    9.7571   48.8323   33.0385 H   0  0  0  0  0  0  0  0  0  0  0  0
   11.5821   47.1884   33.1507 H   0  0  0  0  0  0  0  0  0  0  0  0
   12.7238   48.1203   29.1317 H   0  0  0  0  0  0  0  0  0  0  0  0
   13.0444   46.8103   31.1908 H   0  0  0  0  0  0  0  0  0  0  0  0
   11.2113   41.0392   31.8855 H   0  0  0  0  0  0  0  0  0  0  0  0
    9.7423   40.0188   31.9310 H   0  0  0  0  0  0  0  0  0  0  0  0
   11.5933   39.0395   30.5966 H   0  0  0  0  0  0  0  0  0  0  0  0
   10.6985   37.5588   33.1640 H   0  0  0  0  0  0  0  0  0  0  0  0
   14.2072   37.4493   31.5564 H   0  0  0  0  0  0  0  0  0  0  0  0
    9.5320   36.3882   31.6772 H   0  0  0  0  0  0  0  0  0  0  0  0
   12.1344   35.7839   32.5584 H   0  0  0  0  0  0  0  0  0  0  0  0
   12.4642   37.0179   29.9675 H   0  0  0  0  0  0  0  0  0  0  0  0
   12.4333   38.4006   34.8692 H   0  0  0  0  0  0  0  0  0  0  0  0
   17.2668   34.4144   33.1692 H   0  0  0  0  0  0  0  0  0  0  0  0
   15.3755   36.1866   37.9790 H   0  0  0  0  0  0  0  0  0  0  0  0
   16.7634   35.0600   37.7896 H   0  0  0  0  0  0  0  0  0  0  0  0
  1  2  2  0
  1  3  1  0
  3  4  1  0
  4  5  1  0
  6  1  1  0
  7  6  1  0
  6  8  1  0
  8  9  1  0
  9 10  1  0
 10 11  1  0
 11 12  1  0
 12 13  1  0
 13 14  1  0
 13 15  2  0
 14 16  1  0
 16 17  1  0
 17 18  2  0
 19 17  1  0
 18 20  1  0
 21 19  2  0
 19 22  1  0
 20 23  2  0
 23 21  1  0
 22 24  1  0
 22 25  2  0
  4 26  2  0
  4 27  1  0
 28 27  1  0
 28 29  1  0
 29 30  1  0
 29 31  1  0
 30 32  1  0
 31 33  1  0
 31 34  1  0
 34 32  1  0
 32 35  1  0
 34 36  1  0
 37 35  1  0
 38 35  1  0
 39 37  2  0
 37 40  1  0
 41 38  2  0
 42 39  1  0
 40 43  2  0
 40 41  1  0
 44 42  2  0
 44 43  1  0
 43 45  1  0
  6 46  1  6
  7 47  1  0
  7 48  1  0
  8 49  1  0
  8 50  1  0
  9 51  1  0
  9 52  1  0
 10 53  1  0
 10 54  1  0
 11 55  1  0
 11 56  1  0
 12 57  1  0
 16 58  1  0
 16 59  1  0
 18 60  1  0
 20 61  1  0
 21 62  1  0
 23 63  1  0
 28 64  1  0
 28 65  1  0
 29 66  1  0
 31 67  1  0
 32 68  1  0
 33 69  1  0
 34 70  1  0
 36 71  1  0
 38 72  1  0
 42 73  1  0
 45 74  1  0
 45 75  1  0
M  CHG  3   5  -1  22   1  24  -1
M  END
>  <EmbedRMS>  (340) 
0.0767550305788

$$$$

     RDKit          3D

 75 78  0  0  0  0  0  0  0  0999 V2000
    9.4332   42.9366   34.3464 C   0  0  0  0  0  0  0  0  0  0  0  0
   10.4908   43.0331   35.0319 O   0  0  0  0  0  0  0  0  0  0  0  0
    8.8559   41.7105   34.0306 O   0  0  0  0  0  0  0  0  0  0  0  0
    9.4931   40.2143   34.4708 P   0  0  0  0  0  0  0  0  0  0  0  0
    9.7288   40.1729   36.1318 O   0  0  0  0  0  0  0  0  0  0  0  0
    8.7506   44.1349   33.7741 C   0  0  1  0  0  0  0  0  0  0  0  0
    9.2963   45.3821   34.3133 N   0  0  0  0  0  0  0  0  0  0  0  0
    8.8893   44.0527   32.2359 C   0  0  0  0  0  0  0  0  0  0  0  0
    8.2028   45.1823   31.4615 C   0  0  0  0  0  0  0  0  0  0  0  0
    6.6654   45.1045   31.4855 C   0  0  0  0  0  0  0  0  0  0  0  0
    6.0270   46.3225   30.8105 C   0  0  0  0  0  0  0  0  0  0  0  0
    6.5063   47.5639   31.4180 N   0  0  0  0  0  0  0  0  0  0  0  0
    7.2435   48.5393   30.6835 C   0  0  0  0  0  0  0  0  0  0  0  0
    7.5923   49.7405   31.3061 O   0  0  0  0  0  0  0  0  0  0  0  0
    7.5934   48.3118   29.4937 O   0  0  0  0  0  0  0  0  0  0  0  0
    8.3374   50.7599   30.6482 C   0  0  0  0  0  0  0  0  0  0  0  0
    8.5327   51.9239   31.5850 C   0  0  0  0  0  0  0  0  0  0  0  0
    9.7645   52.0470   32.2536 C   0  0  0  0  0  0  0  0  0  0  0  0
    7.5274   52.9081   31.7935 C   0  0  0  0  0  0  0  0  0  0  0  0
   10.0119   53.1298   33.0980 C   0  0  0  0  0  0  0  0  0  0  0  0
    7.8052   53.9992   32.6368 C   0  0  0  0  0  0  0  0  0  0  0  0
    6.2388   52.8358   31.1546 N   0  0  0  0  0  0  0  0  0  0  0  0
    9.0362   54.1063   33.2853 C   0  0  0  0  0  0  0  0  0  0  0  0
    5.5420   53.9909   30.8825 O   0  0  0  0  0  0  0  0  0  0  0  0
    5.6661   51.7395   30.9906 O   0  0  0  0  0  0  0  0  0  0  0  0
    8.5366   39.1385   34.0140 O   0  0  0  0  0  0  0  0  0  0  0  0
   10.9795   40.0875   33.6890 O   0  0  0  0  0  0  0  0  0  0  0  0
   10.8017   40.0947   32.2902 C   0  0  0  0  0  0  0  0  0  0  0  0
   11.5885   38.9266   31.7041 C   0  0  0  0  0  0  0  0  0  0  0  0
   12.9237   38.9445   32.1721 O   0  0  0  0  0  0  0  0  0  0  0  0
   11.0029   37.5725   32.0908 C   0  0  0  0  0  0  0  0  0  0  0  0
   13.3555   37.5960   32.2594 C   0  0  0  0  0  0  0  0  0  0  0  0
    9.9380   37.1846   31.2656 O   0  0  0  0  0  0  0  0  0  0  0  0
   12.1932   36.6769   31.8952 C   0  0  0  0  0  0  0  0  0  0  0  0
   13.8028   37.2977   33.6186 N   0  0  0  0  0  0  0  0  0  0  0  0
   12.2918   36.2396   30.5587 O   0  0  0  0  0  0  0  0  0  0  0  0
   14.7926   36.4727   33.9858 C   0  0  0  0  0  0  0  0  0  0  0  0
   13.2750   37.7302   34.7935 C   0  0  0  0  0  0  0  0  0  0  0  0
   15.6241   35.7586   33.1857 N   0  0  0  0  0  0  0  0  0  0  0  0
   14.8721   36.4408   35.3326 C   0  0  0  0  0  0  0  0  0  0  0  0
   13.9204   37.2263   35.8802 N   0  0  0  0  0  0  0  0  0  0  0  0
   16.5870   34.9924   33.7800 C   0  0  0  0  0  0  0  0  0  0  0  0
   15.8572   35.6717   35.9441 C   0  0  0  0  0  0  0  0  0  0  0  0
   16.7022   34.9585   35.1437 N   0  0  0  0  0  0  0  0  0  0  0  0
   16.0097   35.6384   37.3561 N   0  0  0  0  0  0  0  0  0  0  0  0
    7.6770   44.0707   34.0504 H   0  0  0  0  0  0  0  0  0  0  0  0
   10.3192   45.4408   34.0999 H   0  0  0  0  0  0  0  0  0  0  0  0
    9.1827   45.3822   35.3534 H   0  0  0  0  0  0  0  0  0  0  0  0
    8.4816   43.0850   31.8670 H   0  0  0  0  0  0  0  0  0  0  0  0
    9.9711   44.0680   31.9740 H   0  0  0  0  0  0  0  0  0  0  0  0
    8.5553   46.1509   31.8742 H   0  0  0  0  0  0  0  0  0  0  0  0
    8.5385   45.1362   30.4022 H   0  0  0  0  0  0  0  0  0  0  0  0
    6.3296   44.1799   30.9678 H   0  0  0  0  0  0  0  0  0  0  0  0
    6.3020   45.0643   32.5333 H   0  0  0  0  0  0  0  0  0  0  0  0
    6.2466   46.2897   29.7217 H   0  0  0  0  0  0  0  0  0  0  0  0
    4.9236   46.2673   30.9264 H   0  0  0  0  0  0  0  0  0  0  0  0
    6.2818   47.7532   32.4208 H   0  0  0  0  0  0  0  0  0  0  0  0
    9.3199   50.3441   30.3331 H   0  0  0  0  0  0  0  0  0  0  0  0
    7.8139   51.0920   29.7258 H   0  0  0  0  0  0  0  0  0  0  0  0
   10.5410   51.3042   32.1171 H   0  0  0  0  0  0  0  0  0  0  0  0
   10.9648   53.2140   33.6045 H   0  0  0  0  0  0  0  0  0  0  0  0
    7.0580   54.7638   32.8073 H   0  0  0  0  0  0  0  0  0  0  0  0
    9.2320   54.9473   33.9381 H   0  0  0  0  0  0  0  0  0  0  0  0
    9.7472   40.0378   31.9304 H   0  0  0  0  0  0  0  0  0  0  0  0
   11.2242   41.0427   31.8934 H   0  0  0  0  0  0  0  0  0  0  0  0
   11.5927   39.0434   30.5965 H   0  0  0  0  0  0  0  0  0  0  0  0
   10.7004   37.5442   33.1640 H   0  0  0  0  0  0  0  0  0  0  0  0
   14.2052   37.4477   31.5560 H   0  0  0  0  0  0  0  0  0  0  0  0
    9.1374   37.6722   31.5905 H   0  0  0  0  0  0  0  0  0  0  0  0
   12.1305   35.7855   32.5585 H   0  0  0  0  0  0  0  0  0  0  0  0
   12.4606   37.0186   29.9674 H   0  0  0  0  0  0  0  0  0  0  0  0
   12.4327   38.4001   34.8694 H   0  0  0  0  0  0  0  0  0  0  0  0
   17.2666   34.4146   33.1690 H   0  0  0  0  0  0  0  0  0  0  0  0
   15.3754   36.1866   37.9788 H   0  0  0  0  0  0  0  0  0  0  0  0
   16.7634   35.0601   37.7894 H   0  0  0  0  0  0  0  0  0  0  0  0
  1  2  2  0
  1  3  1  0
  3  4  1  0
  4  5  1  0
  6  1  1  0
  7  6  1  0
  6  8  1  0
  8  9  1  0
  9 10  1  0
 10 11  1  0
 11 12  1  0
 12 13  1  0
 13 14  1  0
 13 15  2  0
 14 16  1  0
 16 17  1  0
 17 18  2  0
 19 17  1  0
 18 20  1  0
 21 19  2  0
 19 22  1  0
 20 23  2  0
 23 21  1  0
 22 24  1  0
 22 25  2  0
  4 26  2  0
  4 27  1  0
 28 27  1  0
 28 29  1  0
 29 30  1  0
 29 31  1  0
 30 32  1  0
 31 33  1  0
 31 34  1  0
 34 32  1  0
 32 35  1  0
 34 36  1  0
 37 35  1  0
 38 35  1  0
 39 37  2  0
 37 40  1  0
 41 38  2  0
 42 39  1  0
 40 43  2  0
 40 41  1  0
 44 42  2  0
 44 43  1  0
 43 45  1  0
  6 46  1  6
  7 47  1  0
  7 48  1  0
  8 49  1  0
  8 50  1  0
  9 51  1  0
  9 52  1  0
 10 53  1  0
 10 54  1  0
 11 55  1  0
 11 56  1  0
 12 57  1  0
 16 58  1  0
 16 59  1  0
 18 60  1  0
 20 61  1  0
 21 62  1  0
 23 63  1  0
 28 64  1  0
 28 65  1  0
 29 66  1  0
 31 67  1  0
 32 68  1  0
 33 69  1  0
 34 70  1  0
 36 71  1  0
 38 72  1  0
 42 73  1  0
 45 74  1  0
 45 75  1  0
M  CHG  3   5  -1  22   1  24  -1
M  END
>  <EmbedRMS>  (341) 
0.0757048860015

$$$$

     RDKit          3D

 75 78  0  0  0  0  0  0  0  0999 V2000
    9.4334   42.9372   34.3459 C   0  0  0  0  0  0  0  0  0  0  0  0
   10.4909   43.0336   35.0316 O   0  0  0  0  0  0  0  0  0  0  0  0
    8.8559   41.7109   34.0302 O   0  0  0  0  0  0  0  0  0  0  0  0
    9.4930   40.2146   34.4707 P   0  0  0  0  0  0  0  0  0  0  0  0
    9.7287   40.1732   36.1317 O   0  0  0  0  0  0  0  0  0  0  0  0
    8.7509   44.1358   33.7738 C   0  0  1  0  0  0  0  0  0  0  0  0
    9.2966   45.3830   34.3132 N   0  0  0  0  0  0  0  0  0  0  0  0
    8.8895   44.0546   32.2354 C   0  0  0  0  0  0  0  0  0  0  0  0
    8.2024   45.1849   31.4618 C   0  0  0  0  0  0  0  0  0  0  0  0
    6.6648   45.1057   31.4852 C   0  0  0  0  0  0  0  0  0  0  0  0
    6.0242   46.3217   30.8077 C   0  0  0  0  0  0  0  0  0  0  0  0
    6.4976   47.5651   31.4154 N   0  0  0  0  0  0  0  0  0  0  0  0
    7.2597   48.5285   30.6913 C   0  0  0  0  0  0  0  0  0  0  0  0
    7.6756   49.6942   31.3425 O   0  0  0  0  0  0  0  0  0  0  0  0
    7.5889   48.3120   29.4938 O   0  0  0  0  0  0  0  0  0  0  0  0
    8.6307   50.6021   30.7974 C   0  0  0  0  0  0  0  0  0  0  0  0
   10.0081   49.9805   30.7902 C   0  0  0  0  0  0  0  0  0  0  0  0
   10.5310   49.5226   29.5665 C   0  0  0  0  0  0  0  0  0  0  0  0
   10.7982   49.8698   31.9669 C   0  0  0  0  0  0  0  0  0  0  0  0
   11.8061   48.9606   29.5009 C   0  0  0  0  0  0  0  0  0  0  0  0
   12.0871   49.3117   31.8740 C   0  0  0  0  0  0  0  0  0  0  0  0
   10.3336   50.3396   33.2466 N   0  0  0  0  0  0  0  0  0  0  0  0
   12.5830   48.8561   30.6521 C   0  0  0  0  0  0  0  0  0  0  0  0
    9.0286   50.1525   33.6369 O   0  0  0  0  0  0  0  0  0  0  0  0
   11.1491   50.7807   34.0828 O   0  0  0  0  0  0  0  0  0  0  0  0
    8.5366   39.1388   34.0140 O   0  0  0  0  0  0  0  0  0  0  0  0
   10.9794   40.0875   33.6889 O   0  0  0  0  0  0  0  0  0  0  0  0
   10.8017   40.0948   32.2901 C   0  0  0  0  0  0  0  0  0  0  0  0
   11.5885   38.9266   31.7041 C   0  0  0  0  0  0  0  0  0  0  0  0
   12.9237   38.9445   32.1721 O   0  0  0  0  0  0  0  0  0  0  0  0
   11.0029   37.5726   32.0908 C   0  0  0  0  0  0  0  0  0  0  0  0
   13.3555   37.5960   32.2594 C   0  0  0  0  0  0  0  0  0  0  0  0
    9.9380   37.1846   31.2656 O   0  0  0  0  0  0  0  0  0  0  0  0
   12.1932   36.6769   31.8952 C   0  0  0  0  0  0  0  0  0  0  0  0
   13.8028   37.2977   33.6186 N   0  0  0  0  0  0  0  0  0  0  0  0
   12.2918   36.2396   30.5587 O   0  0  0  0  0  0  0  0  0  0  0  0
   14.7926   36.4727   33.9858 C   0  0  0  0  0  0  0  0  0  0  0  0
   13.2750   37.7302   34.7935 C   0  0  0  0  0  0  0  0  0  0  0  0
   15.6241   35.7586   33.1857 N   0  0  0  0  0  0  0  0  0  0  0  0
   14.8721   36.4408   35.3326 C   0  0  0  0  0  0  0  0  0  0  0  0
   13.9204   37.2263   35.8802 N   0  0  0  0  0  0  0  0  0  0  0  0
   16.5870   34.9924   33.7800 C   0  0  0  0  0  0  0  0  0  0  0  0
   15.8572   35.6717   35.9441 C   0  0  0  0  0  0  0  0  0  0  0  0
   16.7022   34.9585   35.1437 N   0  0  0  0  0  0  0  0  0  0  0  0
   16.0097   35.6384   37.3561 N   0  0  0  0  0  0  0  0  0  0  0  0
    7.6773   44.0718   34.0499 H   0  0  0  0  0  0  0  0  0  0  0  0
   10.3191   45.4428   34.0981 H   0  0  0  0  0  0  0  0  0  0  0  0
    9.1845   45.3824   35.3535 H   0  0  0  0  0  0  0  0  0  0  0  0
    8.4823   43.0870   31.8659 H   0  0  0  0  0  0  0  0  0  0  0  0
    9.9713   44.0709   31.9735 H   0  0  0  0  0  0  0  0  0  0  0  0
    8.5387   45.1405   30.4027 H   0  0  0  0  0  0  0  0  0  0  0  0
    8.5536   46.1538   31.8755 H   0  0  0  0  0  0  0  0  0  0  0  0
    6.3306   44.1798   30.9688 H   0  0  0  0  0  0  0  0  0  0  0  0
    6.3012   45.0664   32.5330 H   0  0  0  0  0  0  0  0  0  0  0  0
    6.2467   46.2888   29.7195 H   0  0  0  0  0  0  0  0  0  0  0  0
    4.9206   46.2631   30.9205 H   0  0  0  0  0  0  0  0  0  0  0  0
    6.2755   47.7512   32.4193 H   0  0  0  0  0  0  0  0  0  0  0  0
    8.3140   50.9004   29.7737 H   0  0  0  0  0  0  0  0  0  0  0  0
    8.6443   51.5314   31.4047 H   0  0  0  0  0  0  0  0  0  0  0  0
    9.9498   49.6009   28.6560 H   0  0  0  0  0  0  0  0  0  0  0  0
   12.1942   48.6092   28.5535 H   0  0  0  0  0  0  0  0  0  0  0  0
   12.7076   49.2176   32.7563 H   0  0  0  0  0  0  0  0  0  0  0  0
   13.5732   48.4223   30.5981 H   0  0  0  0  0  0  0  0  0  0  0  0
    9.7473   40.0379   31.9303 H   0  0  0  0  0  0  0  0  0  0  0  0
   11.2242   41.0427   31.8934 H   0  0  0  0  0  0  0  0  0  0  0  0
   11.5927   39.0434   30.5965 H   0  0  0  0  0  0  0  0  0  0  0  0
   10.7003   37.5442   33.1640 H   0  0  0  0  0  0  0  0  0  0  0  0
   14.2052   37.4477   31.5560 H   0  0  0  0  0  0  0  0  0  0  0  0
    9.1374   37.6722   31.5905 H   0  0  0  0  0  0  0  0  0  0  0  0
   12.1305   35.7856   32.5585 H   0  0  0  0  0  0  0  0  0  0  0  0
   12.4606   37.0186   29.9674 H   0  0  0  0  0  0  0  0  0  0  0  0
   12.4327   38.4001   34.8694 H   0  0  0  0  0  0  0  0  0  0  0  0
   17.2666   34.4146   33.1690 H   0  0  0  0  0  0  0  0  0  0  0  0
   15.3754   36.1866   37.9788 H   0  0  0  0  0  0  0  0  0  0  0  0
   16.7634   35.0601   37.7894 H   0  0  0  0  0  0  0  0  0  0  0  0
  1  2  2  0
  1  3  1  0
  3  4  1  0
  4  5  1  0
  6  1  1  0
  7  6  1  0
  6  8  1  0
  8  9  1  0
  9 10  1  0
 10 11  1  0
 11 12  1  0
 12 13  1  0
 13 14  1  0
 13 15  2  0
 14 16  1  0
 16 17  1  0
 17 18  2  0
 19 17  1  0
 18 20  1  0
 21 19  2  0
 19 22  1  0
 20 23  2  0
 23 21  1  0
 22 24  1  0
 22 25  2  0
  4 26  2  0
  4 27  1  0
 28 27  1  0
 28 29  1  0
 29 30  1  0
 29 31  1  0
 30 32  1  0
 31 33  1  0
 31 34  1  0
 34 32  1  0
 32 35  1  0
 34 36  1  0
 37 35  1  0
 38 35  1  0
 39 37  2  0
 37 40  1  0
 41 38  2  0
 42 39  1  0
 40 43  2  0
 40 41  1  0
 44 42  2  0
 44 43  1  0
 43 45  1  0
  6 46  1  6
  7 47  1  0
  7 48  1  0
  8 49  1  0
  8 50  1  0
  9 51  1  0
  9 52  1  0
 10 53  1  0
 10 54  1  0
 11 55  1  0
 11 56  1  0
 12 57  1  0
 16 58  1  0
 16 59  1  0
 18 60  1  0
 20 61  1  0
 21 62  1  0
 23 63  1  0
 28 64  1  0
 28 65  1  0
 29 66  1  0
 31 67  1  0
 32 68  1  0
 33 69  1  0
 34 70  1  0
 36 71  1  0
 38 72  1  0
 42 73  1  0
 45 74  1  0
 45 75  1  0
M  CHG  3   5  -1  22   1  24  -1
M  END
>  <EmbedRMS>  (342) 
0.0762281090226

$$$$

     RDKit          3D

 75 78  0  0  0  0  0  0  0  0999 V2000
    9.4311   42.9411   34.3438 C   0  0  0  0  0  0  0  0  0  0  0  0
   10.4885   43.0409   35.0293 O   0  0  0  0  0  0  0  0  0  0  0  0
    8.8558   41.7128   34.0292 O   0  0  0  0  0  0  0  0  0  0  0  0
    9.4946   40.2162   34.4676 P   0  0  0  0  0  0  0  0  0  0  0  0
    9.7319   40.1739   36.1286 O   0  0  0  0  0  0  0  0  0  0  0  0
    8.7483   44.1360   33.7721 C   0  0  1  0  0  0  0  0  0  0  0  0
    9.3039   45.3665   34.3388 N   0  0  0  0  0  0  0  0  0  0  0  0
    8.8892   44.0519   32.2309 C   0  0  0  0  0  0  0  0  0  0  0  0
    8.2014   45.1722   31.4436 C   0  0  0  0  0  0  0  0  0  0  0  0
    6.6642   45.1066   31.4887 C   0  0  0  0  0  0  0  0  0  0  0  0
    6.0265   46.3234   30.8120 C   0  0  0  0  0  0  0  0  0  0  0  0
    6.5074   47.5645   31.4186 N   0  0  0  0  0  0  0  0  0  0  0  0
    7.2443   48.5393   30.6833 C   0  0  0  0  0  0  0  0  0  0  0  0
    7.5949   49.7402   31.3056 O   0  0  0  0  0  0  0  0  0  0  0  0
    7.5931   48.3115   29.4933 O   0  0  0  0  0  0  0  0  0  0  0  0
    8.3416   50.7583   30.6475 C   0  0  0  0  0  0  0  0  0  0  0  0
    8.5390   51.9220   31.5843 C   0  0  0  0  0  0  0  0  0  0  0  0
    9.7709   52.0425   32.2532 C   0  0  0  0  0  0  0  0  0  0  0  0
    7.5358   52.9082   31.7924 C   0  0  0  0  0  0  0  0  0  0  0  0
   10.0203   53.1249   33.0976 C   0  0  0  0  0  0  0  0  0  0  0  0
    7.8156   53.9989   32.6356 C   0  0  0  0  0  0  0  0  0  0  0  0
    6.2472   52.8385   31.1533 N   0  0  0  0  0  0  0  0  0  0  0  0
    9.0466   54.1035   33.2845 C   0  0  0  0  0  0  0  0  0  0  0  0
    5.5529   53.9949   30.8807 O   0  0  0  0  0  0  0  0  0  0  0  0
    5.6721   51.7433   30.9896 O   0  0  0  0  0  0  0  0  0  0  0  0
    8.5375   39.1400   34.0125 O   0  0  0  0  0  0  0  0  0  0  0  0
   10.9796   40.0897   33.6814 O   0  0  0  0  0  0  0  0  0  0  0  0
   10.7982   40.0850   32.2818 C   0  0  0  0  0  0  0  0  0  0  0  0
   11.5886   38.9143   31.7009 C   0  0  0  0  0  0  0  0  0  0  0  0
   12.9213   38.9368   32.1699 O   0  0  0  0  0  0  0  0  0  0  0  0
   11.0047   37.5661   32.0991 C   0  0  0  0  0  0  0  0  0  0  0  0
   13.3510   37.5885   32.2602 C   0  0  0  0  0  0  0  0  0  0  0  0
    9.9296   37.1962   31.2780 O   0  0  0  0  0  0  0  0  0  0  0  0
   12.1923   36.6659   31.9047 C   0  0  0  0  0  0  0  0  0  0  0  0
   13.8033   37.2967   33.6188 N   0  0  0  0  0  0  0  0  0  0  0  0
   12.3006   36.2865   30.5562 O   0  0  0  0  0  0  0  0  0  0  0  0
   14.7933   36.4724   33.9860 C   0  0  0  0  0  0  0  0  0  0  0  0
   13.2753   37.7296   34.7935 C   0  0  0  0  0  0  0  0  0  0  0  0
   15.6243   35.7579   33.1860 N   0  0  0  0  0  0  0  0  0  0  0  0
   14.8728   36.4410   35.3328 C   0  0  0  0  0  0  0  0  0  0  0  0
   13.9209   37.2263   35.8804 N   0  0  0  0  0  0  0  0  0  0  0  0
   16.5873   34.9919   33.7803 C   0  0  0  0  0  0  0  0  0  0  0  0
   15.8577   35.6717   35.9443 C   0  0  0  0  0  0  0  0  0  0  0  0
   16.7025   34.9583   35.1440 N   0  0  0  0  0  0  0  0  0  0  0  0
   16.0100   35.6384   37.3563 N   0  0  0  0  0  0  0  0  0  0  0  0
    7.6763   44.0635   34.0548 H   0  0  0  0  0  0  0  0  0  0  0  0
   10.2152   45.5879   33.8748 H   0  0  0  0  0  0  0  0  0  0  0  0
    8.6469   46.1559   34.1432 H   0  0  0  0  0  0  0  0  0  0  0  0
    8.4831   43.0818   31.8666 H   0  0  0  0  0  0  0  0  0  0  0  0
    9.9708   44.0644   31.9680 H   0  0  0  0  0  0  0  0  0  0  0  0
    8.5198   45.0960   30.3808 H   0  0  0  0  0  0  0  0  0  0  0  0
    8.5712   46.1488   31.8175 H   0  0  0  0  0  0  0  0  0  0  0  0
    6.3141   45.0785   32.5414 H   0  0  0  0  0  0  0  0  0  0  0  0
    6.3148   44.1799   30.9838 H   0  0  0  0  0  0  0  0  0  0  0  0
    6.2450   46.2894   29.7230 H   0  0  0  0  0  0  0  0  0  0  0  0
    4.9231   46.2693   30.9294 H   0  0  0  0  0  0  0  0  0  0  0  0
    6.2849   47.7538   32.4219 H   0  0  0  0  0  0  0  0  0  0  0  0
    9.3233   50.3408   30.3323 H   0  0  0  0  0  0  0  0  0  0  0  0
    7.8185   51.0912   29.7252 H   0  0  0  0  0  0  0  0  0  0  0  0
   10.5459   51.2981   32.1171 H   0  0  0  0  0  0  0  0  0  0  0  0
   10.9732   53.2071   33.6043 H   0  0  0  0  0  0  0  0  0  0  0  0
    7.0700   54.7651   32.8058 H   0  0  0  0  0  0  0  0  0  0  0  0
    9.2441   54.9441   33.9372 H   0  0  0  0  0  0  0  0  0  0  0  0
    9.7426   40.0141   31.9266 H   0  0  0  0  0  0  0  0  0  0  0  0
   11.2130   41.0321   31.8752 H   0  0  0  0  0  0  0  0  0  0  0  0
   11.5980   39.0108   30.5905 H   0  0  0  0  0  0  0  0  0  0  0  0
   10.7008   37.5603   33.1721 H   0  0  0  0  0  0  0  0  0  0  0  0
   14.1976   37.4380   31.5532 H   0  0  0  0  0  0  0  0  0  0  0  0
    9.5180   36.3962   31.6978 H   0  0  0  0  0  0  0  0  0  0  0  0
   12.1418   35.7698   32.5692 H   0  0  0  0  0  0  0  0  0  0  0  0
   11.7729   35.4524   30.4489 H   0  0  0  0  0  0  0  0  0  0  0  0
   12.4321   38.3985   34.8692 H   0  0  0  0  0  0  0  0  0  0  0  0
   17.2667   34.4138   33.1694 H   0  0  0  0  0  0  0  0  0  0  0  0
   15.3757   36.1867   37.9790 H   0  0  0  0  0  0  0  0  0  0  0  0
   16.7634   35.0598   37.7897 H   0  0  0  0  0  0  0  0  0  0  0  0
  1  2  2  0
  1  3  1  0
  3  4  1  0
  4  5  1  0
  6  1  1  0
  7  6  1  0
  6  8  1  0
  8  9  1  0
  9 10  1  0
 10 11  1  0
 11 12  1  0
 12 13  1  0
 13 14  1  0
 13 15  2  0
 14 16  1  0
 16 17  1  0
 17 18  2  0
 19 17  1  0
 18 20  1  0
 21 19  2  0
 19 22  1  0
 20 23  2  0
 23 21  1  0
 22 24  1  0
 22 25  2  0
  4 26  2  0
  4 27  1  0
 28 27  1  0
 28 29  1  0
 29 30  1  0
 29 31  1  0
 30 32  1  0
 31 33  1  0
 31 34  1  0
 34 32  1  0
 32 35  1  0
 34 36  1  0
 37 35  1  0
 38 35  1  0
 39 37  2  0
 37 40  1  0
 41 38  2  0
 42 39  1  0
 40 43  2  0
 40 41  1  0
 44 42  2  0
 44 43  1  0
 43 45  1  0
  6 46  1  6
  7 47  1  0
  7 48  1  0
  8 49  1  0
  8 50  1  0
  9 51  1  0
  9 52  1  0
 10 53  1  0
 10 54  1  0
 11 55  1  0
 11 56  1  0
 12 57  1  0
 16 58  1  0
 16 59  1  0
 18 60  1  0
 20 61  1  0
 21 62  1  0
 23 63  1  0
 28 64  1  0
 28 65  1  0
 29 66  1  0
 31 67  1  0
 32 68  1  0
 33 69  1  0
 34 70  1  0
 36 71  1  0
 38 72  1  0
 42 73  1  0
 45 74  1  0
 45 75  1  0
M  CHG  3   5  -1  22   1  24  -1
M  END
>  <EmbedRMS>  (343) 
0.0735877332298

$$$$

     RDKit          3D

 75 78  0  0  0  0  0  0  0  0999 V2000
    9.4312   42.9410   34.3437 C   0  0  0  0  0  0  0  0  0  0  0  0
   10.4885   43.0409   35.0294 O   0  0  0  0  0  0  0  0  0  0  0  0
    8.8562   41.7127   34.0287 O   0  0  0  0  0  0  0  0  0  0  0  0
    9.4945   40.2160   34.4678 P   0  0  0  0  0  0  0  0  0  0  0  0
    9.7312   40.1739   36.1288 O   0  0  0  0  0  0  0  0  0  0  0  0
    8.7484   44.1359   33.7721 C   0  0  1  0  0  0  0  0  0  0  0  0
    9.3039   45.3664   34.3388 N   0  0  0  0  0  0  0  0  0  0  0  0
    8.8892   44.0518   32.2308 C   0  0  0  0  0  0  0  0  0  0  0  0
    8.2015   45.1721   31.4435 C   0  0  0  0  0  0  0  0  0  0  0  0
    6.6643   45.1066   31.4886 C   0  0  0  0  0  0  0  0  0  0  0  0
    6.0267   46.3237   30.8122 C   0  0  0  0  0  0  0  0  0  0  0  0
    6.5084   47.5645   31.4189 N   0  0  0  0  0  0  0  0  0  0  0  0
    7.2422   48.5408   30.6825 C   0  0  0  0  0  0  0  0  0  0  0  0
    7.5888   49.7446   31.3053 O   0  0  0  0  0  0  0  0  0  0  0  0
    7.5938   48.3103   29.4941 O   0  0  0  0  0  0  0  0  0  0  0  0
    8.2819   50.8031   30.6461 C   0  0  0  0  0  0  0  0  0  0  0  0
    7.3773   51.5023   29.6580 C   0  0  0  0  0  0  0  0  0  0  0  0
    7.5743   51.2635   28.2851 C   0  0  0  0  0  0  0  0  0  0  0  0
    6.3683   52.4197   30.0651 C   0  0  0  0  0  0  0  0  0  0  0  0
    6.7926   51.9113   27.3286 C   0  0  0  0  0  0  0  0  0  0  0  0
    5.6023   53.0714   29.0812 C   0  0  0  0  0  0  0  0  0  0  0  0
    6.1245   52.7324   31.4501 N   0  0  0  0  0  0  0  0  0  0  0  0
    5.8098   52.8145   27.7256 C   0  0  0  0  0  0  0  0  0  0  0  0
    5.6156   53.9633   31.7960 O   0  0  0  0  0  0  0  0  0  0  0  0
    6.2207   51.8570   32.3336 O   0  0  0  0  0  0  0  0  0  0  0  0
    8.5374   39.1400   34.0124 O   0  0  0  0  0  0  0  0  0  0  0  0
   10.9799   40.0879   33.6828 O   0  0  0  0  0  0  0  0  0  0  0  0
   10.8002   40.0907   32.2831 C   0  0  0  0  0  0  0  0  0  0  0  0
   11.5958   38.9271   31.6964 C   0  0  0  0  0  0  0  0  0  0  0  0
   12.9239   38.9409   32.1767 O   0  0  0  0  0  0  0  0  0  0  0  0
   11.0062   37.5719   32.0794 C   0  0  0  0  0  0  0  0  0  0  0  0
   13.3506   37.5905   32.2614 C   0  0  0  0  0  0  0  0  0  0  0  0
    9.9064   37.1793   31.2946 O   0  0  0  0  0  0  0  0  0  0  0  0
   12.1920   36.6672   31.9004 C   0  0  0  0  0  0  0  0  0  0  0  0
   13.8017   37.2948   33.6193 N   0  0  0  0  0  0  0  0  0  0  0  0
   12.3133   36.2788   30.5561 O   0  0  0  0  0  0  0  0  0  0  0  0
   14.7927   36.4717   33.9862 C   0  0  0  0  0  0  0  0  0  0  0  0
   13.2746   37.7284   34.7941 C   0  0  0  0  0  0  0  0  0  0  0  0
   15.6240   35.7576   33.1859 N   0  0  0  0  0  0  0  0  0  0  0  0
   14.8728   36.4406   35.3330 C   0  0  0  0  0  0  0  0  0  0  0  0
   13.9209   37.2258   35.8808 N   0  0  0  0  0  0  0  0  0  0  0  0
   16.5874   34.9920   33.7802 C   0  0  0  0  0  0  0  0  0  0  0  0
   15.8579   35.6716   35.9443 C   0  0  0  0  0  0  0  0  0  0  0  0
   16.7028   34.9584   35.1439 N   0  0  0  0  0  0  0  0  0  0  0  0
   16.0103   35.6383   37.3563 N   0  0  0  0  0  0  0  0  0  0  0  0
    7.6764   44.0633   34.0547 H   0  0  0  0  0  0  0  0  0  0  0  0
    8.6468   46.1558   34.1431 H   0  0  0  0  0  0  0  0  0  0  0  0
   10.2152   45.5879   33.8748 H   0  0  0  0  0  0  0  0  0  0  0  0
    8.4830   43.0818   31.8666 H   0  0  0  0  0  0  0  0  0  0  0  0
    9.9708   44.0642   31.9679 H   0  0  0  0  0  0  0  0  0  0  0  0
    8.5199   45.0959   30.3807 H   0  0  0  0  0  0  0  0  0  0  0  0
    8.5714   46.1487   31.8173 H   0  0  0  0  0  0  0  0  0  0  0  0
    6.3142   45.0783   32.5413 H   0  0  0  0  0  0  0  0  0  0  0  0
    6.3148   44.1801   30.9834 H   0  0  0  0  0  0  0  0  0  0  0  0
    6.2447   46.2897   29.7231 H   0  0  0  0  0  0  0  0  0  0  0  0
    4.9234   46.2700   30.9301 H   0  0  0  0  0  0  0  0  0  0  0  0
    6.2859   47.7539   32.4220 H   0  0  0  0  0  0  0  0  0  0  0  0
    8.6426   51.5331   31.4006 H   0  0  0  0  0  0  0  0  0  0  0  0
    9.1897   50.3954   30.1489 H   0  0  0  0  0  0  0  0  0  0  0  0
    8.3397   50.5741   27.9507 H   0  0  0  0  0  0  0  0  0  0  0  0
    6.9537   51.7161   26.2761 H   0  0  0  0  0  0  0  0  0  0  0  0
    4.8300   53.7749   29.3651 H   0  0  0  0  0  0  0  0  0  0  0  0
    5.2071   53.3187   26.9812 H   0  0  0  0  0  0  0  0  0  0  0  0
   11.2115   41.0421   31.8829 H   0  0  0  0  0  0  0  0  0  0  0  0
    9.7454   40.0168   31.9263 H   0  0  0  0  0  0  0  0  0  0  0  0
   11.6246   39.0449   30.5889 H   0  0  0  0  0  0  0  0  0  0  0  0
   10.7050   37.5581   33.1500 H   0  0  0  0  0  0  0  0  0  0  0  0
   14.1984   37.4426   31.5553 H   0  0  0  0  0  0  0  0  0  0  0  0
   10.0893   37.4058   30.3459 H   0  0  0  0  0  0  0  0  0  0  0  0
   12.1337   35.7754   32.5703 H   0  0  0  0  0  0  0  0  0  0  0  0
   11.7934   35.4394   30.4514 H   0  0  0  0  0  0  0  0  0  0  0  0
   12.4314   38.3973   34.8700 H   0  0  0  0  0  0  0  0  0  0  0  0
   17.2669   34.4141   33.1692 H   0  0  0  0  0  0  0  0  0  0  0  0
   16.7638   35.0599   37.7896 H   0  0  0  0  0  0  0  0  0  0  0  0
   15.3759   36.1864   37.9790 H   0  0  0  0  0  0  0  0  0  0  0  0
  1  2  2  0
  1  3  1  0
  3  4  1  0
  4  5  1  0
  6  1  1  0
  7  6  1  0
  6  8  1  0
  8  9  1  0
  9 10  1  0
 10 11  1  0
 11 12  1  0
 12 13  1  0
 13 14  1  0
 13 15  2  0
 14 16  1  0
 16 17  1  0
 17 18  2  0
 19 17  1  0
 18 20  1  0
 21 19  2  0
 19 22  1  0
 20 23  2  0
 23 21  1  0
 22 24  1  0
 22 25  2  0
  4 26  2  0
  4 27  1  0
 28 27  1  0
 28 29  1  0
 29 30  1  0
 29 31  1  0
 30 32  1  0
 31 33  1  0
 31 34  1  0
 34 32  1  0
 32 35  1  0
 34 36  1  0
 37 35  1  0
 38 35  1  0
 39 37  2  0
 37 40  1  0
 41 38  2  0
 42 39  1  0
 40 43  2  0
 40 41  1  0
 44 42  2  0
 44 43  1  0
 43 45  1  0
  6 46  1  6
  7 47  1  0
  7 48  1  0
  8 49  1  0
  8 50  1  0
  9 51  1  0
  9 52  1  0
 10 53  1  0
 10 54  1  0
 11 55  1  0
 11 56  1  0
 12 57  1  0
 16 58  1  0
 16 59  1  0
 18 60  1  0
 20 61  1  0
 21 62  1  0
 23 63  1  0
 28 64  1  0
 28 65  1  0
 29 66  1  0
 31 67  1  0
 32 68  1  0
 33 69  1  0
 34 70  1  0
 36 71  1  0
 38 72  1  0
 42 73  1  0
 45 74  1  0
 45 75  1  0
M  CHG  3   5  -1  22   1  24  -1
M  END
>  <EmbedRMS>  (344) 
0.0739200460178

$$$$

     RDKit          3D

 75 78  0  0  0  0  0  0  0  0999 V2000
    9.4315   42.9418   34.3430 C   0  0  0  0  0  0  0  0  0  0  0  0
   10.4886   43.0414   35.0291 O   0  0  0  0  0  0  0  0  0  0  0  0
    8.8563   41.7134   34.0282 O   0  0  0  0  0  0  0  0  0  0  0  0
    9.4944   40.2166   34.4676 P   0  0  0  0  0  0  0  0  0  0  0  0
    9.7311   40.1744   36.1287 O   0  0  0  0  0  0  0  0  0  0  0  0
    8.7489   44.1374   33.7716 C   0  0  1  0  0  0  0  0  0  0  0  0
    9.3048   45.3678   34.3385 N   0  0  0  0  0  0  0  0  0  0  0  0
    8.8894   44.0545   32.2302 C   0  0  0  0  0  0  0  0  0  0  0  0
    8.2008   45.1755   31.4440 C   0  0  0  0  0  0  0  0  0  0  0  0
    6.6633   45.1080   31.4883 C   0  0  0  0  0  0  0  0  0  0  0  0
    6.0225   46.3222   30.8081 C   0  0  0  0  0  0  0  0  0  0  0  0
    6.4953   47.5660   31.4151 N   0  0  0  0  0  0  0  0  0  0  0  0
    7.2661   48.5245   30.6940 C   0  0  0  0  0  0  0  0  0  0  0  0
    7.7098   49.6739   31.3552 O   0  0  0  0  0  0  0  0  0  0  0  0
    7.5873   48.3124   29.4935 O   0  0  0  0  0  0  0  0  0  0  0  0
    8.7206   50.5366   30.8383 C   0  0  0  0  0  0  0  0  0  0  0  0
   10.0638   49.8439   30.8542 C   0  0  0  0  0  0  0  0  0  0  0  0
   10.5898   49.3724   29.6370 C   0  0  0  0  0  0  0  0  0  0  0  0
   10.8174   49.6734   32.0477 C   0  0  0  0  0  0  0  0  0  0  0  0
   11.8321   48.7394   29.5938 C   0  0  0  0  0  0  0  0  0  0  0  0
   12.0744   49.0437   31.9776 C   0  0  0  0  0  0  0  0  0  0  0  0
   10.3494   50.1527   33.3225 N   0  0  0  0  0  0  0  0  0  0  0  0
   12.5732   48.5759   30.7616 C   0  0  0  0  0  0  0  0  0  0  0  0
    9.0278   50.0311   33.6815 O   0  0  0  0  0  0  0  0  0  0  0  0
   11.1681   50.5389   34.1824 O   0  0  0  0  0  0  0  0  0  0  0  0
    8.5373   39.1404   34.0123 O   0  0  0  0  0  0  0  0  0  0  0  0
   10.9798   40.0880   33.6828 O   0  0  0  0  0  0  0  0  0  0  0  0
   10.8002   40.0908   32.2831 C   0  0  0  0  0  0  0  0  0  0  0  0
   11.5958   38.9272   31.6964 C   0  0  0  0  0  0  0  0  0  0  0  0
   12.9239   38.9409   32.1767 O   0  0  0  0  0  0  0  0  0  0  0  0
   11.0062   37.5720   32.0794 C   0  0  0  0  0  0  0  0  0  0  0  0
   13.3506   37.5906   32.2614 C   0  0  0  0  0  0  0  0  0  0  0  0
    9.9064   37.1793   31.2946 O   0  0  0  0  0  0  0  0  0  0  0  0
   12.1920   36.6672   31.9004 C   0  0  0  0  0  0  0  0  0  0  0  0
   13.8017   37.2948   33.6193 N   0  0  0  0  0  0  0  0  0  0  0  0
   12.3133   36.2788   30.5561 O   0  0  0  0  0  0  0  0  0  0  0  0
   14.7927   36.4717   33.9862 C   0  0  0  0  0  0  0  0  0  0  0  0
   13.2747   37.7284   34.7941 C   0  0  0  0  0  0  0  0  0  0  0  0
   15.6240   35.7576   33.1859 N   0  0  0  0  0  0  0  0  0  0  0  0
   14.8728   36.4406   35.3330 C   0  0  0  0  0  0  0  0  0  0  0  0
   13.9209   37.2258   35.8808 N   0  0  0  0  0  0  0  0  0  0  0  0
   16.5874   34.9920   33.7802 C   0  0  0  0  0  0  0  0  0  0  0  0
   15.8579   35.6716   35.9443 C   0  0  0  0  0  0  0  0  0  0  0  0
   16.7028   34.9584   35.1439 N   0  0  0  0  0  0  0  0  0  0  0  0
   16.0103   35.6383   37.3563 N   0  0  0  0  0  0  0  0  0  0  0  0
    7.6769   44.0652   34.0542 H   0  0  0  0  0  0  0  0  0  0  0  0
   10.2156   45.5901   33.8736 H   0  0  0  0  0  0  0  0  0  0  0  0
    8.6477   46.1574   34.1438 H   0  0  0  0  0  0  0  0  0  0  0  0
    9.9710   44.0680   31.9672 H   0  0  0  0  0  0  0  0  0  0  0  0
    8.4838   43.0844   31.8653 H   0  0  0  0  0  0  0  0  0  0  0  0
    8.5690   46.1525   31.8192 H   0  0  0  0  0  0  0  0  0  0  0  0
    8.5200   45.1014   30.3813 H   0  0  0  0  0  0  0  0  0  0  0  0
    6.3158   44.1796   30.9853 H   0  0  0  0  0  0  0  0  0  0  0  0
    6.3129   45.0814   32.5409 H   0  0  0  0  0  0  0  0  0  0  0  0
    4.9190   46.2635   30.9211 H   0  0  0  0  0  0  0  0  0  0  0  0
    6.2453   46.2881   29.7200 H   0  0  0  0  0  0  0  0  0  0  0  0
    6.2757   47.7509   32.4197 H   0  0  0  0  0  0  0  0  0  0  0  0
    8.4410   50.8582   29.8109 H   0  0  0  0  0  0  0  0  0  0  0  0
    8.7691   51.4587   31.4545 H   0  0  0  0  0  0  0  0  0  0  0  0
   10.0358   49.4939   28.7143 H   0  0  0  0  0  0  0  0  0  0  0  0
   12.2225   48.3781   28.6511 H   0  0  0  0  0  0  0  0  0  0  0  0
   12.6665   48.9029   32.8730 H   0  0  0  0  0  0  0  0  0  0  0  0
   13.5381   48.0867   30.7251 H   0  0  0  0  0  0  0  0  0  0  0  0
   11.2115   41.0422   31.8829 H   0  0  0  0  0  0  0  0  0  0  0  0
    9.7455   40.0168   31.9262 H   0  0  0  0  0  0  0  0  0  0  0  0
   11.6246   39.0449   30.5889 H   0  0  0  0  0  0  0  0  0  0  0  0
   10.7050   37.5582   33.1500 H   0  0  0  0  0  0  0  0  0  0  0  0
   14.1984   37.4426   31.5553 H   0  0  0  0  0  0  0  0  0  0  0  0
   10.0893   37.4058   30.3459 H   0  0  0  0  0  0  0  0  0  0  0  0
   12.1337   35.7755   32.5703 H   0  0  0  0  0  0  0  0  0  0  0  0
   11.7933   35.4395   30.4514 H   0  0  0  0  0  0  0  0  0  0  0  0
   12.4314   38.3973   34.8700 H   0  0  0  0  0  0  0  0  0  0  0  0
   17.2669   34.4142   33.1692 H   0  0  0  0  0  0  0  0  0  0  0  0
   15.3759   36.1865   37.9790 H   0  0  0  0  0  0  0  0  0  0  0  0
   16.7638   35.0599   37.7897 H   0  0  0  0  0  0  0  0  0  0  0  0
  1  2  2  0
  1  3  1  0
  3  4  1  0
  4  5  1  0
  6  1  1  0
  7  6  1  0
  6  8  1  0
  8  9  1  0
  9 10  1  0
 10 11  1  0
 11 12  1  0
 12 13  1  0
 13 14  1  0
 13 15  2  0
 14 16  1  0
 16 17  1  0
 17 18  2  0
 19 17  1  0
 18 20  1  0
 21 19  2  0
 19 22  1  0
 20 23  2  0
 23 21  1  0
 22 24  1  0
 22 25  2  0
  4 26  2  0
  4 27  1  0
 28 27  1  0
 28 29  1  0
 29 30  1  0
 29 31  1  0
 30 32  1  0
 31 33  1  0
 31 34  1  0
 34 32  1  0
 32 35  1  0
 34 36  1  0
 37 35  1  0
 38 35  1  0
 39 37  2  0
 37 40  1  0
 41 38  2  0
 42 39  1  0
 40 43  2  0
 40 41  1  0
 44 42  2  0
 44 43  1  0
 43 45  1  0
  6 46  1  6
  7 47  1  0
  7 48  1  0
  8 49  1  0
  8 50  1  0
  9 51  1  0
  9 52  1  0
 10 53  1  0
 10 54  1  0
 11 55  1  0
 11 56  1  0
 12 57  1  0
 16 58  1  0
 16 59  1  0
 18 60  1  0
 20 61  1  0
 21 62  1  0
 23 63  1  0
 28 64  1  0
 28 65  1  0
 29 66  1  0
 31 67  1  0
 32 68  1  0
 33 69  1  0
 34 70  1  0
 36 71  1  0
 38 72  1  0
 42 73  1  0
 45 74  1  0
 45 75  1  0
M  CHG  3   5  -1  22   1  24  -1
M  END
>  <EmbedRMS>  (345) 
0.0747578384398

$$$$

     RDKit          3D

 75 78  0  0  0  0  0  0  0  0999 V2000
    9.4312   42.9416   34.3438 C   0  0  0  0  0  0  0  0  0  0  0  0
   10.4886   43.0413   35.0294 O   0  0  0  0  0  0  0  0  0  0  0  0
    8.8558   41.7132   34.0295 O   0  0  0  0  0  0  0  0  0  0  0  0
    9.4932   40.2165   34.4701 P   0  0  0  0  0  0  0  0  0  0  0  0
    9.7294   40.1744   36.1311 O   0  0  0  0  0  0  0  0  0  0  0  0
    8.7485   44.1368   33.7721 C   0  0  1  0  0  0  0  0  0  0  0  0
    9.3043   45.3674   34.3387 N   0  0  0  0  0  0  0  0  0  0  0  0
    8.8891   44.0529   32.2308 C   0  0  0  0  0  0  0  0  0  0  0  0
    8.2009   45.1735   31.4440 C   0  0  0  0  0  0  0  0  0  0  0  0
    6.6636   45.1067   31.4880 C   0  0  0  0  0  0  0  0  0  0  0  0
    6.0247   46.3225   30.8097 C   0  0  0  0  0  0  0  0  0  0  0  0
    6.5025   47.5643   31.4169 N   0  0  0  0  0  0  0  0  0  0  0  0
    7.2577   48.5308   30.6897 C   0  0  0  0  0  0  0  0  0  0  0  0
    7.6710   49.6966   31.3383 O   0  0  0  0  0  0  0  0  0  0  0  0
    7.5874   48.3148   29.4920 O   0  0  0  0  0  0  0  0  0  0  0  0
    8.5027   50.6719   30.7180 C   0  0  0  0  0  0  0  0  0  0  0  0
    8.9065   51.7118   31.7327 C   0  0  0  0  0  0  0  0  0  0  0  0
    8.6004   53.0611   31.4754 C   0  0  0  0  0  0  0  0  0  0  0  0
    9.5477   51.3663   32.9539 C   0  0  0  0  0  0  0  0  0  0  0  0
    8.9101   54.0525   32.4072 C   0  0  0  0  0  0  0  0  0  0  0  0
    9.8368   52.3811   33.8851 C   0  0  0  0  0  0  0  0  0  0  0  0
    9.8900   50.0049   33.2765 N   0  0  0  0  0  0  0  0  0  0  0  0
    9.5236   53.7128   33.6109 C   0  0  0  0  0  0  0  0  0  0  0  0
   10.3949   49.1587   32.3171 O   0  0  0  0  0  0  0  0  0  0  0  0
    9.8784   49.6225   34.4649 O   0  0  0  0  0  0  0  0  0  0  0  0
    8.5368   39.1402   34.0138 O   0  0  0  0  0  0  0  0  0  0  0  0
   10.9788   40.0875   33.6872 O   0  0  0  0  0  0  0  0  0  0  0  0
   10.7993   40.0946   32.2884 C   0  0  0  0  0  0  0  0  0  0  0  0
   11.5957   38.9352   31.6994 C   0  0  0  0  0  0  0  0  0  0  0  0
   12.9257   38.9478   32.1799 O   0  0  0  0  0  0  0  0  0  0  0  0
   11.0070   37.5758   32.0732 C   0  0  0  0  0  0  0  0  0  0  0  0
   13.3571   37.5980   32.2612 C   0  0  0  0  0  0  0  0  0  0  0  0
    9.9093   37.1808   31.2875 O   0  0  0  0  0  0  0  0  0  0  0  0
   12.1967   36.6764   31.8894 C   0  0  0  0  0  0  0  0  0  0  0  0
   13.8018   37.2956   33.6197 N   0  0  0  0  0  0  0  0  0  0  0  0
   12.3048   36.2360   30.5555 O   0  0  0  0  0  0  0  0  0  0  0  0
   14.7922   36.4716   33.9864 C   0  0  0  0  0  0  0  0  0  0  0  0
   13.2747   37.7291   34.7944 C   0  0  0  0  0  0  0  0  0  0  0  0
   15.6240   35.7582   33.1861 N   0  0  0  0  0  0  0  0  0  0  0  0
   14.8721   36.4401   35.3331 C   0  0  0  0  0  0  0  0  0  0  0  0
   13.9206   37.2257   35.8810 N   0  0  0  0  0  0  0  0  0  0  0  0
   16.5873   34.9924   33.7802 C   0  0  0  0  0  0  0  0  0  0  0  0
   15.8576   35.6714   35.9444 C   0  0  0  0  0  0  0  0  0  0  0  0
   16.7026   34.9585   35.1439 N   0  0  0  0  0  0  0  0  0  0  0  0
   16.0102   35.6382   37.3564 N   0  0  0  0  0  0  0  0  0  0  0  0
    7.6765   44.0646   34.0548 H   0  0  0  0  0  0  0  0  0  0  0  0
    8.6473   46.1571   34.1436 H   0  0  0  0  0  0  0  0  0  0  0  0
   10.2153   45.5893   33.8742 H   0  0  0  0  0  0  0  0  0  0  0  0
    9.9706   44.0657   31.9678 H   0  0  0  0  0  0  0  0  0  0  0  0
    8.4831   43.0828   31.8665 H   0  0  0  0  0  0  0  0  0  0  0  0
    8.5697   46.1502   31.8189 H   0  0  0  0  0  0  0  0  0  0  0  0
    8.5201   45.0984   30.3813 H   0  0  0  0  0  0  0  0  0  0  0  0
    6.3129   45.0789   32.5405 H   0  0  0  0  0  0  0  0  0  0  0  0
    6.3154   44.1794   30.9836 H   0  0  0  0  0  0  0  0  0  0  0  0
    6.2453   46.2887   29.7212 H   0  0  0  0  0  0  0  0  0  0  0  0
    4.9212   46.2667   30.9252 H   0  0  0  0  0  0  0  0  0  0  0  0
    6.2845   47.7494   32.4219 H   0  0  0  0  0  0  0  0  0  0  0  0
    7.9483   51.1293   29.8695 H   0  0  0  0  0  0  0  0  0  0  0  0
    9.4125   50.1944   30.2971 H   0  0  0  0  0  0  0  0  0  0  0  0
    8.1124   53.3497   30.5526 H   0  0  0  0  0  0  0  0  0  0  0  0
    8.6680   55.0864   32.1973 H   0  0  0  0  0  0  0  0  0  0  0  0
   10.3209   52.1410   34.8233 H   0  0  0  0  0  0  0  0  0  0  0  0
    9.7591   54.4836   34.3335 H   0  0  0  0  0  0  0  0  0  0  0  0
   11.2092   41.0481   31.8916 H   0  0  0  0  0  0  0  0  0  0  0  0
    9.7448   40.0201   31.9304 H   0  0  0  0  0  0  0  0  0  0  0  0
   11.6207   39.0685   30.5942 H   0  0  0  0  0  0  0  0  0  0  0  0
   10.7059   37.5565   33.1439 H   0  0  0  0  0  0  0  0  0  0  0  0
   14.2095   37.4544   31.5601 H   0  0  0  0  0  0  0  0  0  0  0  0
   10.0864   37.4210   30.3414 H   0  0  0  0  0  0  0  0  0  0  0  0
   12.1275   35.7873   32.5550 H   0  0  0  0  0  0  0  0  0  0  0  0
   12.5031   37.0109   29.9673 H   0  0  0  0  0  0  0  0  0  0  0  0
   12.4328   38.3997   34.8703 H   0  0  0  0  0  0  0  0  0  0  0  0
   17.2670   34.4149   33.1690 H   0  0  0  0  0  0  0  0  0  0  0  0
   15.3757   36.1862   37.9792 H   0  0  0  0  0  0  0  0  0  0  0  0
   16.7640   35.0601   37.7896 H   0  0  0  0  0  0  0  0  0  0  0  0
  1  2  2  0
  1  3  1  0
  3  4  1  0
  4  5  1  0
  6  1  1  0
  7  6  1  0
  6  8  1  0
  8  9  1  0
  9 10  1  0
 10 11  1  0
 11 12  1  0
 12 13  1  0
 13 14  1  0
 13 15  2  0
 14 16  1  0
 16 17  1  0
 17 18  2  0
 19 17  1  0
 18 20  1  0
 21 19  2  0
 19 22  1  0
 20 23  2  0
 23 21  1  0
 22 24  1  0
 22 25  2  0
  4 26  2  0
  4 27  1  0
 28 27  1  0
 28 29  1  0
 29 30  1  0
 29 31  1  0
 30 32  1  0
 31 33  1  0
 31 34  1  0
 34 32  1  0
 32 35  1  0
 34 36  1  0
 37 35  1  0
 38 35  1  0
 39 37  2  0
 37 40  1  0
 41 38  2  0
 42 39  1  0
 40 43  2  0
 40 41  1  0
 44 42  2  0
 44 43  1  0
 43 45  1  0
  6 46  1  6
  7 47  1  0
  7 48  1  0
  8 49  1  0
  8 50  1  0
  9 51  1  0
  9 52  1  0
 10 53  1  0
 10 54  1  0
 11 55  1  0
 11 56  1  0
 12 57  1  0
 16 58  1  0
 16 59  1  0
 18 60  1  0
 20 61  1  0
 21 62  1  0
 23 63  1  0
 28 64  1  0
 28 65  1  0
 29 66  1  0
 31 67  1  0
 32 68  1  0
 33 69  1  0
 34 70  1  0
 36 71  1  0
 38 72  1  0
 42 73  1  0
 45 74  1  0
 45 75  1  0
M  CHG  3   5  -1  22   1  24  -1
M  END
>  <EmbedRMS>  (346) 
0.0757275811556

$$$$

     RDKit          3D

 75 78  0  0  0  0  0  0  0  0999 V2000
    9.4299   42.9394   34.3434 C   0  0  0  0  0  0  0  0  0  0  0  0
   10.4911   43.0381   35.0234 O   0  0  0  0  0  0  0  0  0  0  0  0
    8.8549   41.7115   34.0282 O   0  0  0  0  0  0  0  0  0  0  0  0
    9.4942   40.2154   34.4674 P   0  0  0  0  0  0  0  0  0  0  0  0
    9.7309   40.1738   36.1286 O   0  0  0  0  0  0  0  0  0  0  0  0
    8.7410   44.1377   33.7785 C   0  0  1  0  0  0  0  0  0  0  0  0
    9.3011   45.3720   34.3323 N   0  0  0  0  0  0  0  0  0  0  0  0
    8.8962   44.0590   32.2398 C   0  0  0  0  0  0  0  0  0  0  0  0
    8.2030   45.1686   31.4396 C   0  0  0  0  0  0  0  0  0  0  0  0
    6.6656   45.1048   31.4871 C   0  0  0  0  0  0  0  0  0  0  0  0
    6.0282   46.3241   30.8131 C   0  0  0  0  0  0  0  0  0  0  0  0
    6.5117   47.5624   31.4236 N   0  0  0  0  0  0  0  0  0  0  0  0
    7.2385   48.5469   30.6790 C   0  0  0  0  0  0  0  0  0  0  0  0
    7.5879   49.7837   31.2383 O   0  0  0  0  0  0  0  0  0  0  0  0
    7.5941   48.3040   29.4964 O   0  0  0  0  0  0  0  0  0  0  0  0
    7.1900   50.2374   32.5318 C   0  0  0  0  0  0  0  0  0  0  0  0
    5.7019   50.5026   32.5828 C   0  0  0  0  0  0  0  0  0  0  0  0
    4.9426   49.8862   33.5947 C   0  0  0  0  0  0  0  0  0  0  0  0
    5.0449   51.3227   31.6261 C   0  0  0  0  0  0  0  0  0  0  0  0
    3.5582   50.0502   33.6477 C   0  0  0  0  0  0  0  0  0  0  0  0
    3.6461   51.4619   31.6894 C   0  0  0  0  0  0  0  0  0  0  0  0
    5.7683   52.0051   30.5857 N   0  0  0  0  0  0  0  0  0  0  0  0
    2.9105   50.8315   32.6935 C   0  0  0  0  0  0  0  0  0  0  0  0
    6.9786   52.6032   30.8487 O   0  0  0  0  0  0  0  0  0  0  0  0
    5.2301   52.2040   29.4768 O   0  0  0  0  0  0  0  0  0  0  0  0
    8.5375   39.1390   34.0123 O   0  0  0  0  0  0  0  0  0  0  0  0
   10.9797   40.0879   33.6827 O   0  0  0  0  0  0  0  0  0  0  0  0
   10.8002   40.0907   32.2830 C   0  0  0  0  0  0  0  0  0  0  0  0
   11.5958   38.9271   31.6963 C   0  0  0  0  0  0  0  0  0  0  0  0
   12.9239   38.9409   32.1767 O   0  0  0  0  0  0  0  0  0  0  0  0
   11.0062   37.5719   32.0794 C   0  0  0  0  0  0  0  0  0  0  0  0
   13.3506   37.5905   32.2614 C   0  0  0  0  0  0  0  0  0  0  0  0
    9.9064   37.1793   31.2946 O   0  0  0  0  0  0  0  0  0  0  0  0
   12.1920   36.6672   31.9003 C   0  0  0  0  0  0  0  0  0  0  0  0
   13.8017   37.2948   33.6193 N   0  0  0  0  0  0  0  0  0  0  0  0
   12.3133   36.2788   30.5561 O   0  0  0  0  0  0  0  0  0  0  0  0
   14.7927   36.4716   33.9862 C   0  0  0  0  0  0  0  0  0  0  0  0
   13.2746   37.7284   34.7941 C   0  0  0  0  0  0  0  0  0  0  0  0
   15.6240   35.7576   33.1859 N   0  0  0  0  0  0  0  0  0  0  0  0
   14.8728   36.4406   35.3330 C   0  0  0  0  0  0  0  0  0  0  0  0
   13.9209   37.2258   35.8808 N   0  0  0  0  0  0  0  0  0  0  0  0
   16.5874   34.9920   33.7802 C   0  0  0  0  0  0  0  0  0  0  0  0
   15.8579   35.6716   35.9443 C   0  0  0  0  0  0  0  0  0  0  0  0
   16.7028   34.9584   35.1439 N   0  0  0  0  0  0  0  0  0  0  0  0
   16.0103   35.6383   37.3563 N   0  0  0  0  0  0  0  0  0  0  0  0
    7.6665   44.0652   34.0544 H   0  0  0  0  0  0  0  0  0  0  0  0
    8.6799   46.1668   34.0591 H   0  0  0  0  0  0  0  0  0  0  0  0
    9.2334   45.3273   35.3758 H   0  0  0  0  0  0  0  0  0  0  0  0
    8.5082   43.0837   31.8694 H   0  0  0  0  0  0  0  0  0  0  0  0
    9.9809   44.0903   31.9916 H   0  0  0  0  0  0  0  0  0  0  0  0
    8.5761   46.1510   31.7931 H   0  0  0  0  0  0  0  0  0  0  0  0
    8.5181   45.0767   30.3770 H   0  0  0  0  0  0  0  0  0  0  0  0
    6.3143   44.1789   30.9822 H   0  0  0  0  0  0  0  0  0  0  0  0
    6.3165   45.0764   32.5400 H   0  0  0  0  0  0  0  0  0  0  0  0
    4.9251   46.2710   30.9343 H   0  0  0  0  0  0  0  0  0  0  0  0
    6.2429   46.2924   29.7235 H   0  0  0  0  0  0  0  0  0  0  0  0
    6.3146   47.7071   32.4371 H   0  0  0  0  0  0  0  0  0  0  0  0
    7.7302   51.1776   32.7641 H   0  0  0  0  0  0  0  0  0  0  0  0
    7.5119   49.5012   33.3001 H   0  0  0  0  0  0  0  0  0  0  0  0
    5.4214   49.2639   34.3408 H   0  0  0  0  0  0  0  0  0  0  0  0
    2.9856   49.5650   34.4276 H   0  0  0  0  0  0  0  0  0  0  0  0
    3.1240   52.0763   30.9667 H   0  0  0  0  0  0  0  0  0  0  0  0
    1.8358   50.9540   32.7345 H   0  0  0  0  0  0  0  0  0  0  0  0
   11.2114   41.0420   31.8828 H   0  0  0  0  0  0  0  0  0  0  0  0
    9.7454   40.0167   31.9261 H   0  0  0  0  0  0  0  0  0  0  0  0
   11.6246   39.0448   30.5888 H   0  0  0  0  0  0  0  0  0  0  0  0
   10.7050   37.5581   33.1500 H   0  0  0  0  0  0  0  0  0  0  0  0
   14.1985   37.4426   31.5553 H   0  0  0  0  0  0  0  0  0  0  0  0
   10.0893   37.4057   30.3459 H   0  0  0  0  0  0  0  0  0  0  0  0
   12.1337   35.7754   32.5703 H   0  0  0  0  0  0  0  0  0  0  0  0
   11.7934   35.4394   30.4514 H   0  0  0  0  0  0  0  0  0  0  0  0
   12.4314   38.3973   34.8700 H   0  0  0  0  0  0  0  0  0  0  0  0
   17.2669   34.4142   33.1691 H   0  0  0  0  0  0  0  0  0  0  0  0
   16.7638   35.0599   37.7896 H   0  0  0  0  0  0  0  0  0  0  0  0
   15.3759   36.1864   37.9790 H   0  0  0  0  0  0  0  0  0  0  0  0
  1  2  2  0
  1  3  1  0
  3  4  1  0
  4  5  1  0
  6  1  1  0
  7  6  1  0
  6  8  1  0
  8  9  1  0
  9 10  1  0
 10 11  1  0
 11 12  1  0
 12 13  1  0
 13 14  1  0
 13 15  2  0
 14 16  1  0
 16 17  1  0
 17 18  2  0
 19 17  1  0
 18 20  1  0
 21 19  2  0
 19 22  1  0
 20 23  2  0
 23 21  1  0
 22 24  1  0
 22 25  2  0
  4 26  2  0
  4 27  1  0
 28 27  1  0
 28 29  1  0
 29 30  1  0
 29 31  1  0
 30 32  1  0
 31 33  1  0
 31 34  1  0
 34 32  1  0
 32 35  1  0
 34 36  1  0
 37 35  1  0
 38 35  1  0
 39 37  2  0
 37 40  1  0
 41 38  2  0
 42 39  1  0
 40 43  2  0
 40 41  1  0
 44 42  2  0
 44 43  1  0
 43 45  1  0
  6 46  1  6
  7 47  1  0
  7 48  1  0
  8 49  1  0
  8 50  1  0
  9 51  1  0
  9 52  1  0
 10 53  1  0
 10 54  1  0
 11 55  1  0
 11 56  1  0
 12 57  1  0
 16 58  1  0
 16 59  1  0
 18 60  1  0
 20 61  1  0
 21 62  1  0
 23 63  1  0
 28 64  1  0
 28 65  1  0
 29 66  1  0
 31 67  1  0
 32 68  1  0
 33 69  1  0
 34 70  1  0
 36 71  1  0
 38 72  1  0
 42 73  1  0
 45 74  1  0
 45 75  1  0
M  CHG  3   5  -1  22   1  24  -1
M  END
>  <EmbedRMS>  (347) 
0.0738670890818

$$$$

     RDKit          3D

 75 78  0  0  0  0  0  0  0  0999 V2000
    9.4313   42.9411   34.3437 C   0  0  0  0  0  0  0  0  0  0  0  0
   10.4886   43.0410   35.0294 O   0  0  0  0  0  0  0  0  0  0  0  0
    8.8562   41.7129   34.0288 O   0  0  0  0  0  0  0  0  0  0  0  0
    9.4947   40.2163   34.4679 P   0  0  0  0  0  0  0  0  0  0  0  0
    9.7311   40.1742   36.1290 O   0  0  0  0  0  0  0  0  0  0  0  0
    8.7484   44.1360   33.7721 C   0  0  1  0  0  0  0  0  0  0  0  0
    9.3039   45.3665   34.3388 N   0  0  0  0  0  0  0  0  0  0  0  0
    8.8892   44.0520   32.2308 C   0  0  0  0  0  0  0  0  0  0  0  0
    8.2014   45.1723   31.4436 C   0  0  0  0  0  0  0  0  0  0  0  0
    6.6642   45.1066   31.4887 C   0  0  0  0  0  0  0  0  0  0  0  0
    6.0264   46.3234   30.8120 C   0  0  0  0  0  0  0  0  0  0  0  0
    6.5072   47.5646   31.4186 N   0  0  0  0  0  0  0  0  0  0  0  0
    7.2445   48.5393   30.6834 C   0  0  0  0  0  0  0  0  0  0  0  0
    7.5967   49.7395   31.3063 O   0  0  0  0  0  0  0  0  0  0  0  0
    7.5931   48.3115   29.4933 O   0  0  0  0  0  0  0  0  0  0  0  0
    8.3495   50.7562   30.6504 C   0  0  0  0  0  0  0  0  0  0  0  0
    8.5258   51.9343   31.5774 C   0  0  0  0  0  0  0  0  0  0  0  0
    7.3814   52.4729   32.1937 C   0  0  0  0  0  0  0  0  0  0  0  0
    9.7968   52.4923   31.8737 C   0  0  0  0  0  0  0  0  0  0  0  0
    7.4921   53.5110   33.1200 C   0  0  0  0  0  0  0  0  0  0  0  0
    9.8903   53.5245   32.8240 C   0  0  0  0  0  0  0  0  0  0  0  0
   10.9877   52.0555   31.2011 N   0  0  0  0  0  0  0  0  0  0  0  0
    8.7453   54.0287   33.4424 C   0  0  0  0  0  0  0  0  0  0  0  0
   11.0159   51.9953   29.8268 O   0  0  0  0  0  0  0  0  0  0  0  0
   12.0619   51.9648   31.8306 O   0  0  0  0  0  0  0  0  0  0  0  0
    8.5375   39.1404   34.0127 O   0  0  0  0  0  0  0  0  0  0  0  0
   10.9805   40.0889   33.6836 O   0  0  0  0  0  0  0  0  0  0  0  0
   10.8025   40.0902   32.2837 C   0  0  0  0  0  0  0  0  0  0  0  0
   11.5888   38.9175   31.7008 C   0  0  0  0  0  0  0  0  0  0  0  0
   12.9219   38.9373   32.1692 O   0  0  0  0  0  0  0  0  0  0  0  0
   11.0028   37.5683   32.0981 C   0  0  0  0  0  0  0  0  0  0  0  0
   13.3496   37.5886   32.2601 C   0  0  0  0  0  0  0  0  0  0  0  0
    9.9343   37.1823   31.2757 O   0  0  0  0  0  0  0  0  0  0  0  0
   12.1890   36.6677   31.9050 C   0  0  0  0  0  0  0  0  0  0  0  0
   13.8025   37.2965   33.6186 N   0  0  0  0  0  0  0  0  0  0  0  0
   12.2990   36.2867   30.5568 O   0  0  0  0  0  0  0  0  0  0  0  0
   14.7929   36.4725   33.9858 C   0  0  0  0  0  0  0  0  0  0  0  0
   13.2749   37.7294   34.7935 C   0  0  0  0  0  0  0  0  0  0  0  0
   15.6240   35.7580   33.1858 N   0  0  0  0  0  0  0  0  0  0  0  0
   14.8727   36.4411   35.3327 C   0  0  0  0  0  0  0  0  0  0  0  0
   13.9208   37.2263   35.8803 N   0  0  0  0  0  0  0  0  0  0  0  0
   16.5871   34.9921   33.7801 C   0  0  0  0  0  0  0  0  0  0  0  0
   15.8576   35.6718   35.9441 C   0  0  0  0  0  0  0  0  0  0  0  0
   16.7024   34.9584   35.1438 N   0  0  0  0  0  0  0  0  0  0  0  0
   16.0099   35.6384   37.3562 N   0  0  0  0  0  0  0  0  0  0  0  0
    7.6764   44.0634   34.0548 H   0  0  0  0  0  0  0  0  0  0  0  0
    8.6468   46.1559   34.1432 H   0  0  0  0  0  0  0  0  0  0  0  0
   10.2152   45.5880   33.8748 H   0  0  0  0  0  0  0  0  0  0  0  0
    8.4831   43.0819   31.8666 H   0  0  0  0  0  0  0  0  0  0  0  0
    9.9708   44.0645   31.9679 H   0  0  0  0  0  0  0  0  0  0  0  0
    8.5712   46.1489   31.8175 H   0  0  0  0  0  0  0  0  0  0  0  0
    8.5198   45.0961   30.3808 H   0  0  0  0  0  0  0  0  0  0  0  0
    6.3148   44.1799   30.9839 H   0  0  0  0  0  0  0  0  0  0  0  0
    6.3141   45.0786   32.5414 H   0  0  0  0  0  0  0  0  0  0  0  0
    4.9231   46.2692   30.9293 H   0  0  0  0  0  0  0  0  0  0  0  0
    6.2450   46.2893   29.7230 H   0  0  0  0  0  0  0  0  0  0  0  0
    6.2850   47.7536   32.4219 H   0  0  0  0  0  0  0  0  0  0  0  0
    9.3197   50.3215   30.3386 H   0  0  0  0  0  0  0  0  0  0  0  0
    7.8039   51.0942   29.7430 H   0  0  0  0  0  0  0  0  0  0  0  0
    6.3997   52.0737   31.9688 H   0  0  0  0  0  0  0  0  0  0  0  0
    6.6046   53.9094   33.5944 H   0  0  0  0  0  0  0  0  0  0  0  0
   10.8524   53.9585   33.0658 H   0  0  0  0  0  0  0  0  0  0  0  0
    8.8292   54.8311   34.1641 H   0  0  0  0  0  0  0  0  0  0  0  0
    9.7476   40.0332   31.9256 H   0  0  0  0  0  0  0  0  0  0  0  0
   11.2257   41.0358   31.8825 H   0  0  0  0  0  0  0  0  0  0  0  0
   11.5975   39.0148   30.5905 H   0  0  0  0  0  0  0  0  0  0  0  0
   10.7023   37.5457   33.1720 H   0  0  0  0  0  0  0  0  0  0  0  0
   14.1957   37.4366   31.5528 H   0  0  0  0  0  0  0  0  0  0  0  0
    9.1339   37.6658   31.6070 H   0  0  0  0  0  0  0  0  0  0  0  0
   12.1380   35.7717   32.5698 H   0  0  0  0  0  0  0  0  0  0  0  0
   11.7706   35.4530   30.4497 H   0  0  0  0  0  0  0  0  0  0  0  0
   12.4314   38.3980   34.8694 H   0  0  0  0  0  0  0  0  0  0  0  0
   17.2665   34.4140   33.1691 H   0  0  0  0  0  0  0  0  0  0  0  0
   16.7634   35.0598   37.7895 H   0  0  0  0  0  0  0  0  0  0  0  0
   15.3757   36.1867   37.9789 H   0  0  0  0  0  0  0  0  0  0  0  0
  1  2  2  0
  1  3  1  0
  3  4  1  0
  4  5  1  0
  6  1  1  0
  7  6  1  0
  6  8  1  0
  8  9  1  0
  9 10  1  0
 10 11  1  0
 11 12  1  0
 12 13  1  0
 13 14  1  0
 13 15  2  0
 14 16  1  0
 16 17  1  0
 17 18  2  0
 19 17  1  0
 18 20  1  0
 21 19  2  0
 19 22  1  0
 20 23  2  0
 23 21  1  0
 22 24  1  0
 22 25  2  0
  4 26  2  0
  4 27  1  0
 28 27  1  0
 28 29  1  0
 29 30  1  0
 29 31  1  0
 30 32  1  0
 31 33  1  0
 31 34  1  0
 34 32  1  0
 32 35  1  0
 34 36  1  0
 37 35  1  0
 38 35  1  0
 39 37  2  0
 37 40  1  0
 41 38  2  0
 42 39  1  0
 40 43  2  0
 40 41  1  0
 44 42  2  0
 44 43  1  0
 43 45  1  0
  6 46  1  6
  7 47  1  0
  7 48  1  0
  8 49  1  0
  8 50  1  0
  9 51  1  0
  9 52  1  0
 10 53  1  0
 10 54  1  0
 11 55  1  0
 11 56  1  0
 12 57  1  0
 16 58  1  0
 16 59  1  0
 18 60  1  0
 20 61  1  0
 21 62  1  0
 23 63  1  0
 28 64  1  0
 28 65  1  0
 29 66  1  0
 31 67  1  0
 32 68  1  0
 33 69  1  0
 34 70  1  0
 36 71  1  0
 38 72  1  0
 42 73  1  0
 45 74  1  0
 45 75  1  0
M  CHG  3   5  -1  22   1  24  -1
M  END
>  <EmbedRMS>  (348) 
0.0734039079539

$$$$

     RDKit          3D

 75 78  0  0  0  0  0  0  0  0999 V2000
    9.4310   42.9416   34.3437 C   0  0  0  0  0  0  0  0  0  0  0  0
   10.4884   43.0413   35.0292 O   0  0  0  0  0  0  0  0  0  0  0  0
    8.8557   41.7133   34.0290 O   0  0  0  0  0  0  0  0  0  0  0  0
    9.4945   40.2166   34.4675 P   0  0  0  0  0  0  0  0  0  0  0  0
    9.7318   40.1741   36.1285 O   0  0  0  0  0  0  0  0  0  0  0  0
    8.7483   44.1369   33.7722 C   0  0  1  0  0  0  0  0  0  0  0  0
    9.3039   45.3675   34.3388 N   0  0  0  0  0  0  0  0  0  0  0  0
    8.8890   44.0530   32.2310 C   0  0  0  0  0  0  0  0  0  0  0  0
    8.2012   45.1737   31.4443 C   0  0  0  0  0  0  0  0  0  0  0  0
    6.6639   45.1066   31.4864 C   0  0  0  0  0  0  0  0  0  0  0  0
    6.0269   46.3229   30.8071 C   0  0  0  0  0  0  0  0  0  0  0  0
    6.5007   47.5639   31.4197 N   0  0  0  0  0  0  0  0  0  0  0  0
    7.2635   48.5327   30.6901 C   0  0  0  0  0  0  0  0  0  0  0  0
    7.7121   49.7139   31.2923 O   0  0  0  0  0  0  0  0  0  0  0  0
    7.5814   48.3123   29.4923 O   0  0  0  0  0  0  0  0  0  0  0  0
    7.4776   50.0497   32.6559 C   0  0  0  0  0  0  0  0  0  0  0  0
    8.1896   51.3357   32.9826 C   0  0  0  0  0  0  0  0  0  0  0  0
    7.4610   52.5379   32.9340 C   0  0  0  0  0  0  0  0  0  0  0  0
    9.5586   51.3670   33.3611 C   0  0  0  0  0  0  0  0  0  0  0  0
    8.0635   53.7499   33.2731 C   0  0  0  0  0  0  0  0  0  0  0  0
   10.1416   52.5983   33.7143 C   0  0  0  0  0  0  0  0  0  0  0  0
   10.3630   50.1734   33.4054 N   0  0  0  0  0  0  0  0  0  0  0  0
    9.3996   53.7794   33.6676 C   0  0  0  0  0  0  0  0  0  0  0  0
   10.2369   49.2040   32.4377 O   0  0  0  0  0  0  0  0  0  0  0  0
   11.2970   50.0792   34.2285 O   0  0  0  0  0  0  0  0  0  0  0  0
    8.5374   39.1403   34.0124 O   0  0  0  0  0  0  0  0  0  0  0  0
   10.9796   40.0898   33.6814 O   0  0  0  0  0  0  0  0  0  0  0  0
   10.7982   40.0851   32.2818 C   0  0  0  0  0  0  0  0  0  0  0  0
   11.5886   38.9143   31.7009 C   0  0  0  0  0  0  0  0  0  0  0  0
   12.9213   38.9368   32.1699 O   0  0  0  0  0  0  0  0  0  0  0  0
   11.0047   37.5661   32.0991 C   0  0  0  0  0  0  0  0  0  0  0  0
   13.3510   37.5885   32.2602 C   0  0  0  0  0  0  0  0  0  0  0  0
    9.9296   37.1962   31.2780 O   0  0  0  0  0  0  0  0  0  0  0  0
   12.1923   36.6659   31.9047 C   0  0  0  0  0  0  0  0  0  0  0  0
   13.8033   37.2967   33.6188 N   0  0  0  0  0  0  0  0  0  0  0  0
   12.3006   36.2865   30.5562 O   0  0  0  0  0  0  0  0  0  0  0  0
   14.7933   36.4724   33.9860 C   0  0  0  0  0  0  0  0  0  0  0  0
   13.2753   37.7296   34.7935 C   0  0  0  0  0  0  0  0  0  0  0  0
   15.6243   35.7579   33.1860 N   0  0  0  0  0  0  0  0  0  0  0  0
   14.8728   36.4410   35.3328 C   0  0  0  0  0  0  0  0  0  0  0  0
   13.9209   37.2263   35.8804 N   0  0  0  0  0  0  0  0  0  0  0  0
   16.5873   34.9919   33.7803 C   0  0  0  0  0  0  0  0  0  0  0  0
   15.8577   35.6717   35.9443 C   0  0  0  0  0  0  0  0  0  0  0  0
   16.7025   34.9583   35.1440 N   0  0  0  0  0  0  0  0  0  0  0  0
   16.0100   35.6384   37.3563 N   0  0  0  0  0  0  0  0  0  0  0  0
    7.6762   44.0647   34.0546 H   0  0  0  0  0  0  0  0  0  0  0  0
   10.2148   45.5896   33.8741 H   0  0  0  0  0  0  0  0  0  0  0  0
    8.6468   46.1571   34.1440 H   0  0  0  0  0  0  0  0  0  0  0  0
    9.9705   44.0656   31.9681 H   0  0  0  0  0  0  0  0  0  0  0  0
    8.4827   43.0830   31.8665 H   0  0  0  0  0  0  0  0  0  0  0  0
    8.5690   46.1504   31.8203 H   0  0  0  0  0  0  0  0  0  0  0  0
    8.5217   45.0995   30.3820 H   0  0  0  0  0  0  0  0  0  0  0  0
    6.3165   44.1795   30.9809 H   0  0  0  0  0  0  0  0  0  0  0  0
    6.3117   45.0784   32.5385 H   0  0  0  0  0  0  0  0  0  0  0  0
    4.9229   46.2656   30.9169 H   0  0  0  0  0  0  0  0  0  0  0  0
    6.2522   46.2902   29.7196 H   0  0  0  0  0  0  0  0  0  0  0  0
    6.2558   47.7304   32.4204 H   0  0  0  0  0  0  0  0  0  0  0  0
    7.8341   49.2387   33.3269 H   0  0  0  0  0  0  0  0  0  0  0  0
    6.3832   50.1592   32.8215 H   0  0  0  0  0  0  0  0  0  0  0  0
    6.4188   52.5372   32.6386 H   0  0  0  0  0  0  0  0  0  0  0  0
    7.4912   54.6678   33.2348 H   0  0  0  0  0  0  0  0  0  0  0  0
   11.1818   52.6465   34.0108 H   0  0  0  0  0  0  0  0  0  0  0  0
    9.8636   54.7204   33.9337 H   0  0  0  0  0  0  0  0  0  0  0  0
   11.2130   41.0321   31.8751 H   0  0  0  0  0  0  0  0  0  0  0  0
    9.7426   40.0141   31.9266 H   0  0  0  0  0  0  0  0  0  0  0  0
   11.5980   39.0108   30.5905 H   0  0  0  0  0  0  0  0  0  0  0  0
   10.7008   37.5604   33.1721 H   0  0  0  0  0  0  0  0  0  0  0  0
   14.1976   37.4380   31.5532 H   0  0  0  0  0  0  0  0  0  0  0  0
    9.5180   36.3962   31.6978 H   0  0  0  0  0  0  0  0  0  0  0  0
   12.1418   35.7698   32.5692 H   0  0  0  0  0  0  0  0  0  0  0  0
   11.7729   35.4524   30.4489 H   0  0  0  0  0  0  0  0  0  0  0  0
   12.4321   38.3985   34.8692 H   0  0  0  0  0  0  0  0  0  0  0  0
   17.2667   34.4138   33.1693 H   0  0  0  0  0  0  0  0  0  0  0  0
   15.3757   36.1867   37.9790 H   0  0  0  0  0  0  0  0  0  0  0  0
   16.7634   35.0598   37.7897 H   0  0  0  0  0  0  0  0  0  0  0  0
  1  2  2  0
  1  3  1  0
  3  4  1  0
  4  5  1  0
  6  1  1  0
  7  6  1  0
  6  8  1  0
  8  9  1  0
  9 10  1  0
 10 11  1  0
 11 12  1  0
 12 13  1  0
 13 14  1  0
 13 15  2  0
 14 16  1  0
 16 17  1  0
 17 18  2  0
 19 17  1  0
 18 20  1  0
 21 19  2  0
 19 22  1  0
 20 23  2  0
 23 21  1  0
 22 24  1  0
 22 25  2  0
  4 26  2  0
  4 27  1  0
 28 27  1  0
 28 29  1  0
 29 30  1  0
 29 31  1  0
 30 32  1  0
 31 33  1  0
 31 34  1  0
 34 32  1  0
 32 35  1  0
 34 36  1  0
 37 35  1  0
 38 35  1  0
 39 37  2  0
 37 40  1  0
 41 38  2  0
 42 39  1  0
 40 43  2  0
 40 41  1  0
 44 42  2  0
 44 43  1  0
 43 45  1  0
  6 46  1  6
  7 47  1  0
  7 48  1  0
  8 49  1  0
  8 50  1  0
  9 51  1  0
  9 52  1  0
 10 53  1  0
 10 54  1  0
 11 55  1  0
 11 56  1  0
 12 57  1  0
 16 58  1  0
 16 59  1  0
 18 60  1  0
 20 61  1  0
 21 62  1  0
 23 63  1  0
 28 64  1  0
 28 65  1  0
 29 66  1  0
 31 67  1  0
 32 68  1  0
 33 69  1  0
 34 70  1  0
 36 71  1  0
 38 72  1  0
 42 73  1  0
 45 74  1  0
 45 75  1  0
M  CHG  3   5  -1  22   1  24  -1
M  END
>  <EmbedRMS>  (349) 
0.0741002268299

$$$$

     RDKit          3D

 75 78  0  0  0  0  0  0  0  0999 V2000
    9.4333   42.9364   34.3461 C   0  0  0  0  0  0  0  0  0  0  0  0
   10.4907   43.0329   35.0318 O   0  0  0  0  0  0  0  0  0  0  0  0
    8.8563   41.7102   34.0295 O   0  0  0  0  0  0  0  0  0  0  0  0
    9.4943   40.2139   34.4679 P   0  0  0  0  0  0  0  0  0  0  0  0
    9.7310   40.1724   36.1290 O   0  0  0  0  0  0  0  0  0  0  0  0
    8.7506   44.1347   33.7741 C   0  0  1  0  0  0  0  0  0  0  0  0
    9.2963   45.3819   34.3133 N   0  0  0  0  0  0  0  0  0  0  0  0
    8.8893   44.0527   32.2358 C   0  0  0  0  0  0  0  0  0  0  0  0
    8.2029   45.1823   31.4614 C   0  0  0  0  0  0  0  0  0  0  0  0
    6.6654   45.1046   31.4854 C   0  0  0  0  0  0  0  0  0  0  0  0
    6.0272   46.3228   30.8107 C   0  0  0  0  0  0  0  0  0  0  0  0
    6.5069   47.5641   31.4183 N   0  0  0  0  0  0  0  0  0  0  0  0
    7.2418   48.5403   30.6829 C   0  0  0  0  0  0  0  0  0  0  0  0
    7.5846   49.7465   31.3035 O   0  0  0  0  0  0  0  0  0  0  0  0
    7.5943   48.3106   29.4941 O   0  0  0  0  0  0  0  0  0  0  0  0
    8.3057   50.7862   30.6439 C   0  0  0  0  0  0  0  0  0  0  0  0
    7.4422   51.4457   29.5922 C   0  0  0  0  0  0  0  0  0  0  0  0
    6.1721   51.9144   29.9738 C   0  0  0  0  0  0  0  0  0  0  0  0
    7.8441   51.5646   28.2368 C   0  0  0  0  0  0  0  0  0  0  0  0
    5.2978   52.4535   29.0289 C   0  0  0  0  0  0  0  0  0  0  0  0
    6.9428   52.0927   27.2958 C   0  0  0  0  0  0  0  0  0  0  0  0
    9.1596   51.1861   27.8048 N   0  0  0  0  0  0  0  0  0  0  0  0
    5.6788   52.5336   27.6905 C   0  0  0  0  0  0  0  0  0  0  0  0
   10.2643   51.6798   28.4596 O   0  0  0  0  0  0  0  0  0  0  0  0
    9.3148   50.6179   26.7041 O   0  0  0  0  0  0  0  0  0  0  0  0
    8.5372   39.1382   34.0121 O   0  0  0  0  0  0  0  0  0  0  0  0
   10.9798   40.0870   33.6829 O   0  0  0  0  0  0  0  0  0  0  0  0
   10.8002   40.0905   32.2832 C   0  0  0  0  0  0  0  0  0  0  0  0
   11.5958   38.9271   31.6963 C   0  0  0  0  0  0  0  0  0  0  0  0
   12.9239   38.9408   32.1766 O   0  0  0  0  0  0  0  0  0  0  0  0
   11.0062   37.5719   32.0793 C   0  0  0  0  0  0  0  0  0  0  0  0
   13.3507   37.5905   32.2614 C   0  0  0  0  0  0  0  0  0  0  0  0
    9.9064   37.1792   31.2946 O   0  0  0  0  0  0  0  0  0  0  0  0
   12.1920   36.6671   31.9003 C   0  0  0  0  0  0  0  0  0  0  0  0
   13.8017   37.2948   33.6193 N   0  0  0  0  0  0  0  0  0  0  0  0
   12.3134   36.2787   30.5560 O   0  0  0  0  0  0  0  0  0  0  0  0
   14.7927   36.4716   33.9862 C   0  0  0  0  0  0  0  0  0  0  0  0
   13.2746   37.7284   34.7941 C   0  0  0  0  0  0  0  0  0  0  0  0
   15.6240   35.7576   33.1859 N   0  0  0  0  0  0  0  0  0  0  0  0
   14.8728   36.4406   35.3330 C   0  0  0  0  0  0  0  0  0  0  0  0
   13.9209   37.2258   35.8808 N   0  0  0  0  0  0  0  0  0  0  0  0
   16.5874   34.9920   33.7802 C   0  0  0  0  0  0  0  0  0  0  0  0
   15.8579   35.6716   35.9443 C   0  0  0  0  0  0  0  0  0  0  0  0
   16.7028   34.9584   35.1439 N   0  0  0  0  0  0  0  0  0  0  0  0
   16.0103   35.6383   37.3563 N   0  0  0  0  0  0  0  0  0  0  0  0
    7.6770   44.0706   34.0503 H   0  0  0  0  0  0  0  0  0  0  0  0
   10.3192   45.4406   34.1000 H   0  0  0  0  0  0  0  0  0  0  0  0
    9.1827   45.3819   35.3535 H   0  0  0  0  0  0  0  0  0  0  0  0
    8.4816   43.0851   31.8668 H   0  0  0  0  0  0  0  0  0  0  0  0
    9.9711   44.0681   31.9739 H   0  0  0  0  0  0  0  0  0  0  0  0
    8.5385   45.1362   30.4021 H   0  0  0  0  0  0  0  0  0  0  0  0
    8.5554   46.1510   31.8741 H   0  0  0  0  0  0  0  0  0  0  0  0
    6.3296   44.1802   30.9675 H   0  0  0  0  0  0  0  0  0  0  0  0
    6.3020   45.0641   32.5333 H   0  0  0  0  0  0  0  0  0  0  0  0
    4.9237   46.2678   30.9270 H   0  0  0  0  0  0  0  0  0  0  0  0
    6.2463   46.2901   29.7219 H   0  0  0  0  0  0  0  0  0  0  0  0
    6.2819   47.7537   32.4209 H   0  0  0  0  0  0  0  0  0  0  0  0
    9.2417   50.3599   30.2321 H   0  0  0  0  0  0  0  0  0  0  0  0
    8.5895   51.5507   31.3971 H   0  0  0  0  0  0  0  0  0  0  0  0
    5.8504   51.8432   31.0058 H   0  0  0  0  0  0  0  0  0  0  0  0
    4.3195   52.8019   29.3340 H   0  0  0  0  0  0  0  0  0  0  0  0
    7.2313   52.1859   26.2563 H   0  0  0  0  0  0  0  0  0  0  0  0
    4.9975   52.9479   26.9585 H   0  0  0  0  0  0  0  0  0  0  0  0
    9.7455   40.0168   31.9263 H   0  0  0  0  0  0  0  0  0  0  0  0
   11.2116   41.0420   31.8834 H   0  0  0  0  0  0  0  0  0  0  0  0
   11.6245   39.0449   30.5888 H   0  0  0  0  0  0  0  0  0  0  0  0
   10.7051   37.5579   33.1499 H   0  0  0  0  0  0  0  0  0  0  0  0
   14.1985   37.4426   31.5553 H   0  0  0  0  0  0  0  0  0  0  0  0
   10.0893   37.4057   30.3459 H   0  0  0  0  0  0  0  0  0  0  0  0
   12.1337   35.7754   32.5703 H   0  0  0  0  0  0  0  0  0  0  0  0
   11.7934   35.4394   30.4513 H   0  0  0  0  0  0  0  0  0  0  0  0
   12.4314   38.3972   34.8700 H   0  0  0  0  0  0  0  0  0  0  0  0
   17.2669   34.4142   33.1692 H   0  0  0  0  0  0  0  0  0  0  0  0
   15.3759   36.1865   37.9790 H   0  0  0  0  0  0  0  0  0  0  0  0
   16.7638   35.0599   37.7896 H   0  0  0  0  0  0  0  0  0  0  0  0
  1  2  2  0
  1  3  1  0
  3  4  1  0
  4  5  1  0
  6  1  1  0
  7  6  1  0
  6  8  1  0
  8  9  1  0
  9 10  1  0
 10 11  1  0
 11 12  1  0
 12 13  1  0
 13 14  1  0
 13 15  2  0
 14 16  1  0
 16 17  1  0
 17 18  2  0
 19 17  1  0
 18 20  1  0
 21 19  2  0
 19 22  1  0
 20 23  2  0
 23 21  1  0
 22 24  1  0
 22 25  2  0
  4 26  2  0
  4 27  1  0
 28 27  1  0
 28 29  1  0
 29 30  1  0
 29 31  1  0
 30 32  1  0
 31 33  1  0
 31 34  1  0
 34 32  1  0
 32 35  1  0
 34 36  1  0
 37 35  1  0
 38 35  1  0
 39 37  2  0
 37 40  1  0
 41 38  2  0
 42 39  1  0
 40 43  2  0
 40 41  1  0
 44 42  2  0
 44 43  1  0
 43 45  1  0
  6 46  1  6
  7 47  1  0
  7 48  1  0
  8 49  1  0
  8 50  1  0
  9 51  1  0
  9 52  1  0
 10 53  1  0
 10 54  1  0
 11 55  1  0
 11 56  1  0
 12 57  1  0
 16 58  1  0
 16 59  1  0
 18 60  1  0
 20 61  1  0
 21 62  1  0
 23 63  1  0
 28 64  1  0
 28 65  1  0
 29 66  1  0
 31 67  1  0
 32 68  1  0
 33 69  1  0
 34 70  1  0
 36 71  1  0
 38 72  1  0
 42 73  1  0
 45 74  1  0
 45 75  1  0
M  CHG  3   5  -1  22   1  24  -1
M  END
>  <EmbedRMS>  (350) 
0.0747446063417

$$$$

     RDKit          3D

 75 78  0  0  0  0  0  0  0  0999 V2000
    9.4331   42.9365   34.3462 C   0  0  0  0  0  0  0  0  0  0  0  0
   10.4907   43.0329   35.0318 O   0  0  0  0  0  0  0  0  0  0  0  0
    8.8559   41.7104   34.0299 O   0  0  0  0  0  0  0  0  0  0  0  0
    9.4944   40.2141   34.4677 P   0  0  0  0  0  0  0  0  0  0  0  0
    9.7317   40.1723   36.1287 O   0  0  0  0  0  0  0  0  0  0  0  0
    8.7506   44.1348   33.7741 C   0  0  1  0  0  0  0  0  0  0  0  0
    9.2963   45.3820   34.3133 N   0  0  0  0  0  0  0  0  0  0  0  0
    8.8893   44.0528   32.2358 C   0  0  0  0  0  0  0  0  0  0  0  0
    8.2028   45.1824   31.4615 C   0  0  0  0  0  0  0  0  0  0  0  0
    6.6653   45.1046   31.4855 C   0  0  0  0  0  0  0  0  0  0  0  0
    6.0269   46.3225   30.8104 C   0  0  0  0  0  0  0  0  0  0  0  0
    6.5060   47.5640   31.4180 N   0  0  0  0  0  0  0  0  0  0  0  0
    7.2438   48.5391   30.6837 C   0  0  0  0  0  0  0  0  0  0  0  0
    7.5947   49.7395   31.3069 O   0  0  0  0  0  0  0  0  0  0  0  0
    7.5935   48.3117   29.4937 O   0  0  0  0  0  0  0  0  0  0  0  0
    8.3483   50.7564   30.6522 C   0  0  0  0  0  0  0  0  0  0  0  0
    8.5215   51.9351   31.5789 C   0  0  0  0  0  0  0  0  0  0  0  0
    7.3749   52.4746   32.1901 C   0  0  0  0  0  0  0  0  0  0  0  0
    9.7916   52.4926   31.8800 C   0  0  0  0  0  0  0  0  0  0  0  0
    7.4823   53.5135   33.1160 C   0  0  0  0  0  0  0  0  0  0  0  0
    9.8817   53.5255   32.8298 C   0  0  0  0  0  0  0  0  0  0  0  0
   10.9850   52.0545   31.2128 N   0  0  0  0  0  0  0  0  0  0  0  0
    8.7344   54.0308   33.4432 C   0  0  0  0  0  0  0  0  0  0  0  0
   11.0194   51.9941   29.8387 O   0  0  0  0  0  0  0  0  0  0  0  0
   12.0563   51.9631   31.8472 O   0  0  0  0  0  0  0  0  0  0  0  0
    8.5373   39.1383   34.0122 O   0  0  0  0  0  0  0  0  0  0  0  0
   10.9795   40.0889   33.6815 O   0  0  0  0  0  0  0  0  0  0  0  0
   10.7982   40.0848   32.2819 C   0  0  0  0  0  0  0  0  0  0  0  0
   11.5886   38.9142   31.7009 C   0  0  0  0  0  0  0  0  0  0  0  0
   12.9214   38.9367   32.1698 O   0  0  0  0  0  0  0  0  0  0  0  0
   11.0047   37.5660   32.0990 C   0  0  0  0  0  0  0  0  0  0  0  0
   13.3511   37.5885   32.2601 C   0  0  0  0  0  0  0  0  0  0  0  0
    9.9296   37.1961   31.2780 O   0  0  0  0  0  0  0  0  0  0  0  0
   12.1923   36.6658   31.9047 C   0  0  0  0  0  0  0  0  0  0  0  0
   13.8033   37.2966   33.6188 N   0  0  0  0  0  0  0  0  0  0  0  0
   12.3007   36.2864   30.5561 O   0  0  0  0  0  0  0  0  0  0  0  0
   14.7933   36.4724   33.9860 C   0  0  0  0  0  0  0  0  0  0  0  0
   13.2753   37.7296   34.7935 C   0  0  0  0  0  0  0  0  0  0  0  0
   15.6243   35.7579   33.1860 N   0  0  0  0  0  0  0  0  0  0  0  0
   14.8728   36.4410   35.3328 C   0  0  0  0  0  0  0  0  0  0  0  0
   13.9209   37.2263   35.8804 N   0  0  0  0  0  0  0  0  0  0  0  0
   16.5873   34.9919   33.7803 C   0  0  0  0  0  0  0  0  0  0  0  0
   15.8577   35.6717   35.9443 C   0  0  0  0  0  0  0  0  0  0  0  0
   16.7025   34.9583   35.1440 N   0  0  0  0  0  0  0  0  0  0  0  0
   16.0100   35.6384   37.3563 N   0  0  0  0  0  0  0  0  0  0  0  0
    7.6770   44.0707   34.0504 H   0  0  0  0  0  0  0  0  0  0  0  0
   10.3192   45.4407   34.1000 H   0  0  0  0  0  0  0  0  0  0  0  0
    9.1827   45.3820   35.3535 H   0  0  0  0  0  0  0  0  0  0  0  0
    8.4817   43.0851   31.8668 H   0  0  0  0  0  0  0  0  0  0  0  0
    9.9711   44.0682   31.9740 H   0  0  0  0  0  0  0  0  0  0  0  0
    8.5385   45.1364   30.4022 H   0  0  0  0  0  0  0  0  0  0  0  0
    8.5552   46.1511   31.8742 H   0  0  0  0  0  0  0  0  0  0  0  0
    6.3020   45.0643   32.5333 H   0  0  0  0  0  0  0  0  0  0  0  0
    6.3297   44.1799   30.9678 H   0  0  0  0  0  0  0  0  0  0  0  0
    4.9235   46.2671   30.9263 H   0  0  0  0  0  0  0  0  0  0  0  0
    6.2465   46.2897   29.7216 H   0  0  0  0  0  0  0  0  0  0  0  0
    6.2818   47.7530   32.4208 H   0  0  0  0  0  0  0  0  0  0  0  0
    7.8046   51.0935   29.7432 H   0  0  0  0  0  0  0  0  0  0  0  0
    9.3195   50.3221   30.3428 H   0  0  0  0  0  0  0  0  0  0  0  0
    6.3939   52.0757   31.9616 H   0  0  0  0  0  0  0  0  0  0  0  0
    6.5930   53.9127   33.5865 H   0  0  0  0  0  0  0  0  0  0  0  0
   10.8430   53.9591   33.0753 H   0  0  0  0  0  0  0  0  0  0  0  0
    8.8158   54.8337   34.1645 H   0  0  0  0  0  0  0  0  0  0  0  0
   11.2131   41.0320   31.8757 H   0  0  0  0  0  0  0  0  0  0  0  0
    9.7427   40.0140   31.9266 H   0  0  0  0  0  0  0  0  0  0  0  0
   11.5980   39.0107   30.5904 H   0  0  0  0  0  0  0  0  0  0  0  0
   10.7009   37.5601   33.1721 H   0  0  0  0  0  0  0  0  0  0  0  0
   14.1977   37.4380   31.5532 H   0  0  0  0  0  0  0  0  0  0  0  0
    9.5181   36.3960   31.6977 H   0  0  0  0  0  0  0  0  0  0  0  0
   12.1419   35.7697   32.5692 H   0  0  0  0  0  0  0  0  0  0  0  0
   11.7730   35.4523   30.4489 H   0  0  0  0  0  0  0  0  0  0  0  0
   12.4321   38.3984   34.8692 H   0  0  0  0  0  0  0  0  0  0  0  0
   17.2667   34.4138   33.1694 H   0  0  0  0  0  0  0  0  0  0  0  0
   15.3757   36.1867   37.9790 H   0  0  0  0  0  0  0  0  0  0  0  0
   16.7634   35.0598   37.7897 H   0  0  0  0  0  0  0  0  0  0  0  0
  1  2  2  0
  1  3  1  0
  3  4  1  0
  4  5  1  0
  6  1  1  0
  7  6  1  0
  6  8  1  0
  8  9  1  0
  9 10  1  0
 10 11  1  0
 11 12  1  0
 12 13  1  0
 13 14  1  0
 13 15  2  0
 14 16  1  0
 16 17  1  0
 17 18  2  0
 19 17  1  0
 18 20  1  0
 21 19  2  0
 19 22  1  0
 20 23  2  0
 23 21  1  0
 22 24  1  0
 22 25  2  0
  4 26  2  0
  4 27  1  0
 28 27  1  0
 28 29  1  0
 29 30  1  0
 29 31  1  0
 30 32  1  0
 31 33  1  0
 31 34  1  0
 34 32  1  0
 32 35  1  0
 34 36  1  0
 37 35  1  0
 38 35  1  0
 39 37  2  0
 37 40  1  0
 41 38  2  0
 42 39  1  0
 40 43  2  0
 40 41  1  0
 44 42  2  0
 44 43  1  0
 43 45  1  0
  6 46  1  6
  7 47  1  0
  7 48  1  0
  8 49  1  0
  8 50  1  0
  9 51  1  0
  9 52  1  0
 10 53  1  0
 10 54  1  0
 11 55  1  0
 11 56  1  0
 12 57  1  0
 16 58  1  0
 16 59  1  0
 18 60  1  0
 20 61  1  0
 21 62  1  0
 23 63  1  0
 28 64  1  0
 28 65  1  0
 29 66  1  0
 31 67  1  0
 32 68  1  0
 33 69  1  0
 34 70  1  0
 36 71  1  0
 38 72  1  0
 42 73  1  0
 45 74  1  0
 45 75  1  0
M  CHG  3   5  -1  22   1  24  -1
M  END
>  <EmbedRMS>  (351) 
0.0744115995645

$$$$

     RDKit          3D

 75 78  0  0  0  0  0  0  0  0999 V2000
    9.4310   42.9413   34.3438 C   0  0  0  0  0  0  0  0  0  0  0  0
   10.4884   43.0411   35.0293 O   0  0  0  0  0  0  0  0  0  0  0  0
    8.8557   41.7130   34.0291 O   0  0  0  0  0  0  0  0  0  0  0  0
    9.4946   40.2164   34.4676 P   0  0  0  0  0  0  0  0  0  0  0  0
    9.7318   40.1740   36.1286 O   0  0  0  0  0  0  0  0  0  0  0  0
    8.7481   44.1363   33.7722 C   0  0  1  0  0  0  0  0  0  0  0  0
    9.3036   45.3669   34.3389 N   0  0  0  0  0  0  0  0  0  0  0  0
    8.8891   44.0522   32.2309 C   0  0  0  0  0  0  0  0  0  0  0  0
    8.2016   45.1727   31.4438 C   0  0  0  0  0  0  0  0  0  0  0  0
    6.6644   45.1061   31.4864 C   0  0  0  0  0  0  0  0  0  0  0  0
    6.0277   46.3239   30.8098 C   0  0  0  0  0  0  0  0  0  0  0  0
    6.5058   47.5639   31.4216 N   0  0  0  0  0  0  0  0  0  0  0  0
    7.2510   48.5404   30.6842 C   0  0  0  0  0  0  0  0  0  0  0  0
    7.6459   49.7513   31.2652 O   0  0  0  0  0  0  0  0  0  0  0  0
    7.5874   48.3088   29.4936 O   0  0  0  0  0  0  0  0  0  0  0  0
    7.3652   50.1162   32.6139 C   0  0  0  0  0  0  0  0  0  0  0  0
    7.9858   51.4587   32.9154 C   0  0  0  0  0  0  0  0  0  0  0  0
    9.3451   51.6483   32.6053 C   0  0  0  0  0  0  0  0  0  0  0  0
    7.2470   52.5369   33.4687 C   0  0  0  0  0  0  0  0  0  0  0  0
    9.9522   52.8912   32.7913 C   0  0  0  0  0  0  0  0  0  0  0  0
    7.8707   53.7868   33.6303 C   0  0  0  0  0  0  0  0  0  0  0  0
    5.8884   52.3754   33.9042 N   0  0  0  0  0  0  0  0  0  0  0  0
    9.2135   53.9614   33.2926 C   0  0  0  0  0  0  0  0  0  0  0  0
    5.5560   51.3364   34.7428 O   0  0  0  0  0  0  0  0  0  0  0  0
    5.0635   53.2958   33.7286 O   0  0  0  0  0  0  0  0  0  0  0  0
    8.5375   39.1401   34.0125 O   0  0  0  0  0  0  0  0  0  0  0  0
   10.9796   40.0898   33.6814 O   0  0  0  0  0  0  0  0  0  0  0  0
   10.7982   40.0850   32.2818 C   0  0  0  0  0  0  0  0  0  0  0  0
   11.5886   38.9143   31.7009 C   0  0  0  0  0  0  0  0  0  0  0  0
   12.9213   38.9368   32.1699 O   0  0  0  0  0  0  0  0  0  0  0  0
   11.0047   37.5661   32.0991 C   0  0  0  0  0  0  0  0  0  0  0  0
   13.3510   37.5885   32.2602 C   0  0  0  0  0  0  0  0  0  0  0  0
    9.9296   37.1962   31.2780 O   0  0  0  0  0  0  0  0  0  0  0  0
   12.1923   36.6659   31.9047 C   0  0  0  0  0  0  0  0  0  0  0  0
   13.8033   37.2967   33.6188 N   0  0  0  0  0  0  0  0  0  0  0  0
   12.3006   36.2865   30.5562 O   0  0  0  0  0  0  0  0  0  0  0  0
   14.7933   36.4724   33.9860 C   0  0  0  0  0  0  0  0  0  0  0  0
   13.2753   37.7296   34.7935 C   0  0  0  0  0  0  0  0  0  0  0  0
   15.6243   35.7579   33.1860 N   0  0  0  0  0  0  0  0  0  0  0  0
   14.8728   36.4410   35.3328 C   0  0  0  0  0  0  0  0  0  0  0  0
   13.9209   37.2263   35.8804 N   0  0  0  0  0  0  0  0  0  0  0  0
   16.5873   34.9919   33.7803 C   0  0  0  0  0  0  0  0  0  0  0  0
   15.8577   35.6717   35.9443 C   0  0  0  0  0  0  0  0  0  0  0  0
   16.7025   34.9583   35.1440 N   0  0  0  0  0  0  0  0  0  0  0  0
   16.0100   35.6384   37.3563 N   0  0  0  0  0  0  0  0  0  0  0  0
    7.6760   44.0639   34.0546 H   0  0  0  0  0  0  0  0  0  0  0  0
    8.6463   46.1563   34.1437 H   0  0  0  0  0  0  0  0  0  0  0  0
   10.2147   45.5887   33.8745 H   0  0  0  0  0  0  0  0  0  0  0  0
    8.4828   43.0822   31.8666 H   0  0  0  0  0  0  0  0  0  0  0  0
    9.9707   44.0645   31.9682 H   0  0  0  0  0  0  0  0  0  0  0  0
    8.5701   46.1493   31.8192 H   0  0  0  0  0  0  0  0  0  0  0  0
    8.5217   45.0978   30.3814 H   0  0  0  0  0  0  0  0  0  0  0  0
    6.3125   45.0761   32.5384 H   0  0  0  0  0  0  0  0  0  0  0  0
    6.3163   44.1800   30.9794 H   0  0  0  0  0  0  0  0  0  0  0  0
    6.2488   46.2916   29.7215 H   0  0  0  0  0  0  0  0  0  0  0  0
    4.9240   46.2685   30.9239 H   0  0  0  0  0  0  0  0  0  0  0  0
    6.2744   47.7260   32.4264 H   0  0  0  0  0  0  0  0  0  0  0  0
    6.2655   50.1291   32.7477 H   0  0  0  0  0  0  0  0  0  0  0  0
    7.8057   49.3626   33.3020 H   0  0  0  0  0  0  0  0  0  0  0  0
    9.9329   50.8334   32.2004 H   0  0  0  0  0  0  0  0  0  0  0  0
   10.9961   53.0263   32.5389 H   0  0  0  0  0  0  0  0  0  0  0  0
    7.3207   54.6217   34.0460 H   0  0  0  0  0  0  0  0  0  0  0  0
    9.6854   54.9255   33.4324 H   0  0  0  0  0  0  0  0  0  0  0  0
    9.7426   40.0141   31.9266 H   0  0  0  0  0  0  0  0  0  0  0  0
   11.2130   41.0321   31.8752 H   0  0  0  0  0  0  0  0  0  0  0  0
   11.5980   39.0107   30.5905 H   0  0  0  0  0  0  0  0  0  0  0  0
   10.7008   37.5604   33.1721 H   0  0  0  0  0  0  0  0  0  0  0  0
   14.1976   37.4380   31.5532 H   0  0  0  0  0  0  0  0  0  0  0  0
    9.5180   36.3962   31.6978 H   0  0  0  0  0  0  0  0  0  0  0  0
   12.1418   35.7698   32.5693 H   0  0  0  0  0  0  0  0  0  0  0  0
   11.7729   35.4524   30.4489 H   0  0  0  0  0  0  0  0  0  0  0  0
   12.4321   38.3985   34.8692 H   0  0  0  0  0  0  0  0  0  0  0  0
   17.2667   34.4138   33.1694 H   0  0  0  0  0  0  0  0  0  0  0  0
   16.7634   35.0598   37.7897 H   0  0  0  0  0  0  0  0  0  0  0  0
   15.3757   36.1867   37.9790 H   0  0  0  0  0  0  0  0  0  0  0  0
  1  2  2  0
  1  3  1  0
  3  4  1  0
  4  5  1  0
  6  1  1  0
  7  6  1  0
  6  8  1  0
  8  9  1  0
  9 10  1  0
 10 11  1  0
 11 12  1  0
 12 13  1  0
 13 14  1  0
 13 15  2  0
 14 16  1  0
 16 17  1  0
 17 18  2  0
 19 17  1  0
 18 20  1  0
 21 19  2  0
 19 22  1  0
 20 23  2  0
 23 21  1  0
 22 24  1  0
 22 25  2  0
  4 26  2  0
  4 27  1  0
 28 27  1  0
 28 29  1  0
 29 30  1  0
 29 31  1  0
 30 32  1  0
 31 33  1  0
 31 34  1  0
 34 32  1  0
 32 35  1  0
 34 36  1  0
 37 35  1  0
 38 35  1  0
 39 37  2  0
 37 40  1  0
 41 38  2  0
 42 39  1  0
 40 43  2  0
 40 41  1  0
 44 42  2  0
 44 43  1  0
 43 45  1  0
  6 46  1  6
  7 47  1  0
  7 48  1  0
  8 49  1  0
  8 50  1  0
  9 51  1  0
  9 52  1  0
 10 53  1  0
 10 54  1  0
 11 55  1  0
 11 56  1  0
 12 57  1  0
 16 58  1  0
 16 59  1  0
 18 60  1  0
 20 61  1  0
 21 62  1  0
 23 63  1  0
 28 64  1  0
 28 65  1  0
 29 66  1  0
 31 67  1  0
 32 68  1  0
 33 69  1  0
 34 70  1  0
 36 71  1  0
 38 72  1  0
 42 73  1  0
 45 74  1  0
 45 75  1  0
M  CHG  3   5  -1  22   1  24  -1
M  END
>  <EmbedRMS>  (352) 
0.0736885847589

$$$$

     RDKit          3D

 75 78  0  0  0  0  0  0  0  0999 V2000
    9.4333   42.9366   34.3462 C   0  0  0  0  0  0  0  0  0  0  0  0
   10.4907   43.0331   35.0319 O   0  0  0  0  0  0  0  0  0  0  0  0
    8.8563   41.7104   34.0296 O   0  0  0  0  0  0  0  0  0  0  0  0
    9.4945   40.2142   34.4680 P   0  0  0  0  0  0  0  0  0  0  0  0
    9.7309   40.1726   36.1291 O   0  0  0  0  0  0  0  0  0  0  0  0
    8.7506   44.1348   33.7741 C   0  0  1  0  0  0  0  0  0  0  0  0
    9.2963   45.3821   34.3133 N   0  0  0  0  0  0  0  0  0  0  0  0
    8.8893   44.0528   32.2358 C   0  0  0  0  0  0  0  0  0  0  0  0
    8.2028   45.1823   31.4615 C   0  0  0  0  0  0  0  0  0  0  0  0
    6.6654   45.1045   31.4855 C   0  0  0  0  0  0  0  0  0  0  0  0
    6.0270   46.3225   30.8105 C   0  0  0  0  0  0  0  0  0  0  0  0
    6.5064   47.5639   31.4180 N   0  0  0  0  0  0  0  0  0  0  0  0
    7.2440   48.5390   30.6837 C   0  0  0  0  0  0  0  0  0  0  0  0
    7.5963   49.7385   31.3076 O   0  0  0  0  0  0  0  0  0  0  0  0
    7.5929   48.3121   29.4935 O   0  0  0  0  0  0  0  0  0  0  0  0
    8.3444   50.7589   30.6501 C   0  0  0  0  0  0  0  0  0  0  0  0
    8.6083   51.9341   31.5664 C   0  0  0  0  0  0  0  0  0  0  0  0
    8.4987   51.7779   32.9639 C   0  0  0  0  0  0  0  0  0  0  0  0
    8.9633   53.2066   31.0425 C   0  0  0  0  0  0  0  0  0  0  0  0
    8.6935   52.8619   33.8207 C   0  0  0  0  0  0  0  0  0  0  0  0
    9.1380   54.2891   31.9244 C   0  0  0  0  0  0  0  0  0  0  0  0
    9.1474   53.4193   29.6306 N   0  0  0  0  0  0  0  0  0  0  0  0
    9.0040   54.1163   33.3019 C   0  0  0  0  0  0  0  0  0  0  0  0
    9.7795   52.4740   28.8564 O   0  0  0  0  0  0  0  0  0  0  0  0
    8.8887   54.5317   29.1261 O   0  0  0  0  0  0  0  0  0  0  0  0
    8.5372   39.1386   34.0125 O   0  0  0  0  0  0  0  0  0  0  0  0
   10.9804   40.0880   33.6837 O   0  0  0  0  0  0  0  0  0  0  0  0
   10.8025   40.0899   32.2839 C   0  0  0  0  0  0  0  0  0  0  0  0
   11.5888   38.9174   31.7007 C   0  0  0  0  0  0  0  0  0  0  0  0
   12.9219   38.9373   32.1692 O   0  0  0  0  0  0  0  0  0  0  0  0
   11.0028   37.5682   32.0980 C   0  0  0  0  0  0  0  0  0  0  0  0
   13.3496   37.5885   32.2601 C   0  0  0  0  0  0  0  0  0  0  0  0
    9.9343   37.1822   31.2756 O   0  0  0  0  0  0  0  0  0  0  0  0
   12.1891   36.6677   31.9049 C   0  0  0  0  0  0  0  0  0  0  0  0
   13.8025   37.2965   33.6186 N   0  0  0  0  0  0  0  0  0  0  0  0
   12.2991   36.2867   30.5567 O   0  0  0  0  0  0  0  0  0  0  0  0
   14.7929   36.4725   33.9858 C   0  0  0  0  0  0  0  0  0  0  0  0
   13.2749   37.7294   34.7935 C   0  0  0  0  0  0  0  0  0  0  0  0
   15.6240   35.7580   33.1858 N   0  0  0  0  0  0  0  0  0  0  0  0
   14.8727   36.4411   35.3327 C   0  0  0  0  0  0  0  0  0  0  0  0
   13.9208   37.2263   35.8803 N   0  0  0  0  0  0  0  0  0  0  0  0
   16.5871   34.9921   33.7801 C   0  0  0  0  0  0  0  0  0  0  0  0
   15.8576   35.6718   35.9441 C   0  0  0  0  0  0  0  0  0  0  0  0
   16.7024   34.9584   35.1438 N   0  0  0  0  0  0  0  0  0  0  0  0
   16.0099   35.6384   37.3562 N   0  0  0  0  0  0  0  0  0  0  0  0
    7.6770   44.0707   34.0504 H   0  0  0  0  0  0  0  0  0  0  0  0
   10.3192   45.4407   34.1000 H   0  0  0  0  0  0  0  0  0  0  0  0
    9.1827   45.3821   35.3535 H   0  0  0  0  0  0  0  0  0  0  0  0
    9.9711   44.0682   31.9739 H   0  0  0  0  0  0  0  0  0  0  0  0
    8.4817   43.0851   31.8668 H   0  0  0  0  0  0  0  0  0  0  0  0
    8.5385   45.1364   30.4023 H   0  0  0  0  0  0  0  0  0  0  0  0
    8.5552   46.1510   31.8743 H   0  0  0  0  0  0  0  0  0  0  0  0
    6.3297   44.1799   30.9677 H   0  0  0  0  0  0  0  0  0  0  0  0
    6.3019   45.0641   32.5333 H   0  0  0  0  0  0  0  0  0  0  0  0
    4.9235   46.2673   30.9266 H   0  0  0  0  0  0  0  0  0  0  0  0
    6.2464   46.2898   29.7217 H   0  0  0  0  0  0  0  0  0  0  0  0
    6.2830   47.7526   32.4212 H   0  0  0  0  0  0  0  0  0  0  0  0
    9.3161   50.3430   30.3071 H   0  0  0  0  0  0  0  0  0  0  0  0
    7.7585   51.1018   29.7698 H   0  0  0  0  0  0  0  0  0  0  0  0
    8.2590   50.8173   33.4012 H   0  0  0  0  0  0  0  0  0  0  0  0
    8.6002   52.7286   34.8909 H   0  0  0  0  0  0  0  0  0  0  0  0
    9.4006   55.2682   31.5441 H   0  0  0  0  0  0  0  0  0  0  0  0
    9.1513   54.9558   33.9692 H   0  0  0  0  0  0  0  0  0  0  0  0
   11.2258   41.0357   31.8830 H   0  0  0  0  0  0  0  0  0  0  0  0
    9.7476   40.0331   31.9256 H   0  0  0  0  0  0  0  0  0  0  0  0
   11.5974   39.0148   30.5904 H   0  0  0  0  0  0  0  0  0  0  0  0
   10.7024   37.5455   33.1719 H   0  0  0  0  0  0  0  0  0  0  0  0
   14.1957   37.4366   31.5528 H   0  0  0  0  0  0  0  0  0  0  0  0
    9.1340   37.6658   31.6069 H   0  0  0  0  0  0  0  0  0  0  0  0
   12.1381   35.7717   32.5697 H   0  0  0  0  0  0  0  0  0  0  0  0
   11.7707   35.4530   30.4496 H   0  0  0  0  0  0  0  0  0  0  0  0
   12.4314   38.3980   34.8694 H   0  0  0  0  0  0  0  0  0  0  0  0
   17.2665   34.4140   33.1691 H   0  0  0  0  0  0  0  0  0  0  0  0
   16.7633   35.0599   37.7895 H   0  0  0  0  0  0  0  0  0  0  0  0
   15.3757   36.1868   37.9788 H   0  0  0  0  0  0  0  0  0  0  0  0
  1  2  2  0
  1  3  1  0
  3  4  1  0
  4  5  1  0
  6  1  1  0
  7  6  1  0
  6  8  1  0
  8  9  1  0
  9 10  1  0
 10 11  1  0
 11 12  1  0
 12 13  1  0
 13 14  1  0
 13 15  2  0
 14 16  1  0
 16 17  1  0
 17 18  2  0
 19 17  1  0
 18 20  1  0
 21 19  2  0
 19 22  1  0
 20 23  2  0
 23 21  1  0
 22 24  1  0
 22 25  2  0
  4 26  2  0
  4 27  1  0
 28 27  1  0
 28 29  1  0
 29 30  1  0
 29 31  1  0
 30 32  1  0
 31 33  1  0
 31 34  1  0
 34 32  1  0
 32 35  1  0
 34 36  1  0
 37 35  1  0
 38 35  1  0
 39 37  2  0
 37 40  1  0
 41 38  2  0
 42 39  1  0
 40 43  2  0
 40 41  1  0
 44 42  2  0
 44 43  1  0
 43 45  1  0
  6 46  1  6
  7 47  1  0
  7 48  1  0
  8 49  1  0
  8 50  1  0
  9 51  1  0
  9 52  1  0
 10 53  1  0
 10 54  1  0
 11 55  1  0
 11 56  1  0
 12 57  1  0
 16 58  1  0
 16 59  1  0
 18 60  1  0
 20 61  1  0
 21 62  1  0
 23 63  1  0
 28 64  1  0
 28 65  1  0
 29 66  1  0
 31 67  1  0
 32 68  1  0
 33 69  1  0
 34 70  1  0
 36 71  1  0
 38 72  1  0
 42 73  1  0
 45 74  1  0
 45 75  1  0
M  CHG  3   5  -1  22   1  24  -1
M  END
>  <EmbedRMS>  (353) 
0.0742142804253

$$$$

     RDKit          3D

 75 78  0  0  0  0  0  0  0  0999 V2000
    9.4333   42.9365   34.3462 C   0  0  0  0  0  0  0  0  0  0  0  0
   10.4907   43.0330   35.0319 O   0  0  0  0  0  0  0  0  0  0  0  0
    8.8563   41.7104   34.0296 O   0  0  0  0  0  0  0  0  0  0  0  0
    9.4945   40.2141   34.4680 P   0  0  0  0  0  0  0  0  0  0  0  0
    9.7309   40.1726   36.1291 O   0  0  0  0  0  0  0  0  0  0  0  0
    8.7506   44.1348   33.7741 C   0  0  1  0  0  0  0  0  0  0  0  0
    9.2963   45.3820   34.3133 N   0  0  0  0  0  0  0  0  0  0  0  0
    8.8893   44.0527   32.2358 C   0  0  0  0  0  0  0  0  0  0  0  0
    8.2028   45.1822   31.4614 C   0  0  0  0  0  0  0  0  0  0  0  0
    6.6654   45.1046   31.4854 C   0  0  0  0  0  0  0  0  0  0  0  0
    6.0272   46.3228   30.8108 C   0  0  0  0  0  0  0  0  0  0  0  0
    6.5071   47.5640   31.4183 N   0  0  0  0  0  0  0  0  0  0  0  0
    7.2417   48.5403   30.6828 C   0  0  0  0  0  0  0  0  0  0  0  0
    7.5839   49.7463   31.3037 O   0  0  0  0  0  0  0  0  0  0  0  0
    7.5942   48.3108   29.4941 O   0  0  0  0  0  0  0  0  0  0  0  0
    8.2913   50.7938   30.6422 C   0  0  0  0  0  0  0  0  0  0  0  0
    7.4278   51.4401   29.5830 C   0  0  0  0  0  0  0  0  0  0  0  0
    7.9024   51.4767   28.2588 C   0  0  0  0  0  0  0  0  0  0  0  0
    6.1391   51.9650   29.8726 C   0  0  0  0  0  0  0  0  0  0  0  0
    7.1185   52.0094   27.2349 C   0  0  0  0  0  0  0  0  0  0  0  0
    5.3599   52.4836   28.8217 C   0  0  0  0  0  0  0  0  0  0  0  0
    5.5989   51.9626   31.2069 N   0  0  0  0  0  0  0  0  0  0  0  0
    5.8484   52.5082   27.5150 C   0  0  0  0  0  0  0  0  0  0  0  0
    6.3948   52.2586   32.2886 O   0  0  0  0  0  0  0  0  0  0  0  0
    4.3680   51.8492   31.3827 O   0  0  0  0  0  0  0  0  0  0  0  0
    8.5372   39.1386   34.0125 O   0  0  0  0  0  0  0  0  0  0  0  0
   10.9804   40.0880   33.6837 O   0  0  0  0  0  0  0  0  0  0  0  0
   10.8025   40.0899   32.2839 C   0  0  0  0  0  0  0  0  0  0  0  0
   11.5888   38.9174   31.7007 C   0  0  0  0  0  0  0  0  0  0  0  0
   12.9219   38.9373   32.1692 O   0  0  0  0  0  0  0  0  0  0  0  0
   11.0028   37.5682   32.0980 C   0  0  0  0  0  0  0  0  0  0  0  0
   13.3496   37.5885   32.2601 C   0  0  0  0  0  0  0  0  0  0  0  0
    9.9343   37.1822   31.2756 O   0  0  0  0  0  0  0  0  0  0  0  0
   12.1891   36.6677   31.9049 C   0  0  0  0  0  0  0  0  0  0  0  0
   13.8025   37.2965   33.6186 N   0  0  0  0  0  0  0  0  0  0  0  0
   12.2991   36.2867   30.5567 O   0  0  0  0  0  0  0  0  0  0  0  0
   14.7929   36.4725   33.9858 C   0  0  0  0  0  0  0  0  0  0  0  0
   13.2749   37.7294   34.7935 C   0  0  0  0  0  0  0  0  0  0  0  0
   15.6240   35.7580   33.1858 N   0  0  0  0  0  0  0  0  0  0  0  0
   14.8727   36.4411   35.3327 C   0  0  0  0  0  0  0  0  0  0  0  0
   13.9208   37.2263   35.8803 N   0  0  0  0  0  0  0  0  0  0  0  0
   16.5871   34.9921   33.7801 C   0  0  0  0  0  0  0  0  0  0  0  0
   15.8576   35.6718   35.9441 C   0  0  0  0  0  0  0  0  0  0  0  0
   16.7024   34.9584   35.1438 N   0  0  0  0  0  0  0  0  0  0  0  0
   16.0099   35.6384   37.3562 N   0  0  0  0  0  0  0  0  0  0  0  0
    7.6770   44.0706   34.0504 H   0  0  0  0  0  0  0  0  0  0  0  0
    9.1827   45.3820   35.3534 H   0  0  0  0  0  0  0  0  0  0  0  0
   10.3192   45.4406   34.0999 H   0  0  0  0  0  0  0  0  0  0  0  0
    8.4816   43.0850   31.8668 H   0  0  0  0  0  0  0  0  0  0  0  0
    9.9711   44.0680   31.9739 H   0  0  0  0  0  0  0  0  0  0  0  0
    8.5384   45.1361   30.4021 H   0  0  0  0  0  0  0  0  0  0  0  0
    8.5554   46.1509   31.8740 H   0  0  0  0  0  0  0  0  0  0  0  0
    6.3295   44.1801   30.9675 H   0  0  0  0  0  0  0  0  0  0  0  0
    6.3020   45.0641   32.5333 H   0  0  0  0  0  0  0  0  0  0  0  0
    4.9237   46.2680   30.9271 H   0  0  0  0  0  0  0  0  0  0  0  0
    6.2463   46.2901   29.7219 H   0  0  0  0  0  0  0  0  0  0  0  0
    6.2817   47.7539   32.4207 H   0  0  0  0  0  0  0  0  0  0  0  0
    8.5946   51.5576   31.3865 H   0  0  0  0  0  0  0  0  0  0  0  0
    9.2325   50.3850   30.2131 H   0  0  0  0  0  0  0  0  0  0  0  0
    8.8803   51.0813   28.0128 H   0  0  0  0  0  0  0  0  0  0  0  0
    7.4948   52.0290   26.2202 H   0  0  0  0  0  0  0  0  0  0  0  0
    4.3736   52.8848   29.0182 H   0  0  0  0  0  0  0  0  0  0  0  0
    5.2407   52.9171   26.7181 H   0  0  0  0  0  0  0  0  0  0  0  0
   11.2258   41.0357   31.8830 H   0  0  0  0  0  0  0  0  0  0  0  0
    9.7476   40.0331   31.9256 H   0  0  0  0  0  0  0  0  0  0  0  0
   11.5974   39.0148   30.5904 H   0  0  0  0  0  0  0  0  0  0  0  0
   10.7023   37.5455   33.1719 H   0  0  0  0  0  0  0  0  0  0  0  0
   14.1957   37.4366   31.5528 H   0  0  0  0  0  0  0  0  0  0  0  0
    9.1340   37.6658   31.6069 H   0  0  0  0  0  0  0  0  0  0  0  0
   12.1381   35.7717   32.5697 H   0  0  0  0  0  0  0  0  0  0  0  0
   11.7707   35.4530   30.4496 H   0  0  0  0  0  0  0  0  0  0  0  0
   12.4314   38.3980   34.8694 H   0  0  0  0  0  0  0  0  0  0  0  0
   17.2665   34.4140   33.1691 H   0  0  0  0  0  0  0  0  0  0  0  0
   15.3757   36.1868   37.9789 H   0  0  0  0  0  0  0  0  0  0  0  0
   16.7633   35.0598   37.7895 H   0  0  0  0  0  0  0  0  0  0  0  0
  1  2  2  0
  1  3  1  0
  3  4  1  0
  4  5  1  0
  6  1  1  0
  7  6  1  0
  6  8  1  0
  8  9  1  0
  9 10  1  0
 10 11  1  0
 11 12  1  0
 12 13  1  0
 13 14  1  0
 13 15  2  0
 14 16  1  0
 16 17  1  0
 17 18  2  0
 19 17  1  0
 18 20  1  0
 21 19  2  0
 19 22  1  0
 20 23  2  0
 23 21  1  0
 22 24  1  0
 22 25  2  0
  4 26  2  0
  4 27  1  0
 28 27  1  0
 28 29  1  0
 29 30  1  0
 29 31  1  0
 30 32  1  0
 31 33  1  0
 31 34  1  0
 34 32  1  0
 32 35  1  0
 34 36  1  0
 37 35  1  0
 38 35  1  0
 39 37  2  0
 37 40  1  0
 41 38  2  0
 42 39  1  0
 40 43  2  0
 40 41  1  0
 44 42  2  0
 44 43  1  0
 43 45  1  0
  6 46  1  6
  7 47  1  0
  7 48  1  0
  8 49  1  0
  8 50  1  0
  9 51  1  0
  9 52  1  0
 10 53  1  0
 10 54  1  0
 11 55  1  0
 11 56  1  0
 12 57  1  0
 16 58  1  0
 16 59  1  0
 18 60  1  0
 20 61  1  0
 21 62  1  0
 23 63  1  0
 28 64  1  0
 28 65  1  0
 29 66  1  0
 31 67  1  0
 32 68  1  0
 33 69  1  0
 34 70  1  0
 36 71  1  0
 38 72  1  0
 42 73  1  0
 45 74  1  0
 45 75  1  0
M  CHG  3   5  -1  22   1  24  -1
M  END
>  <EmbedRMS>  (354) 
0.0741601942776

$$$$

     RDKit          3D

 75 78  0  0  0  0  0  0  0  0999 V2000
    9.4314   42.9421   34.3430 C   0  0  0  0  0  0  0  0  0  0  0  0
   10.4886   43.0415   35.0289 O   0  0  0  0  0  0  0  0  0  0  0  0
    8.8558   41.7137   34.0289 O   0  0  0  0  0  0  0  0  0  0  0  0
    9.4931   40.2169   34.4699 P   0  0  0  0  0  0  0  0  0  0  0  0
    9.7293   40.1748   36.1309 O   0  0  0  0  0  0  0  0  0  0  0  0
    8.7492   44.1379   33.7714 C   0  0  1  0  0  0  0  0  0  0  0  0
    9.3053   45.3680   34.3386 N   0  0  0  0  0  0  0  0  0  0  0  0
    8.8901   44.0559   32.2300 C   0  0  0  0  0  0  0  0  0  0  0  0
    8.2007   45.1769   31.4441 C   0  0  0  0  0  0  0  0  0  0  0  0
    6.6632   45.1088   31.4884 C   0  0  0  0  0  0  0  0  0  0  0  0
    6.0207   46.3219   30.8072 C   0  0  0  0  0  0  0  0  0  0  0  0
    6.4902   47.5670   31.4139 N   0  0  0  0  0  0  0  0  0  0  0  0
    7.2730   48.5188   30.6974 C   0  0  0  0  0  0  0  0  0  0  0  0
    7.7599   49.6426   31.3721 O   0  0  0  0  0  0  0  0  0  0  0  0
    7.5866   48.3119   29.4936 O   0  0  0  0  0  0  0  0  0  0  0  0
    8.8341   50.4381   30.8741 C   0  0  0  0  0  0  0  0  0  0  0  0
   10.1182   49.6363   30.8686 C   0  0  0  0  0  0  0  0  0  0  0  0
   10.4596   48.9165   32.0290 C   0  0  0  0  0  0  0  0  0  0  0  0
   10.9456   49.5292   29.7213 C   0  0  0  0  0  0  0  0  0  0  0  0
   11.5673   48.0680   32.0416 C   0  0  0  0  0  0  0  0  0  0  0  0
   12.0484   48.6571   29.7481 C   0  0  0  0  0  0  0  0  0  0  0  0
   10.7024   50.3113   28.5419 N   0  0  0  0  0  0  0  0  0  0  0  0
   12.3543   47.9306   30.8999 C   0  0  0  0  0  0  0  0  0  0  0  0
   10.4953   51.6674   28.6476 O   0  0  0  0  0  0  0  0  0  0  0  0
   10.9057   49.8187   27.4129 O   0  0  0  0  0  0  0  0  0  0  0  0
    8.5367   39.1405   34.0137 O   0  0  0  0  0  0  0  0  0  0  0  0
   10.9788   40.0876   33.6872 O   0  0  0  0  0  0  0  0  0  0  0  0
   10.7993   40.0947   32.2884 C   0  0  0  0  0  0  0  0  0  0  0  0
   11.5957   38.9352   31.6994 C   0  0  0  0  0  0  0  0  0  0  0  0
   12.9257   38.9478   32.1799 O   0  0  0  0  0  0  0  0  0  0  0  0
   11.0070   37.5758   32.0732 C   0  0  0  0  0  0  0  0  0  0  0  0
   13.3571   37.5980   32.2612 C   0  0  0  0  0  0  0  0  0  0  0  0
    9.9093   37.1808   31.2875 O   0  0  0  0  0  0  0  0  0  0  0  0
   12.1967   36.6764   31.8894 C   0  0  0  0  0  0  0  0  0  0  0  0
   13.8018   37.2956   33.6197 N   0  0  0  0  0  0  0  0  0  0  0  0
   12.3048   36.2360   30.5555 O   0  0  0  0  0  0  0  0  0  0  0  0
   14.7922   36.4716   33.9864 C   0  0  0  0  0  0  0  0  0  0  0  0
   13.2747   37.7291   34.7944 C   0  0  0  0  0  0  0  0  0  0  0  0
   15.6239   35.7582   33.1861 N   0  0  0  0  0  0  0  0  0  0  0  0
   14.8721   36.4402   35.3331 C   0  0  0  0  0  0  0  0  0  0  0  0
   13.9206   37.2257   35.8810 N   0  0  0  0  0  0  0  0  0  0  0  0
   16.5873   34.9924   33.7802 C   0  0  0  0  0  0  0  0  0  0  0  0
   15.8576   35.6714   35.9444 C   0  0  0  0  0  0  0  0  0  0  0  0
   16.7026   34.9585   35.1439 N   0  0  0  0  0  0  0  0  0  0  0  0
   16.0102   35.6382   37.3564 N   0  0  0  0  0  0  0  0  0  0  0  0
    7.6771   44.0661   34.0537 H   0  0  0  0  0  0  0  0  0  0  0  0
    8.6514   46.1591   34.1394 H   0  0  0  0  0  0  0  0  0  0  0  0
   10.2186   45.5866   33.8773 H   0  0  0  0  0  0  0  0  0  0  0  0
    8.4855   43.0856   31.8645 H   0  0  0  0  0  0  0  0  0  0  0  0
    9.9717   44.0708   31.9674 H   0  0  0  0  0  0  0  0  0  0  0  0
    8.5201   45.1034   30.3814 H   0  0  0  0  0  0  0  0  0  0  0  0
    8.5685   46.1541   31.8192 H   0  0  0  0  0  0  0  0  0  0  0  0
    6.3163   44.1796   30.9863 H   0  0  0  0  0  0  0  0  0  0  0  0
    6.3129   45.0828   32.5411 H   0  0  0  0  0  0  0  0  0  0  0  0
    6.2445   46.2878   29.7193 H   0  0  0  0  0  0  0  0  0  0  0  0
    4.9172   46.2611   30.9189 H   0  0  0  0  0  0  0  0  0  0  0  0
    6.2722   47.7504   32.4191 H   0  0  0  0  0  0  0  0  0  0  0  0
    8.5577   50.8166   29.8698 H   0  0  0  0  0  0  0  0  0  0  0  0
    8.9655   51.3132   31.5442 H   0  0  0  0  0  0  0  0  0  0  0  0
    9.8471   48.9903   32.9195 H   0  0  0  0  0  0  0  0  0  0  0  0
   11.8100   47.5087   32.9359 H   0  0  0  0  0  0  0  0  0  0  0  0
   12.6875   48.5580   28.8796 H   0  0  0  0  0  0  0  0  0  0  0  0
   13.2104   47.2684   30.9104 H   0  0  0  0  0  0  0  0  0  0  0  0
    9.7449   40.0202   31.9302 H   0  0  0  0  0  0  0  0  0  0  0  0
   11.2093   41.0482   31.8916 H   0  0  0  0  0  0  0  0  0  0  0  0
   11.6207   39.0685   30.5942 H   0  0  0  0  0  0  0  0  0  0  0  0
   10.7059   37.5565   33.1439 H   0  0  0  0  0  0  0  0  0  0  0  0
   14.2095   37.4544   31.5601 H   0  0  0  0  0  0  0  0  0  0  0  0
   10.0864   37.4211   30.3414 H   0  0  0  0  0  0  0  0  0  0  0  0
   12.1275   35.7873   32.5550 H   0  0  0  0  0  0  0  0  0  0  0  0
   12.5030   37.0109   29.9673 H   0  0  0  0  0  0  0  0  0  0  0  0
   12.4328   38.3997   34.8703 H   0  0  0  0  0  0  0  0  0  0  0  0
   17.2670   34.4149   33.1691 H   0  0  0  0  0  0  0  0  0  0  0  0
   15.3758   36.1862   37.9792 H   0  0  0  0  0  0  0  0  0  0  0  0
   16.7640   35.0601   37.7896 H   0  0  0  0  0  0  0  0  0  0  0  0
  1  2  2  0
  1  3  1  0
  3  4  1  0
  4  5  1  0
  6  1  1  0
  7  6  1  0
  6  8  1  0
  8  9  1  0
  9 10  1  0
 10 11  1  0
 11 12  1  0
 12 13  1  0
 13 14  1  0
 13 15  2  0
 14 16  1  0
 16 17  1  0
 17 18  2  0
 19 17  1  0
 18 20  1  0
 21 19  2  0
 19 22  1  0
 20 23  2  0
 23 21  1  0
 22 24  1  0
 22 25  2  0
  4 26  2  0
  4 27  1  0
 28 27  1  0
 28 29  1  0
 29 30  1  0
 29 31  1  0
 30 32  1  0
 31 33  1  0
 31 34  1  0
 34 32  1  0
 32 35  1  0
 34 36  1  0
 37 35  1  0
 38 35  1  0
 39 37  2  0
 37 40  1  0
 41 38  2  0
 42 39  1  0
 40 43  2  0
 40 41  1  0
 44 42  2  0
 44 43  1  0
 43 45  1  0
  6 46  1  6
  7 47  1  0
  7 48  1  0
  8 49  1  0
  8 50  1  0
  9 51  1  0
  9 52  1  0
 10 53  1  0
 10 54  1  0
 11 55  1  0
 11 56  1  0
 12 57  1  0
 16 58  1  0
 16 59  1  0
 18 60  1  0
 20 61  1  0
 21 62  1  0
 23 63  1  0
 28 64  1  0
 28 65  1  0
 29 66  1  0
 31 67  1  0
 32 68  1  0
 33 69  1  0
 34 70  1  0
 36 71  1  0
 38 72  1  0
 42 73  1  0
 45 74  1  0
 45 75  1  0
M  CHG  3   5  -1  22   1  24  -1
M  END
>  <EmbedRMS>  (355) 
0.0765240225375

$$$$

     RDKit          3D

 75 78  0  0  0  0  0  0  0  0999 V2000
    9.4334   42.9367   34.3454 C   0  0  0  0  0  0  0  0  0  0  0  0
   10.4907   43.0331   35.0315 O   0  0  0  0  0  0  0  0  0  0  0  0
    8.8563   41.7106   34.0290 O   0  0  0  0  0  0  0  0  0  0  0  0
    9.4941   40.2141   34.4677 P   0  0  0  0  0  0  0  0  0  0  0  0
    9.7310   40.1727   36.1288 O   0  0  0  0  0  0  0  0  0  0  0  0
    8.7509   44.1354   33.7737 C   0  0  1  0  0  0  0  0  0  0  0  0
    9.2967   45.3821   34.3135 N   0  0  0  0  0  0  0  0  0  0  0  0
    8.8899   44.0552   32.2353 C   0  0  0  0  0  0  0  0  0  0  0  0
    8.2028   45.1859   31.4625 C   0  0  0  0  0  0  0  0  0  0  0  0
    6.6652   45.1062   31.4856 C   0  0  0  0  0  0  0  0  0  0  0  0
    6.0240   46.3220   30.8083 C   0  0  0  0  0  0  0  0  0  0  0  0
    6.4972   47.5657   31.4155 N   0  0  0  0  0  0  0  0  0  0  0  0
    7.2575   48.5294   30.6899 C   0  0  0  0  0  0  0  0  0  0  0  0
    7.6734   49.6966   31.3383 O   0  0  0  0  0  0  0  0  0  0  0  0
    7.5905   48.3102   29.4936 O   0  0  0  0  0  0  0  0  0  0  0  0
    8.6256   50.6000   30.7802 C   0  0  0  0  0  0  0  0  0  0  0  0
    9.9897   49.9509   30.7063 C   0  0  0  0  0  0  0  0  0  0  0  0
   10.6239   49.8613   29.4535 C   0  0  0  0  0  0  0  0  0  0  0  0
   10.6176   49.3728   31.8448 C   0  0  0  0  0  0  0  0  0  0  0  0
   11.8462   49.2022   29.3187 C   0  0  0  0  0  0  0  0  0  0  0  0
   11.8408   48.6982   31.6813 C   0  0  0  0  0  0  0  0  0  0  0  0
   10.0306   49.4347   33.1583 N   0  0  0  0  0  0  0  0  0  0  0  0
   12.4506   48.6174   30.4291 C   0  0  0  0  0  0  0  0  0  0  0  0
   10.2930   48.4429   34.0751 O   0  0  0  0  0  0  0  0  0  0  0  0
    9.4205   50.4543   33.5391 O   0  0  0  0  0  0  0  0  0  0  0  0
    8.5369   39.1384   34.0122 O   0  0  0  0  0  0  0  0  0  0  0  0
   10.9795   40.0869   33.6827 O   0  0  0  0  0  0  0  0  0  0  0  0
   10.7997   40.0899   32.2830 C   0  0  0  0  0  0  0  0  0  0  0  0
   11.5968   38.9274   31.6962 C   0  0  0  0  0  0  0  0  0  0  0  0
   12.9242   38.9425   32.1784 O   0  0  0  0  0  0  0  0  0  0  0  0
   11.0086   37.5713   32.0780 C   0  0  0  0  0  0  0  0  0  0  0  0
   13.3528   37.5929   32.2623 C   0  0  0  0  0  0  0  0  0  0  0  0
    9.9098   37.1770   31.2925 O   0  0  0  0  0  0  0  0  0  0  0  0
   12.1943   36.6683   31.8995 C   0  0  0  0  0  0  0  0  0  0  0  0
   13.8019   37.2950   33.6199 N   0  0  0  0  0  0  0  0  0  0  0  0
   12.3027   36.2773   30.5558 O   0  0  0  0  0  0  0  0  0  0  0  0
   14.7926   36.4715   33.9864 C   0  0  0  0  0  0  0  0  0  0  0  0
   13.2749   37.7286   34.7946 C   0  0  0  0  0  0  0  0  0  0  0  0
   15.6239   35.7577   33.1860 N   0  0  0  0  0  0  0  0  0  0  0  0
   14.8727   36.4403   35.3332 C   0  0  0  0  0  0  0  0  0  0  0  0
   13.9210   37.2257   35.8811 N   0  0  0  0  0  0  0  0  0  0  0  0
   16.5873   34.9921   33.7802 C   0  0  0  0  0  0  0  0  0  0  0  0
   15.8579   35.6714   35.9444 C   0  0  0  0  0  0  0  0  0  0  0  0
   16.7028   34.9583   35.1439 N   0  0  0  0  0  0  0  0  0  0  0  0
   16.0104   35.6381   37.3564 N   0  0  0  0  0  0  0  0  0  0  0  0
    7.6773   44.0714   34.0497 H   0  0  0  0  0  0  0  0  0  0  0  0
    9.1840   45.3818   35.3538 H   0  0  0  0  0  0  0  0  0  0  0  0
   10.3194   45.4412   34.0991 H   0  0  0  0  0  0  0  0  0  0  0  0
    9.9718   44.0720   31.9737 H   0  0  0  0  0  0  0  0  0  0  0  0
    8.4831   43.0878   31.8651 H   0  0  0  0  0  0  0  0  0  0  0  0
    8.5393   45.1424   30.4034 H   0  0  0  0  0  0  0  0  0  0  0  0
    8.5538   46.1547   31.8769 H   0  0  0  0  0  0  0  0  0  0  0  0
    6.3015   45.0666   32.5333 H   0  0  0  0  0  0  0  0  0  0  0  0
    6.3313   44.1802   30.9691 H   0  0  0  0  0  0  0  0  0  0  0  0
    4.9205   46.2630   30.9217 H   0  0  0  0  0  0  0  0  0  0  0  0
    6.2458   46.2890   29.7200 H   0  0  0  0  0  0  0  0  0  0  0  0
    6.2759   47.7521   32.4195 H   0  0  0  0  0  0  0  0  0  0  0  0
    8.6823   51.5098   31.4118 H   0  0  0  0  0  0  0  0  0  0  0  0
    8.2722   50.9328   29.7795 H   0  0  0  0  0  0  0  0  0  0  0  0
   10.1647   50.2904   28.5715 H   0  0  0  0  0  0  0  0  0  0  0  0
   12.3213   49.1372   28.3483 H   0  0  0  0  0  0  0  0  0  0  0  0
   12.3339   48.2443   32.5315 H   0  0  0  0  0  0  0  0  0  0  0  0
   13.3960   48.1015   30.3204 H   0  0  0  0  0  0  0  0  0  0  0  0
    9.7450   40.0146   31.9262 H   0  0  0  0  0  0  0  0  0  0  0  0
   11.2097   41.0419   31.8829 H   0  0  0  0  0  0  0  0  0  0  0  0
   11.6265   39.0456   30.5888 H   0  0  0  0  0  0  0  0  0  0  0  0
   10.7064   37.5574   33.1484 H   0  0  0  0  0  0  0  0  0  0  0  0
   14.2021   37.4484   31.5574 H   0  0  0  0  0  0  0  0  0  0  0  0
   10.0952   37.3990   30.3433 H   0  0  0  0  0  0  0  0  0  0  0  0
   12.1163   35.7745   32.5633 H   0  0  0  0  0  0  0  0  0  0  0  0
   12.9615   35.5349   30.5312 H   0  0  0  0  0  0  0  0  0  0  0  0
   12.4321   38.3982   34.8705 H   0  0  0  0  0  0  0  0  0  0  0  0
   17.2669   34.4143   33.1690 H   0  0  0  0  0  0  0  0  0  0  0  0
   16.7641   35.0599   37.7896 H   0  0  0  0  0  0  0  0  0  0  0  0
   15.3761   36.1862   37.9792 H   0  0  0  0  0  0  0  0  0  0  0  0
  1  2  2  0
  1  3  1  0
  3  4  1  0
  4  5  1  0
  6  1  1  0
  7  6  1  0
  6  8  1  0
  8  9  1  0
  9 10  1  0
 10 11  1  0
 11 12  1  0
 12 13  1  0
 13 14  1  0
 13 15  2  0
 14 16  1  0
 16 17  1  0
 17 18  2  0
 19 17  1  0
 18 20  1  0
 21 19  2  0
 19 22  1  0
 20 23  2  0
 23 21  1  0
 22 24  1  0
 22 25  2  0
  4 26  2  0
  4 27  1  0
 28 27  1  0
 28 29  1  0
 29 30  1  0
 29 31  1  0
 30 32  1  0
 31 33  1  0
 31 34  1  0
 34 32  1  0
 32 35  1  0
 34 36  1  0
 37 35  1  0
 38 35  1  0
 39 37  2  0
 37 40  1  0
 41 38  2  0
 42 39  1  0
 40 43  2  0
 40 41  1  0
 44 42  2  0
 44 43  1  0
 43 45  1  0
  6 46  1  6
  7 47  1  0
  7 48  1  0
  8 49  1  0
  8 50  1  0
  9 51  1  0
  9 52  1  0
 10 53  1  0
 10 54  1  0
 11 55  1  0
 11 56  1  0
 12 57  1  0
 16 58  1  0
 16 59  1  0
 18 60  1  0
 20 61  1  0
 21 62  1  0
 23 63  1  0
 28 64  1  0
 28 65  1  0
 29 66  1  0
 31 67  1  0
 32 68  1  0
 33 69  1  0
 34 70  1  0
 36 71  1  0
 38 72  1  0
 42 73  1  0
 45 74  1  0
 45 75  1  0
M  CHG  3   5  -1  22   1  24  -1
M  END
>  <EmbedRMS>  (356) 
0.0751191914194

$$$$

     RDKit          3D

 75 78  0  0  0  0  0  0  0  0999 V2000
    9.4336   42.9372   34.3454 C   0  0  0  0  0  0  0  0  0  0  0  0
   10.4908   43.0335   35.0314 O   0  0  0  0  0  0  0  0  0  0  0  0
    8.8564   41.7110   34.0291 O   0  0  0  0  0  0  0  0  0  0  0  0
    9.4943   40.2146   34.4678 P   0  0  0  0  0  0  0  0  0  0  0  0
    9.7308   40.1730   36.1289 O   0  0  0  0  0  0  0  0  0  0  0  0
    8.7511   44.1360   33.7736 C   0  0  1  0  0  0  0  0  0  0  0  0
    9.2969   45.3831   34.3130 N   0  0  0  0  0  0  0  0  0  0  0  0
    8.8895   44.0553   32.2352 C   0  0  0  0  0  0  0  0  0  0  0  0
    8.2022   45.1857   31.4620 C   0  0  0  0  0  0  0  0  0  0  0  0
    6.6645   45.1061   31.4851 C   0  0  0  0  0  0  0  0  0  0  0  0
    6.0232   46.3216   30.8069 C   0  0  0  0  0  0  0  0  0  0  0  0
    6.4947   47.5656   31.4146 N   0  0  0  0  0  0  0  0  0  0  0  0
    7.2635   48.5257   30.6931 C   0  0  0  0  0  0  0  0  0  0  0  0
    7.7033   49.6774   31.3529 O   0  0  0  0  0  0  0  0  0  0  0  0
    7.5888   48.3115   29.4945 O   0  0  0  0  0  0  0  0  0  0  0  0
    8.6852   50.5632   30.8174 C   0  0  0  0  0  0  0  0  0  0  0  0
   10.0323   49.8783   30.7450 C   0  0  0  0  0  0  0  0  0  0  0  0
   10.5447   49.3088   31.9253 C   0  0  0  0  0  0  0  0  0  0  0  0
   10.8188   49.8408   29.5628 C   0  0  0  0  0  0  0  0  0  0  0  0
   11.8047   48.7096   31.9406 C   0  0  0  0  0  0  0  0  0  0  0  0
   12.0945   49.2532   29.6043 C   0  0  0  0  0  0  0  0  0  0  0  0
   10.3577   50.3965   28.3227 N   0  0  0  0  0  0  0  0  0  0  0  0
   12.5802   48.6856   30.7831 C   0  0  0  0  0  0  0  0  0  0  0  0
   11.2310   51.1056   27.5308 O   0  0  0  0  0  0  0  0  0  0  0  0
    9.2733   50.0201   27.8333 O   0  0  0  0  0  0  0  0  0  0  0  0
    8.5370   39.1390   34.0124 O   0  0  0  0  0  0  0  0  0  0  0  0
   10.9801   40.0880   33.6835 O   0  0  0  0  0  0  0  0  0  0  0  0
   10.8020   40.0894   32.2836 C   0  0  0  0  0  0  0  0  0  0  0  0
   11.5900   38.9178   31.7006 C   0  0  0  0  0  0  0  0  0  0  0  0
   12.9224   38.9390   32.1711 O   0  0  0  0  0  0  0  0  0  0  0  0
   11.0052   37.5677   32.0966 C   0  0  0  0  0  0  0  0  0  0  0  0
   13.3518   37.5909   32.2610 C   0  0  0  0  0  0  0  0  0  0  0  0
    9.9381   37.1795   31.2732 O   0  0  0  0  0  0  0  0  0  0  0  0
   12.1912   36.6689   31.9042 C   0  0  0  0  0  0  0  0  0  0  0  0
   13.8027   37.2968   33.6192 N   0  0  0  0  0  0  0  0  0  0  0  0
   12.2877   36.2853   30.5567 O   0  0  0  0  0  0  0  0  0  0  0  0
   14.7928   36.4724   33.9861 C   0  0  0  0  0  0  0  0  0  0  0  0
   13.2751   37.7297   34.7941 C   0  0  0  0  0  0  0  0  0  0  0  0
   15.6239   35.7581   33.1859 N   0  0  0  0  0  0  0  0  0  0  0  0
   14.8726   36.4408   35.3329 C   0  0  0  0  0  0  0  0  0  0  0  0
   13.9209   37.2262   35.8807 N   0  0  0  0  0  0  0  0  0  0  0  0
   16.5870   34.9921   33.7801 C   0  0  0  0  0  0  0  0  0  0  0  0
   15.8576   35.6716   35.9442 C   0  0  0  0  0  0  0  0  0  0  0  0
   16.7024   34.9584   35.1438 N   0  0  0  0  0  0  0  0  0  0  0  0
   16.0101   35.6383   37.3563 N   0  0  0  0  0  0  0  0  0  0  0  0
    7.6775   44.0721   34.0498 H   0  0  0  0  0  0  0  0  0  0  0  0
    9.1864   45.3819   35.3535 H   0  0  0  0  0  0  0  0  0  0  0  0
   10.3191   45.4438   34.0964 H   0  0  0  0  0  0  0  0  0  0  0  0
    9.9713   44.0718   31.9732 H   0  0  0  0  0  0  0  0  0  0  0  0
    8.4824   43.0877   31.8654 H   0  0  0  0  0  0  0  0  0  0  0  0
    8.5531   46.1546   31.8759 H   0  0  0  0  0  0  0  0  0  0  0  0
    8.5386   45.1418   30.4029 H   0  0  0  0  0  0  0  0  0  0  0  0
    6.3307   44.1798   30.9692 H   0  0  0  0  0  0  0  0  0  0  0  0
    6.3009   45.0671   32.5329 H   0  0  0  0  0  0  0  0  0  0  0  0
    6.2465   46.2887   29.7189 H   0  0  0  0  0  0  0  0  0  0  0  0
    4.9196   46.2619   30.9188 H   0  0  0  0  0  0  0  0  0  0  0  0
    6.2731   47.7508   32.4187 H   0  0  0  0  0  0  0  0  0  0  0  0
    8.3371   50.9651   29.8466 H   0  0  0  0  0  0  0  0  0  0  0  0
    8.7764   51.4321   31.5025 H   0  0  0  0  0  0  0  0  0  0  0  0
    9.9657   49.3334   32.8406 H   0  0  0  0  0  0  0  0  0  0  0  0
   12.1839   48.2708   32.8546 H   0  0  0  0  0  0  0  0  0  0  0  0
   12.7079   49.2193   28.7127 H   0  0  0  0  0  0  0  0  0  0  0  0
   13.5601   48.2260   30.7985 H   0  0  0  0  0  0  0  0  0  0  0  0
   11.2240   41.0357   31.8826 H   0  0  0  0  0  0  0  0  0  0  0  0
    9.7472   40.0310   31.9255 H   0  0  0  0  0  0  0  0  0  0  0  0
   11.5999   39.0159   30.5904 H   0  0  0  0  0  0  0  0  0  0  0  0
   10.7034   37.5450   33.1702 H   0  0  0  0  0  0  0  0  0  0  0  0
   14.1993   37.4424   31.5548 H   0  0  0  0  0  0  0  0  0  0  0  0
    9.1370   37.6634   31.6024 H   0  0  0  0  0  0  0  0  0  0  0  0
   12.1204   35.7712   32.5636 H   0  0  0  0  0  0  0  0  0  0  0  0
   12.9457   35.5426   30.5221 H   0  0  0  0  0  0  0  0  0  0  0  0
   12.4322   38.3989   34.8700 H   0  0  0  0  0  0  0  0  0  0  0  0
   17.2664   34.4142   33.1690 H   0  0  0  0  0  0  0  0  0  0  0  0
   16.7636   35.0598   37.7895 H   0  0  0  0  0  0  0  0  0  0  0  0
   15.3759   36.1865   37.9790 H   0  0  0  0  0  0  0  0  0  0  0  0
  1  2  2  0
  1  3  1  0
  3  4  1  0
  4  5  1  0
  6  1  1  0
  7  6  1  0
  6  8  1  0
  8  9  1  0
  9 10  1  0
 10 11  1  0
 11 12  1  0
 12 13  1  0
 13 14  1  0
 13 15  2  0
 14 16  1  0
 16 17  1  0
 17 18  2  0
 19 17  1  0
 18 20  1  0
 21 19  2  0
 19 22  1  0
 20 23  2  0
 23 21  1  0
 22 24  1  0
 22 25  2  0
  4 26  2  0
  4 27  1  0
 28 27  1  0
 28 29  1  0
 29 30  1  0
 29 31  1  0
 30 32  1  0
 31 33  1  0
 31 34  1  0
 34 32  1  0
 32 35  1  0
 34 36  1  0
 37 35  1  0
 38 35  1  0
 39 37  2  0
 37 40  1  0
 41 38  2  0
 42 39  1  0
 40 43  2  0
 40 41  1  0
 44 42  2  0
 44 43  1  0
 43 45  1  0
  6 46  1  6
  7 47  1  0
  7 48  1  0
  8 49  1  0
  8 50  1  0
  9 51  1  0
  9 52  1  0
 10 53  1  0
 10 54  1  0
 11 55  1  0
 11 56  1  0
 12 57  1  0
 16 58  1  0
 16 59  1  0
 18 60  1  0
 20 61  1  0
 21 62  1  0
 23 63  1  0
 28 64  1  0
 28 65  1  0
 29 66  1  0
 31 67  1  0
 32 68  1  0
 33 69  1  0
 34 70  1  0
 36 71  1  0
 38 72  1  0
 42 73  1  0
 45 74  1  0
 45 75  1  0
M  CHG  3   5  -1  22   1  24  -1
M  END
>  <EmbedRMS>  (357) 
0.0748028629167

$$$$

     RDKit          3D

 75 78  0  0  0  0  0  0  0  0999 V2000
    9.4310   42.9413   34.3438 C   0  0  0  0  0  0  0  0  0  0  0  0
   10.4883   43.0413   35.0293 O   0  0  0  0  0  0  0  0  0  0  0  0
    8.8561   41.7129   34.0288 O   0  0  0  0  0  0  0  0  0  0  0  0
    9.4945   40.2162   34.4678 P   0  0  0  0  0  0  0  0  0  0  0  0
    9.7312   40.1740   36.1288 O   0  0  0  0  0  0  0  0  0  0  0  0
    8.7478   44.1361   33.7721 C   0  0  1  0  0  0  0  0  0  0  0  0
    9.3028   45.3670   34.3389 N   0  0  0  0  0  0  0  0  0  0  0  0
    8.8890   44.0518   32.2309 C   0  0  0  0  0  0  0  0  0  0  0  0
    8.2017   45.1721   31.4435 C   0  0  0  0  0  0  0  0  0  0  0  0
    6.6644   45.1050   31.4849 C   0  0  0  0  0  0  0  0  0  0  0  0
    6.0276   46.3247   30.8116 C   0  0  0  0  0  0  0  0  0  0  0  0
    6.5115   47.5620   31.4232 N   0  0  0  0  0  0  0  0  0  0  0  0
    7.2460   48.5438   30.6821 C   0  0  0  0  0  0  0  0  0  0  0  0
    7.6221   49.7676   31.2534 O   0  0  0  0  0  0  0  0  0  0  0  0
    7.5882   48.3080   29.4941 O   0  0  0  0  0  0  0  0  0  0  0  0
    7.3116   50.1720   32.5867 C   0  0  0  0  0  0  0  0  0  0  0  0
    5.8324   50.4545   32.7355 C   0  0  0  0  0  0  0  0  0  0  0  0
    5.2063   51.2610   31.7678 C   0  0  0  0  0  0  0  0  0  0  0  0
    5.0527   49.9114   33.7909 C   0  0  0  0  0  0  0  0  0  0  0  0
    3.8294   51.4851   31.8092 C   0  0  0  0  0  0  0  0  0  0  0  0
    3.6649   50.1302   33.8033 C   0  0  0  0  0  0  0  0  0  0  0  0
    5.6438   49.1576   34.8603 N   0  0  0  0  0  0  0  0  0  0  0  0
    3.0584   50.9116   32.8188 C   0  0  0  0  0  0  0  0  0  0  0  0
    4.9721   48.0795   35.3890 O   0  0  0  0  0  0  0  0  0  0  0  0
    6.6355   49.6079   35.4701 O   0  0  0  0  0  0  0  0  0  0  0  0
    8.5374   39.1401   34.0124 O   0  0  0  0  0  0  0  0  0  0  0  0
   10.9799   40.0880   33.6828 O   0  0  0  0  0  0  0  0  0  0  0  0
   10.8002   40.0907   32.2831 C   0  0  0  0  0  0  0  0  0  0  0  0
   11.5958   38.9271   31.6964 C   0  0  0  0  0  0  0  0  0  0  0  0
   12.9239   38.9409   32.1767 O   0  0  0  0  0  0  0  0  0  0  0  0
   11.0062   37.5720   32.0794 C   0  0  0  0  0  0  0  0  0  0  0  0
   13.3506   37.5906   32.2614 C   0  0  0  0  0  0  0  0  0  0  0  0
    9.9064   37.1793   31.2946 O   0  0  0  0  0  0  0  0  0  0  0  0
   12.1919   36.6672   31.9004 C   0  0  0  0  0  0  0  0  0  0  0  0
   13.8017   37.2948   33.6193 N   0  0  0  0  0  0  0  0  0  0  0  0
   12.3133   36.2788   30.5561 O   0  0  0  0  0  0  0  0  0  0  0  0
   14.7927   36.4717   33.9862 C   0  0  0  0  0  0  0  0  0  0  0  0
   13.2746   37.7284   34.7941 C   0  0  0  0  0  0  0  0  0  0  0  0
   15.6240   35.7576   33.1859 N   0  0  0  0  0  0  0  0  0  0  0  0
   14.8728   36.4406   35.3330 C   0  0  0  0  0  0  0  0  0  0  0  0
   13.9209   37.2258   35.8808 N   0  0  0  0  0  0  0  0  0  0  0  0
   16.5874   34.9920   33.7802 C   0  0  0  0  0  0  0  0  0  0  0  0
   15.8579   35.6716   35.9443 C   0  0  0  0  0  0  0  0  0  0  0  0
   16.7028   34.9584   35.1439 N   0  0  0  0  0  0  0  0  0  0  0  0
   16.0103   35.6383   37.3563 N   0  0  0  0  0  0  0  0  0  0  0  0
    7.6757   44.0634   34.0544 H   0  0  0  0  0  0  0  0  0  0  0  0
    8.6444   46.1559   34.1451 H   0  0  0  0  0  0  0  0  0  0  0  0
   10.2131   45.5900   33.8736 H   0  0  0  0  0  0  0  0  0  0  0  0
    8.4828   43.0817   31.8667 H   0  0  0  0  0  0  0  0  0  0  0  0
    9.9707   44.0641   31.9683 H   0  0  0  0  0  0  0  0  0  0  0  0
    8.5224   45.0976   30.3813 H   0  0  0  0  0  0  0  0  0  0  0  0
    8.5702   46.1484   31.8194 H   0  0  0  0  0  0  0  0  0  0  0  0
    6.3120   45.0723   32.5367 H   0  0  0  0  0  0  0  0  0  0  0  0
    6.3166   44.1803   30.9754 H   0  0  0  0  0  0  0  0  0  0  0  0
    4.9244   46.2720   30.9317 H   0  0  0  0  0  0  0  0  0  0  0  0
    6.2434   46.2936   29.7222 H   0  0  0  0  0  0  0  0  0  0  0  0
    6.3069   47.7080   32.4351 H   0  0  0  0  0  0  0  0  0  0  0  0
    7.6850   49.4008   33.2891 H   0  0  0  0  0  0  0  0  0  0  0  0
    7.8656   51.1093   32.8025 H   0  0  0  0  0  0  0  0  0  0  0  0
    5.7847   51.7015   30.9649 H   0  0  0  0  0  0  0  0  0  0  0  0
    3.3582   52.0980   31.0517 H   0  0  0  0  0  0  0  0  0  0  0  0
    3.0539   49.7151   34.5950 H   0  0  0  0  0  0  0  0  0  0  0  0
    1.9899   51.0824   32.8459 H   0  0  0  0  0  0  0  0  0  0  0  0
   11.2114   41.0421   31.8829 H   0  0  0  0  0  0  0  0  0  0  0  0
    9.7454   40.0168   31.9264 H   0  0  0  0  0  0  0  0  0  0  0  0
   11.6246   39.0449   30.5889 H   0  0  0  0  0  0  0  0  0  0  0  0
   10.7050   37.5581   33.1500 H   0  0  0  0  0  0  0  0  0  0  0  0
   14.1984   37.4426   31.5553 H   0  0  0  0  0  0  0  0  0  0  0  0
   10.0893   37.4058   30.3459 H   0  0  0  0  0  0  0  0  0  0  0  0
   12.1337   35.7755   32.5703 H   0  0  0  0  0  0  0  0  0  0  0  0
   11.7933   35.4394   30.4514 H   0  0  0  0  0  0  0  0  0  0  0  0
   12.4314   38.3973   34.8700 H   0  0  0  0  0  0  0  0  0  0  0  0
   17.2669   34.4142   33.1691 H   0  0  0  0  0  0  0  0  0  0  0  0
   15.3759   36.1865   37.9790 H   0  0  0  0  0  0  0  0  0  0  0  0
   16.7638   35.0599   37.7896 H   0  0  0  0  0  0  0  0  0  0  0  0
  1  2  2  0
  1  3  1  0
  3  4  1  0
  4  5  1  0
  6  1  1  0
  7  6  1  0
  6  8  1  0
  8  9  1  0
  9 10  1  0
 10 11  1  0
 11 12  1  0
 12 13  1  0
 13 14  1  0
 13 15  2  0
 14 16  1  0
 16 17  1  0
 17 18  2  0
 19 17  1  0
 18 20  1  0
 21 19  2  0
 19 22  1  0
 20 23  2  0
 23 21  1  0
 22 24  1  0
 22 25  2  0
  4 26  2  0
  4 27  1  0
 28 27  1  0
 28 29  1  0
 29 30  1  0
 29 31  1  0
 30 32  1  0
 31 33  1  0
 31 34  1  0
 34 32  1  0
 32 35  1  0
 34 36  1  0
 37 35  1  0
 38 35  1  0
 39 37  2  0
 37 40  1  0
 41 38  2  0
 42 39  1  0
 40 43  2  0
 40 41  1  0
 44 42  2  0
 44 43  1  0
 43 45  1  0
  6 46  1  6
  7 47  1  0
  7 48  1  0
  8 49  1  0
  8 50  1  0
  9 51  1  0
  9 52  1  0
 10 53  1  0
 10 54  1  0
 11 55  1  0
 11 56  1  0
 12 57  1  0
 16 58  1  0
 16 59  1  0
 18 60  1  0
 20 61  1  0
 21 62  1  0
 23 63  1  0
 28 64  1  0
 28 65  1  0
 29 66  1  0
 31 67  1  0
 32 68  1  0
 33 69  1  0
 34 70  1  0
 36 71  1  0
 38 72  1  0
 42 73  1  0
 45 74  1  0
 45 75  1  0
M  CHG  3   5  -1  22   1  24  -1
M  END
>  <EmbedRMS>  (358) 
0.0738067302679

$$$$

     RDKit          3D

 75 78  0  0  0  0  0  0  0  0999 V2000
    9.4331   42.9357   34.3457 C   0  0  0  0  0  0  0  0  0  0  0  0
   10.4907   43.0325   35.0314 O   0  0  0  0  0  0  0  0  0  0  0  0
    8.8558   41.7097   34.0301 O   0  0  0  0  0  0  0  0  0  0  0  0
    9.4931   40.2137   34.4703 P   0  0  0  0  0  0  0  0  0  0  0  0
    9.7293   40.1726   36.1313 O   0  0  0  0  0  0  0  0  0  0  0  0
    8.7503   44.1335   33.7737 C   0  0  1  0  0  0  0  0  0  0  0  0
    9.2954   45.3793   34.3141 N   0  0  0  0  0  0  0  0  0  0  0  0
    8.8900   44.0533   32.2358 C   0  0  0  0  0  0  0  0  0  0  0  0
    8.2042   45.1847   31.4637 C   0  0  0  0  0  0  0  0  0  0  0  0
    6.6671   45.1053   31.4855 C   0  0  0  0  0  0  0  0  0  0  0  0
    6.0295   46.3245   30.8124 C   0  0  0  0  0  0  0  0  0  0  0  0
    6.5097   47.5648   31.4225 N   0  0  0  0  0  0  0  0  0  0  0  0
    7.2296   48.5513   30.6732 C   0  0  0  0  0  0  0  0  0  0  0  0
    7.5347   49.8088   31.2111 O   0  0  0  0  0  0  0  0  0  0  0  0
    7.5989   48.3002   29.4966 O   0  0  0  0  0  0  0  0  0  0  0  0
    7.1919   50.2358   32.5287 C   0  0  0  0  0  0  0  0  0  0  0  0
    8.1012   49.5987   33.5555 C   0  0  0  0  0  0  0  0  0  0  0  0
    9.4884   49.6125   33.3204 C   0  0  0  0  0  0  0  0  0  0  0  0
    7.6078   48.9894   34.7380 C   0  0  0  0  0  0  0  0  0  0  0  0
   10.3695   49.0049   34.2159 C   0  0  0  0  0  0  0  0  0  0  0  0
    8.5093   48.3702   35.6209 C   0  0  0  0  0  0  0  0  0  0  0  0
    6.2127   49.0178   35.0747 N   0  0  0  0  0  0  0  0  0  0  0  0
    9.8806   48.3821   35.3624 C   0  0  0  0  0  0  0  0  0  0  0  0
    5.5298   50.2121   35.0726 O   0  0  0  0  0  0  0  0  0  0  0  0
    5.6763   48.0167   35.5928 O   0  0  0  0  0  0  0  0  0  0  0  0
    8.5367   39.1377   34.0136 O   0  0  0  0  0  0  0  0  0  0  0  0
   10.9788   40.0865   33.6874 O   0  0  0  0  0  0  0  0  0  0  0  0
   10.7993   40.0944   32.2886 C   0  0  0  0  0  0  0  0  0  0  0  0
   11.5957   38.9351   31.6994 C   0  0  0  0  0  0  0  0  0  0  0  0
   12.9257   38.9477   32.1798 O   0  0  0  0  0  0  0  0  0  0  0  0
   11.0070   37.5757   32.0732 C   0  0  0  0  0  0  0  0  0  0  0  0
   13.3571   37.5979   32.2612 C   0  0  0  0  0  0  0  0  0  0  0  0
    9.9093   37.1807   31.2875 O   0  0  0  0  0  0  0  0  0  0  0  0
   12.1967   36.6763   31.8893 C   0  0  0  0  0  0  0  0  0  0  0  0
   13.8018   37.2956   33.6197 N   0  0  0  0  0  0  0  0  0  0  0  0
   12.3049   36.2360   30.5554 O   0  0  0  0  0  0  0  0  0  0  0  0
   14.7922   36.4716   33.9864 C   0  0  0  0  0  0  0  0  0  0  0  0
   13.2747   37.7291   34.7944 C   0  0  0  0  0  0  0  0  0  0  0  0
   15.6240   35.7581   33.1861 N   0  0  0  0  0  0  0  0  0  0  0  0
   14.8721   36.4402   35.3331 C   0  0  0  0  0  0  0  0  0  0  0  0
   13.9206   37.2257   35.8810 N   0  0  0  0  0  0  0  0  0  0  0  0
   16.5873   34.9924   33.7802 C   0  0  0  0  0  0  0  0  0  0  0  0
   15.8576   35.6714   35.9444 C   0  0  0  0  0  0  0  0  0  0  0  0
   16.7026   34.9585   35.1439 N   0  0  0  0  0  0  0  0  0  0  0  0
   16.0102   35.6383   37.3564 N   0  0  0  0  0  0  0  0  0  0  0  0
    7.6767   44.0693   34.0497 H   0  0  0  0  0  0  0  0  0  0  0  0
   10.3172   45.4419   34.0967 H   0  0  0  0  0  0  0  0  0  0  0  0
    9.1863   45.3745   35.3547 H   0  0  0  0  0  0  0  0  0  0  0  0
    8.4824   43.0863   31.8652 H   0  0  0  0  0  0  0  0  0  0  0  0
    9.9720   44.0692   31.9746 H   0  0  0  0  0  0  0  0  0  0  0  0
    8.5551   46.1527   31.8803 H   0  0  0  0  0  0  0  0  0  0  0  0
    8.5416   45.1422   30.4049 H   0  0  0  0  0  0  0  0  0  0  0  0
    6.3026   45.0630   32.5329 H   0  0  0  0  0  0  0  0  0  0  0  0
    6.3325   44.1816   30.9654 H   0  0  0  0  0  0  0  0  0  0  0  0
    4.9262   46.2693   30.9300 H   0  0  0  0  0  0  0  0  0  0  0  0
    6.2466   46.2925   29.7232 H   0  0  0  0  0  0  0  0  0  0  0  0
    6.2847   47.7252   32.4281 H   0  0  0  0  0  0  0  0  0  0  0  0
    6.1168   50.0358   32.7067 H   0  0  0  0  0  0  0  0  0  0  0  0
    7.3335   51.3354   32.5823 H   0  0  0  0  0  0  0  0  0  0  0  0
    9.8888   50.0871   32.4329 H   0  0  0  0  0  0  0  0  0  0  0  0
   11.4337   49.0150   34.0186 H   0  0  0  0  0  0  0  0  0  0  0  0
    8.1491   47.8969   36.5257 H   0  0  0  0  0  0  0  0  0  0  0  0
   10.5654   47.9090   36.0542 H   0  0  0  0  0  0  0  0  0  0  0  0
    9.7449   40.0200   31.9304 H   0  0  0  0  0  0  0  0  0  0  0  0
   11.2095   41.0479   31.8922 H   0  0  0  0  0  0  0  0  0  0  0  0
   11.6206   39.0685   30.5942 H   0  0  0  0  0  0  0  0  0  0  0  0
   10.7059   37.5562   33.1438 H   0  0  0  0  0  0  0  0  0  0  0  0
   14.2095   37.4543   31.5601 H   0  0  0  0  0  0  0  0  0  0  0  0
   10.0865   37.4209   30.3413 H   0  0  0  0  0  0  0  0  0  0  0  0
   12.1276   35.7872   32.5549 H   0  0  0  0  0  0  0  0  0  0  0  0
   12.5031   37.0109   29.9672 H   0  0  0  0  0  0  0  0  0  0  0  0
   12.4328   38.3996   34.8703 H   0  0  0  0  0  0  0  0  0  0  0  0
   17.2670   34.4149   33.1691 H   0  0  0  0  0  0  0  0  0  0  0  0
   15.3758   36.1862   37.9792 H   0  0  0  0  0  0  0  0  0  0  0  0
   16.7640   35.0601   37.7896 H   0  0  0  0  0  0  0  0  0  0  0  0
  1  2  2  0
  1  3  1  0
  3  4  1  0
  4  5  1  0
  6  1  1  0
  7  6  1  0
  6  8  1  0
  8  9  1  0
  9 10  1  0
 10 11  1  0
 11 12  1  0
 12 13  1  0
 13 14  1  0
 13 15  2  0
 14 16  1  0
 16 17  1  0
 17 18  2  0
 19 17  1  0
 18 20  1  0
 21 19  2  0
 19 22  1  0
 20 23  2  0
 23 21  1  0
 22 24  1  0
 22 25  2  0
  4 26  2  0
  4 27  1  0
 28 27  1  0
 28 29  1  0
 29 30  1  0
 29 31  1  0
 30 32  1  0
 31 33  1  0
 31 34  1  0
 34 32  1  0
 32 35  1  0
 34 36  1  0
 37 35  1  0
 38 35  1  0
 39 37  2  0
 37 40  1  0
 41 38  2  0
 42 39  1  0
 40 43  2  0
 40 41  1  0
 44 42  2  0
 44 43  1  0
 43 45  1  0
  6 46  1  6
  7 47  1  0
  7 48  1  0
  8 49  1  0
  8 50  1  0
  9 51  1  0
  9 52  1  0
 10 53  1  0
 10 54  1  0
 11 55  1  0
 11 56  1  0
 12 57  1  0
 16 58  1  0
 16 59  1  0
 18 60  1  0
 20 61  1  0
 21 62  1  0
 23 63  1  0
 28 64  1  0
 28 65  1  0
 29 66  1  0
 31 67  1  0
 32 68  1  0
 33 69  1  0
 34 70  1  0
 36 71  1  0
 38 72  1  0
 42 73  1  0
 45 74  1  0
 45 75  1  0
M  CHG  3   5  -1  22   1  24  -1
M  END
>  <EmbedRMS>  (359) 
0.0760849588119

$$$$

     RDKit          3D

 75 78  0  0  0  0  0  0  0  0999 V2000
    9.4335   42.9376   34.3453 C   0  0  0  0  0  0  0  0  0  0  0  0
   10.4909   43.0338   35.0312 O   0  0  0  0  0  0  0  0  0  0  0  0
    8.8556   41.7113   34.0302 O   0  0  0  0  0  0  0  0  0  0  0  0
    9.4928   40.2149   34.4704 P   0  0  0  0  0  0  0  0  0  0  0  0
    9.7294   40.1733   36.1312 O   0  0  0  0  0  0  0  0  0  0  0  0
    8.7513   44.1366   33.7733 C   0  0  1  0  0  0  0  0  0  0  0  0
    9.2971   45.3835   34.3132 N   0  0  0  0  0  0  0  0  0  0  0  0
    8.8901   44.0568   32.2349 C   0  0  0  0  0  0  0  0  0  0  0  0
    8.2020   45.1876   31.4624 C   0  0  0  0  0  0  0  0  0  0  0  0
    6.6642   45.1069   31.4851 C   0  0  0  0  0  0  0  0  0  0  0  0
    6.0209   46.3211   30.8055 C   0  0  0  0  0  0  0  0  0  0  0  0
    6.4884   47.5666   31.4130 N   0  0  0  0  0  0  0  0  0  0  0  0
    7.2743   48.5174   30.6982 C   0  0  0  0  0  0  0  0  0  0  0  0
    7.7684   49.6361   31.3761 O   0  0  0  0  0  0  0  0  0  0  0  0
    7.5864   48.3123   29.4937 O   0  0  0  0  0  0  0  0  0  0  0  0
    8.8562   50.4181   30.8862 C   0  0  0  0  0  0  0  0  0  0  0  0
   10.1293   49.5987   30.8866 C   0  0  0  0  0  0  0  0  0  0  0  0
   10.4518   48.8688   32.0462 C   0  0  0  0  0  0  0  0  0  0  0  0
   10.9628   49.4839   29.7445 C   0  0  0  0  0  0  0  0  0  0  0  0
   11.5453   48.0021   32.0621 C   0  0  0  0  0  0  0  0  0  0  0  0
   12.0516   48.5943   29.7747 C   0  0  0  0  0  0  0  0  0  0  0  0
   10.7399   50.2750   28.5670 N   0  0  0  0  0  0  0  0  0  0  0  0
   12.3378   47.8574   30.9250 C   0  0  0  0  0  0  0  0  0  0  0  0
   10.5497   51.6331   28.6779 O   0  0  0  0  0  0  0  0  0  0  0  0
   10.9456   49.7852   27.4373 O   0  0  0  0  0  0  0  0  0  0  0  0
    8.5364   39.1388   34.0138 O   0  0  0  0  0  0  0  0  0  0  0  0
   10.9784   40.0884   33.6868 O   0  0  0  0  0  0  0  0  0  0  0  0
   10.7974   40.0896   32.2882 C   0  0  0  0  0  0  0  0  0  0  0  0
   11.5882   38.9235   31.7042 C   0  0  0  0  0  0  0  0  0  0  0  0
   12.9231   38.9440   32.1728 O   0  0  0  0  0  0  0  0  0  0  0  0
   11.0048   37.5704   32.0916 C   0  0  0  0  0  0  0  0  0  0  0  0
   13.3570   37.5960   32.2595 C   0  0  0  0  0  0  0  0  0  0  0  0
    9.9332   37.1987   31.2676 O   0  0  0  0  0  0  0  0  0  0  0  0
   12.1965   36.6751   31.8950 C   0  0  0  0  0  0  0  0  0  0  0  0
   13.8037   37.2979   33.6187 N   0  0  0  0  0  0  0  0  0  0  0  0
   12.2934   36.2389   30.5582 O   0  0  0  0  0  0  0  0  0  0  0  0
   14.7929   36.4726   33.9860 C   0  0  0  0  0  0  0  0  0  0  0  0
   13.2755   37.7304   34.7934 C   0  0  0  0  0  0  0  0  0  0  0  0
   15.6244   35.7585   33.1859 N   0  0  0  0  0  0  0  0  0  0  0  0
   14.8722   36.4406   35.3328 C   0  0  0  0  0  0  0  0  0  0  0  0
   13.9205   37.2262   35.8803 N   0  0  0  0  0  0  0  0  0  0  0  0
   16.5872   34.9923   33.7802 C   0  0  0  0  0  0  0  0  0  0  0  0
   15.8573   35.6715   35.9442 C   0  0  0  0  0  0  0  0  0  0  0  0
   16.7023   34.9584   35.1439 N   0  0  0  0  0  0  0  0  0  0  0  0
   16.0098   35.6384   37.3563 N   0  0  0  0  0  0  0  0  0  0  0  0
    7.6776   44.0728   34.0492 H   0  0  0  0  0  0  0  0  0  0  0  0
   10.3196   45.4431   34.0981 H   0  0  0  0  0  0  0  0  0  0  0  0
    9.1852   45.3827   35.3534 H   0  0  0  0  0  0  0  0  0  0  0  0
    8.4841   43.0891   31.8645 H   0  0  0  0  0  0  0  0  0  0  0  0
    9.9720   44.0749   31.9733 H   0  0  0  0  0  0  0  0  0  0  0  0
    8.5391   45.1453   30.4035 H   0  0  0  0  0  0  0  0  0  0  0  0
    8.5517   46.1564   31.8776 H   0  0  0  0  0  0  0  0  0  0  0  0
    6.3315   44.1798   30.9699 H   0  0  0  0  0  0  0  0  0  0  0  0
    6.3003   45.0682   32.5328 H   0  0  0  0  0  0  0  0  0  0  0  0
    6.2457   46.2883   29.7178 H   0  0  0  0  0  0  0  0  0  0  0  0
    4.9172   46.2590   30.9157 H   0  0  0  0  0  0  0  0  0  0  0  0
    6.2691   47.7497   32.4180 H   0  0  0  0  0  0  0  0  0  0  0  0
    8.5910   50.8020   29.8808 H   0  0  0  0  0  0  0  0  0  0  0  0
    8.9954   51.2900   31.5588 H   0  0  0  0  0  0  0  0  0  0  0  0
    9.8346   48.9484   32.9328 H   0  0  0  0  0  0  0  0  0  0  0  0
   11.7722   47.4341   32.9551 H   0  0  0  0  0  0  0  0  0  0  0  0
   12.6950   48.4891   28.9102 H   0  0  0  0  0  0  0  0  0  0  0  0
   13.1828   47.1812   30.9380 H   0  0  0  0  0  0  0  0  0  0  0  0
   11.2114   41.0391   31.8862 H   0  0  0  0  0  0  0  0  0  0  0  0
    9.7423   40.0188   31.9313 H   0  0  0  0  0  0  0  0  0  0  0  0
   11.5932   39.0396   30.5965 H   0  0  0  0  0  0  0  0  0  0  0  0
   10.6986   37.5586   33.1640 H   0  0  0  0  0  0  0  0  0  0  0  0
   14.2072   37.4493   31.5564 H   0  0  0  0  0  0  0  0  0  0  0  0
    9.5321   36.3881   31.6771 H   0  0  0  0  0  0  0  0  0  0  0  0
   12.1344   35.7838   32.5583 H   0  0  0  0  0  0  0  0  0  0  0  0
   12.4641   37.0179   29.9675 H   0  0  0  0  0  0  0  0  0  0  0  0
   12.4333   38.4005   34.8692 H   0  0  0  0  0  0  0  0  0  0  0  0
   17.2668   34.4144   33.1692 H   0  0  0  0  0  0  0  0  0  0  0  0
   16.7634   35.0600   37.7896 H   0  0  0  0  0  0  0  0  0  0  0  0
   15.3755   36.1866   37.9789 H   0  0  0  0  0  0  0  0  0  0  0  0
  1  2  2  0
  1  3  1  0
  3  4  1  0
  4  5  1  0
  6  1  1  0
  7  6  1  0
  6  8  1  0
  8  9  1  0
  9 10  1  0
 10 11  1  0
 11 12  1  0
 12 13  1  0
 13 14  1  0
 13 15  2  0
 14 16  1  0
 16 17  1  0
 17 18  2  0
 19 17  1  0
 18 20  1  0
 21 19  2  0
 19 22  1  0
 20 23  2  0
 23 21  1  0
 22 24  1  0
 22 25  2  0
  4 26  2  0
  4 27  1  0
 28 27  1  0
 28 29  1  0
 29 30  1  0
 29 31  1  0
 30 32  1  0
 31 33  1  0
 31 34  1  0
 34 32  1  0
 32 35  1  0
 34 36  1  0
 37 35  1  0
 38 35  1  0
 39 37  2  0
 37 40  1  0
 41 38  2  0
 42 39  1  0
 40 43  2  0
 40 41  1  0
 44 42  2  0
 44 43  1  0
 43 45  1  0
  6 46  1  6
  7 47  1  0
  7 48  1  0
  8 49  1  0
  8 50  1  0
  9 51  1  0
  9 52  1  0
 10 53  1  0
 10 54  1  0
 11 55  1  0
 11 56  1  0
 12 57  1  0
 16 58  1  0
 16 59  1  0
 18 60  1  0
 20 61  1  0
 21 62  1  0
 23 63  1  0
 28 64  1  0
 28 65  1  0
 29 66  1  0
 31 67  1  0
 32 68  1  0
 33 69  1  0
 34 70  1  0
 36 71  1  0
 38 72  1  0
 42 73  1  0
 45 74  1  0
 45 75  1  0
M  CHG  3   5  -1  22   1  24  -1
M  END
>  <EmbedRMS>  (360) 
0.0771048041031

$$$$

     RDKit          3D

 75 78  0  0  0  0  0  0  0  0999 V2000
    9.4330   42.9365   34.3465 C   0  0  0  0  0  0  0  0  0  0  0  0
   10.4907   43.0330   35.0318 O   0  0  0  0  0  0  0  0  0  0  0  0
    8.8554   41.7104   34.0310 O   0  0  0  0  0  0  0  0  0  0  0  0
    9.4930   40.2142   34.4706 P   0  0  0  0  0  0  0  0  0  0  0  0
    9.7296   40.1727   36.1315 O   0  0  0  0  0  0  0  0  0  0  0  0
    8.7506   44.1348   33.7741 C   0  0  1  0  0  0  0  0  0  0  0  0
    9.2963   45.3820   34.3133 N   0  0  0  0  0  0  0  0  0  0  0  0
    8.8893   44.0526   32.2359 C   0  0  0  0  0  0  0  0  0  0  0  0
    8.2029   45.1821   31.4614 C   0  0  0  0  0  0  0  0  0  0  0  0
    6.6654   45.1046   31.4854 C   0  0  0  0  0  0  0  0  0  0  0  0
    6.0272   46.3228   30.8107 C   0  0  0  0  0  0  0  0  0  0  0  0
    6.5071   47.5639   31.4183 N   0  0  0  0  0  0  0  0  0  0  0  0
    7.2415   48.5404   30.6827 C   0  0  0  0  0  0  0  0  0  0  0  0
    7.5832   49.7466   31.3035 O   0  0  0  0  0  0  0  0  0  0  0  0
    7.5944   48.3107   29.4942 O   0  0  0  0  0  0  0  0  0  0  0  0
    8.2907   50.7942   30.6423 C   0  0  0  0  0  0  0  0  0  0  0  0
    7.4265   51.4406   29.5834 C   0  0  0  0  0  0  0  0  0  0  0  0
    7.8919   51.4579   28.2554 C   0  0  0  0  0  0  0  0  0  0  0  0
    6.1456   51.9855   29.8766 C   0  0  0  0  0  0  0  0  0  0  0  0
    7.1072   51.9894   27.2317 C   0  0  0  0  0  0  0  0  0  0  0  0
    5.3660   52.5016   28.8259 C   0  0  0  0  0  0  0  0  0  0  0  0
    5.6086   52.0060   31.2123 N   0  0  0  0  0  0  0  0  0  0  0  0
    5.8454   52.5065   27.5156 C   0  0  0  0  0  0  0  0  0  0  0  0
    4.2472   51.9521   31.4056 O   0  0  0  0  0  0  0  0  0  0  0  0
    6.3436   52.2345   32.1943 O   0  0  0  0  0  0  0  0  0  0  0  0
    8.5366   39.1382   34.0139 O   0  0  0  0  0  0  0  0  0  0  0  0
   10.9785   40.0883   33.6869 O   0  0  0  0  0  0  0  0  0  0  0  0
   10.7973   40.0895   32.2883 C   0  0  0  0  0  0  0  0  0  0  0  0
   11.5882   38.9234   31.7043 C   0  0  0  0  0  0  0  0  0  0  0  0
   12.9230   38.9440   32.1728 O   0  0  0  0  0  0  0  0  0  0  0  0
   11.0048   37.5703   32.0916 C   0  0  0  0  0  0  0  0  0  0  0  0
   13.3570   37.5960   32.2595 C   0  0  0  0  0  0  0  0  0  0  0  0
    9.9332   37.1986   31.2676 O   0  0  0  0  0  0  0  0  0  0  0  0
   12.1965   36.6751   31.8949 C   0  0  0  0  0  0  0  0  0  0  0  0
   13.8037   37.2979   33.6187 N   0  0  0  0  0  0  0  0  0  0  0  0
   12.2935   36.2389   30.5581 O   0  0  0  0  0  0  0  0  0  0  0  0
   14.7929   36.4726   33.9860 C   0  0  0  0  0  0  0  0  0  0  0  0
   13.2755   37.7304   34.7934 C   0  0  0  0  0  0  0  0  0  0  0  0
   15.6244   35.7585   33.1859 N   0  0  0  0  0  0  0  0  0  0  0  0
   14.8722   36.4406   35.3328 C   0  0  0  0  0  0  0  0  0  0  0  0
   13.9205   37.2262   35.8803 N   0  0  0  0  0  0  0  0  0  0  0  0
   16.5872   34.9923   33.7802 C   0  0  0  0  0  0  0  0  0  0  0  0
   15.8573   35.6715   35.9442 C   0  0  0  0  0  0  0  0  0  0  0  0
   16.7023   34.9584   35.1439 N   0  0  0  0  0  0  0  0  0  0  0  0
   16.0098   35.6384   37.3563 N   0  0  0  0  0  0  0  0  0  0  0  0
    7.6770   44.0708   34.0504 H   0  0  0  0  0  0  0  0  0  0  0  0
    9.1827   45.3821   35.3534 H   0  0  0  0  0  0  0  0  0  0  0  0
   10.3192   45.4406   34.0999 H   0  0  0  0  0  0  0  0  0  0  0  0
    9.9711   44.0679   31.9740 H   0  0  0  0  0  0  0  0  0  0  0  0
    8.4816   43.0849   31.8670 H   0  0  0  0  0  0  0  0  0  0  0  0
    8.5385   45.1359   30.4021 H   0  0  0  0  0  0  0  0  0  0  0  0
    8.5554   46.1508   31.8740 H   0  0  0  0  0  0  0  0  0  0  0  0
    6.3295   44.1801   30.9675 H   0  0  0  0  0  0  0  0  0  0  0  0
    6.3020   45.0641   32.5333 H   0  0  0  0  0  0  0  0  0  0  0  0
    4.9238   46.2679   30.9270 H   0  0  0  0  0  0  0  0  0  0  0  0
    6.2464   46.2901   29.7218 H   0  0  0  0  0  0  0  0  0  0  0  0
    6.2817   47.7539   32.4207 H   0  0  0  0  0  0  0  0  0  0  0  0
    9.2319   50.3852   30.2130 H   0  0  0  0  0  0  0  0  0  0  0  0
    8.5942   51.5578   31.3871 H   0  0  0  0  0  0  0  0  0  0  0  0
    8.8630   51.0478   28.0064 H   0  0  0  0  0  0  0  0  0  0  0  0
    7.4763   51.9938   26.2141 H   0  0  0  0  0  0  0  0  0  0  0  0
    4.3862   52.9173   29.0241 H   0  0  0  0  0  0  0  0  0  0  0  0
    5.2369   52.9143   26.7187 H   0  0  0  0  0  0  0  0  0  0  0  0
   11.2113   41.0390   31.8862 H   0  0  0  0  0  0  0  0  0  0  0  0
    9.7422   40.0186   31.9315 H   0  0  0  0  0  0  0  0  0  0  0  0
   11.5931   39.0396   30.5966 H   0  0  0  0  0  0  0  0  0  0  0  0
   10.6986   37.5585   33.1640 H   0  0  0  0  0  0  0  0  0  0  0  0
   14.2072   37.4493   31.5564 H   0  0  0  0  0  0  0  0  0  0  0  0
    9.5321   36.3881   31.6771 H   0  0  0  0  0  0  0  0  0  0  0  0
   12.1344   35.7838   32.5583 H   0  0  0  0  0  0  0  0  0  0  0  0
   12.4641   37.0179   29.9674 H   0  0  0  0  0  0  0  0  0  0  0  0
   12.4333   38.4005   34.8692 H   0  0  0  0  0  0  0  0  0  0  0  0
   17.2668   34.4144   33.1692 H   0  0  0  0  0  0  0  0  0  0  0  0
   15.3755   36.1866   37.9789 H   0  0  0  0  0  0  0  0  0  0  0  0
   16.7634   35.0600   37.7896 H   0  0  0  0  0  0  0  0  0  0  0  0
  1  2  2  0
  1  3  1  0
  3  4  1  0
  4  5  1  0
  6  1  1  0
  7  6  1  0
  6  8  1  0
  8  9  1  0
  9 10  1  0
 10 11  1  0
 11 12  1  0
 12 13  1  0
 13 14  1  0
 13 15  2  0
 14 16  1  0
 16 17  1  0
 17 18  2  0
 19 17  1  0
 18 20  1  0
 21 19  2  0
 19 22  1  0
 20 23  2  0
 23 21  1  0
 22 24  1  0
 22 25  2  0
  4 26  2  0
  4 27  1  0
 28 27  1  0
 28 29  1  0
 29 30  1  0
 29 31  1  0
 30 32  1  0
 31 33  1  0
 31 34  1  0
 34 32  1  0
 32 35  1  0
 34 36  1  0
 37 35  1  0
 38 35  1  0
 39 37  2  0
 37 40  1  0
 41 38  2  0
 42 39  1  0
 40 43  2  0
 40 41  1  0
 44 42  2  0
 44 43  1  0
 43 45  1  0
  6 46  1  6
  7 47  1  0
  7 48  1  0
  8 49  1  0
  8 50  1  0
  9 51  1  0
  9 52  1  0
 10 53  1  0
 10 54  1  0
 11 55  1  0
 11 56  1  0
 12 57  1  0
 16 58  1  0
 16 59  1  0
 18 60  1  0
 20 61  1  0
 21 62  1  0
 23 63  1  0
 28 64  1  0
 28 65  1  0
 29 66  1  0
 31 67  1  0
 32 68  1  0
 33 69  1  0
 34 70  1  0
 36 71  1  0
 38 72  1  0
 42 73  1  0
 45 74  1  0
 45 75  1  0
M  CHG  3   5  -1  22   1  24  -1
M  END
>  <EmbedRMS>  (361) 
0.075829551133

$$$$

     RDKit          3D

 75 78  0  0  0  0  0  0  0  0999 V2000
    9.4300   42.9391   34.3430 C   0  0  0  0  0  0  0  0  0  0  0  0
   10.4909   43.0383   35.0236 O   0  0  0  0  0  0  0  0  0  0  0  0
    8.8551   41.7112   34.0282 O   0  0  0  0  0  0  0  0  0  0  0  0
    9.4943   40.2152   34.4675 P   0  0  0  0  0  0  0  0  0  0  0  0
    9.7310   40.1738   36.1286 O   0  0  0  0  0  0  0  0  0  0  0  0
    8.7413   44.1365   33.7774 C   0  0  1  0  0  0  0  0  0  0  0  0
    9.3012   45.3699   34.3305 N   0  0  0  0  0  0  0  0  0  0  0  0
    8.8969   44.0589   32.2389 C   0  0  0  0  0  0  0  0  0  0  0  0
    8.2035   45.1690   31.4391 C   0  0  0  0  0  0  0  0  0  0  0  0
    6.6664   45.1077   31.4918 C   0  0  0  0  0  0  0  0  0  0  0  0
    6.0295   46.3242   30.8135 C   0  0  0  0  0  0  0  0  0  0  0  0
    6.5069   47.5661   31.4229 N   0  0  0  0  0  0  0  0  0  0  0  0
    7.2306   48.5504   30.6753 C   0  0  0  0  0  0  0  0  0  0  0  0
    7.5380   49.8073   31.2125 O   0  0  0  0  0  0  0  0  0  0  0  0
    7.6025   48.2977   29.4998 O   0  0  0  0  0  0  0  0  0  0  0  0
    7.1435   50.2676   32.5043 C   0  0  0  0  0  0  0  0  0  0  0  0
    7.9891   49.6490   33.5943 C   0  0  0  0  0  0  0  0  0  0  0  0
    7.3406   49.0556   34.6934 C   0  0  0  0  0  0  0  0  0  0  0  0
    9.4092   49.6562   33.5503 C   0  0  0  0  0  0  0  0  0  0  0  0
    8.0755   48.4684   35.7238 C   0  0  0  0  0  0  0  0  0  0  0  0
   10.1302   49.0384   34.5886 C   0  0  0  0  0  0  0  0  0  0  0  0
   10.1323   50.2767   32.4723 N   0  0  0  0  0  0  0  0  0  0  0  0
    9.4676   48.4579   35.6705 C   0  0  0  0  0  0  0  0  0  0  0  0
    9.7336   51.4937   31.9707 O   0  0  0  0  0  0  0  0  0  0  0  0
   11.2253   49.8029   32.0987 O   0  0  0  0  0  0  0  0  0  0  0  0
    8.5376   39.1388   34.0123 O   0  0  0  0  0  0  0  0  0  0  0  0
   10.9798   40.0878   33.6827 O   0  0  0  0  0  0  0  0  0  0  0  0
   10.8002   40.0907   32.2830 C   0  0  0  0  0  0  0  0  0  0  0  0
   11.5958   38.9271   31.6963 C   0  0  0  0  0  0  0  0  0  0  0  0
   12.9239   38.9409   32.1767 O   0  0  0  0  0  0  0  0  0  0  0  0
   11.0062   37.5719   32.0794 C   0  0  0  0  0  0  0  0  0  0  0  0
   13.3506   37.5905   32.2614 C   0  0  0  0  0  0  0  0  0  0  0  0
    9.9064   37.1793   31.2946 O   0  0  0  0  0  0  0  0  0  0  0  0
   12.1920   36.6672   31.9003 C   0  0  0  0  0  0  0  0  0  0  0  0
   13.8017   37.2948   33.6193 N   0  0  0  0  0  0  0  0  0  0  0  0
   12.3133   36.2788   30.5561 O   0  0  0  0  0  0  0  0  0  0  0  0
   14.7927   36.4717   33.9862 C   0  0  0  0  0  0  0  0  0  0  0  0
   13.2746   37.7284   34.7941 C   0  0  0  0  0  0  0  0  0  0  0  0
   15.6240   35.7576   33.1859 N   0  0  0  0  0  0  0  0  0  0  0  0
   14.8728   36.4406   35.3330 C   0  0  0  0  0  0  0  0  0  0  0  0
   13.9209   37.2258   35.8808 N   0  0  0  0  0  0  0  0  0  0  0  0
   16.5874   34.9920   33.7802 C   0  0  0  0  0  0  0  0  0  0  0  0
   15.8579   35.6716   35.9443 C   0  0  0  0  0  0  0  0  0  0  0  0
   16.7028   34.9584   35.1439 N   0  0  0  0  0  0  0  0  0  0  0  0
   16.0103   35.6383   37.3563 N   0  0  0  0  0  0  0  0  0  0  0  0
    7.6667   44.0642   34.0532 H   0  0  0  0  0  0  0  0  0  0  0  0
    9.2168   45.3331   35.3730 H   0  0  0  0  0  0  0  0  0  0  0  0
    8.6873   46.1633   34.0399 H   0  0  0  0  0  0  0  0  0  0  0  0
    9.9816   44.0907   31.9910 H   0  0  0  0  0  0  0  0  0  0  0  0
    8.5092   43.0838   31.8680 H   0  0  0  0  0  0  0  0  0  0  0  0
    8.5150   45.0741   30.3758 H   0  0  0  0  0  0  0  0  0  0  0  0
    8.5789   46.1525   31.7880 H   0  0  0  0  0  0  0  0  0  0  0  0
    6.3205   45.0861   32.5458 H   0  0  0  0  0  0  0  0  0  0  0  0
    6.3122   44.1797   30.9928 H   0  0  0  0  0  0  0  0  0  0  0  0
    6.2490   46.2899   29.7249 H   0  0  0  0  0  0  0  0  0  0  0  0
    4.9260   46.2683   30.9290 H   0  0  0  0  0  0  0  0  0  0  0  0
    6.2726   47.7319   32.4252 H   0  0  0  0  0  0  0  0  0  0  0  0
    7.2721   51.3687   32.5423 H   0  0  0  0  0  0  0  0  0  0  0  0
    6.0581   50.0787   32.6550 H   0  0  0  0  0  0  0  0  0  0  0  0
    6.2593   49.0458   34.7549 H   0  0  0  0  0  0  0  0  0  0  0  0
    7.5638   48.0139   36.5622 H   0  0  0  0  0  0  0  0  0  0  0  0
   11.2127   49.0273   34.5716 H   0  0  0  0  0  0  0  0  0  0  0  0
   10.0353   47.9955   36.4676 H   0  0  0  0  0  0  0  0  0  0  0  0
   11.2115   41.0420   31.8829 H   0  0  0  0  0  0  0  0  0  0  0  0
    9.7455   40.0168   31.9261 H   0  0  0  0  0  0  0  0  0  0  0  0
   11.6246   39.0449   30.5888 H   0  0  0  0  0  0  0  0  0  0  0  0
   10.7050   37.5581   33.1500 H   0  0  0  0  0  0  0  0  0  0  0  0
   14.1984   37.4426   31.5553 H   0  0  0  0  0  0  0  0  0  0  0  0
   10.0893   37.4057   30.3459 H   0  0  0  0  0  0  0  0  0  0  0  0
   12.1337   35.7754   32.5703 H   0  0  0  0  0  0  0  0  0  0  0  0
   11.7934   35.4394   30.4514 H   0  0  0  0  0  0  0  0  0  0  0  0
   12.4314   38.3973   34.8699 H   0  0  0  0  0  0  0  0  0  0  0  0
   17.2669   34.4142   33.1691 H   0  0  0  0  0  0  0  0  0  0  0  0
   15.3759   36.1865   37.9790 H   0  0  0  0  0  0  0  0  0  0  0  0
   16.7638   35.0599   37.7896 H   0  0  0  0  0  0  0  0  0  0  0  0
  1  2  2  0
  1  3  1  0
  3  4  1  0
  4  5  1  0
  6  1  1  0
  7  6  1  0
  6  8  1  0
  8  9  1  0
  9 10  1  0
 10 11  1  0
 11 12  1  0
 12 13  1  0
 13 14  1  0
 13 15  2  0
 14 16  1  0
 16 17  1  0
 17 18  2  0
 19 17  1  0
 18 20  1  0
 21 19  2  0
 19 22  1  0
 20 23  2  0
 23 21  1  0
 22 24  1  0
 22 25  2  0
  4 26  2  0
  4 27  1  0
 28 27  1  0
 28 29  1  0
 29 30  1  0
 29 31  1  0
 30 32  1  0
 31 33  1  0
 31 34  1  0
 34 32  1  0
 32 35  1  0
 34 36  1  0
 37 35  1  0
 38 35  1  0
 39 37  2  0
 37 40  1  0
 41 38  2  0
 42 39  1  0
 40 43  2  0
 40 41  1  0
 44 42  2  0
 44 43  1  0
 43 45  1  0
  6 46  1  6
  7 47  1  0
  7 48  1  0
  8 49  1  0
  8 50  1  0
  9 51  1  0
  9 52  1  0
 10 53  1  0
 10 54  1  0
 11 55  1  0
 11 56  1  0
 12 57  1  0
 16 58  1  0
 16 59  1  0
 18 60  1  0
 20 61  1  0
 21 62  1  0
 23 63  1  0
 28 64  1  0
 28 65  1  0
 29 66  1  0
 31 67  1  0
 32 68  1  0
 33 69  1  0
 34 70  1  0
 36 71  1  0
 38 72  1  0
 42 73  1  0
 45 74  1  0
 45 75  1  0
M  CHG  3   5  -1  22   1  24  -1
M  END
>  <EmbedRMS>  (362) 
0.0741435841233

$$$$

     RDKit          3D

 75 78  0  0  0  0  0  0  0  0999 V2000
    9.4312   42.9411   34.3439 C   0  0  0  0  0  0  0  0  0  0  0  0
   10.4886   43.0410   35.0294 O   0  0  0  0  0  0  0  0  0  0  0  0
    8.8558   41.7128   34.0296 O   0  0  0  0  0  0  0  0  0  0  0  0
    9.4933   40.2162   34.4702 P   0  0  0  0  0  0  0  0  0  0  0  0
    9.7295   40.1743   36.1312 O   0  0  0  0  0  0  0  0  0  0  0  0
    8.7484   44.1360   33.7722 C   0  0  1  0  0  0  0  0  0  0  0  0
    9.3039   45.3665   34.3388 N   0  0  0  0  0  0  0  0  0  0  0  0
    8.8892   44.0519   32.2309 C   0  0  0  0  0  0  0  0  0  0  0  0
    8.2014   45.1722   31.4436 C   0  0  0  0  0  0  0  0  0  0  0  0
    6.6642   45.1065   31.4887 C   0  0  0  0  0  0  0  0  0  0  0  0
    6.0264   46.3234   30.8119 C   0  0  0  0  0  0  0  0  0  0  0  0
    6.5072   47.5645   31.4186 N   0  0  0  0  0  0  0  0  0  0  0  0
    7.2448   48.5391   30.6836 C   0  0  0  0  0  0  0  0  0  0  0  0
    7.5984   49.7386   31.3071 O   0  0  0  0  0  0  0  0  0  0  0  0
    7.5929   48.3116   29.4933 O   0  0  0  0  0  0  0  0  0  0  0  0
    8.3528   50.7547   30.6521 C   0  0  0  0  0  0  0  0  0  0  0  0
    8.5303   51.9320   31.5803 C   0  0  0  0  0  0  0  0  0  0  0  0
    7.3849   52.4725   32.1932 C   0  0  0  0  0  0  0  0  0  0  0  0
    9.8019   52.4884   31.8817 C   0  0  0  0  0  0  0  0  0  0  0  0
    7.4944   53.5091   33.1213 C   0  0  0  0  0  0  0  0  0  0  0  0
    9.8937   53.5172   32.8346 C   0  0  0  0  0  0  0  0  0  0  0  0
   10.9985   52.0511   31.2201 N   0  0  0  0  0  0  0  0  0  0  0  0
    8.7475   54.0232   33.4494 C   0  0  0  0  0  0  0  0  0  0  0  0
   12.1780   51.9740   31.9241 O   0  0  0  0  0  0  0  0  0  0  0  0
   11.0362   51.9898   29.9739 O   0  0  0  0  0  0  0  0  0  0  0  0
    8.5368   39.1399   34.0139 O   0  0  0  0  0  0  0  0  0  0  0  0
   10.9789   40.0874   33.6872 O   0  0  0  0  0  0  0  0  0  0  0  0
   10.7993   40.0946   32.2884 C   0  0  0  0  0  0  0  0  0  0  0  0
   11.5957   38.9351   31.6994 C   0  0  0  0  0  0  0  0  0  0  0  0
   12.9257   38.9478   32.1798 O   0  0  0  0  0  0  0  0  0  0  0  0
   11.0070   37.5758   32.0732 C   0  0  0  0  0  0  0  0  0  0  0  0
   13.3571   37.5980   32.2612 C   0  0  0  0  0  0  0  0  0  0  0  0
    9.9093   37.1808   31.2875 O   0  0  0  0  0  0  0  0  0  0  0  0
   12.1967   36.6764   31.8894 C   0  0  0  0  0  0  0  0  0  0  0  0
   13.8018   37.2956   33.6197 N   0  0  0  0  0  0  0  0  0  0  0  0
   12.3048   36.2361   30.5555 O   0  0  0  0  0  0  0  0  0  0  0  0
   14.7922   36.4716   33.9864 C   0  0  0  0  0  0  0  0  0  0  0  0
   13.2747   37.7291   34.7944 C   0  0  0  0  0  0  0  0  0  0  0  0
   15.6239   35.7581   33.1861 N   0  0  0  0  0  0  0  0  0  0  0  0
   14.8721   36.4402   35.3331 C   0  0  0  0  0  0  0  0  0  0  0  0
   13.9206   37.2258   35.8810 N   0  0  0  0  0  0  0  0  0  0  0  0
   16.5873   34.9924   33.7802 C   0  0  0  0  0  0  0  0  0  0  0  0
   15.8576   35.6714   35.9444 C   0  0  0  0  0  0  0  0  0  0  0  0
   16.7026   34.9585   35.1439 N   0  0  0  0  0  0  0  0  0  0  0  0
   16.0102   35.6383   37.3564 N   0  0  0  0  0  0  0  0  0  0  0  0
    7.6764   44.0635   34.0548 H   0  0  0  0  0  0  0  0  0  0  0  0
    8.6469   46.1559   34.1432 H   0  0  0  0  0  0  0  0  0  0  0  0
   10.2152   45.5880   33.8747 H   0  0  0  0  0  0  0  0  0  0  0  0
    8.4831   43.0818   31.8667 H   0  0  0  0  0  0  0  0  0  0  0  0
    9.9708   44.0643   31.9680 H   0  0  0  0  0  0  0  0  0  0  0  0
    8.5198   45.0960   30.3808 H   0  0  0  0  0  0  0  0  0  0  0  0
    8.5712   46.1488   31.8175 H   0  0  0  0  0  0  0  0  0  0  0  0
    6.3148   44.1799   30.9839 H   0  0  0  0  0  0  0  0  0  0  0  0
    6.3141   45.0785   32.5414 H   0  0  0  0  0  0  0  0  0  0  0  0
    6.2451   46.2893   29.7230 H   0  0  0  0  0  0  0  0  0  0  0  0
    4.9231   46.2692   30.9292 H   0  0  0  0  0  0  0  0  0  0  0  0
    6.2851   47.7534   32.4220 H   0  0  0  0  0  0  0  0  0  0  0  0
    7.8074   51.0943   29.7450 H   0  0  0  0  0  0  0  0  0  0  0  0
    9.3216   50.3181   30.3388 H   0  0  0  0  0  0  0  0  0  0  0  0
    6.4031   52.0757   31.9644 H   0  0  0  0  0  0  0  0  0  0  0  0
    6.6060   53.9087   33.5930 H   0  0  0  0  0  0  0  0  0  0  0  0
   10.8558   53.9483   33.0815 H   0  0  0  0  0  0  0  0  0  0  0  0
    8.8305   54.8239   34.1730 H   0  0  0  0  0  0  0  0  0  0  0  0
    9.7448   40.0200   31.9304 H   0  0  0  0  0  0  0  0  0  0  0  0
   11.2092   41.0481   31.8917 H   0  0  0  0  0  0  0  0  0  0  0  0
   11.6207   39.0685   30.5942 H   0  0  0  0  0  0  0  0  0  0  0  0
   10.7059   37.5564   33.1439 H   0  0  0  0  0  0  0  0  0  0  0  0
   14.2095   37.4543   31.5601 H   0  0  0  0  0  0  0  0  0  0  0  0
   10.0864   37.4210   30.3414 H   0  0  0  0  0  0  0  0  0  0  0  0
   12.1275   35.7872   32.5550 H   0  0  0  0  0  0  0  0  0  0  0  0
   12.5031   37.0109   29.9673 H   0  0  0  0  0  0  0  0  0  0  0  0
   12.4328   38.3997   34.8703 H   0  0  0  0  0  0  0  0  0  0  0  0
   17.2670   34.4149   33.1690 H   0  0  0  0  0  0  0  0  0  0  0  0
   16.7640   35.0601   37.7896 H   0  0  0  0  0  0  0  0  0  0  0  0
   15.3758   36.1862   37.9792 H   0  0  0  0  0  0  0  0  0  0  0  0
  1  2  2  0
  1  3  1  0
  3  4  1  0
  4  5  1  0
  6  1  1  0
  7  6  1  0
  6  8  1  0
  8  9  1  0
  9 10  1  0
 10 11  1  0
 11 12  1  0
 12 13  1  0
 13 14  1  0
 13 15  2  0
 14 16  1  0
 16 17  1  0
 17 18  2  0
 19 17  1  0
 18 20  1  0
 21 19  2  0
 19 22  1  0
 20 23  2  0
 23 21  1  0
 22 24  1  0
 22 25  2  0
  4 26  2  0
  4 27  1  0
 28 27  1  0
 28 29  1  0
 29 30  1  0
 29 31  1  0
 30 32  1  0
 31 33  1  0
 31 34  1  0
 34 32  1  0
 32 35  1  0
 34 36  1  0
 37 35  1  0
 38 35  1  0
 39 37  2  0
 37 40  1  0
 41 38  2  0
 42 39  1  0
 40 43  2  0
 40 41  1  0
 44 42  2  0
 44 43  1  0
 43 45  1  0
  6 46  1  6
  7 47  1  0
  7 48  1  0
  8 49  1  0
  8 50  1  0
  9 51  1  0
  9 52  1  0
 10 53  1  0
 10 54  1  0
 11 55  1  0
 11 56  1  0
 12 57  1  0
 16 58  1  0
 16 59  1  0
 18 60  1  0
 20 61  1  0
 21 62  1  0
 23 63  1  0
 28 64  1  0
 28 65  1  0
 29 66  1  0
 31 67  1  0
 32 68  1  0
 33 69  1  0
 34 70  1  0
 36 71  1  0
 38 72  1  0
 42 73  1  0
 45 74  1  0
 45 75  1  0
M  CHG  3   5  -1  22   1  24  -1
M  END
>  <EmbedRMS>  (363) 
0.0753890515532

$$$$

     RDKit          3D

 75 78  0  0  0  0  0  0  0  0999 V2000
    9.4332   42.9364   34.3461 C   0  0  0  0  0  0  0  0  0  0  0  0
   10.4907   43.0329   35.0318 O   0  0  0  0  0  0  0  0  0  0  0  0
    8.8562   41.7103   34.0295 O   0  0  0  0  0  0  0  0  0  0  0  0
    9.4942   40.2139   34.4678 P   0  0  0  0  0  0  0  0  0  0  0  0
    9.7311   40.1724   36.1289 O   0  0  0  0  0  0  0  0  0  0  0  0
    8.7506   44.1348   33.7741 C   0  0  1  0  0  0  0  0  0  0  0  0
    9.2963   45.3820   34.3134 N   0  0  0  0  0  0  0  0  0  0  0  0
    8.8893   44.0528   32.2358 C   0  0  0  0  0  0  0  0  0  0  0  0
    8.2028   45.1824   31.4615 C   0  0  0  0  0  0  0  0  0  0  0  0
    6.6653   45.1046   31.4855 C   0  0  0  0  0  0  0  0  0  0  0  0
    6.0269   46.3225   30.8104 C   0  0  0  0  0  0  0  0  0  0  0  0
    6.5060   47.5639   31.4179 N   0  0  0  0  0  0  0  0  0  0  0  0
    7.2445   48.5387   30.6840 C   0  0  0  0  0  0  0  0  0  0  0  0
    7.5988   49.7372   31.3087 O   0  0  0  0  0  0  0  0  0  0  0  0
    7.5931   48.3120   29.4936 O   0  0  0  0  0  0  0  0  0  0  0  0
    8.3545   50.7540   30.6543 C   0  0  0  0  0  0  0  0  0  0  0  0
    8.6168   51.9340   31.5663 C   0  0  0  0  0  0  0  0  0  0  0  0
    8.4187   51.8108   32.9578 C   0  0  0  0  0  0  0  0  0  0  0  0
    9.0545   53.1822   31.0423 C   0  0  0  0  0  0  0  0  0  0  0  0
    8.6125   52.9016   33.8059 C   0  0  0  0  0  0  0  0  0  0  0  0
    9.2264   54.2716   31.9150 C   0  0  0  0  0  0  0  0  0  0  0  0
    9.3174   53.3716   29.6392 N   0  0  0  0  0  0  0  0  0  0  0  0
    9.0080   54.1308   33.2852 C   0  0  0  0  0  0  0  0  0  0  0  0
    9.1523   54.6141   29.0712 O   0  0  0  0  0  0  0  0  0  0  0  0
    9.8552   52.4710   28.9630 O   0  0  0  0  0  0  0  0  0  0  0  0
    8.5370   39.1382   34.0122 O   0  0  0  0  0  0  0  0  0  0  0  0
   10.9795   40.0869   33.6827 O   0  0  0  0  0  0  0  0  0  0  0  0
   10.7997   40.0898   32.2830 C   0  0  0  0  0  0  0  0  0  0  0  0
   11.5968   38.9273   31.6962 C   0  0  0  0  0  0  0  0  0  0  0  0
   12.9242   38.9425   32.1784 O   0  0  0  0  0  0  0  0  0  0  0  0
   11.0086   37.5713   32.0780 C   0  0  0  0  0  0  0  0  0  0  0  0
   13.3528   37.5929   32.2623 C   0  0  0  0  0  0  0  0  0  0  0  0
    9.9098   37.1770   31.2926 O   0  0  0  0  0  0  0  0  0  0  0  0
   12.1943   36.6683   31.8995 C   0  0  0  0  0  0  0  0  0  0  0  0
   13.8019   37.2950   33.6199 N   0  0  0  0  0  0  0  0  0  0  0  0
   12.3027   36.2773   30.5558 O   0  0  0  0  0  0  0  0  0  0  0  0
   14.7926   36.4715   33.9864 C   0  0  0  0  0  0  0  0  0  0  0  0
   13.2749   37.7286   34.7946 C   0  0  0  0  0  0  0  0  0  0  0  0
   15.6239   35.7577   33.1860 N   0  0  0  0  0  0  0  0  0  0  0  0
   14.8727   36.4403   35.3332 C   0  0  0  0  0  0  0  0  0  0  0  0
   13.9210   37.2257   35.8811 N   0  0  0  0  0  0  0  0  0  0  0  0
   16.5873   34.9921   33.7802 C   0  0  0  0  0  0  0  0  0  0  0  0
   15.8579   35.6714   35.9444 C   0  0  0  0  0  0  0  0  0  0  0  0
   16.7028   34.9583   35.1439 N   0  0  0  0  0  0  0  0  0  0  0  0
   16.0104   35.6382   37.3564 N   0  0  0  0  0  0  0  0  0  0  0  0
    7.6770   44.0706   34.0504 H   0  0  0  0  0  0  0  0  0  0  0  0
    9.1827   45.3820   35.3535 H   0  0  0  0  0  0  0  0  0  0  0  0
   10.3192   45.4407   34.1000 H   0  0  0  0  0  0  0  0  0  0  0  0
    8.4817   43.0851   31.8668 H   0  0  0  0  0  0  0  0  0  0  0  0
    9.9711   44.0682   31.9739 H   0  0  0  0  0  0  0  0  0  0  0  0
    8.5551   46.1511   31.8744 H   0  0  0  0  0  0  0  0  0  0  0  0
    8.5385   45.1364   30.4023 H   0  0  0  0  0  0  0  0  0  0  0  0
    6.3297   44.1799   30.9677 H   0  0  0  0  0  0  0  0  0  0  0  0
    6.3019   45.0642   32.5333 H   0  0  0  0  0  0  0  0  0  0  0  0
    6.2465   46.2897   29.7216 H   0  0  0  0  0  0  0  0  0  0  0  0
    4.9234   46.2671   30.9263 H   0  0  0  0  0  0  0  0  0  0  0  0
    6.2825   47.7526   32.4210 H   0  0  0  0  0  0  0  0  0  0  0  0
    9.3266   50.3319   30.3200 H   0  0  0  0  0  0  0  0  0  0  0  0
    7.7773   51.0979   29.7686 H   0  0  0  0  0  0  0  0  0  0  0  0
    8.1105   50.8716   33.3982 H   0  0  0  0  0  0  0  0  0  0  0  0
    8.4519   52.7934   34.8710 H   0  0  0  0  0  0  0  0  0  0  0  0
    9.5513   55.2318   31.5351 H   0  0  0  0  0  0  0  0  0  0  0  0
    9.1541   54.9757   33.9458 H   0  0  0  0  0  0  0  0  0  0  0  0
   11.2096   41.0418   31.8829 H   0  0  0  0  0  0  0  0  0  0  0  0
    9.7449   40.0145   31.9263 H   0  0  0  0  0  0  0  0  0  0  0  0
   11.6265   39.0456   30.5888 H   0  0  0  0  0  0  0  0  0  0  0  0
   10.7064   37.5574   33.1484 H   0  0  0  0  0  0  0  0  0  0  0  0
   14.2021   37.4484   31.5573 H   0  0  0  0  0  0  0  0  0  0  0  0
   10.0952   37.3990   30.3433 H   0  0  0  0  0  0  0  0  0  0  0  0
   12.1163   35.7745   32.5634 H   0  0  0  0  0  0  0  0  0  0  0  0
   12.9615   35.5349   30.5312 H   0  0  0  0  0  0  0  0  0  0  0  0
   12.4321   38.3982   34.8705 H   0  0  0  0  0  0  0  0  0  0  0  0
   17.2669   34.4143   33.1690 H   0  0  0  0  0  0  0  0  0  0  0  0
   16.7641   35.0599   37.7896 H   0  0  0  0  0  0  0  0  0  0  0  0
   15.3761   36.1862   37.9792 H   0  0  0  0  0  0  0  0  0  0  0  0
  1  2  2  0
  1  3  1  0
  3  4  1  0
  4  5  1  0
  6  1  1  0
  7  6  1  0
  6  8  1  0
  8  9  1  0
  9 10  1  0
 10 11  1  0
 11 12  1  0
 12 13  1  0
 13 14  1  0
 13 15  2  0
 14 16  1  0
 16 17  1  0
 17 18  2  0
 19 17  1  0
 18 20  1  0
 21 19  2  0
 19 22  1  0
 20 23  2  0
 23 21  1  0
 22 24  1  0
 22 25  2  0
  4 26  2  0
  4 27  1  0
 28 27  1  0
 28 29  1  0
 29 30  1  0
 29 31  1  0
 30 32  1  0
 31 33  1  0
 31 34  1  0
 34 32  1  0
 32 35  1  0
 34 36  1  0
 37 35  1  0
 38 35  1  0
 39 37  2  0
 37 40  1  0
 41 38  2  0
 42 39  1  0
 40 43  2  0
 40 41  1  0
 44 42  2  0
 44 43  1  0
 43 45  1  0
  6 46  1  6
  7 47  1  0
  7 48  1  0
  8 49  1  0
  8 50  1  0
  9 51  1  0
  9 52  1  0
 10 53  1  0
 10 54  1  0
 11 55  1  0
 11 56  1  0
 12 57  1  0
 16 58  1  0
 16 59  1  0
 18 60  1  0
 20 61  1  0
 21 62  1  0
 23 63  1  0
 28 64  1  0
 28 65  1  0
 29 66  1  0
 31 67  1  0
 32 68  1  0
 33 69  1  0
 34 70  1  0
 36 71  1  0
 38 72  1  0
 42 73  1  0
 45 74  1  0
 45 75  1  0
M  CHG  3   5  -1  22   1  24  -1
M  END
>  <EmbedRMS>  (364) 
0.0746170028274

$$$$

     RDKit          3D

 75 78  0  0  0  0  0  0  0  0999 V2000
    9.4316   42.9407   34.3433 C   0  0  0  0  0  0  0  0  0  0  0  0
   10.4885   43.0406   35.0296 O   0  0  0  0  0  0  0  0  0  0  0  0
    8.8562   41.7126   34.0286 O   0  0  0  0  0  0  0  0  0  0  0  0
    9.4944   40.2159   34.4677 P   0  0  0  0  0  0  0  0  0  0  0  0
    9.7313   40.1739   36.1288 O   0  0  0  0  0  0  0  0  0  0  0  0
    8.7492   44.1354   33.7712 C   0  0  1  0  0  0  0  0  0  0  0  0
    9.3043   45.3657   34.3365 N   0  0  0  0  0  0  0  0  0  0  0  0
    8.8899   44.0524   32.2301 C   0  0  0  0  0  0  0  0  0  0  0  0
    8.2018   45.1729   31.4425 C   0  0  0  0  0  0  0  0  0  0  0  0
    6.6649   45.1093   31.4907 C   0  0  0  0  0  0  0  0  0  0  0  0
    6.0283   46.3246   30.8102 C   0  0  0  0  0  0  0  0  0  0  0  0
    6.5009   47.5678   31.4204 N   0  0  0  0  0  0  0  0  0  0  0  0
    7.2381   48.5466   30.6798 C   0  0  0  0  0  0  0  0  0  0  0  0
    7.5780   49.7906   31.2278 O   0  0  0  0  0  0  0  0  0  0  0  0
    7.6006   48.2981   29.5003 O   0  0  0  0  0  0  0  0  0  0  0  0
    7.2097   50.2608   32.5230 C   0  0  0  0  0  0  0  0  0  0  0  0
    8.0394   49.6233   33.6159 C   0  0  0  0  0  0  0  0  0  0  0  0
    7.3830   48.8995   34.6299 C   0  0  0  0  0  0  0  0  0  0  0  0
    9.4377   49.8420   33.7235 C   0  0  0  0  0  0  0  0  0  0  0  0
    8.0948   48.3793   35.7118 C   0  0  0  0  0  0  0  0  0  0  0  0
   10.1368   49.3119   34.8216 C   0  0  0  0  0  0  0  0  0  0  0  0
   10.1518   50.6424   32.7701 N   0  0  0  0  0  0  0  0  0  0  0  0
    9.4704   48.5797   35.8043 C   0  0  0  0  0  0  0  0  0  0  0  0
   10.1612   50.2901   31.4416 O   0  0  0  0  0  0  0  0  0  0  0  0
   10.9659   51.5001   33.1699 O   0  0  0  0  0  0  0  0  0  0  0  0
    8.5372   39.1399   34.0125 O   0  0  0  0  0  0  0  0  0  0  0  0
   10.9796   40.0876   33.6826 O   0  0  0  0  0  0  0  0  0  0  0  0
   10.7997   40.0900   32.2829 C   0  0  0  0  0  0  0  0  0  0  0  0
   11.5968   38.9274   31.6963 C   0  0  0  0  0  0  0  0  0  0  0  0
   12.9242   38.9426   32.1785 O   0  0  0  0  0  0  0  0  0  0  0  0
   11.0086   37.5714   32.0780 C   0  0  0  0  0  0  0  0  0  0  0  0
   13.3528   37.5929   32.2623 C   0  0  0  0  0  0  0  0  0  0  0  0
    9.9098   37.1771   31.2926 O   0  0  0  0  0  0  0  0  0  0  0  0
   12.1943   36.6683   31.8995 C   0  0  0  0  0  0  0  0  0  0  0  0
   13.8019   37.2950   33.6199 N   0  0  0  0  0  0  0  0  0  0  0  0
   12.3027   36.2773   30.5559 O   0  0  0  0  0  0  0  0  0  0  0  0
   14.7926   36.4715   33.9865 C   0  0  0  0  0  0  0  0  0  0  0  0
   13.2749   37.7286   34.7946 C   0  0  0  0  0  0  0  0  0  0  0  0
   15.6239   35.7577   33.1860 N   0  0  0  0  0  0  0  0  0  0  0  0
   14.8727   36.4403   35.3332 C   0  0  0  0  0  0  0  0  0  0  0  0
   13.9210   37.2257   35.8812 N   0  0  0  0  0  0  0  0  0  0  0  0
   16.5873   34.9921   33.7802 C   0  0  0  0  0  0  0  0  0  0  0  0
   15.8579   35.6714   35.9444 C   0  0  0  0  0  0  0  0  0  0  0  0
   16.7028   34.9583   35.1439 N   0  0  0  0  0  0  0  0  0  0  0  0
   16.0104   35.6381   37.3564 N   0  0  0  0  0  0  0  0  0  0  0  0
    7.6772   44.0638   34.0538 H   0  0  0  0  0  0  0  0  0  0  0  0
   10.2265   45.5745   33.8883 H   0  0  0  0  0  0  0  0  0  0  0  0
    8.6588   46.1549   34.1101 H   0  0  0  0  0  0  0  0  0  0  0  0
    9.9715   44.0654   31.9673 H   0  0  0  0  0  0  0  0  0  0  0  0
    8.4841   43.0823   31.8656 H   0  0  0  0  0  0  0  0  0  0  0  0
    8.5177   45.0936   30.3792 H   0  0  0  0  0  0  0  0  0  0  0  0
    8.5732   46.1509   31.8115 H   0  0  0  0  0  0  0  0  0  0  0  0
    6.3166   45.0861   32.5441 H   0  0  0  0  0  0  0  0  0  0  0  0
    6.3134   44.1812   30.9898 H   0  0  0  0  0  0  0  0  0  0  0  0
    4.9243   46.2668   30.9206 H   0  0  0  0  0  0  0  0  0  0  0  0
    6.2522   46.2899   29.7225 H   0  0  0  0  0  0  0  0  0  0  0  0
    6.2439   47.7419   32.4143 H   0  0  0  0  0  0  0  0  0  0  0  0
    6.1201   50.1046   32.6797 H   0  0  0  0  0  0  0  0  0  0  0  0
    7.3774   51.3578   32.5565 H   0  0  0  0  0  0  0  0  0  0  0  0
    6.3108   48.7516   34.5967 H   0  0  0  0  0  0  0  0  0  0  0  0
    7.5773   47.8216   36.4817 H   0  0  0  0  0  0  0  0  0  0  0  0
   11.2039   49.4700   34.9153 H   0  0  0  0  0  0  0  0  0  0  0  0
   10.0205   48.1745   36.6438 H   0  0  0  0  0  0  0  0  0  0  0  0
    9.7449   40.0145   31.9264 H   0  0  0  0  0  0  0  0  0  0  0  0
   11.2095   41.0420   31.8825 H   0  0  0  0  0  0  0  0  0  0  0  0
   11.6265   39.0456   30.5888 H   0  0  0  0  0  0  0  0  0  0  0  0
   10.7064   37.5575   33.1485 H   0  0  0  0  0  0  0  0  0  0  0  0
   14.2021   37.4484   31.5574 H   0  0  0  0  0  0  0  0  0  0  0  0
   10.0952   37.3991   30.3433 H   0  0  0  0  0  0  0  0  0  0  0  0
   12.1163   35.7745   32.5634 H   0  0  0  0  0  0  0  0  0  0  0  0
   12.9614   35.5349   30.5312 H   0  0  0  0  0  0  0  0  0  0  0  0
   12.4321   38.3982   34.8705 H   0  0  0  0  0  0  0  0  0  0  0  0
   17.2669   34.4144   33.1690 H   0  0  0  0  0  0  0  0  0  0  0  0
   16.7641   35.0598   37.7896 H   0  0  0  0  0  0  0  0  0  0  0  0
   15.3761   36.1862   37.9792 H   0  0  0  0  0  0  0  0  0  0  0  0
  1  2  2  0
  1  3  1  0
  3  4  1  0
  4  5  1  0
  6  1  1  0
  7  6  1  0
  6  8  1  0
  8  9  1  0
  9 10  1  0
 10 11  1  0
 11 12  1  0
 12 13  1  0
 13 14  1  0
 13 15  2  0
 14 16  1  0
 16 17  1  0
 17 18  2  0
 19 17  1  0
 18 20  1  0
 21 19  2  0
 19 22  1  0
 20 23  2  0
 23 21  1  0
 22 24  1  0
 22 25  2  0
  4 26  2  0
  4 27  1  0
 28 27  1  0
 28 29  1  0
 29 30  1  0
 29 31  1  0
 30 32  1  0
 31 33  1  0
 31 34  1  0
 34 32  1  0
 32 35  1  0
 34 36  1  0
 37 35  1  0
 38 35  1  0
 39 37  2  0
 37 40  1  0
 41 38  2  0
 42 39  1  0
 40 43  2  0
 40 41  1  0
 44 42  2  0
 44 43  1  0
 43 45  1  0
  6 46  1  6
  7 47  1  0
  7 48  1  0
  8 49  1  0
  8 50  1  0
  9 51  1  0
  9 52  1  0
 10 53  1  0
 10 54  1  0
 11 55  1  0
 11 56  1  0
 12 57  1  0
 16 58  1  0
 16 59  1  0
 18 60  1  0
 20 61  1  0
 21 62  1  0
 23 63  1  0
 28 64  1  0
 28 65  1  0
 29 66  1  0
 31 67  1  0
 32 68  1  0
 33 69  1  0
 34 70  1  0
 36 71  1  0
 38 72  1  0
 42 73  1  0
 45 74  1  0
 45 75  1  0
M  CHG  3   5  -1  22   1  24  -1
M  END
>  <EmbedRMS>  (365) 
0.0740694442548

$$$$

     RDKit          3D

 75 78  0  0  0  0  0  0  0  0999 V2000
    9.4301   42.9395   34.3433 C   0  0  0  0  0  0  0  0  0  0  0  0
   10.4913   43.0380   35.0234 O   0  0  0  0  0  0  0  0  0  0  0  0
    8.8550   41.7117   34.0281 O   0  0  0  0  0  0  0  0  0  0  0  0
    9.4941   40.2155   34.4674 P   0  0  0  0  0  0  0  0  0  0  0  0
    9.7309   40.1739   36.1285 O   0  0  0  0  0  0  0  0  0  0  0  0
    8.7414   44.1380   33.7786 C   0  0  1  0  0  0  0  0  0  0  0  0
    9.3021   45.3720   34.3325 N   0  0  0  0  0  0  0  0  0  0  0  0
    8.8963   44.0598   32.2398 C   0  0  0  0  0  0  0  0  0  0  0  0
    8.2024   45.1694   31.4403 C   0  0  0  0  0  0  0  0  0  0  0  0
    6.6650   45.1064   31.4908 C   0  0  0  0  0  0  0  0  0  0  0  0
    6.0265   46.3217   30.8111 C   0  0  0  0  0  0  0  0  0  0  0  0
    6.5045   47.5640   31.4175 N   0  0  0  0  0  0  0  0  0  0  0  0
    7.2500   48.5352   30.6862 C   0  0  0  0  0  0  0  0  0  0  0  0
    7.6306   49.7198   31.3214 O   0  0  0  0  0  0  0  0  0  0  0  0
    7.5907   48.3125   29.4928 O   0  0  0  0  0  0  0  0  0  0  0  0
    8.4303   50.7112   30.6860 C   0  0  0  0  0  0  0  0  0  0  0  0
    8.7235   51.8197   31.6626 C   0  0  0  0  0  0  0  0  0  0  0  0
    7.9396   52.9866   31.6093 C   0  0  0  0  0  0  0  0  0  0  0  0
    9.7773   51.7328   32.6116 C   0  0  0  0  0  0  0  0  0  0  0  0
    8.2003   54.0593   32.4627 C   0  0  0  0  0  0  0  0  0  0  0  0
   10.0322   52.8328   33.4518 C   0  0  0  0  0  0  0  0  0  0  0  0
   10.6013   50.5577   32.7286 N   0  0  0  0  0  0  0  0  0  0  0  0
    9.2476   53.9845   33.3786 C   0  0  0  0  0  0  0  0  0  0  0  0
   10.0524   49.3005   32.6276 O   0  0  0  0  0  0  0  0  0  0  0  0
   11.7926   50.6629   33.0870 O   0  0  0  0  0  0  0  0  0  0  0  0
    8.5374   39.1391   34.0122 O   0  0  0  0  0  0  0  0  0  0  0  0
   10.9797   40.0878   33.6827 O   0  0  0  0  0  0  0  0  0  0  0  0
   10.8002   40.0907   32.2830 C   0  0  0  0  0  0  0  0  0  0  0  0
   11.5958   38.9271   31.6963 C   0  0  0  0  0  0  0  0  0  0  0  0
   12.9239   38.9409   32.1767 O   0  0  0  0  0  0  0  0  0  0  0  0
   11.0062   37.5719   32.0794 C   0  0  0  0  0  0  0  0  0  0  0  0
   13.3506   37.5906   32.2614 C   0  0  0  0  0  0  0  0  0  0  0  0
    9.9064   37.1793   31.2946 O   0  0  0  0  0  0  0  0  0  0  0  0
   12.1920   36.6672   31.9003 C   0  0  0  0  0  0  0  0  0  0  0  0
   13.8017   37.2948   33.6193 N   0  0  0  0  0  0  0  0  0  0  0  0
   12.3133   36.2788   30.5561 O   0  0  0  0  0  0  0  0  0  0  0  0
   14.7927   36.4717   33.9862 C   0  0  0  0  0  0  0  0  0  0  0  0
   13.2746   37.7284   34.7941 C   0  0  0  0  0  0  0  0  0  0  0  0
   15.6240   35.7576   33.1859 N   0  0  0  0  0  0  0  0  0  0  0  0
   14.8728   36.4406   35.3330 C   0  0  0  0  0  0  0  0  0  0  0  0
   13.9209   37.2258   35.8808 N   0  0  0  0  0  0  0  0  0  0  0  0
   16.5874   34.9920   33.7802 C   0  0  0  0  0  0  0  0  0  0  0  0
   15.8579   35.6716   35.9443 C   0  0  0  0  0  0  0  0  0  0  0  0
   16.7028   34.9584   35.1439 N   0  0  0  0  0  0  0  0  0  0  0  0
   16.0103   35.6383   37.3563 N   0  0  0  0  0  0  0  0  0  0  0  0
    7.6670   44.0658   34.0548 H   0  0  0  0  0  0  0  0  0  0  0  0
    9.2332   45.3279   35.3759 H   0  0  0  0  0  0  0  0  0  0  0  0
    8.6824   46.1676   34.0580 H   0  0  0  0  0  0  0  0  0  0  0  0
    8.5086   43.0845   31.8693 H   0  0  0  0  0  0  0  0  0  0  0  0
    9.9810   44.0915   31.9914 H   0  0  0  0  0  0  0  0  0  0  0  0
    8.5761   46.1522   31.7925 H   0  0  0  0  0  0  0  0  0  0  0  0
    8.5158   45.0767   30.3772 H   0  0  0  0  0  0  0  0  0  0  0  0
    6.3177   45.0840   32.5443 H   0  0  0  0  0  0  0  0  0  0  0  0
    6.3128   44.1778   30.9915 H   0  0  0  0  0  0  0  0  0  0  0  0
    4.9230   46.2662   30.9266 H   0  0  0  0  0  0  0  0  0  0  0  0
    6.2472   46.2869   29.7226 H   0  0  0  0  0  0  0  0  0  0  0  0
    6.2836   47.7516   32.4214 H   0  0  0  0  0  0  0  0  0  0  0  0
    7.8846   51.1047   29.8001 H   0  0  0  0  0  0  0  0  0  0  0  0
    9.3790   50.2673   30.3139 H   0  0  0  0  0  0  0  0  0  0  0  0
    7.1256   53.0700   30.8995 H   0  0  0  0  0  0  0  0  0  0  0  0
    7.5915   54.9527   32.4099 H   0  0  0  0  0  0  0  0  0  0  0  0
   10.8329   52.7919   34.1795 H   0  0  0  0  0  0  0  0  0  0  0  0
    9.4500   54.8195   34.0370 H   0  0  0  0  0  0  0  0  0  0  0  0
   11.2115   41.0420   31.8828 H   0  0  0  0  0  0  0  0  0  0  0  0
    9.7454   40.0168   31.9260 H   0  0  0  0  0  0  0  0  0  0  0  0
   11.6246   39.0448   30.5888 H   0  0  0  0  0  0  0  0  0  0  0  0
   10.7050   37.5581   33.1500 H   0  0  0  0  0  0  0  0  0  0  0  0
   14.1985   37.4426   31.5553 H   0  0  0  0  0  0  0  0  0  0  0  0
   10.0893   37.4057   30.3459 H   0  0  0  0  0  0  0  0  0  0  0  0
   12.1337   35.7754   32.5703 H   0  0  0  0  0  0  0  0  0  0  0  0
   11.7934   35.4394   30.4514 H   0  0  0  0  0  0  0  0  0  0  0  0
   12.4314   38.3973   34.8699 H   0  0  0  0  0  0  0  0  0  0  0  0
   17.2669   34.4142   33.1691 H   0  0  0  0  0  0  0  0  0  0  0  0
   15.3759   36.1864   37.9790 H   0  0  0  0  0  0  0  0  0  0  0  0
   16.7638   35.0599   37.7896 H   0  0  0  0  0  0  0  0  0  0  0  0
  1  2  2  0
  1  3  1  0
  3  4  1  0
  4  5  1  0
  6  1  1  0
  7  6  1  0
  6  8  1  0
  8  9  1  0
  9 10  1  0
 10 11  1  0
 11 12  1  0
 12 13  1  0
 13 14  1  0
 13 15  2  0
 14 16  1  0
 16 17  1  0
 17 18  2  0
 19 17  1  0
 18 20  1  0
 21 19  2  0
 19 22  1  0
 20 23  2  0
 23 21  1  0
 22 24  1  0
 22 25  2  0
  4 26  2  0
  4 27  1  0
 28 27  1  0
 28 29  1  0
 29 30  1  0
 29 31  1  0
 30 32  1  0
 31 33  1  0
 31 34  1  0
 34 32  1  0
 32 35  1  0
 34 36  1  0
 37 35  1  0
 38 35  1  0
 39 37  2  0
 37 40  1  0
 41 38  2  0
 42 39  1  0
 40 43  2  0
 40 41  1  0
 44 42  2  0
 44 43  1  0
 43 45  1  0
  6 46  1  6
  7 47  1  0
  7 48  1  0
  8 49  1  0
  8 50  1  0
  9 51  1  0
  9 52  1  0
 10 53  1  0
 10 54  1  0
 11 55  1  0
 11 56  1  0
 12 57  1  0
 16 58  1  0
 16 59  1  0
 18 60  1  0
 20 61  1  0
 21 62  1  0
 23 63  1  0
 28 64  1  0
 28 65  1  0
 29 66  1  0
 31 67  1  0
 32 68  1  0
 33 69  1  0
 34 70  1  0
 36 71  1  0
 38 72  1  0
 42 73  1  0
 45 74  1  0
 45 75  1  0
M  CHG  3   5  -1  22   1  24  -1
M  END
>  <EmbedRMS>  (366) 
0.0742950267292

$$$$

     RDKit          3D

 75 78  0  0  0  0  0  0  0  0999 V2000
    9.4312   42.9411   34.3439 C   0  0  0  0  0  0  0  0  0  0  0  0
   10.4886   43.0410   35.0294 O   0  0  0  0  0  0  0  0  0  0  0  0
    8.8558   41.7128   34.0296 O   0  0  0  0  0  0  0  0  0  0  0  0
    9.4933   40.2162   34.4702 P   0  0  0  0  0  0  0  0  0  0  0  0
    9.7295   40.1742   36.1312 O   0  0  0  0  0  0  0  0  0  0  0  0
    8.7484   44.1359   33.7721 C   0  0  1  0  0  0  0  0  0  0  0  0
    9.3039   45.3665   34.3388 N   0  0  0  0  0  0  0  0  0  0  0  0
    8.8892   44.0518   32.2309 C   0  0  0  0  0  0  0  0  0  0  0  0
    8.2015   45.1720   31.4435 C   0  0  0  0  0  0  0  0  0  0  0  0
    6.6643   45.1065   31.4887 C   0  0  0  0  0  0  0  0  0  0  0  0
    6.0268   46.3237   30.8123 C   0  0  0  0  0  0  0  0  0  0  0  0
    6.5083   47.5645   31.4190 N   0  0  0  0  0  0  0  0  0  0  0  0
    7.2421   48.5406   30.6825 C   0  0  0  0  0  0  0  0  0  0  0  0
    7.5847   49.7468   31.3027 O   0  0  0  0  0  0  0  0  0  0  0  0
    7.5941   48.3105   29.4938 O   0  0  0  0  0  0  0  0  0  0  0  0
    8.2923   50.7939   30.6408 C   0  0  0  0  0  0  0  0  0  0  0  0
    7.4278   51.4402   29.5820 C   0  0  0  0  0  0  0  0  0  0  0  0
    7.8928   51.4567   28.2539 C   0  0  0  0  0  0  0  0  0  0  0  0
    6.1472   51.9856   29.8755 C   0  0  0  0  0  0  0  0  0  0  0  0
    7.1079   51.9881   27.2302 C   0  0  0  0  0  0  0  0  0  0  0  0
    5.3673   52.5015   28.8249 C   0  0  0  0  0  0  0  0  0  0  0  0
    5.6107   52.0068   31.2114 N   0  0  0  0  0  0  0  0  0  0  0  0
    5.8463   52.5057   27.5144 C   0  0  0  0  0  0  0  0  0  0  0  0
    4.2494   51.9536   31.4052 O   0  0  0  0  0  0  0  0  0  0  0  0
    6.3463   52.2353   32.1931 O   0  0  0  0  0  0  0  0  0  0  0  0
    8.5368   39.1399   34.0139 O   0  0  0  0  0  0  0  0  0  0  0  0
   10.9789   40.0874   33.6872 O   0  0  0  0  0  0  0  0  0  0  0  0
   10.7992   40.0946   32.2884 C   0  0  0  0  0  0  0  0  0  0  0  0
   11.5957   38.9351   31.6994 C   0  0  0  0  0  0  0  0  0  0  0  0
   12.9257   38.9478   32.1799 O   0  0  0  0  0  0  0  0  0  0  0  0
   11.0070   37.5758   32.0732 C   0  0  0  0  0  0  0  0  0  0  0  0
   13.3571   37.5980   32.2612 C   0  0  0  0  0  0  0  0  0  0  0  0
    9.9093   37.1808   31.2875 O   0  0  0  0  0  0  0  0  0  0  0  0
   12.1967   36.6764   31.8894 C   0  0  0  0  0  0  0  0  0  0  0  0
   13.8018   37.2956   33.6197 N   0  0  0  0  0  0  0  0  0  0  0  0
   12.3048   36.2360   30.5555 O   0  0  0  0  0  0  0  0  0  0  0  0
   14.7922   36.4716   33.9864 C   0  0  0  0  0  0  0  0  0  0  0  0
   13.2747   37.7291   34.7944 C   0  0  0  0  0  0  0  0  0  0  0  0
   15.6239   35.7581   33.1861 N   0  0  0  0  0  0  0  0  0  0  0  0
   14.8721   36.4402   35.3331 C   0  0  0  0  0  0  0  0  0  0  0  0
   13.9206   37.2257   35.8810 N   0  0  0  0  0  0  0  0  0  0  0  0
   16.5873   34.9924   33.7802 C   0  0  0  0  0  0  0  0  0  0  0  0
   15.8576   35.6714   35.9444 C   0  0  0  0  0  0  0  0  0  0  0  0
   16.7026   34.9585   35.1439 N   0  0  0  0  0  0  0  0  0  0  0  0
   16.0102   35.6382   37.3564 N   0  0  0  0  0  0  0  0  0  0  0  0
    7.6764   44.0634   34.0548 H   0  0  0  0  0  0  0  0  0  0  0  0
    8.6469   46.1558   34.1430 H   0  0  0  0  0  0  0  0  0  0  0  0
   10.2152   45.5879   33.8747 H   0  0  0  0  0  0  0  0  0  0  0  0
    9.9708   44.0641   31.9679 H   0  0  0  0  0  0  0  0  0  0  0  0
    8.4830   43.0817   31.8667 H   0  0  0  0  0  0  0  0  0  0  0  0
    8.5714   46.1486   31.8173 H   0  0  0  0  0  0  0  0  0  0  0  0
    8.5198   45.0957   30.3807 H   0  0  0  0  0  0  0  0  0  0  0  0
    6.3147   44.1801   30.9835 H   0  0  0  0  0  0  0  0  0  0  0  0
    6.3142   45.0783   32.5413 H   0  0  0  0  0  0  0  0  0  0  0  0
    6.2449   46.2897   29.7232 H   0  0  0  0  0  0  0  0  0  0  0  0
    4.9234   46.2700   30.9300 H   0  0  0  0  0  0  0  0  0  0  0  0
    6.2848   47.7544   32.4218 H   0  0  0  0  0  0  0  0  0  0  0  0
    8.5963   51.5577   31.3852 H   0  0  0  0  0  0  0  0  0  0  0  0
    9.2331   50.3844   30.2113 H   0  0  0  0  0  0  0  0  0  0  0  0
    8.8636   51.0462   28.0046 H   0  0  0  0  0  0  0  0  0  0  0  0
    7.4766   51.9920   26.2125 H   0  0  0  0  0  0  0  0  0  0  0  0
    4.3878   52.9177   29.0233 H   0  0  0  0  0  0  0  0  0  0  0  0
    5.2376   52.9133   26.7175 H   0  0  0  0  0  0  0  0  0  0  0  0
    9.7448   40.0200   31.9304 H   0  0  0  0  0  0  0  0  0  0  0  0
   11.2092   41.0481   31.8916 H   0  0  0  0  0  0  0  0  0  0  0  0
   11.6207   39.0685   30.5942 H   0  0  0  0  0  0  0  0  0  0  0  0
   10.7059   37.5564   33.1439 H   0  0  0  0  0  0  0  0  0  0  0  0
   14.2095   37.4544   31.5601 H   0  0  0  0  0  0  0  0  0  0  0  0
   10.0864   37.4210   30.3413 H   0  0  0  0  0  0  0  0  0  0  0  0
   12.1275   35.7873   32.5550 H   0  0  0  0  0  0  0  0  0  0  0  0
   12.5030   37.0109   29.9673 H   0  0  0  0  0  0  0  0  0  0  0  0
   12.4328   38.3996   34.8703 H   0  0  0  0  0  0  0  0  0  0  0  0
   17.2670   34.4149   33.1690 H   0  0  0  0  0  0  0  0  0  0  0  0
   16.7640   35.0601   37.7896 H   0  0  0  0  0  0  0  0  0  0  0  0
   15.3758   36.1862   37.9791 H   0  0  0  0  0  0  0  0  0  0  0  0
  1  2  2  0
  1  3  1  0
  3  4  1  0
  4  5  1  0
  6  1  1  0
  7  6  1  0
  6  8  1  0
  8  9  1  0
  9 10  1  0
 10 11  1  0
 11 12  1  0
 12 13  1  0
 13 14  1  0
 13 15  2  0
 14 16  1  0
 16 17  1  0
 17 18  2  0
 19 17  1  0
 18 20  1  0
 21 19  2  0
 19 22  1  0
 20 23  2  0
 23 21  1  0
 22 24  1  0
 22 25  2  0
  4 26  2  0
  4 27  1  0
 28 27  1  0
 28 29  1  0
 29 30  1  0
 29 31  1  0
 30 32  1  0
 31 33  1  0
 31 34  1  0
 34 32  1  0
 32 35  1  0
 34 36  1  0
 37 35  1  0
 38 35  1  0
 39 37  2  0
 37 40  1  0
 41 38  2  0
 42 39  1  0
 40 43  2  0
 40 41  1  0
 44 42  2  0
 44 43  1  0
 43 45  1  0
  6 46  1  6
  7 47  1  0
  7 48  1  0
  8 49  1  0
  8 50  1  0
  9 51  1  0
  9 52  1  0
 10 53  1  0
 10 54  1  0
 11 55  1  0
 11 56  1  0
 12 57  1  0
 16 58  1  0
 16 59  1  0
 18 60  1  0
 20 61  1  0
 21 62  1  0
 23 63  1  0
 28 64  1  0
 28 65  1  0
 29 66  1  0
 31 67  1  0
 32 68  1  0
 33 69  1  0
 34 70  1  0
 36 71  1  0
 38 72  1  0
 42 73  1  0
 45 74  1  0
 45 75  1  0
M  CHG  3   5  -1  22   1  24  -1
M  END
>  <EmbedRMS>  (367) 
0.0753242382365

$$$$

     RDKit          3D

 75 78  0  0  0  0  0  0  0  0999 V2000
    9.4306   42.9409   34.3415 C   0  0  0  0  0  0  0  0  0  0  0  0
   10.4914   43.0389   35.0224 O   0  0  0  0  0  0  0  0  0  0  0  0
    8.8551   41.7129   34.0268 O   0  0  0  0  0  0  0  0  0  0  0  0
    9.4938   40.2164   34.4669 P   0  0  0  0  0  0  0  0  0  0  0  0
    9.7307   40.1748   36.1281 O   0  0  0  0  0  0  0  0  0  0  0  0
    8.7424   44.1406   33.7775 C   0  0  1  0  0  0  0  0  0  0  0  0
    9.3028   45.3733   34.3341 N   0  0  0  0  0  0  0  0  0  0  0  0
    8.8986   44.0669   32.2386 C   0  0  0  0  0  0  0  0  0  0  0  0
    8.2013   45.1773   31.4416 C   0  0  0  0  0  0  0  0  0  0  0  0
    6.6632   45.1102   31.4905 C   0  0  0  0  0  0  0  0  0  0  0  0
    6.0166   46.3200   30.8042 C   0  0  0  0  0  0  0  0  0  0  0  0
    6.4771   47.5692   31.4091 N   0  0  0  0  0  0  0  0  0  0  0  0
    7.3000   48.4977   30.7079 C   0  0  0  0  0  0  0  0  0  0  0  0
    7.9115   49.5297   31.4234 O   0  0  0  0  0  0  0  0  0  0  0  0
    7.5769   48.3166   29.4914 O   0  0  0  0  0  0  0  0  0  0  0  0
    9.2201   50.0032   31.1138 C   0  0  0  0  0  0  0  0  0  0  0  0
   10.2298   48.8942   31.3171 C   0  0  0  0  0  0  0  0  0  0  0  0
   10.7579   48.2562   30.1792 C   0  0  0  0  0  0  0  0  0  0  0  0
   10.6332   48.4527   32.6093 C   0  0  0  0  0  0  0  0  0  0  0  0
   11.6608   47.2008   30.3064 C   0  0  0  0  0  0  0  0  0  0  0  0
   11.5575   47.3968   32.7109 C   0  0  0  0  0  0  0  0  0  0  0  0
   10.1465   49.0613   33.8212 N   0  0  0  0  0  0  0  0  0  0  0  0
   12.0590   46.7714   31.5696 C   0  0  0  0  0  0  0  0  0  0  0  0
   10.9220   49.0395   34.9578 O   0  0  0  0  0  0  0  0  0  0  0  0
    8.9714   49.4701   33.9102 O   0  0  0  0  0  0  0  0  0  0  0  0
    8.5371   39.1398   34.0121 O   0  0  0  0  0  0  0  0  0  0  0  0
   10.9793   40.0879   33.6823 O   0  0  0  0  0  0  0  0  0  0  0  0
   10.7997   40.0902   32.2826 C   0  0  0  0  0  0  0  0  0  0  0  0
   11.5968   38.9275   31.6962 C   0  0  0  0  0  0  0  0  0  0  0  0
   12.9243   38.9426   32.1785 O   0  0  0  0  0  0  0  0  0  0  0  0
   11.0086   37.5714   32.0780 C   0  0  0  0  0  0  0  0  0  0  0  0
   13.3528   37.5930   32.2623 C   0  0  0  0  0  0  0  0  0  0  0  0
    9.9098   37.1772   31.2926 O   0  0  0  0  0  0  0  0  0  0  0  0
   12.1942   36.6684   31.8995 C   0  0  0  0  0  0  0  0  0  0  0  0
   13.8019   37.2951   33.6199 N   0  0  0  0  0  0  0  0  0  0  0  0
   12.3026   36.2773   30.5559 O   0  0  0  0  0  0  0  0  0  0  0  0
   14.7926   36.4715   33.9865 C   0  0  0  0  0  0  0  0  0  0  0  0
   13.2749   37.7287   34.7946 C   0  0  0  0  0  0  0  0  0  0  0  0
   15.6239   35.7577   33.1860 N   0  0  0  0  0  0  0  0  0  0  0  0
   14.8726   36.4403   35.3332 C   0  0  0  0  0  0  0  0  0  0  0  0
   13.9210   37.2257   35.8811 N   0  0  0  0  0  0  0  0  0  0  0  0
   16.5873   34.9921   33.7802 C   0  0  0  0  0  0  0  0  0  0  0  0
   15.8579   35.6714   35.9444 C   0  0  0  0  0  0  0  0  0  0  0  0
   16.7028   34.9583   35.1439 N   0  0  0  0  0  0  0  0  0  0  0  0
   16.0104   35.6382   37.3564 N   0  0  0  0  0  0  0  0  0  0  0  0
    7.6677   44.0683   34.0522 H   0  0  0  0  0  0  0  0  0  0  0  0
    8.6862   46.1708   34.0583 H   0  0  0  0  0  0  0  0  0  0  0  0
    9.2316   45.3290   35.3772 H   0  0  0  0  0  0  0  0  0  0  0  0
    8.5154   43.0911   31.8649 H   0  0  0  0  0  0  0  0  0  0  0  0
    9.9836   44.1050   31.9917 H   0  0  0  0  0  0  0  0  0  0  0  0
    8.5701   46.1601   31.7980 H   0  0  0  0  0  0  0  0  0  0  0  0
    8.5172   45.0909   30.3789 H   0  0  0  0  0  0  0  0  0  0  0  0
    6.3155   44.1778   30.9953 H   0  0  0  0  0  0  0  0  0  0  0  0
    6.3157   45.0906   32.5440 H   0  0  0  0  0  0  0  0  0  0  0  0
    4.9130   46.2539   30.9120 H   0  0  0  0  0  0  0  0  0  0  0  0
    6.2443   46.2846   29.7172 H   0  0  0  0  0  0  0  0  0  0  0  0
    6.2651   47.7479   32.4166 H   0  0  0  0  0  0  0  0  0  0  0  0
    9.4695   50.8655   31.7668 H   0  0  0  0  0  0  0  0  0  0  0  0
    9.2361   50.3806   30.0677 H   0  0  0  0  0  0  0  0  0  0  0  0
   10.4599   48.5680   29.1857 H   0  0  0  0  0  0  0  0  0  0  0  0
   12.0514   46.7137   29.4224 H   0  0  0  0  0  0  0  0  0  0  0  0
   11.8772   47.0400   33.6817 H   0  0  0  0  0  0  0  0  0  0  0  0
   12.7583   45.9509   31.6658 H   0  0  0  0  0  0  0  0  0  0  0  0
    9.7451   40.0148   31.9257 H   0  0  0  0  0  0  0  0  0  0  0  0
   11.2098   41.0421   31.8823 H   0  0  0  0  0  0  0  0  0  0  0  0
   11.6267   39.0456   30.5888 H   0  0  0  0  0  0  0  0  0  0  0  0
   10.7064   37.5577   33.1485 H   0  0  0  0  0  0  0  0  0  0  0  0
   14.2021   37.4485   31.5574 H   0  0  0  0  0  0  0  0  0  0  0  0
   10.0952   37.3992   30.3433 H   0  0  0  0  0  0  0  0  0  0  0  0
   12.1162   35.7746   32.5634 H   0  0  0  0  0  0  0  0  0  0  0  0
   12.9614   35.5350   30.5313 H   0  0  0  0  0  0  0  0  0  0  0  0
   12.4322   38.3983   34.8705 H   0  0  0  0  0  0  0  0  0  0  0  0
   17.2669   34.4144   33.1690 H   0  0  0  0  0  0  0  0  0  0  0  0
   16.7641   35.0599   37.7896 H   0  0  0  0  0  0  0  0  0  0  0  0
   15.3761   36.1862   37.9792 H   0  0  0  0  0  0  0  0  0  0  0  0
  1  2  2  0
  1  3  1  0
  3  4  1  0
  4  5  1  0
  6  1  1  0
  7  6  1  0
  6  8  1  0
  8  9  1  0
  9 10  1  0
 10 11  1  0
 11 12  1  0
 12 13  1  0
 13 14  1  0
 13 15  2  0
 14 16  1  0
 16 17  1  0
 17 18  2  0
 19 17  1  0
 18 20  1  0
 21 19  2  0
 19 22  1  0
 20 23  2  0
 23 21  1  0
 22 24  1  0
 22 25  2  0
  4 26  2  0
  4 27  1  0
 28 27  1  0
 28 29  1  0
 29 30  1  0
 29 31  1  0
 30 32  1  0
 31 33  1  0
 31 34  1  0
 34 32  1  0
 32 35  1  0
 34 36  1  0
 37 35  1  0
 38 35  1  0
 39 37  2  0
 37 40  1  0
 41 38  2  0
 42 39  1  0
 40 43  2  0
 40 41  1  0
 44 42  2  0
 44 43  1  0
 43 45  1  0
  6 46  1  6
  7 47  1  0
  7 48  1  0
  8 49  1  0
  8 50  1  0
  9 51  1  0
  9 52  1  0
 10 53  1  0
 10 54  1  0
 11 55  1  0
 11 56  1  0
 12 57  1  0
 16 58  1  0
 16 59  1  0
 18 60  1  0
 20 61  1  0
 21 62  1  0
 23 63  1  0
 28 64  1  0
 28 65  1  0
 29 66  1  0
 31 67  1  0
 32 68  1  0
 33 69  1  0
 34 70  1  0
 36 71  1  0
 38 72  1  0
 42 73  1  0
 45 74  1  0
 45 75  1  0
M  CHG  3   5  -1  22   1  24  -1
M  END
>  <EmbedRMS>  (368) 
0.0766443379454

$$$$

     RDKit          3D

 75 78  0  0  0  0  0  0  0  0999 V2000
    9.4301   42.9394   34.3434 C   0  0  0  0  0  0  0  0  0  0  0  0
   10.4913   43.0380   35.0235 O   0  0  0  0  0  0  0  0  0  0  0  0
    8.8550   41.7115   34.0283 O   0  0  0  0  0  0  0  0  0  0  0  0
    9.4944   40.2155   34.4676 P   0  0  0  0  0  0  0  0  0  0  0  0
    9.7308   40.1740   36.1287 O   0  0  0  0  0  0  0  0  0  0  0  0
    8.7413   44.1376   33.7786 C   0  0  1  0  0  0  0  0  0  0  0  0
    9.3016   45.3717   34.3325 N   0  0  0  0  0  0  0  0  0  0  0  0
    8.8963   44.0591   32.2399 C   0  0  0  0  0  0  0  0  0  0  0  0
    8.2027   45.1686   31.4400 C   0  0  0  0  0  0  0  0  0  0  0  0
    6.6653   45.1063   31.4910 C   0  0  0  0  0  0  0  0  0  0  0  0
    6.0278   46.3224   30.8124 C   0  0  0  0  0  0  0  0  0  0  0  0
    6.5080   47.5641   31.4187 N   0  0  0  0  0  0  0  0  0  0  0  0
    7.2422   48.5403   30.6825 C   0  0  0  0  0  0  0  0  0  0  0  0
    7.5781   49.7507   31.3011 O   0  0  0  0  0  0  0  0  0  0  0  0
    7.5936   48.3104   29.4936 O   0  0  0  0  0  0  0  0  0  0  0  0
    8.3286   50.7815   30.6567 C   0  0  0  0  0  0  0  0  0  0  0  0
    7.4685   51.7151   29.8232 C   0  0  0  0  0  0  0  0  0  0  0  0
    6.0897   51.4638   29.6506 C   0  0  0  0  0  0  0  0  0  0  0  0
    8.0253   52.8921   29.2497 C   0  0  0  0  0  0  0  0  0  0  0  0
    5.2869   52.3440   28.9243 C   0  0  0  0  0  0  0  0  0  0  0  0
    7.1923   53.7716   28.5342 C   0  0  0  0  0  0  0  0  0  0  0  0
    9.4162   53.2293   29.4069 N   0  0  0  0  0  0  0  0  0  0  0  0
    5.8363   53.4953   28.3680 C   0  0  0  0  0  0  0  0  0  0  0  0
   10.3923   52.2699   29.2741 O   0  0  0  0  0  0  0  0  0  0  0  0
    9.7618   54.4259   29.4936 O   0  0  0  0  0  0  0  0  0  0  0  0
    8.5375   39.1393   34.0126 O   0  0  0  0  0  0  0  0  0  0  0  0
   10.9804   40.0888   33.6834 O   0  0  0  0  0  0  0  0  0  0  0  0
   10.8025   40.0901   32.2836 C   0  0  0  0  0  0  0  0  0  0  0  0
   11.5888   38.9174   31.7007 C   0  0  0  0  0  0  0  0  0  0  0  0
   12.9219   38.9373   32.1692 O   0  0  0  0  0  0  0  0  0  0  0  0
   11.0028   37.5682   32.0981 C   0  0  0  0  0  0  0  0  0  0  0  0
   13.3496   37.5885   32.2601 C   0  0  0  0  0  0  0  0  0  0  0  0
    9.9343   37.1823   31.2756 O   0  0  0  0  0  0  0  0  0  0  0  0
   12.1891   36.6677   31.9050 C   0  0  0  0  0  0  0  0  0  0  0  0
   13.8025   37.2965   33.6186 N   0  0  0  0  0  0  0  0  0  0  0  0
   12.2991   36.2867   30.5568 O   0  0  0  0  0  0  0  0  0  0  0  0
   14.7929   36.4725   33.9858 C   0  0  0  0  0  0  0  0  0  0  0  0
   13.2749   37.7294   34.7935 C   0  0  0  0  0  0  0  0  0  0  0  0
   15.6240   35.7580   33.1858 N   0  0  0  0  0  0  0  0  0  0  0  0
   14.8727   36.4411   35.3327 C   0  0  0  0  0  0  0  0  0  0  0  0
   13.9208   37.2263   35.8803 N   0  0  0  0  0  0  0  0  0  0  0  0
   16.5871   34.9921   33.7801 C   0  0  0  0  0  0  0  0  0  0  0  0
   15.8576   35.6718   35.9441 C   0  0  0  0  0  0  0  0  0  0  0  0
   16.7024   34.9584   35.1438 N   0  0  0  0  0  0  0  0  0  0  0  0
   16.0099   35.6384   37.3562 N   0  0  0  0  0  0  0  0  0  0  0  0
    7.6669   44.0650   34.0548 H   0  0  0  0  0  0  0  0  0  0  0  0
    9.2335   45.3272   35.3759 H   0  0  0  0  0  0  0  0  0  0  0  0
    8.6808   46.1666   34.0588 H   0  0  0  0  0  0  0  0  0  0  0  0
    8.5084   43.0838   31.8695 H   0  0  0  0  0  0  0  0  0  0  0  0
    9.9809   44.0905   31.9915 H   0  0  0  0  0  0  0  0  0  0  0  0
    8.5156   45.0752   30.3769 H   0  0  0  0  0  0  0  0  0  0  0  0
    8.5770   46.1512   31.7919 H   0  0  0  0  0  0  0  0  0  0  0  0
    6.3124   44.1782   30.9912 H   0  0  0  0  0  0  0  0  0  0  0  0
    6.3182   45.0836   32.5447 H   0  0  0  0  0  0  0  0  0  0  0  0
    6.2471   46.2876   29.7236 H   0  0  0  0  0  0  0  0  0  0  0  0
    4.9244   46.2683   30.9290 H   0  0  0  0  0  0  0  0  0  0  0  0
    6.2831   47.7547   32.4210 H   0  0  0  0  0  0  0  0  0  0  0  0
    9.1197   50.3217   30.0279 H   0  0  0  0  0  0  0  0  0  0  0  0
    8.8253   51.3800   31.4493 H   0  0  0  0  0  0  0  0  0  0  0  0
    5.6154   50.5950   30.0837 H   0  0  0  0  0  0  0  0  0  0  0  0
    4.2319   52.1358   28.8000 H   0  0  0  0  0  0  0  0  0  0  0  0
    7.5995   54.6724   28.0922 H   0  0  0  0  0  0  0  0  0  0  0  0
    5.2093   54.1781   27.8092 H   0  0  0  0  0  0  0  0  0  0  0  0
    9.7476   40.0331   31.9253 H   0  0  0  0  0  0  0  0  0  0  0  0
   11.2257   41.0357   31.8824 H   0  0  0  0  0  0  0  0  0  0  0  0
   11.5975   39.0147   30.5904 H   0  0  0  0  0  0  0  0  0  0  0  0
   10.7023   37.5456   33.1720 H   0  0  0  0  0  0  0  0  0  0  0  0
   14.1957   37.4366   31.5528 H   0  0  0  0  0  0  0  0  0  0  0  0
    9.1339   37.6658   31.6069 H   0  0  0  0  0  0  0  0  0  0  0  0
   12.1380   35.7717   32.5698 H   0  0  0  0  0  0  0  0  0  0  0  0
   11.7707   35.4530   30.4496 H   0  0  0  0  0  0  0  0  0  0  0  0
   12.4314   38.3980   34.8694 H   0  0  0  0  0  0  0  0  0  0  0  0
   17.2665   34.4140   33.1691 H   0  0  0  0  0  0  0  0  0  0  0  0
   15.3757   36.1868   37.9789 H   0  0  0  0  0  0  0  0  0  0  0  0
   16.7633   35.0599   37.7895 H   0  0  0  0  0  0  0  0  0  0  0  0
  1  2  2  0
  1  3  1  0
  3  4  1  0
  4  5  1  0
  6  1  1  0
  7  6  1  0
  6  8  1  0
  8  9  1  0
  9 10  1  0
 10 11  1  0
 11 12  1  0
 12 13  1  0
 13 14  1  0
 13 15  2  0
 14 16  1  0
 16 17  1  0
 17 18  2  0
 19 17  1  0
 18 20  1  0
 21 19  2  0
 19 22  1  0
 20 23  2  0
 23 21  1  0
 22 24  1  0
 22 25  2  0
  4 26  2  0
  4 27  1  0
 28 27  1  0
 28 29  1  0
 29 30  1  0
 29 31  1  0
 30 32  1  0
 31 33  1  0
 31 34  1  0
 34 32  1  0
 32 35  1  0
 34 36  1  0
 37 35  1  0
 38 35  1  0
 39 37  2  0
 37 40  1  0
 41 38  2  0
 42 39  1  0
 40 43  2  0
 40 41  1  0
 44 42  2  0
 44 43  1  0
 43 45  1  0
  6 46  1  6
  7 47  1  0
  7 48  1  0
  8 49  1  0
  8 50  1  0
  9 51  1  0
  9 52  1  0
 10 53  1  0
 10 54  1  0
 11 55  1  0
 11 56  1  0
 12 57  1  0
 16 58  1  0
 16 59  1  0
 18 60  1  0
 20 61  1  0
 21 62  1  0
 23 63  1  0
 28 64  1  0
 28 65  1  0
 29 66  1  0
 31 67  1  0
 32 68  1  0
 33 69  1  0
 34 70  1  0
 36 71  1  0
 38 72  1  0
 42 73  1  0
 45 74  1  0
 45 75  1  0
M  CHG  3   5  -1  22   1  24  -1
M  END
>  <EmbedRMS>  (369) 
0.0735014902964

$$$$

     RDKit          3D

 75 78  0  0  0  0  0  0  0  0999 V2000
    9.4331   42.9365   34.3462 C   0  0  0  0  0  0  0  0  0  0  0  0
   10.4907   43.0329   35.0318 O   0  0  0  0  0  0  0  0  0  0  0  0
    8.8558   41.7103   34.0299 O   0  0  0  0  0  0  0  0  0  0  0  0
    9.4944   40.2141   34.4677 P   0  0  0  0  0  0  0  0  0  0  0  0
    9.7317   40.1723   36.1287 O   0  0  0  0  0  0  0  0  0  0  0  0
    8.7506   44.1348   33.7741 C   0  0  1  0  0  0  0  0  0  0  0  0
    9.2963   45.3820   34.3133 N   0  0  0  0  0  0  0  0  0  0  0  0
    8.8893   44.0527   32.2358 C   0  0  0  0  0  0  0  0  0  0  0  0
    8.2029   45.1822   31.4613 C   0  0  0  0  0  0  0  0  0  0  0  0
    6.6654   45.1046   31.4854 C   0  0  0  0  0  0  0  0  0  0  0  0
    6.0272   46.3228   30.8107 C   0  0  0  0  0  0  0  0  0  0  0  0
    6.5072   47.5640   31.4182 N   0  0  0  0  0  0  0  0  0  0  0  0
    7.2415   48.5407   30.6826 C   0  0  0  0  0  0  0  0  0  0  0  0
    7.5876   49.7442   31.3063 O   0  0  0  0  0  0  0  0  0  0  0  0
    7.5942   48.3104   29.4945 O   0  0  0  0  0  0  0  0  0  0  0  0
    8.2781   50.8050   30.6482 C   0  0  0  0  0  0  0  0  0  0  0  0
    7.3674   51.5129   29.6726 C   0  0  0  0  0  0  0  0  0  0  0  0
    7.5278   51.2570   28.2981 C   0  0  0  0  0  0  0  0  0  0  0  0
    6.3916   52.4574   30.0931 C   0  0  0  0  0  0  0  0  0  0  0  0
    6.7394   51.9138   27.3531 C   0  0  0  0  0  0  0  0  0  0  0  0
    5.6173   53.1182   29.1208 C   0  0  0  0  0  0  0  0  0  0  0  0
    6.1923   52.7828   31.4819 N   0  0  0  0  0  0  0  0  0  0  0  0
    5.7870   52.8436   27.7635 C   0  0  0  0  0  0  0  0  0  0  0  0
    6.2408   51.8077   32.4500 O   0  0  0  0  0  0  0  0  0  0  0  0
    5.8182   53.9288   31.8071 O   0  0  0  0  0  0  0  0  0  0  0  0
    8.5373   39.1382   34.0122 O   0  0  0  0  0  0  0  0  0  0  0  0
   10.9795   40.0889   33.6815 O   0  0  0  0  0  0  0  0  0  0  0  0
   10.7982   40.0848   32.2819 C   0  0  0  0  0  0  0  0  0  0  0  0
   11.5886   38.9142   31.7009 C   0  0  0  0  0  0  0  0  0  0  0  0
   12.9214   38.9367   32.1698 O   0  0  0  0  0  0  0  0  0  0  0  0
   11.0047   37.5660   32.0990 C   0  0  0  0  0  0  0  0  0  0  0  0
   13.3511   37.5885   32.2601 C   0  0  0  0  0  0  0  0  0  0  0  0
    9.9296   37.1961   31.2780 O   0  0  0  0  0  0  0  0  0  0  0  0
   12.1923   36.6658   31.9047 C   0  0  0  0  0  0  0  0  0  0  0  0
   13.8033   37.2966   33.6188 N   0  0  0  0  0  0  0  0  0  0  0  0
   12.3007   36.2864   30.5561 O   0  0  0  0  0  0  0  0  0  0  0  0
   14.7933   36.4724   33.9860 C   0  0  0  0  0  0  0  0  0  0  0  0
   13.2753   37.7296   34.7935 C   0  0  0  0  0  0  0  0  0  0  0  0
   15.6243   35.7579   33.1860 N   0  0  0  0  0  0  0  0  0  0  0  0
   14.8728   36.4410   35.3328 C   0  0  0  0  0  0  0  0  0  0  0  0
   13.9209   37.2263   35.8804 N   0  0  0  0  0  0  0  0  0  0  0  0
   16.5873   34.9919   33.7803 C   0  0  0  0  0  0  0  0  0  0  0  0
   15.8577   35.6716   35.9443 C   0  0  0  0  0  0  0  0  0  0  0  0
   16.7025   34.9583   35.1440 N   0  0  0  0  0  0  0  0  0  0  0  0
   16.0100   35.6384   37.3563 N   0  0  0  0  0  0  0  0  0  0  0  0
    7.6770   44.0707   34.0503 H   0  0  0  0  0  0  0  0  0  0  0  0
   10.3192   45.4406   34.1000 H   0  0  0  0  0  0  0  0  0  0  0  0
    9.1827   45.3820   35.3535 H   0  0  0  0  0  0  0  0  0  0  0  0
    8.4816   43.0850   31.8668 H   0  0  0  0  0  0  0  0  0  0  0  0
    9.9711   44.0680   31.9739 H   0  0  0  0  0  0  0  0  0  0  0  0
    8.5554   46.1509   31.8740 H   0  0  0  0  0  0  0  0  0  0  0  0
    8.5385   45.1361   30.4021 H   0  0  0  0  0  0  0  0  0  0  0  0
    6.3296   44.1801   30.9674 H   0  0  0  0  0  0  0  0  0  0  0  0
    6.3020   45.0641   32.5332 H   0  0  0  0  0  0  0  0  0  0  0  0
    6.2461   46.2901   29.7218 H   0  0  0  0  0  0  0  0  0  0  0  0
    4.9238   46.2680   30.9272 H   0  0  0  0  0  0  0  0  0  0  0  0
    6.2827   47.7534   32.4209 H   0  0  0  0  0  0  0  0  0  0  0  0
    9.1806   50.3994   30.1398 H   0  0  0  0  0  0  0  0  0  0  0  0
    8.6472   51.5286   31.4049 H   0  0  0  0  0  0  0  0  0  0  0  0
    8.2704   50.5479   27.9534 H   0  0  0  0  0  0  0  0  0  0  0  0
    6.8719   51.7053   26.2993 H   0  0  0  0  0  0  0  0  0  0  0  0
    4.8690   53.8427   29.4167 H   0  0  0  0  0  0  0  0  0  0  0  0
    5.1792   53.3548   27.0281 H   0  0  0  0  0  0  0  0  0  0  0  0
   11.2131   41.0320   31.8757 H   0  0  0  0  0  0  0  0  0  0  0  0
    9.7427   40.0140   31.9266 H   0  0  0  0  0  0  0  0  0  0  0  0
   11.5980   39.0108   30.5904 H   0  0  0  0  0  0  0  0  0  0  0  0
   10.7009   37.5601   33.1721 H   0  0  0  0  0  0  0  0  0  0  0  0
   14.1977   37.4380   31.5532 H   0  0  0  0  0  0  0  0  0  0  0  0
    9.5181   36.3960   31.6977 H   0  0  0  0  0  0  0  0  0  0  0  0
   12.1419   35.7697   32.5692 H   0  0  0  0  0  0  0  0  0  0  0  0
   11.7730   35.4523   30.4488 H   0  0  0  0  0  0  0  0  0  0  0  0
   12.4321   38.3984   34.8692 H   0  0  0  0  0  0  0  0  0  0  0  0
   17.2667   34.4138   33.1694 H   0  0  0  0  0  0  0  0  0  0  0  0
   15.3757   36.1867   37.9790 H   0  0  0  0  0  0  0  0  0  0  0  0
   16.7634   35.0598   37.7897 H   0  0  0  0  0  0  0  0  0  0  0  0
  1  2  2  0
  1  3  1  0
  3  4  1  0
  4  5  1  0
  6  1  1  0
  7  6  1  0
  6  8  1  0
  8  9  1  0
  9 10  1  0
 10 11  1  0
 11 12  1  0
 12 13  1  0
 13 14  1  0
 13 15  2  0
 14 16  1  0
 16 17  1  0
 17 18  2  0
 19 17  1  0
 18 20  1  0
 21 19  2  0
 19 22  1  0
 20 23  2  0
 23 21  1  0
 22 24  1  0
 22 25  2  0
  4 26  2  0
  4 27  1  0
 28 27  1  0
 28 29  1  0
 29 30  1  0
 29 31  1  0
 30 32  1  0
 31 33  1  0
 31 34  1  0
 34 32  1  0
 32 35  1  0
 34 36  1  0
 37 35  1  0
 38 35  1  0
 39 37  2  0
 37 40  1  0
 41 38  2  0
 42 39  1  0
 40 43  2  0
 40 41  1  0
 44 42  2  0
 44 43  1  0
 43 45  1  0
  6 46  1  6
  7 47  1  0
  7 48  1  0
  8 49  1  0
  8 50  1  0
  9 51  1  0
  9 52  1  0
 10 53  1  0
 10 54  1  0
 11 55  1  0
 11 56  1  0
 12 57  1  0
 16 58  1  0
 16 59  1  0
 18 60  1  0
 20 61  1  0
 21 62  1  0
 23 63  1  0
 28 64  1  0
 28 65  1  0
 29 66  1  0
 31 67  1  0
 32 68  1  0
 33 69  1  0
 34 70  1  0
 36 71  1  0
 38 72  1  0
 42 73  1  0
 45 74  1  0
 45 75  1  0
M  CHG  3   5  -1  22   1  24  -1
M  END
>  <EmbedRMS>  (370) 
0.0743433948051

$$$$

     RDKit          3D

 75 78  0  0  0  0  0  0  0  0999 V2000
    9.4333   42.9368   34.3455 C   0  0  0  0  0  0  0  0  0  0  0  0
   10.4907   43.0331   35.0314 O   0  0  0  0  0  0  0  0  0  0  0  0
    8.8558   41.7107   34.0294 O   0  0  0  0  0  0  0  0  0  0  0  0
    9.4942   40.2143   34.4675 P   0  0  0  0  0  0  0  0  0  0  0  0
    9.7316   40.1726   36.1286 O   0  0  0  0  0  0  0  0  0  0  0  0
    8.7509   44.1355   33.7737 C   0  0  1  0  0  0  0  0  0  0  0  0
    9.2967   45.3821   34.3137 N   0  0  0  0  0  0  0  0  0  0  0  0
    8.8899   44.0553   32.2354 C   0  0  0  0  0  0  0  0  0  0  0  0
    8.2028   45.1860   31.4625 C   0  0  0  0  0  0  0  0  0  0  0  0
    6.6652   45.1062   31.4856 C   0  0  0  0  0  0  0  0  0  0  0  0
    6.0239   46.3220   30.8083 C   0  0  0  0  0  0  0  0  0  0  0  0
    6.4971   47.5658   31.4155 N   0  0  0  0  0  0  0  0  0  0  0  0
    7.2578   48.5292   30.6899 C   0  0  0  0  0  0  0  0  0  0  0  0
    7.6755   49.6954   31.3389 O   0  0  0  0  0  0  0  0  0  0  0  0
    7.5903   48.3103   29.4935 O   0  0  0  0  0  0  0  0  0  0  0  0
    8.6302   50.5967   30.7818 C   0  0  0  0  0  0  0  0  0  0  0  0
    9.9920   49.9438   30.7038 C   0  0  0  0  0  0  0  0  0  0  0  0
   10.6353   49.8765   29.4542 C   0  0  0  0  0  0  0  0  0  0  0  0
   10.6073   49.3401   31.8341 C   0  0  0  0  0  0  0  0  0  0  0  0
   11.8557   49.2147   29.3155 C   0  0  0  0  0  0  0  0  0  0  0  0
   11.8296   48.6631   31.6673 C   0  0  0  0  0  0  0  0  0  0  0  0
   10.0053   49.3828   33.1412 N   0  0  0  0  0  0  0  0  0  0  0  0
   12.4491   48.6048   30.4185 C   0  0  0  0  0  0  0  0  0  0  0  0
    9.3772   50.5213   33.5891 O   0  0  0  0  0  0  0  0  0  0  0  0
   10.1873   48.4447   33.9446 O   0  0  0  0  0  0  0  0  0  0  0  0
    8.5370   39.1384   34.0123 O   0  0  0  0  0  0  0  0  0  0  0  0
   10.9792   40.0887   33.6813 O   0  0  0  0  0  0  0  0  0  0  0  0
   10.7977   40.0843   32.2817 C   0  0  0  0  0  0  0  0  0  0  0  0
   11.5897   38.9147   31.7008 C   0  0  0  0  0  0  0  0  0  0  0  0
   12.9218   38.9385   32.1717 O   0  0  0  0  0  0  0  0  0  0  0  0
   11.0071   37.5654   32.0975 C   0  0  0  0  0  0  0  0  0  0  0  0
   13.3533   37.5909   32.2610 C   0  0  0  0  0  0  0  0  0  0  0  0
    9.9333   37.1935   31.2754 O   0  0  0  0  0  0  0  0  0  0  0  0
   12.1945   36.6671   31.9040 C   0  0  0  0  0  0  0  0  0  0  0  0
   13.8036   37.2970   33.6193 N   0  0  0  0  0  0  0  0  0  0  0  0
   12.2893   36.2849   30.5562 O   0  0  0  0  0  0  0  0  0  0  0  0
   14.7931   36.4723   33.9863 C   0  0  0  0  0  0  0  0  0  0  0  0
   13.2756   37.7298   34.7940 C   0  0  0  0  0  0  0  0  0  0  0  0
   15.6242   35.7580   33.1861 N   0  0  0  0  0  0  0  0  0  0  0  0
   14.8727   36.4407   35.3331 C   0  0  0  0  0  0  0  0  0  0  0  0
   13.9210   37.2262   35.8807 N   0  0  0  0  0  0  0  0  0  0  0  0
   16.5872   34.9920   33.7803 C   0  0  0  0  0  0  0  0  0  0  0  0
   15.8577   35.6715   35.9444 C   0  0  0  0  0  0  0  0  0  0  0  0
   16.7025   34.9582   35.1440 N   0  0  0  0  0  0  0  0  0  0  0  0
   16.0101   35.6382   37.3564 N   0  0  0  0  0  0  0  0  0  0  0  0
    7.6772   44.0714   34.0496 H   0  0  0  0  0  0  0  0  0  0  0  0
    9.1839   45.3817   35.3539 H   0  0  0  0  0  0  0  0  0  0  0  0
   10.3193   45.4413   34.0993 H   0  0  0  0  0  0  0  0  0  0  0  0
    9.9718   44.0722   31.9738 H   0  0  0  0  0  0  0  0  0  0  0  0
    8.4832   43.0878   31.8651 H   0  0  0  0  0  0  0  0  0  0  0  0
    8.5394   45.1426   30.4035 H   0  0  0  0  0  0  0  0  0  0  0  0
    8.5537   46.1549   31.8770 H   0  0  0  0  0  0  0  0  0  0  0  0
    6.3015   45.0667   32.5333 H   0  0  0  0  0  0  0  0  0  0  0  0
    6.3314   44.1802   30.9691 H   0  0  0  0  0  0  0  0  0  0  0  0
    4.9204   46.2630   30.9217 H   0  0  0  0  0  0  0  0  0  0  0  0
    6.2458   46.2889   29.7200 H   0  0  0  0  0  0  0  0  0  0  0  0
    6.2761   47.7521   32.4195 H   0  0  0  0  0  0  0  0  0  0  0  0
    8.2766   50.9336   29.7825 H   0  0  0  0  0  0  0  0  0  0  0  0
    8.6913   51.5045   31.4156 H   0  0  0  0  0  0  0  0  0  0  0  0
   10.1847   50.3257   28.5777 H   0  0  0  0  0  0  0  0  0  0  0  0
   12.3381   49.1671   28.3477 H   0  0  0  0  0  0  0  0  0  0  0  0
   12.3131   48.1897   32.5126 H   0  0  0  0  0  0  0  0  0  0  0  0
   13.3929   48.0869   30.3067 H   0  0  0  0  0  0  0  0  0  0  0  0
    9.7423   40.0118   31.9265 H   0  0  0  0  0  0  0  0  0  0  0  0
   11.2112   41.0320   31.8754 H   0  0  0  0  0  0  0  0  0  0  0  0
   11.6005   39.0120   30.5904 H   0  0  0  0  0  0  0  0  0  0  0  0
   10.7015   37.5593   33.1701 H   0  0  0  0  0  0  0  0  0  0  0  0
   14.2012   37.4438   31.5551 H   0  0  0  0  0  0  0  0  0  0  0  0
    9.5289   36.3869   31.6895 H   0  0  0  0  0  0  0  0  0  0  0  0
   12.1244   35.7694   32.5633 H   0  0  0  0  0  0  0  0  0  0  0  0
   12.9478   35.5427   30.5201 H   0  0  0  0  0  0  0  0  0  0  0  0
   12.4328   38.3993   34.8697 H   0  0  0  0  0  0  0  0  0  0  0  0
   17.2667   34.4140   33.1692 H   0  0  0  0  0  0  0  0  0  0  0  0
   16.7636   35.0598   37.7897 H   0  0  0  0  0  0  0  0  0  0  0  0
   15.3759   36.1865   37.9791 H   0  0  0  0  0  0  0  0  0  0  0  0
  1  2  2  0
  1  3  1  0
  3  4  1  0
  4  5  1  0
  6  1  1  0
  7  6  1  0
  6  8  1  0
  8  9  1  0
  9 10  1  0
 10 11  1  0
 11 12  1  0
 12 13  1  0
 13 14  1  0
 13 15  2  0
 14 16  1  0
 16 17  1  0
 17 18  2  0
 19 17  1  0
 18 20  1  0
 21 19  2  0
 19 22  1  0
 20 23  2  0
 23 21  1  0
 22 24  1  0
 22 25  2  0
  4 26  2  0
  4 27  1  0
 28 27  1  0
 28 29  1  0
 29 30  1  0
 29 31  1  0
 30 32  1  0
 31 33  1  0
 31 34  1  0
 34 32  1  0
 32 35  1  0
 34 36  1  0
 37 35  1  0
 38 35  1  0
 39 37  2  0
 37 40  1  0
 41 38  2  0
 42 39  1  0
 40 43  2  0
 40 41  1  0
 44 42  2  0
 44 43  1  0
 43 45  1  0
  6 46  1  6
  7 47  1  0
  7 48  1  0
  8 49  1  0
  8 50  1  0
  9 51  1  0
  9 52  1  0
 10 53  1  0
 10 54  1  0
 11 55  1  0
 11 56  1  0
 12 57  1  0
 16 58  1  0
 16 59  1  0
 18 60  1  0
 20 61  1  0
 21 62  1  0
 23 63  1  0
 28 64  1  0
 28 65  1  0
 29 66  1  0
 31 67  1  0
 32 68  1  0
 33 69  1  0
 34 70  1  0
 36 71  1  0
 38 72  1  0
 42 73  1  0
 45 74  1  0
 45 75  1  0
M  CHG  3   5  -1  22   1  24  -1
M  END
>  <EmbedRMS>  (371) 
0.074789442748

$$$$

     RDKit          3D

 75 78  0  0  0  0  0  0  0  0999 V2000
    9.4308   42.9413   34.3440 C   0  0  0  0  0  0  0  0  0  0  0  0
   10.4884   43.0413   35.0293 O   0  0  0  0  0  0  0  0  0  0  0  0
    8.8553   41.7130   34.0302 O   0  0  0  0  0  0  0  0  0  0  0  0
    9.4932   40.2165   34.4705 P   0  0  0  0  0  0  0  0  0  0  0  0
    9.7298   40.1743   36.1313 O   0  0  0  0  0  0  0  0  0  0  0  0
    8.7480   44.1361   33.7720 C   0  0  1  0  0  0  0  0  0  0  0  0
    9.3034   45.3668   34.3386 N   0  0  0  0  0  0  0  0  0  0  0  0
    8.8891   44.0517   32.2307 C   0  0  0  0  0  0  0  0  0  0  0  0
    8.2018   45.1720   31.4431 C   0  0  0  0  0  0  0  0  0  0  0  0
    6.6645   45.1051   31.4847 C   0  0  0  0  0  0  0  0  0  0  0  0
    6.0271   46.3253   30.8129 C   0  0  0  0  0  0  0  0  0  0  0  0
    6.5119   47.5629   31.4238 N   0  0  0  0  0  0  0  0  0  0  0  0
    7.2389   48.5471   30.6792 C   0  0  0  0  0  0  0  0  0  0  0  0
    7.5896   49.7834   31.2386 O   0  0  0  0  0  0  0  0  0  0  0  0
    7.5942   48.3041   29.4965 O   0  0  0  0  0  0  0  0  0  0  0  0
    7.1899   50.2392   32.5309 C   0  0  0  0  0  0  0  0  0  0  0  0
    5.7024   50.5099   32.5770 C   0  0  0  0  0  0  0  0  0  0  0  0
    4.9353   49.8833   33.5766 C   0  0  0  0  0  0  0  0  0  0  0  0
    5.0530   51.3472   31.6283 C   0  0  0  0  0  0  0  0  0  0  0  0
    3.5512   50.0517   33.6242 C   0  0  0  0  0  0  0  0  0  0  0  0
    3.6551   51.4895   31.6857 C   0  0  0  0  0  0  0  0  0  0  0  0
    5.7787   52.0437   30.5987 N   0  0  0  0  0  0  0  0  0  0  0  0
    2.9117   50.8480   32.6770 C   0  0  0  0  0  0  0  0  0  0  0  0
    5.1695   52.3194   29.3961 O   0  0  0  0  0  0  0  0  0  0  0  0
    6.8934   52.5520   30.8358 O   0  0  0  0  0  0  0  0  0  0  0  0
    8.5368   39.1400   34.0142 O   0  0  0  0  0  0  0  0  0  0  0  0
   10.9786   40.0891   33.6868 O   0  0  0  0  0  0  0  0  0  0  0  0
   10.7973   40.0898   32.2881 C   0  0  0  0  0  0  0  0  0  0  0  0
   11.5882   38.9235   31.7043 C   0  0  0  0  0  0  0  0  0  0  0  0
   12.9230   38.9440   32.1729 O   0  0  0  0  0  0  0  0  0  0  0  0
   11.0048   37.5704   32.0917 C   0  0  0  0  0  0  0  0  0  0  0  0
   13.3570   37.5961   32.2595 C   0  0  0  0  0  0  0  0  0  0  0  0
    9.9331   37.1987   31.2677 O   0  0  0  0  0  0  0  0  0  0  0  0
   12.1965   36.6751   31.8950 C   0  0  0  0  0  0  0  0  0  0  0  0
   13.8037   37.2979   33.6187 N   0  0  0  0  0  0  0  0  0  0  0  0
   12.2934   36.2389   30.5582 O   0  0  0  0  0  0  0  0  0  0  0  0
   14.7929   36.4726   33.9860 C   0  0  0  0  0  0  0  0  0  0  0  0
   13.2755   37.7304   34.7935 C   0  0  0  0  0  0  0  0  0  0  0  0
   15.6244   35.7585   33.1859 N   0  0  0  0  0  0  0  0  0  0  0  0
   14.8722   36.4406   35.3328 C   0  0  0  0  0  0  0  0  0  0  0  0
   13.9205   37.2263   35.8803 N   0  0  0  0  0  0  0  0  0  0  0  0
   16.5872   34.9923   33.7802 C   0  0  0  0  0  0  0  0  0  0  0  0
   15.8573   35.6715   35.9442 C   0  0  0  0  0  0  0  0  0  0  0  0
   16.7023   34.9584   35.1439 N   0  0  0  0  0  0  0  0  0  0  0  0
   16.0098   35.6384   37.3563 N   0  0  0  0  0  0  0  0  0  0  0  0
    7.6759   44.0637   34.0544 H   0  0  0  0  0  0  0  0  0  0  0  0
    8.6459   46.1561   34.1435 H   0  0  0  0  0  0  0  0  0  0  0  0
   10.2143   45.5888   33.8741 H   0  0  0  0  0  0  0  0  0  0  0  0
    9.9708   44.0638   31.9681 H   0  0  0  0  0  0  0  0  0  0  0  0
    8.4828   43.0816   31.8667 H   0  0  0  0  0  0  0  0  0  0  0  0
    8.5223   45.0971   30.3808 H   0  0  0  0  0  0  0  0  0  0  0  0
    8.5706   46.1484   31.8185 H   0  0  0  0  0  0  0  0  0  0  0  0
    6.3166   44.1808   30.9746 H   0  0  0  0  0  0  0  0  0  0  0  0
    6.3124   45.0712   32.5366 H   0  0  0  0  0  0  0  0  0  0  0  0
    4.9242   46.2727   30.9351 H   0  0  0  0  0  0  0  0  0  0  0  0
    6.2406   46.2945   29.7230 H   0  0  0  0  0  0  0  0  0  0  0  0
    6.3167   47.7065   32.4378 H   0  0  0  0  0  0  0  0  0  0  0  0
    7.7329   51.1780   32.7636 H   0  0  0  0  0  0  0  0  0  0  0  0
    7.5072   49.5025   33.3006 H   0  0  0  0  0  0  0  0  0  0  0  0
    5.4075   49.2493   34.3171 H   0  0  0  0  0  0  0  0  0  0  0  0
    2.9726   49.5582   34.3945 H   0  0  0  0  0  0  0  0  0  0  0  0
    3.1386   52.1158   30.9695 H   0  0  0  0  0  0  0  0  0  0  0  0
    1.8372   50.9738   32.7139 H   0  0  0  0  0  0  0  0  0  0  0  0
   11.2112   41.0391   31.8857 H   0  0  0  0  0  0  0  0  0  0  0  0
    9.7421   40.0187   31.9315 H   0  0  0  0  0  0  0  0  0  0  0  0
   11.5932   39.0396   30.5966 H   0  0  0  0  0  0  0  0  0  0  0  0
   10.6985   37.5587   33.1640 H   0  0  0  0  0  0  0  0  0  0  0  0
   14.2072   37.4493   31.5564 H   0  0  0  0  0  0  0  0  0  0  0  0
    9.5320   36.3882   31.6772 H   0  0  0  0  0  0  0  0  0  0  0  0
   12.1344   35.7838   32.5583 H   0  0  0  0  0  0  0  0  0  0  0  0
   12.4641   37.0180   29.9675 H   0  0  0  0  0  0  0  0  0  0  0  0
   12.4333   38.4006   34.8692 H   0  0  0  0  0  0  0  0  0  0  0  0
   17.2668   34.4144   33.1692 H   0  0  0  0  0  0  0  0  0  0  0  0
   15.3755   36.1866   37.9789 H   0  0  0  0  0  0  0  0  0  0  0  0
   16.7634   35.0600   37.7896 H   0  0  0  0  0  0  0  0  0  0  0  0
  1  2  2  0
  1  3  1  0
  3  4  1  0
  4  5  1  0
  6  1  1  0
  7  6  1  0
  6  8  1  0
  8  9  1  0
  9 10  1  0
 10 11  1  0
 11 12  1  0
 12 13  1  0
 13 14  1  0
 13 15  2  0
 14 16  1  0
 16 17  1  0
 17 18  2  0
 19 17  1  0
 18 20  1  0
 21 19  2  0
 19 22  1  0
 20 23  2  0
 23 21  1  0
 22 24  1  0
 22 25  2  0
  4 26  2  0
  4 27  1  0
 28 27  1  0
 28 29  1  0
 29 30  1  0
 29 31  1  0
 30 32  1  0
 31 33  1  0
 31 34  1  0
 34 32  1  0
 32 35  1  0
 34 36  1  0
 37 35  1  0
 38 35  1  0
 39 37  2  0
 37 40  1  0
 41 38  2  0
 42 39  1  0
 40 43  2  0
 40 41  1  0
 44 42  2  0
 44 43  1  0
 43 45  1  0
  6 46  1  6
  7 47  1  0
  7 48  1  0
  8 49  1  0
  8 50  1  0
  9 51  1  0
  9 52  1  0
 10 53  1  0
 10 54  1  0
 11 55  1  0
 11 56  1  0
 12 57  1  0
 16 58  1  0
 16 59  1  0
 18 60  1  0
 20 61  1  0
 21 62  1  0
 23 63  1  0
 28 64  1  0
 28 65  1  0
 29 66  1  0
 31 67  1  0
 32 68  1  0
 33 69  1  0
 34 70  1  0
 36 71  1  0
 38 72  1  0
 42 73  1  0
 45 74  1  0
 45 75  1  0
M  CHG  3   5  -1  22   1  24  -1
M  END
>  <EmbedRMS>  (372) 
0.0748222345275

$$$$

     RDKit          3D

 75 78  0  0  0  0  0  0  0  0999 V2000
    9.4313   42.9416   34.3436 C   0  0  0  0  0  0  0  0  0  0  0  0
   10.4886   43.0414   35.0293 O   0  0  0  0  0  0  0  0  0  0  0  0
    8.8562   41.7133   34.0287 O   0  0  0  0  0  0  0  0  0  0  0  0
    9.4946   40.2166   34.4678 P   0  0  0  0  0  0  0  0  0  0  0  0
    9.7310   40.1744   36.1289 O   0  0  0  0  0  0  0  0  0  0  0  0
    8.7485   44.1368   33.7721 C   0  0  1  0  0  0  0  0  0  0  0  0
    9.3043   45.3674   34.3387 N   0  0  0  0  0  0  0  0  0  0  0  0
    8.8891   44.0530   32.2308 C   0  0  0  0  0  0  0  0  0  0  0  0
    8.2009   45.1736   31.4440 C   0  0  0  0  0  0  0  0  0  0  0  0
    6.6635   45.1067   31.4879 C   0  0  0  0  0  0  0  0  0  0  0  0
    6.0246   46.3225   30.8096 C   0  0  0  0  0  0  0  0  0  0  0  0
    6.5022   47.5642   31.4168 N   0  0  0  0  0  0  0  0  0  0  0  0
    7.2583   48.5304   30.6901 C   0  0  0  0  0  0  0  0  0  0  0  0
    7.6741   49.6946   31.3400 O   0  0  0  0  0  0  0  0  0  0  0  0
    7.5872   48.3150   29.4921 O   0  0  0  0  0  0  0  0  0  0  0  0
    8.5093   50.6681   30.7215 C   0  0  0  0  0  0  0  0  0  0  0  0
    8.9179   51.7036   31.7387 C   0  0  0  0  0  0  0  0  0  0  0  0
    8.6174   53.0548   31.4852 C   0  0  0  0  0  0  0  0  0  0  0  0
    9.5581   51.3521   32.9588 C   0  0  0  0  0  0  0  0  0  0  0  0
    8.9317   54.0424   32.4195 C   0  0  0  0  0  0  0  0  0  0  0  0
    9.8517   52.3631   33.8926 C   0  0  0  0  0  0  0  0  0  0  0  0
    9.8946   49.9884   33.2775 N   0  0  0  0  0  0  0  0  0  0  0  0
    9.5441   53.6969   33.6221 C   0  0  0  0  0  0  0  0  0  0  0  0
   10.3960   49.1427   32.3158 O   0  0  0  0  0  0  0  0  0  0  0  0
    9.8815   49.6027   34.4649 O   0  0  0  0  0  0  0  0  0  0  0  0
    8.5374   39.1407   34.0127 O   0  0  0  0  0  0  0  0  0  0  0  0
   10.9805   40.0889   33.6836 O   0  0  0  0  0  0  0  0  0  0  0  0
   10.8025   40.0902   32.2837 C   0  0  0  0  0  0  0  0  0  0  0  0
   11.5888   38.9175   31.7008 C   0  0  0  0  0  0  0  0  0  0  0  0
   12.9219   38.9374   32.1692 O   0  0  0  0  0  0  0  0  0  0  0  0
   11.0028   37.5683   32.0981 C   0  0  0  0  0  0  0  0  0  0  0  0
   13.3496   37.5886   32.2601 C   0  0  0  0  0  0  0  0  0  0  0  0
    9.9343   37.1823   31.2757 O   0  0  0  0  0  0  0  0  0  0  0  0
   12.1890   36.6677   31.9050 C   0  0  0  0  0  0  0  0  0  0  0  0
   13.8025   37.2965   33.6187 N   0  0  0  0  0  0  0  0  0  0  0  0
   12.2990   36.2868   30.5568 O   0  0  0  0  0  0  0  0  0  0  0  0
   14.7929   36.4725   33.9858 C   0  0  0  0  0  0  0  0  0  0  0  0
   13.2749   37.7294   34.7936 C   0  0  0  0  0  0  0  0  0  0  0  0
   15.6240   35.7580   33.1858 N   0  0  0  0  0  0  0  0  0  0  0  0
   14.8727   36.4411   35.3327 C   0  0  0  0  0  0  0  0  0  0  0  0
   13.9208   37.2263   35.8803 N   0  0  0  0  0  0  0  0  0  0  0  0
   16.5871   34.9921   33.7801 C   0  0  0  0  0  0  0  0  0  0  0  0
   15.8576   35.6718   35.9441 C   0  0  0  0  0  0  0  0  0  0  0  0
   16.7024   34.9585   35.1438 N   0  0  0  0  0  0  0  0  0  0  0  0
   16.0099   35.6384   37.3562 N   0  0  0  0  0  0  0  0  0  0  0  0
    7.6765   44.0646   34.0548 H   0  0  0  0  0  0  0  0  0  0  0  0
   10.2153   45.5894   33.8741 H   0  0  0  0  0  0  0  0  0  0  0  0
    8.6473   46.1571   34.1437 H   0  0  0  0  0  0  0  0  0  0  0  0
    8.4830   43.0829   31.8664 H   0  0  0  0  0  0  0  0  0  0  0  0
    9.9706   44.0658   31.9677 H   0  0  0  0  0  0  0  0  0  0  0  0
    8.5696   46.1503   31.8190 H   0  0  0  0  0  0  0  0  0  0  0  0
    8.5201   45.0986   30.3813 H   0  0  0  0  0  0  0  0  0  0  0  0
    6.3154   44.1793   30.9835 H   0  0  0  0  0  0  0  0  0  0  0  0
    6.3128   45.0790   32.5405 H   0  0  0  0  0  0  0  0  0  0  0  0
    6.2454   46.2887   29.7211 H   0  0  0  0  0  0  0  0  0  0  0  0
    4.9211   46.2665   30.9248 H   0  0  0  0  0  0  0  0  0  0  0  0
    6.2843   47.7492   32.4218 H   0  0  0  0  0  0  0  0  0  0  0  0
    9.4169   50.1881   30.2988 H   0  0  0  0  0  0  0  0  0  0  0  0
    7.9561   51.1299   29.8745 H   0  0  0  0  0  0  0  0  0  0  0  0
    8.1303   53.3480   30.5633 H   0  0  0  0  0  0  0  0  0  0  0  0
    8.6938   55.0779   32.2126 H   0  0  0  0  0  0  0  0  0  0  0  0
   10.3351   52.1184   34.8301 H   0  0  0  0  0  0  0  0  0  0  0  0
    9.7830   54.4646   34.3468 H   0  0  0  0  0  0  0  0  0  0  0  0
   11.2257   41.0358   31.8824 H   0  0  0  0  0  0  0  0  0  0  0  0
    9.7476   40.0332   31.9255 H   0  0  0  0  0  0  0  0  0  0  0  0
   11.5975   39.0148   30.5905 H   0  0  0  0  0  0  0  0  0  0  0  0
   10.7023   37.5457   33.1720 H   0  0  0  0  0  0  0  0  0  0  0  0
   14.1957   37.4366   31.5528 H   0  0  0  0  0  0  0  0  0  0  0  0
    9.1339   37.6659   31.6070 H   0  0  0  0  0  0  0  0  0  0  0  0
   12.1380   35.7718   32.5698 H   0  0  0  0  0  0  0  0  0  0  0  0
   11.7706   35.4530   30.4497 H   0  0  0  0  0  0  0  0  0  0  0  0
   12.4314   38.3980   34.8694 H   0  0  0  0  0  0  0  0  0  0  0  0
   17.2665   34.4140   33.1691 H   0  0  0  0  0  0  0  0  0  0  0  0
   16.7633   35.0599   37.7895 H   0  0  0  0  0  0  0  0  0  0  0  0
   15.3757   36.1868   37.9789 H   0  0  0  0  0  0  0  0  0  0  0  0
  1  2  2  0
  1  3  1  0
  3  4  1  0
  4  5  1  0
  6  1  1  0
  7  6  1  0
  6  8  1  0
  8  9  1  0
  9 10  1  0
 10 11  1  0
 11 12  1  0
 12 13  1  0
 13 14  1  0
 13 15  2  0
 14 16  1  0
 16 17  1  0
 17 18  2  0
 19 17  1  0
 18 20  1  0
 21 19  2  0
 19 22  1  0
 20 23  2  0
 23 21  1  0
 22 24  1  0
 22 25  2  0
  4 26  2  0
  4 27  1  0
 28 27  1  0
 28 29  1  0
 29 30  1  0
 29 31  1  0
 30 32  1  0
 31 33  1  0
 31 34  1  0
 34 32  1  0
 32 35  1  0
 34 36  1  0
 37 35  1  0
 38 35  1  0
 39 37  2  0
 37 40  1  0
 41 38  2  0
 42 39  1  0
 40 43  2  0
 40 41  1  0
 44 42  2  0
 44 43  1  0
 43 45  1  0
  6 46  1  6
  7 47  1  0
  7 48  1  0
  8 49  1  0
  8 50  1  0
  9 51  1  0
  9 52  1  0
 10 53  1  0
 10 54  1  0
 11 55  1  0
 11 56  1  0
 12 57  1  0
 16 58  1  0
 16 59  1  0
 18 60  1  0
 20 61  1  0
 21 62  1  0
 23 63  1  0
 28 64  1  0
 28 65  1  0
 29 66  1  0
 31 67  1  0
 32 68  1  0
 33 69  1  0
 34 70  1  0
 36 71  1  0
 38 72  1  0
 42 73  1  0
 45 74  1  0
 45 75  1  0
M  CHG  3   5  -1  22   1  24  -1
M  END
>  <EmbedRMS>  (373) 
0.0737743327199

$$$$

     RDKit          3D

 75 78  0  0  0  0  0  0  0  0999 V2000
    9.4333   42.9366   34.3462 C   0  0  0  0  0  0  0  0  0  0  0  0
   10.4907   43.0330   35.0319 O   0  0  0  0  0  0  0  0  0  0  0  0
    8.8563   41.7104   34.0296 O   0  0  0  0  0  0  0  0  0  0  0  0
    9.4945   40.2142   34.4680 P   0  0  0  0  0  0  0  0  0  0  0  0
    9.7309   40.1726   36.1291 O   0  0  0  0  0  0  0  0  0  0  0  0
    8.7506   44.1349   33.7741 C   0  0  1  0  0  0  0  0  0  0  0  0
    9.2963   45.3821   34.3133 N   0  0  0  0  0  0  0  0  0  0  0  0
    8.8893   44.0528   32.2358 C   0  0  0  0  0  0  0  0  0  0  0  0
    8.2028   45.1824   31.4615 C   0  0  0  0  0  0  0  0  0  0  0  0
    6.6653   45.1046   31.4855 C   0  0  0  0  0  0  0  0  0  0  0  0
    6.0269   46.3225   30.8105 C   0  0  0  0  0  0  0  0  0  0  0  0
    6.5062   47.5640   31.4180 N   0  0  0  0  0  0  0  0  0  0  0  0
    7.2440   48.5390   30.6837 C   0  0  0  0  0  0  0  0  0  0  0  0
    7.5964   49.7385   31.3076 O   0  0  0  0  0  0  0  0  0  0  0  0
    7.5932   48.3119   29.4936 O   0  0  0  0  0  0  0  0  0  0  0  0
    8.3496   50.7563   30.6520 C   0  0  0  0  0  0  0  0  0  0  0  0
    8.6090   51.9345   31.5659 C   0  0  0  0  0  0  0  0  0  0  0  0
    8.4761   51.7877   32.9625 C   0  0  0  0  0  0  0  0  0  0  0  0
    8.9817   53.2012   31.0401 C   0  0  0  0  0  0  0  0  0  0  0  0
    8.6667   52.8751   33.8159 C   0  0  0  0  0  0  0  0  0  0  0  0
    9.1522   54.2873   31.9184 C   0  0  0  0  0  0  0  0  0  0  0  0
    9.1870   53.4050   29.6297 N   0  0  0  0  0  0  0  0  0  0  0  0
    8.9958   54.1238   33.2947 C   0  0  0  0  0  0  0  0  0  0  0  0
    9.8196   52.4496   28.8684 O   0  0  0  0  0  0  0  0  0  0  0  0
    8.9461   54.5173   29.1163 O   0  0  0  0  0  0  0  0  0  0  0  0
    8.5372   39.1386   34.0125 O   0  0  0  0  0  0  0  0  0  0  0  0
   10.9804   40.0880   33.6837 O   0  0  0  0  0  0  0  0  0  0  0  0
   10.8025   40.0899   32.2839 C   0  0  0  0  0  0  0  0  0  0  0  0
   11.5888   38.9174   31.7007 C   0  0  0  0  0  0  0  0  0  0  0  0
   12.9219   38.9373   32.1692 O   0  0  0  0  0  0  0  0  0  0  0  0
   11.0028   37.5682   32.0980 C   0  0  0  0  0  0  0  0  0  0  0  0
   13.3496   37.5885   32.2601 C   0  0  0  0  0  0  0  0  0  0  0  0
    9.9343   37.1822   31.2756 O   0  0  0  0  0  0  0  0  0  0  0  0
   12.1891   36.6677   31.9049 C   0  0  0  0  0  0  0  0  0  0  0  0
   13.8025   37.2965   33.6186 N   0  0  0  0  0  0  0  0  0  0  0  0
   12.2991   36.2867   30.5567 O   0  0  0  0  0  0  0  0  0  0  0  0
   14.7929   36.4725   33.9858 C   0  0  0  0  0  0  0  0  0  0  0  0
   13.2749   37.7294   34.7935 C   0  0  0  0  0  0  0  0  0  0  0  0
   15.6240   35.7580   33.1858 N   0  0  0  0  0  0  0  0  0  0  0  0
   14.8727   36.4411   35.3327 C   0  0  0  0  0  0  0  0  0  0  0  0
   13.9208   37.2263   35.8803 N   0  0  0  0  0  0  0  0  0  0  0  0
   16.5871   34.9921   33.7801 C   0  0  0  0  0  0  0  0  0  0  0  0
   15.8576   35.6718   35.9441 C   0  0  0  0  0  0  0  0  0  0  0  0
   16.7024   34.9584   35.1438 N   0  0  0  0  0  0  0  0  0  0  0  0
   16.0099   35.6384   37.3562 N   0  0  0  0  0  0  0  0  0  0  0  0
    7.6770   44.0707   34.0504 H   0  0  0  0  0  0  0  0  0  0  0  0
    9.1827   45.3821   35.3535 H   0  0  0  0  0  0  0  0  0  0  0  0
   10.3191   45.4408   34.1000 H   0  0  0  0  0  0  0  0  0  0  0  0
    9.9711   44.0682   31.9739 H   0  0  0  0  0  0  0  0  0  0  0  0
    8.4817   43.0851   31.8668 H   0  0  0  0  0  0  0  0  0  0  0  0
    8.5551   46.1511   31.8743 H   0  0  0  0  0  0  0  0  0  0  0  0
    8.5385   45.1364   30.4023 H   0  0  0  0  0  0  0  0  0  0  0  0
    6.3019   45.0642   32.5333 H   0  0  0  0  0  0  0  0  0  0  0  0
    6.3297   44.1799   30.9678 H   0  0  0  0  0  0  0  0  0  0  0  0
    6.2464   46.2897   29.7217 H   0  0  0  0  0  0  0  0  0  0  0  0
    4.9235   46.2672   30.9265 H   0  0  0  0  0  0  0  0  0  0  0  0
    6.2825   47.7527   32.4210 H   0  0  0  0  0  0  0  0  0  0  0  0
    9.3228   50.3378   30.3168 H   0  0  0  0  0  0  0  0  0  0  0  0
    7.7700   51.0977   29.7669 H   0  0  0  0  0  0  0  0  0  0  0  0
    8.2214   50.8319   33.4019 H   0  0  0  0  0  0  0  0  0  0  0  0
    8.5557   52.7490   34.8852 H   0  0  0  0  0  0  0  0  0  0  0  0
    9.4284   55.2622   31.5367 H   0  0  0  0  0  0  0  0  0  0  0  0
    9.1399   54.9659   33.9593 H   0  0  0  0  0  0  0  0  0  0  0  0
   11.2258   41.0357   31.8830 H   0  0  0  0  0  0  0  0  0  0  0  0
    9.7476   40.0331   31.9256 H   0  0  0  0  0  0  0  0  0  0  0  0
   11.5974   39.0148   30.5904 H   0  0  0  0  0  0  0  0  0  0  0  0
   10.7023   37.5455   33.1719 H   0  0  0  0  0  0  0  0  0  0  0  0
   14.1957   37.4366   31.5528 H   0  0  0  0  0  0  0  0  0  0  0  0
    9.1340   37.6658   31.6069 H   0  0  0  0  0  0  0  0  0  0  0  0
   12.1381   35.7717   32.5697 H   0  0  0  0  0  0  0  0  0  0  0  0
   11.7707   35.4530   30.4496 H   0  0  0  0  0  0  0  0  0  0  0  0
   12.4314   38.3980   34.8694 H   0  0  0  0  0  0  0  0  0  0  0  0
   17.2665   34.4140   33.1691 H   0  0  0  0  0  0  0  0  0  0  0  0
   16.7633   35.0598   37.7895 H   0  0  0  0  0  0  0  0  0  0  0  0
   15.3757   36.1868   37.9789 H   0  0  0  0  0  0  0  0  0  0  0  0
  1  2  2  0
  1  3  1  0
  3  4  1  0
  4  5  1  0
  6  1  1  0
  7  6  1  0
  6  8  1  0
  8  9  1  0
  9 10  1  0
 10 11  1  0
 11 12  1  0
 12 13  1  0
 13 14  1  0
 13 15  2  0
 14 16  1  0
 16 17  1  0
 17 18  2  0
 19 17  1  0
 18 20  1  0
 21 19  2  0
 19 22  1  0
 20 23  2  0
 23 21  1  0
 22 24  1  0
 22 25  2  0
  4 26  2  0
  4 27  1  0
 28 27  1  0
 28 29  1  0
 29 30  1  0
 29 31  1  0
 30 32  1  0
 31 33  1  0
 31 34  1  0
 34 32  1  0
 32 35  1  0
 34 36  1  0
 37 35  1  0
 38 35  1  0
 39 37  2  0
 37 40  1  0
 41 38  2  0
 42 39  1  0
 40 43  2  0
 40 41  1  0
 44 42  2  0
 44 43  1  0
 43 45  1  0
  6 46  1  6
  7 47  1  0
  7 48  1  0
  8 49  1  0
  8 50  1  0
  9 51  1  0
  9 52  1  0
 10 53  1  0
 10 54  1  0
 11 55  1  0
 11 56  1  0
 12 57  1  0
 16 58  1  0
 16 59  1  0
 18 60  1  0
 20 61  1  0
 21 62  1  0
 23 63  1  0
 28 64  1  0
 28 65  1  0
 29 66  1  0
 31 67  1  0
 32 68  1  0
 33 69  1  0
 34 70  1  0
 36 71  1  0
 38 72  1  0
 42 73  1  0
 45 74  1  0
 45 75  1  0
M  CHG  3   5  -1  22   1  24  -1
M  END
>  <EmbedRMS>  (374) 
0.0742211118916

$$$$

     RDKit          3D

 75 78  0  0  0  0  0  0  0  0999 V2000
    9.4333   42.9365   34.3461 C   0  0  0  0  0  0  0  0  0  0  0  0
   10.4907   43.0330   35.0319 O   0  0  0  0  0  0  0  0  0  0  0  0
    8.8563   41.7104   34.0296 O   0  0  0  0  0  0  0  0  0  0  0  0
    9.4945   40.2142   34.4680 P   0  0  0  0  0  0  0  0  0  0  0  0
    9.7308   40.1726   36.1291 O   0  0  0  0  0  0  0  0  0  0  0  0
    8.7506   44.1348   33.7741 C   0  0  1  0  0  0  0  0  0  0  0  0
    9.2963   45.3820   34.3133 N   0  0  0  0  0  0  0  0  0  0  0  0
    8.8893   44.0527   32.2358 C   0  0  0  0  0  0  0  0  0  0  0  0
    8.2029   45.1823   31.4614 C   0  0  0  0  0  0  0  0  0  0  0  0
    6.6654   45.1046   31.4854 C   0  0  0  0  0  0  0  0  0  0  0  0
    6.0272   46.3228   30.8107 C   0  0  0  0  0  0  0  0  0  0  0  0
    6.5069   47.5640   31.4183 N   0  0  0  0  0  0  0  0  0  0  0  0
    7.2416   48.5404   30.6828 C   0  0  0  0  0  0  0  0  0  0  0  0
    7.5837   49.7469   31.3032 O   0  0  0  0  0  0  0  0  0  0  0  0
    7.5944   48.3106   29.4942 O   0  0  0  0  0  0  0  0  0  0  0  0
    8.3048   50.7866   30.6436 C   0  0  0  0  0  0  0  0  0  0  0  0
    7.4415   51.4450   29.5905 C   0  0  0  0  0  0  0  0  0  0  0  0
    6.1719   51.9145   29.9730 C   0  0  0  0  0  0  0  0  0  0  0  0
    7.8417   51.5630   28.2334 C   0  0  0  0  0  0  0  0  0  0  0  0
    5.2963   52.4520   29.0284 C   0  0  0  0  0  0  0  0  0  0  0  0
    6.9384   52.0876   27.2935 C   0  0  0  0  0  0  0  0  0  0  0  0
    9.1532   51.1810   27.7930 N   0  0  0  0  0  0  0  0  0  0  0  0
    5.6751   52.5293   27.6894 C   0  0  0  0  0  0  0  0  0  0  0  0
    9.3116   50.5760   26.5676 O   0  0  0  0  0  0  0  0  0  0  0  0
   10.1621   51.6189   28.3833 O   0  0  0  0  0  0  0  0  0  0  0  0
    8.5372   39.1386   34.0124 O   0  0  0  0  0  0  0  0  0  0  0  0
   10.9804   40.0880   33.6837 O   0  0  0  0  0  0  0  0  0  0  0  0
   10.8025   40.0899   32.2839 C   0  0  0  0  0  0  0  0  0  0  0  0
   11.5888   38.9174   31.7007 C   0  0  0  0  0  0  0  0  0  0  0  0
   12.9219   38.9373   32.1692 O   0  0  0  0  0  0  0  0  0  0  0  0
   11.0028   37.5682   32.0980 C   0  0  0  0  0  0  0  0  0  0  0  0
   13.3496   37.5885   32.2601 C   0  0  0  0  0  0  0  0  0  0  0  0
    9.9343   37.1822   31.2756 O   0  0  0  0  0  0  0  0  0  0  0  0
   12.1891   36.6677   31.9049 C   0  0  0  0  0  0  0  0  0  0  0  0
   13.8025   37.2965   33.6186 N   0  0  0  0  0  0  0  0  0  0  0  0
   12.2991   36.2867   30.5567 O   0  0  0  0  0  0  0  0  0  0  0  0
   14.7929   36.4725   33.9858 C   0  0  0  0  0  0  0  0  0  0  0  0
   13.2749   37.7294   34.7935 C   0  0  0  0  0  0  0  0  0  0  0  0
   15.6240   35.7580   33.1858 N   0  0  0  0  0  0  0  0  0  0  0  0
   14.8727   36.4411   35.3327 C   0  0  0  0  0  0  0  0  0  0  0  0
   13.9208   37.2263   35.8803 N   0  0  0  0  0  0  0  0  0  0  0  0
   16.5871   34.9921   33.7801 C   0  0  0  0  0  0  0  0  0  0  0  0
   15.8576   35.6718   35.9441 C   0  0  0  0  0  0  0  0  0  0  0  0
   16.7024   34.9584   35.1438 N   0  0  0  0  0  0  0  0  0  0  0  0
   16.0099   35.6384   37.3562 N   0  0  0  0  0  0  0  0  0  0  0  0
    7.6770   44.0706   34.0504 H   0  0  0  0  0  0  0  0  0  0  0  0
    9.1827   45.3820   35.3534 H   0  0  0  0  0  0  0  0  0  0  0  0
   10.3192   45.4406   34.0999 H   0  0  0  0  0  0  0  0  0  0  0  0
    9.9711   44.0681   31.9739 H   0  0  0  0  0  0  0  0  0  0  0  0
    8.4816   43.0851   31.8668 H   0  0  0  0  0  0  0  0  0  0  0  0
    8.5385   45.1362   30.4021 H   0  0  0  0  0  0  0  0  0  0  0  0
    8.5554   46.1510   31.8740 H   0  0  0  0  0  0  0  0  0  0  0  0
    6.3296   44.1801   30.9675 H   0  0  0  0  0  0  0  0  0  0  0  0
    6.3021   45.0641   32.5333 H   0  0  0  0  0  0  0  0  0  0  0  0
    4.9237   46.2678   30.9270 H   0  0  0  0  0  0  0  0  0  0  0  0
    6.2463   46.2901   29.7218 H   0  0  0  0  0  0  0  0  0  0  0  0
    6.2818   47.7537   32.4209 H   0  0  0  0  0  0  0  0  0  0  0  0
    9.2421   50.3606   30.2349 H   0  0  0  0  0  0  0  0  0  0  0  0
    8.5869   51.5520   31.3966 H   0  0  0  0  0  0  0  0  0  0  0  0
    5.8515   51.8450   31.0055 H   0  0  0  0  0  0  0  0  0  0  0  0
    4.3184   52.8009   29.3344 H   0  0  0  0  0  0  0  0  0  0  0  0
    7.2247   52.1781   26.2532 H   0  0  0  0  0  0  0  0  0  0  0  0
    4.9925   52.9416   26.9576 H   0  0  0  0  0  0  0  0  0  0  0  0
   11.2258   41.0357   31.8830 H   0  0  0  0  0  0  0  0  0  0  0  0
    9.7476   40.0332   31.9256 H   0  0  0  0  0  0  0  0  0  0  0  0
   11.5974   39.0148   30.5904 H   0  0  0  0  0  0  0  0  0  0  0  0
   10.7023   37.5455   33.1719 H   0  0  0  0  0  0  0  0  0  0  0  0
   14.1957   37.4366   31.5528 H   0  0  0  0  0  0  0  0  0  0  0  0
    9.1340   37.6658   31.6069 H   0  0  0  0  0  0  0  0  0  0  0  0
   12.1381   35.7717   32.5697 H   0  0  0  0  0  0  0  0  0  0  0  0
   11.7707   35.4530   30.4496 H   0  0  0  0  0  0  0  0  0  0  0  0
   12.4314   38.3980   34.8694 H   0  0  0  0  0  0  0  0  0  0  0  0
   17.2665   34.4140   33.1691 H   0  0  0  0  0  0  0  0  0  0  0  0
   16.7633   35.0598   37.7895 H   0  0  0  0  0  0  0  0  0  0  0  0
   15.3757   36.1867   37.9789 H   0  0  0  0  0  0  0  0  0  0  0  0
  1  2  2  0
  1  3  1  0
  3  4  1  0
  4  5  1  0
  6  1  1  0
  7  6  1  0
  6  8  1  0
  8  9  1  0
  9 10  1  0
 10 11  1  0
 11 12  1  0
 12 13  1  0
 13 14  1  0
 13 15  2  0
 14 16  1  0
 16 17  1  0
 17 18  2  0
 19 17  1  0
 18 20  1  0
 21 19  2  0
 19 22  1  0
 20 23  2  0
 23 21  1  0
 22 24  1  0
 22 25  2  0
  4 26  2  0
  4 27  1  0
 28 27  1  0
 28 29  1  0
 29 30  1  0
 29 31  1  0
 30 32  1  0
 31 33  1  0
 31 34  1  0
 34 32  1  0
 32 35  1  0
 34 36  1  0
 37 35  1  0
 38 35  1  0
 39 37  2  0
 37 40  1  0
 41 38  2  0
 42 39  1  0
 40 43  2  0
 40 41  1  0
 44 42  2  0
 44 43  1  0
 43 45  1  0
  6 46  1  6
  7 47  1  0
  7 48  1  0
  8 49  1  0
  8 50  1  0
  9 51  1  0
  9 52  1  0
 10 53  1  0
 10 54  1  0
 11 55  1  0
 11 56  1  0
 12 57  1  0
 16 58  1  0
 16 59  1  0
 18 60  1  0
 20 61  1  0
 21 62  1  0
 23 63  1  0
 28 64  1  0
 28 65  1  0
 29 66  1  0
 31 67  1  0
 32 68  1  0
 33 69  1  0
 34 70  1  0
 36 71  1  0
 38 72  1  0
 42 73  1  0
 45 74  1  0
 45 75  1  0
M  CHG  3   5  -1  22   1  24  -1
M  END
>  <EmbedRMS>  (375) 
0.0741667434066

$$$$

     RDKit          3D

 75 78  0  0  0  0  0  0  0  0999 V2000
    9.4330   42.9367   34.3463 C   0  0  0  0  0  0  0  0  0  0  0  0
   10.4905   43.0333   35.0319 O   0  0  0  0  0  0  0  0  0  0  0  0
    8.8562   41.7105   34.0296 O   0  0  0  0  0  0  0  0  0  0  0  0
    9.4944   40.2142   34.4680 P   0  0  0  0  0  0  0  0  0  0  0  0
    9.7309   40.1726   36.1291 O   0  0  0  0  0  0  0  0  0  0  0  0
    8.7502   44.1350   33.7741 C   0  0  1  0  0  0  0  0  0  0  0  0
    9.2957   45.3824   34.3132 N   0  0  0  0  0  0  0  0  0  0  0  0
    8.8891   44.0526   32.2359 C   0  0  0  0  0  0  0  0  0  0  0  0
    8.2031   45.1823   31.4613 C   0  0  0  0  0  0  0  0  0  0  0  0
    6.6656   45.1033   31.4819 C   0  0  0  0  0  0  0  0  0  0  0  0
    6.0281   46.3239   30.8102 C   0  0  0  0  0  0  0  0  0  0  0  0
    6.5100   47.5618   31.4225 N   0  0  0  0  0  0  0  0  0  0  0  0
    7.2429   48.5448   30.6813 C   0  0  0  0  0  0  0  0  0  0  0  0
    7.6083   49.7734   31.2492 O   0  0  0  0  0  0  0  0  0  0  0  0
    7.5905   48.3072   29.4952 O   0  0  0  0  0  0  0  0  0  0  0  0
    7.2753   50.1878   32.5741 C   0  0  0  0  0  0  0  0  0  0  0  0
    5.7923   50.4607   32.6986 C   0  0  0  0  0  0  0  0  0  0  0  0
    5.1722   51.2494   31.7124 C   0  0  0  0  0  0  0  0  0  0  0  0
    5.0046   49.9240   33.7499 C   0  0  0  0  0  0  0  0  0  0  0  0
    3.7930   51.4624   31.7334 C   0  0  0  0  0  0  0  0  0  0  0  0
    3.6143   50.1327   33.7431 C   0  0  0  0  0  0  0  0  0  0  0  0
    5.5949   49.1950   34.8369 N   0  0  0  0  0  0  0  0  0  0  0  0
    3.0140   50.8959   32.7408 C   0  0  0  0  0  0  0  0  0  0  0  0
    6.6716   49.7211   35.5128 O   0  0  0  0  0  0  0  0  0  0  0  0
    5.0054   48.2053   35.3180 O   0  0  0  0  0  0  0  0  0  0  0  0
    8.5371   39.1386   34.0125 O   0  0  0  0  0  0  0  0  0  0  0  0
   10.9802   40.0879   33.6835 O   0  0  0  0  0  0  0  0  0  0  0  0
   10.8020   40.0894   32.2837 C   0  0  0  0  0  0  0  0  0  0  0  0
   11.5900   38.9178   31.7006 C   0  0  0  0  0  0  0  0  0  0  0  0
   12.9224   38.9390   32.1711 O   0  0  0  0  0  0  0  0  0  0  0  0
   11.0052   37.5676   32.0966 C   0  0  0  0  0  0  0  0  0  0  0  0
   13.3518   37.5909   32.2610 C   0  0  0  0  0  0  0  0  0  0  0  0
    9.9381   37.1795   31.2732 O   0  0  0  0  0  0  0  0  0  0  0  0
   12.1912   36.6689   31.9042 C   0  0  0  0  0  0  0  0  0  0  0  0
   13.8027   37.2968   33.6192 N   0  0  0  0  0  0  0  0  0  0  0  0
   12.2877   36.2853   30.5567 O   0  0  0  0  0  0  0  0  0  0  0  0
   14.7928   36.4724   33.9861 C   0  0  0  0  0  0  0  0  0  0  0  0
   13.2751   37.7297   34.7941 C   0  0  0  0  0  0  0  0  0  0  0  0
   15.6239   35.7581   33.1859 N   0  0  0  0  0  0  0  0  0  0  0  0
   14.8726   36.4408   35.3329 C   0  0  0  0  0  0  0  0  0  0  0  0
   13.9209   37.2262   35.8807 N   0  0  0  0  0  0  0  0  0  0  0  0
   16.5870   34.9921   33.7801 C   0  0  0  0  0  0  0  0  0  0  0  0
   15.8576   35.6716   35.9442 C   0  0  0  0  0  0  0  0  0  0  0  0
   16.7024   34.9584   35.1438 N   0  0  0  0  0  0  0  0  0  0  0  0
   16.0101   35.6383   37.3563 N   0  0  0  0  0  0  0  0  0  0  0  0
    7.6765   44.0709   34.0501 H   0  0  0  0  0  0  0  0  0  0  0  0
   10.3187   45.4408   34.1008 H   0  0  0  0  0  0  0  0  0  0  0  0
    9.1809   45.3830   35.3533 H   0  0  0  0  0  0  0  0  0  0  0  0
    8.4814   43.0850   31.8669 H   0  0  0  0  0  0  0  0  0  0  0  0
    9.9710   44.0678   31.9742 H   0  0  0  0  0  0  0  0  0  0  0  0
    8.5543   46.1506   31.8759 H   0  0  0  0  0  0  0  0  0  0  0  0
    8.5409   45.1377   30.4027 H   0  0  0  0  0  0  0  0  0  0  0  0
    6.3314   44.1805   30.9600 H   0  0  0  0  0  0  0  0  0  0  0  0
    6.3002   45.0586   32.5289 H   0  0  0  0  0  0  0  0  0  0  0  0
    4.9248   46.2698   30.9289 H   0  0  0  0  0  0  0  0  0  0  0  0
    6.2448   46.2939   29.7210 H   0  0  0  0  0  0  0  0  0  0  0  0
    6.3027   47.7087   32.4337 H   0  0  0  0  0  0  0  0  0  0  0  0
    7.6420   49.4253   33.2895 H   0  0  0  0  0  0  0  0  0  0  0  0
    7.8196   51.1309   32.7895 H   0  0  0  0  0  0  0  0  0  0  0  0
    5.7574   51.6844   30.9114 H   0  0  0  0  0  0  0  0  0  0  0  0
    3.3266   52.0614   30.9620 H   0  0  0  0  0  0  0  0  0  0  0  0
    2.9969   49.7237   34.5331 H   0  0  0  0  0  0  0  0  0  0  0  0
    1.9439   51.0586   32.7524 H   0  0  0  0  0  0  0  0  0  0  0  0
    9.7471   40.0309   31.9256 H   0  0  0  0  0  0  0  0  0  0  0  0
   11.2239   41.0357   31.8826 H   0  0  0  0  0  0  0  0  0  0  0  0
   11.5999   39.0159   30.5904 H   0  0  0  0  0  0  0  0  0  0  0  0
   10.7034   37.5449   33.1702 H   0  0  0  0  0  0  0  0  0  0  0  0
   14.1992   37.4424   31.5548 H   0  0  0  0  0  0  0  0  0  0  0  0
    9.1370   37.6634   31.6024 H   0  0  0  0  0  0  0  0  0  0  0  0
   12.1204   35.7712   32.5636 H   0  0  0  0  0  0  0  0  0  0  0  0
   12.9457   35.5426   30.5220 H   0  0  0  0  0  0  0  0  0  0  0  0
   12.4322   38.3989   34.8700 H   0  0  0  0  0  0  0  0  0  0  0  0
   17.2664   34.4142   33.1690 H   0  0  0  0  0  0  0  0  0  0  0  0
   16.7636   35.0598   37.7895 H   0  0  0  0  0  0  0  0  0  0  0  0
   15.3759   36.1865   37.9790 H   0  0  0  0  0  0  0  0  0  0  0  0
  1  2  2  0
  1  3  1  0
  3  4  1  0
  4  5  1  0
  6  1  1  0
  7  6  1  0
  6  8  1  0
  8  9  1  0
  9 10  1  0
 10 11  1  0
 11 12  1  0
 12 13  1  0
 13 14  1  0
 13 15  2  0
 14 16  1  0
 16 17  1  0
 17 18  2  0
 19 17  1  0
 18 20  1  0
 21 19  2  0
 19 22  1  0
 20 23  2  0
 23 21  1  0
 22 24  1  0
 22 25  2  0
  4 26  2  0
  4 27  1  0
 28 27  1  0
 28 29  1  0
 29 30  1  0
 29 31  1  0
 30 32  1  0
 31 33  1  0
 31 34  1  0
 34 32  1  0
 32 35  1  0
 34 36  1  0
 37 35  1  0
 38 35  1  0
 39 37  2  0
 37 40  1  0
 41 38  2  0
 42 39  1  0
 40 43  2  0
 40 41  1  0
 44 42  2  0
 44 43  1  0
 43 45  1  0
  6 46  1  6
  7 47  1  0
  7 48  1  0
  8 49  1  0
  8 50  1  0
  9 51  1  0
  9 52  1  0
 10 53  1  0
 10 54  1  0
 11 55  1  0
 11 56  1  0
 12 57  1  0
 16 58  1  0
 16 59  1  0
 18 60  1  0
 20 61  1  0
 21 62  1  0
 23 63  1  0
 28 64  1  0
 28 65  1  0
 29 66  1  0
 31 67  1  0
 32 68  1  0
 33 69  1  0
 34 70  1  0
 36 71  1  0
 38 72  1  0
 42 73  1  0
 45 74  1  0
 45 75  1  0
M  CHG  3   5  -1  22   1  24  -1
M  END
>  <EmbedRMS>  (376) 
0.0739153253504

$$$$

     RDKit          3D

 75 78  0  0  0  0  0  0  0  0999 V2000
    9.4333   42.9365   34.3461 C   0  0  0  0  0  0  0  0  0  0  0  0
   10.4907   43.0330   35.0318 O   0  0  0  0  0  0  0  0  0  0  0  0
    8.8562   41.7104   34.0296 O   0  0  0  0  0  0  0  0  0  0  0  0
    9.4944   40.2141   34.4680 P   0  0  0  0  0  0  0  0  0  0  0  0
    9.7309   40.1726   36.1291 O   0  0  0  0  0  0  0  0  0  0  0  0
    8.7506   44.1348   33.7740 C   0  0  1  0  0  0  0  0  0  0  0  0
    9.2963   45.3820   34.3133 N   0  0  0  0  0  0  0  0  0  0  0  0
    8.8893   44.0527   32.2358 C   0  0  0  0  0  0  0  0  0  0  0  0
    8.2029   45.1823   31.4614 C   0  0  0  0  0  0  0  0  0  0  0  0
    6.6654   45.1046   31.4854 C   0  0  0  0  0  0  0  0  0  0  0  0
    6.0272   46.3228   30.8107 C   0  0  0  0  0  0  0  0  0  0  0  0
    6.5069   47.5640   31.4183 N   0  0  0  0  0  0  0  0  0  0  0  0
    7.2418   48.5403   30.6829 C   0  0  0  0  0  0  0  0  0  0  0  0
    7.5845   49.7465   31.3036 O   0  0  0  0  0  0  0  0  0  0  0  0
    7.5943   48.3107   29.4942 O   0  0  0  0  0  0  0  0  0  0  0  0
    8.3054   50.7863   30.6441 C   0  0  0  0  0  0  0  0  0  0  0  0
    7.4419   51.4458   29.5924 C   0  0  0  0  0  0  0  0  0  0  0  0
    6.1712   51.9134   29.9737 C   0  0  0  0  0  0  0  0  0  0  0  0
    7.8443   51.5659   28.2372 C   0  0  0  0  0  0  0  0  0  0  0  0
    5.2970   52.4524   29.0287 C   0  0  0  0  0  0  0  0  0  0  0  0
    6.9430   52.0939   27.2962 C   0  0  0  0  0  0  0  0  0  0  0  0
    9.1603   51.1888   27.8057 N   0  0  0  0  0  0  0  0  0  0  0  0
    5.6785   52.5336   27.6906 C   0  0  0  0  0  0  0  0  0  0  0  0
   10.2643   51.6826   28.4617 O   0  0  0  0  0  0  0  0  0  0  0  0
    9.3166   50.6217   26.7047 O   0  0  0  0  0  0  0  0  0  0  0  0
    8.5371   39.1386   34.0125 O   0  0  0  0  0  0  0  0  0  0  0  0
   10.9802   40.0879   33.6835 O   0  0  0  0  0  0  0  0  0  0  0  0
   10.8020   40.0894   32.2837 C   0  0  0  0  0  0  0  0  0  0  0  0
   11.5900   38.9178   31.7006 C   0  0  0  0  0  0  0  0  0  0  0  0
   12.9224   38.9390   32.1711 O   0  0  0  0  0  0  0  0  0  0  0  0
   11.0052   37.5676   32.0966 C   0  0  0  0  0  0  0  0  0  0  0  0
   13.3518   37.5909   32.2610 C   0  0  0  0  0  0  0  0  0  0  0  0
    9.9381   37.1795   31.2732 O   0  0  0  0  0  0  0  0  0  0  0  0
   12.1912   36.6689   31.9042 C   0  0  0  0  0  0  0  0  0  0  0  0
   13.8027   37.2968   33.6192 N   0  0  0  0  0  0  0  0  0  0  0  0
   12.2877   36.2853   30.5567 O   0  0  0  0  0  0  0  0  0  0  0  0
   14.7928   36.4724   33.9861 C   0  0  0  0  0  0  0  0  0  0  0  0
   13.2751   37.7297   34.7941 C   0  0  0  0  0  0  0  0  0  0  0  0
   15.6239   35.7581   33.1859 N   0  0  0  0  0  0  0  0  0  0  0  0
   14.8726   36.4408   35.3329 C   0  0  0  0  0  0  0  0  0  0  0  0
   13.9209   37.2262   35.8807 N   0  0  0  0  0  0  0  0  0  0  0  0
   16.5871   34.9921   33.7801 C   0  0  0  0  0  0  0  0  0  0  0  0
   15.8576   35.6716   35.9442 C   0  0  0  0  0  0  0  0  0  0  0  0
   16.7024   34.9584   35.1438 N   0  0  0  0  0  0  0  0  0  0  0  0
   16.0101   35.6383   37.3563 N   0  0  0  0  0  0  0  0  0  0  0  0
    7.6770   44.0706   34.0503 H   0  0  0  0  0  0  0  0  0  0  0  0
   10.3192   45.4406   34.0999 H   0  0  0  0  0  0  0  0  0  0  0  0
    9.1827   45.3820   35.3534 H   0  0  0  0  0  0  0  0  0  0  0  0
    9.9711   44.0681   31.9739 H   0  0  0  0  0  0  0  0  0  0  0  0
    8.4816   43.0851   31.8668 H   0  0  0  0  0  0  0  0  0  0  0  0
    8.5553   46.1510   31.8740 H   0  0  0  0  0  0  0  0  0  0  0  0
    8.5385   45.1362   30.4021 H   0  0  0  0  0  0  0  0  0  0  0  0
    6.3296   44.1801   30.9675 H   0  0  0  0  0  0  0  0  0  0  0  0
    6.3020   45.0641   32.5332 H   0  0  0  0  0  0  0  0  0  0  0  0
    6.2463   46.2902   29.7218 H   0  0  0  0  0  0  0  0  0  0  0  0
    4.9237   46.2678   30.9269 H   0  0  0  0  0  0  0  0  0  0  0  0
    6.2818   47.7536   32.4209 H   0  0  0  0  0  0  0  0  0  0  0  0
    8.5890   51.5509   31.3974 H   0  0  0  0  0  0  0  0  0  0  0  0
    9.2415   50.3602   30.2323 H   0  0  0  0  0  0  0  0  0  0  0  0
    5.8491   51.8413   31.0056 H   0  0  0  0  0  0  0  0  0  0  0  0
    4.3183   52.7998   29.3336 H   0  0  0  0  0  0  0  0  0  0  0  0
    7.2319   52.1880   26.2569 H   0  0  0  0  0  0  0  0  0  0  0  0
    4.9973   52.9479   26.9585 H   0  0  0  0  0  0  0  0  0  0  0  0
   11.2239   41.0357   31.8826 H   0  0  0  0  0  0  0  0  0  0  0  0
    9.7472   40.0309   31.9256 H   0  0  0  0  0  0  0  0  0  0  0  0
   11.5999   39.0159   30.5904 H   0  0  0  0  0  0  0  0  0  0  0  0
   10.7034   37.5449   33.1702 H   0  0  0  0  0  0  0  0  0  0  0  0
   14.1992   37.4424   31.5548 H   0  0  0  0  0  0  0  0  0  0  0  0
    9.1370   37.6633   31.6024 H   0  0  0  0  0  0  0  0  0  0  0  0
   12.1204   35.7712   32.5636 H   0  0  0  0  0  0  0  0  0  0  0  0
   12.9457   35.5426   30.5221 H   0  0  0  0  0  0  0  0  0  0  0  0
   12.4322   38.3989   34.8700 H   0  0  0  0  0  0  0  0  0  0  0  0
   17.2665   34.4142   33.1690 H   0  0  0  0  0  0  0  0  0  0  0  0
   16.7636   35.0598   37.7895 H   0  0  0  0  0  0  0  0  0  0  0  0
   15.3759   36.1865   37.9790 H   0  0  0  0  0  0  0  0  0  0  0  0
  1  2  2  0
  1  3  1  0
  3  4  1  0
  4  5  1  0
  6  1  1  0
  7  6  1  0
  6  8  1  0
  8  9  1  0
  9 10  1  0
 10 11  1  0
 11 12  1  0
 12 13  1  0
 13 14  1  0
 13 15  2  0
 14 16  1  0
 16 17  1  0
 17 18  2  0
 19 17  1  0
 18 20  1  0
 21 19  2  0
 19 22  1  0
 20 23  2  0
 23 21  1  0
 22 24  1  0
 22 25  2  0
  4 26  2  0
  4 27  1  0
 28 27  1  0
 28 29  1  0
 29 30  1  0
 29 31  1  0
 30 32  1  0
 31 33  1  0
 31 34  1  0
 34 32  1  0
 32 35  1  0
 34 36  1  0
 37 35  1  0
 38 35  1  0
 39 37  2  0
 37 40  1  0
 41 38  2  0
 42 39  1  0
 40 43  2  0
 40 41  1  0
 44 42  2  0
 44 43  1  0
 43 45  1  0
  6 46  1  6
  7 47  1  0
  7 48  1  0
  8 49  1  0
  8 50  1  0
  9 51  1  0
  9 52  1  0
 10 53  1  0
 10 54  1  0
 11 55  1  0
 11 56  1  0
 12 57  1  0
 16 58  1  0
 16 59  1  0
 18 60  1  0
 20 61  1  0
 21 62  1  0
 23 63  1  0
 28 64  1  0
 28 65  1  0
 29 66  1  0
 31 67  1  0
 32 68  1  0
 33 69  1  0
 34 70  1  0
 36 71  1  0
 38 72  1  0
 42 73  1  0
 45 74  1  0
 45 75  1  0
M  CHG  3   5  -1  22   1  24  -1
M  END
>  <EmbedRMS>  (377) 
0.0740414852641

$$$$

     RDKit          3D

 75 78  0  0  0  0  0  0  0  0999 V2000
    9.4333   42.9368   34.3460 C   0  0  0  0  0  0  0  0  0  0  0  0
   10.4907   43.0332   35.0318 O   0  0  0  0  0  0  0  0  0  0  0  0
    8.8563   41.7106   34.0294 O   0  0  0  0  0  0  0  0  0  0  0  0
    9.4943   40.2141   34.4678 P   0  0  0  0  0  0  0  0  0  0  0  0
    9.7310   40.1725   36.1289 O   0  0  0  0  0  0  0  0  0  0  0  0
    8.7507   44.1353   33.7741 C   0  0  1  0  0  0  0  0  0  0  0  0
    9.2963   45.3826   34.3133 N   0  0  0  0  0  0  0  0  0  0  0  0
    8.8892   44.0536   32.2358 C   0  0  0  0  0  0  0  0  0  0  0  0
    8.2024   45.1834   31.4619 C   0  0  0  0  0  0  0  0  0  0  0  0
    6.6649   45.1047   31.4850 C   0  0  0  0  0  0  0  0  0  0  0  0
    6.0256   46.3219   30.8088 C   0  0  0  0  0  0  0  0  0  0  0  0
    6.5025   47.5638   31.4167 N   0  0  0  0  0  0  0  0  0  0  0  0
    7.2539   48.5327   30.6884 C   0  0  0  0  0  0  0  0  0  0  0  0
    7.6519   49.7070   31.3316 O   0  0  0  0  0  0  0  0  0  0  0  0
    7.5890   48.3143   29.4926 O   0  0  0  0  0  0  0  0  0  0  0  0
    8.4646   50.6935   30.7036 C   0  0  0  0  0  0  0  0  0  0  0  0
    8.8336   51.7580   31.7064 C   0  0  0  0  0  0  0  0  0  0  0  0
    8.4715   53.0914   31.4384 C   0  0  0  0  0  0  0  0  0  0  0  0
    9.4968   51.4511   32.9276 C   0  0  0  0  0  0  0  0  0  0  0  0
    8.7462   54.1035   32.3586 C   0  0  0  0  0  0  0  0  0  0  0  0
    9.7488   52.4857   33.8465 C   0  0  0  0  0  0  0  0  0  0  0  0
    9.8982   50.1102   33.2675 N   0  0  0  0  0  0  0  0  0  0  0  0
    9.3800   53.8008   33.5615 C   0  0  0  0  0  0  0  0  0  0  0  0
    9.9596   49.7260   34.5874 O   0  0  0  0  0  0  0  0  0  0  0  0
   10.3441   49.3345   32.3978 O   0  0  0  0  0  0  0  0  0  0  0  0
    8.5371   39.1384   34.0121 O   0  0  0  0  0  0  0  0  0  0  0  0
   10.9798   40.0871   33.6829 O   0  0  0  0  0  0  0  0  0  0  0  0
   10.8002   40.0905   32.2832 C   0  0  0  0  0  0  0  0  0  0  0  0
   11.5958   38.9271   31.6963 C   0  0  0  0  0  0  0  0  0  0  0  0
   12.9239   38.9409   32.1766 O   0  0  0  0  0  0  0  0  0  0  0  0
   11.0062   37.5719   32.0793 C   0  0  0  0  0  0  0  0  0  0  0  0
   13.3507   37.5905   32.2614 C   0  0  0  0  0  0  0  0  0  0  0  0
    9.9064   37.1792   31.2946 O   0  0  0  0  0  0  0  0  0  0  0  0
   12.1920   36.6671   31.9003 C   0  0  0  0  0  0  0  0  0  0  0  0
   13.8017   37.2948   33.6193 N   0  0  0  0  0  0  0  0  0  0  0  0
   12.3134   36.2787   30.5560 O   0  0  0  0  0  0  0  0  0  0  0  0
   14.7927   36.4716   33.9861 C   0  0  0  0  0  0  0  0  0  0  0  0
   13.2746   37.7284   34.7941 C   0  0  0  0  0  0  0  0  0  0  0  0
   15.6240   35.7576   33.1859 N   0  0  0  0  0  0  0  0  0  0  0  0
   14.8728   36.4406   35.3330 C   0  0  0  0  0  0  0  0  0  0  0  0
   13.9209   37.2258   35.8808 N   0  0  0  0  0  0  0  0  0  0  0  0
   16.5874   34.9920   33.7802 C   0  0  0  0  0  0  0  0  0  0  0  0
   15.8579   35.6716   35.9443 C   0  0  0  0  0  0  0  0  0  0  0  0
   16.7028   34.9584   35.1439 N   0  0  0  0  0  0  0  0  0  0  0  0
   16.0103   35.6383   37.3563 N   0  0  0  0  0  0  0  0  0  0  0  0
    7.6771   44.0712   34.0503 H   0  0  0  0  0  0  0  0  0  0  0  0
   10.3190   45.4420   34.0991 H   0  0  0  0  0  0  0  0  0  0  0  0
    9.1835   45.3825   35.3535 H   0  0  0  0  0  0  0  0  0  0  0  0
    8.4817   43.0859   31.8665 H   0  0  0  0  0  0  0  0  0  0  0  0
    9.9710   44.0693   31.9738 H   0  0  0  0  0  0  0  0  0  0  0  0
    8.5539   46.1521   31.8756 H   0  0  0  0  0  0  0  0  0  0  0  0
    8.5387   45.1385   30.4028 H   0  0  0  0  0  0  0  0  0  0  0  0
    6.3011   45.0646   32.5326 H   0  0  0  0  0  0  0  0  0  0  0  0
    6.3302   44.1796   30.9675 H   0  0  0  0  0  0  0  0  0  0  0  0
    6.2467   46.2893   29.7203 H   0  0  0  0  0  0  0  0  0  0  0  0
    4.9221   46.2653   30.9233 H   0  0  0  0  0  0  0  0  0  0  0  0
    6.2820   47.7497   32.4209 H   0  0  0  0  0  0  0  0  0  0  0  0
    7.9057   51.1250   29.8444 H   0  0  0  0  0  0  0  0  0  0  0  0
    9.3887   50.2319   30.2958 H   0  0  0  0  0  0  0  0  0  0  0  0
    7.9662   53.3511   30.5163 H   0  0  0  0  0  0  0  0  0  0  0  0
    8.4608   55.1246   32.1405 H   0  0  0  0  0  0  0  0  0  0  0  0
   10.2481   52.2758   34.7839 H   0  0  0  0  0  0  0  0  0  0  0  0
    9.5880   54.5875   34.2753 H   0  0  0  0  0  0  0  0  0  0  0  0
    9.7455   40.0168   31.9263 H   0  0  0  0  0  0  0  0  0  0  0  0
   11.2116   41.0420   31.8834 H   0  0  0  0  0  0  0  0  0  0  0  0
   11.6245   39.0449   30.5888 H   0  0  0  0  0  0  0  0  0  0  0  0
   10.7051   37.5580   33.1500 H   0  0  0  0  0  0  0  0  0  0  0  0
   14.1985   37.4426   31.5553 H   0  0  0  0  0  0  0  0  0  0  0  0
   10.0893   37.4057   30.3459 H   0  0  0  0  0  0  0  0  0  0  0  0
   12.1337   35.7754   32.5703 H   0  0  0  0  0  0  0  0  0  0  0  0
   11.7934   35.4394   30.4513 H   0  0  0  0  0  0  0  0  0  0  0  0
   12.4314   38.3973   34.8700 H   0  0  0  0  0  0  0  0  0  0  0  0
   17.2669   34.4142   33.1691 H   0  0  0  0  0  0  0  0  0  0  0  0
   16.7638   35.0599   37.7896 H   0  0  0  0  0  0  0  0  0  0  0  0
   15.3759   36.1865   37.9790 H   0  0  0  0  0  0  0  0  0  0  0  0
  1  2  2  0
  1  3  1  0
  3  4  1  0
  4  5  1  0
  6  1  1  0
  7  6  1  0
  6  8  1  0
  8  9  1  0
  9 10  1  0
 10 11  1  0
 11 12  1  0
 12 13  1  0
 13 14  1  0
 13 15  2  0
 14 16  1  0
 16 17  1  0
 17 18  2  0
 19 17  1  0
 18 20  1  0
 21 19  2  0
 19 22  1  0
 20 23  2  0
 23 21  1  0
 22 24  1  0
 22 25  2  0
  4 26  2  0
  4 27  1  0
 28 27  1  0
 28 29  1  0
 29 30  1  0
 29 31  1  0
 30 32  1  0
 31 33  1  0
 31 34  1  0
 34 32  1  0
 32 35  1  0
 34 36  1  0
 37 35  1  0
 38 35  1  0
 39 37  2  0
 37 40  1  0
 41 38  2  0
 42 39  1  0
 40 43  2  0
 40 41  1  0
 44 42  2  0
 44 43  1  0
 43 45  1  0
  6 46  1  6
  7 47  1  0
  7 48  1  0
  8 49  1  0
  8 50  1  0
  9 51  1  0
  9 52  1  0
 10 53  1  0
 10 54  1  0
 11 55  1  0
 11 56  1  0
 12 57  1  0
 16 58  1  0
 16 59  1  0
 18 60  1  0
 20 61  1  0
 21 62  1  0
 23 63  1  0
 28 64  1  0
 28 65  1  0
 29 66  1  0
 31 67  1  0
 32 68  1  0
 33 69  1  0
 34 70  1  0
 36 71  1  0
 38 72  1  0
 42 73  1  0
 45 74  1  0
 45 75  1  0
M  CHG  3   5  -1  22   1  24  -1
M  END
>  <EmbedRMS>  (378) 
0.0750485281803

$$$$

     RDKit          3D

 75 78  0  0  0  0  0  0  0  0999 V2000
    9.4330   42.9366   34.3463 C   0  0  0  0  0  0  0  0  0  0  0  0
   10.4906   43.0332   35.0318 O   0  0  0  0  0  0  0  0  0  0  0  0
    8.8558   41.7104   34.0304 O   0  0  0  0  0  0  0  0  0  0  0  0
    9.4930   40.2141   34.4703 P   0  0  0  0  0  0  0  0  0  0  0  0
    9.7293   40.1727   36.1313 O   0  0  0  0  0  0  0  0  0  0  0  0
    8.7505   44.1348   33.7738 C   0  0  1  0  0  0  0  0  0  0  0  0
    9.2961   45.3821   34.3129 N   0  0  0  0  0  0  0  0  0  0  0  0
    8.8893   44.0523   32.2354 C   0  0  0  0  0  0  0  0  0  0  0  0
    8.2035   45.1819   31.4603 C   0  0  0  0  0  0  0  0  0  0  0  0
    6.6659   45.1026   31.4803 C   0  0  0  0  0  0  0  0  0  0  0  0
    6.0263   46.3256   30.8140 C   0  0  0  0  0  0  0  0  0  0  0  0
    6.5138   47.5626   31.4243 N   0  0  0  0  0  0  0  0  0  0  0  0
    7.2286   48.5514   30.6754 C   0  0  0  0  0  0  0  0  0  0  0  0
    7.5510   49.8010   31.2218 O   0  0  0  0  0  0  0  0  0  0  0  0
    7.6015   48.2999   29.4998 O   0  0  0  0  0  0  0  0  0  0  0  0
    7.0064   50.3423   32.4255 C   0  0  0  0  0  0  0  0  0  0  0  0
    5.5461   50.6964   32.2494 C   0  0  0  0  0  0  0  0  0  0  0  0
    4.5832   49.9325   32.9364 C   0  0  0  0  0  0  0  0  0  0  0  0
    5.1175   51.8056   31.4645 C   0  0  0  0  0  0  0  0  0  0  0  0
    3.2249   50.2293   32.8290 C   0  0  0  0  0  0  0  0  0  0  0  0
    3.7420   52.0911   31.3819 C   0  0  0  0  0  0  0  0  0  0  0  0
    6.0426   52.6823   30.7912 N   0  0  0  0  0  0  0  0  0  0  0  0
    2.8048   51.3040   32.0506 C   0  0  0  0  0  0  0  0  0  0  0  0
    5.7001   53.9957   30.5645 O   0  0  0  0  0  0  0  0  0  0  0  0
    7.0935   52.2452   30.2814 O   0  0  0  0  0  0  0  0  0  0  0  0
    8.5366   39.1382   34.0136 O   0  0  0  0  0  0  0  0  0  0  0  0
   10.9788   40.0867   33.6873 O   0  0  0  0  0  0  0  0  0  0  0  0
   10.7993   40.0944   32.2886 C   0  0  0  0  0  0  0  0  0  0  0  0
   11.5957   38.9351   31.6994 C   0  0  0  0  0  0  0  0  0  0  0  0
   12.9257   38.9478   32.1798 O   0  0  0  0  0  0  0  0  0  0  0  0
   11.0070   37.5757   32.0732 C   0  0  0  0  0  0  0  0  0  0  0  0
   13.3571   37.5979   32.2612 C   0  0  0  0  0  0  0  0  0  0  0  0
    9.9093   37.1807   31.2875 O   0  0  0  0  0  0  0  0  0  0  0  0
   12.1967   36.6763   31.8894 C   0  0  0  0  0  0  0  0  0  0  0  0
   13.8018   37.2956   33.6197 N   0  0  0  0  0  0  0  0  0  0  0  0
   12.3049   36.2360   30.5555 O   0  0  0  0  0  0  0  0  0  0  0  0
   14.7922   36.4716   33.9864 C   0  0  0  0  0  0  0  0  0  0  0  0
   13.2747   37.7291   34.7944 C   0  0  0  0  0  0  0  0  0  0  0  0
   15.6240   35.7581   33.1861 N   0  0  0  0  0  0  0  0  0  0  0  0
   14.8721   36.4402   35.3331 C   0  0  0  0  0  0  0  0  0  0  0  0
   13.9206   37.2257   35.8810 N   0  0  0  0  0  0  0  0  0  0  0  0
   16.5873   34.9924   33.7802 C   0  0  0  0  0  0  0  0  0  0  0  0
   15.8576   35.6714   35.9444 C   0  0  0  0  0  0  0  0  0  0  0  0
   16.7026   34.9585   35.1439 N   0  0  0  0  0  0  0  0  0  0  0  0
   16.0102   35.6383   37.3564 N   0  0  0  0  0  0  0  0  0  0  0  0
    7.6768   44.0708   34.0499 H   0  0  0  0  0  0  0  0  0  0  0  0
   10.3190   45.4407   34.0998 H   0  0  0  0  0  0  0  0  0  0  0  0
    9.1821   45.3824   35.3530 H   0  0  0  0  0  0  0  0  0  0  0  0
    9.9712   44.0673   31.9738 H   0  0  0  0  0  0  0  0  0  0  0  0
    8.4815   43.0847   31.8666 H   0  0  0  0  0  0  0  0  0  0  0  0
    8.5414   45.1373   30.4018 H   0  0  0  0  0  0  0  0  0  0  0  0
    8.5549   46.1502   31.8747 H   0  0  0  0  0  0  0  0  0  0  0  0
    6.3007   45.0532   32.5271 H   0  0  0  0  0  0  0  0  0  0  0  0
    6.3321   44.1816   30.9550 H   0  0  0  0  0  0  0  0  0  0  0  0
    6.2342   46.2972   29.7230 H   0  0  0  0  0  0  0  0  0  0  0  0
    4.9240   46.2729   30.9416 H   0  0  0  0  0  0  0  0  0  0  0  0
    6.3525   47.6917   32.4454 H   0  0  0  0  0  0  0  0  0  0  0  0
    7.5694   51.2603   32.6950 H   0  0  0  0  0  0  0  0  0  0  0  0
    7.1668   49.6330   33.2652 H   0  0  0  0  0  0  0  0  0  0  0  0
    4.8809   49.1075   33.5702 H   0  0  0  0  0  0  0  0  0  0  0  0
    2.4966   49.6285   33.3585 H   0  0  0  0  0  0  0  0  0  0  0  0
    3.3905   52.9263   30.7895 H   0  0  0  0  0  0  0  0  0  0  0  0
    1.7501   51.5346   31.9722 H   0  0  0  0  0  0  0  0  0  0  0  0
    9.7448   40.0201   31.9304 H   0  0  0  0  0  0  0  0  0  0  0  0
   11.2094   41.0479   31.8921 H   0  0  0  0  0  0  0  0  0  0  0  0
   11.6206   39.0685   30.5942 H   0  0  0  0  0  0  0  0  0  0  0  0
   10.7059   37.5563   33.1438 H   0  0  0  0  0  0  0  0  0  0  0  0
   14.2095   37.4543   31.5601 H   0  0  0  0  0  0  0  0  0  0  0  0
   10.0864   37.4209   30.3413 H   0  0  0  0  0  0  0  0  0  0  0  0
   12.1276   35.7872   32.5549 H   0  0  0  0  0  0  0  0  0  0  0  0
   12.5031   37.0109   29.9673 H   0  0  0  0  0  0  0  0  0  0  0  0
   12.4328   38.3996   34.8703 H   0  0  0  0  0  0  0  0  0  0  0  0
   17.2670   34.4149   33.1691 H   0  0  0  0  0  0  0  0  0  0  0  0
   15.3758   36.1863   37.9791 H   0  0  0  0  0  0  0  0  0  0  0  0
   16.7640   35.0601   37.7896 H   0  0  0  0  0  0  0  0  0  0  0  0
  1  2  2  0
  1  3  1  0
  3  4  1  0
  4  5  1  0
  6  1  1  0
  7  6  1  0
  6  8  1  0
  8  9  1  0
  9 10  1  0
 10 11  1  0
 11 12  1  0
 12 13  1  0
 13 14  1  0
 13 15  2  0
 14 16  1  0
 16 17  1  0
 17 18  2  0
 19 17  1  0
 18 20  1  0
 21 19  2  0
 19 22  1  0
 20 23  2  0
 23 21  1  0
 22 24  1  0
 22 25  2  0
  4 26  2  0
  4 27  1  0
 28 27  1  0
 28 29  1  0
 29 30  1  0
 29 31  1  0
 30 32  1  0
 31 33  1  0
 31 34  1  0
 34 32  1  0
 32 35  1  0
 34 36  1  0
 37 35  1  0
 38 35  1  0
 39 37  2  0
 37 40  1  0
 41 38  2  0
 42 39  1  0
 40 43  2  0
 40 41  1  0
 44 42  2  0
 44 43  1  0
 43 45  1  0
  6 46  1  6
  7 47  1  0
  7 48  1  0
  8 49  1  0
  8 50  1  0
  9 51  1  0
  9 52  1  0
 10 53  1  0
 10 54  1  0
 11 55  1  0
 11 56  1  0
 12 57  1  0
 16 58  1  0
 16 59  1  0
 18 60  1  0
 20 61  1  0
 21 62  1  0
 23 63  1  0
 28 64  1  0
 28 65  1  0
 29 66  1  0
 31 67  1  0
 32 68  1  0
 33 69  1  0
 34 70  1  0
 36 71  1  0
 38 72  1  0
 42 73  1  0
 45 74  1  0
 45 75  1  0
M  CHG  3   5  -1  22   1  24  -1
M  END
>  <EmbedRMS>  (379) 
0.0757747064189

$$$$

     RDKit          3D

 75 78  0  0  0  0  0  0  0  0999 V2000
    9.4332   42.9365   34.3463 C   0  0  0  0  0  0  0  0  0  0  0  0
   10.4908   43.0330   35.0319 O   0  0  0  0  0  0  0  0  0  0  0  0
    8.8559   41.7103   34.0304 O   0  0  0  0  0  0  0  0  0  0  0  0
    9.4931   40.2140   34.4703 P   0  0  0  0  0  0  0  0  0  0  0  0
    9.7293   40.1727   36.1313 O   0  0  0  0  0  0  0  0  0  0  0  0
    8.7506   44.1348   33.7741 C   0  0  1  0  0  0  0  0  0  0  0  0
    9.2963   45.3820   34.3133 N   0  0  0  0  0  0  0  0  0  0  0  0
    8.8893   44.0526   32.2358 C   0  0  0  0  0  0  0  0  0  0  0  0
    8.2029   45.1822   31.4614 C   0  0  0  0  0  0  0  0  0  0  0  0
    6.6654   45.1046   31.4854 C   0  0  0  0  0  0  0  0  0  0  0  0
    6.0272   46.3228   30.8107 C   0  0  0  0  0  0  0  0  0  0  0  0
    6.5069   47.5640   31.4183 N   0  0  0  0  0  0  0  0  0  0  0  0
    7.2417   48.5403   30.6829 C   0  0  0  0  0  0  0  0  0  0  0  0
    7.5840   49.7467   31.3034 O   0  0  0  0  0  0  0  0  0  0  0  0
    7.5944   48.3106   29.4942 O   0  0  0  0  0  0  0  0  0  0  0  0
    8.3048   50.7865   30.6438 C   0  0  0  0  0  0  0  0  0  0  0  0
    7.4408   51.4456   29.5917 C   0  0  0  0  0  0  0  0  0  0  0  0
    6.1719   51.9159   29.9757 C   0  0  0  0  0  0  0  0  0  0  0  0
    7.8394   51.5635   28.2341 C   0  0  0  0  0  0  0  0  0  0  0  0
    5.2955   52.4540   29.0322 C   0  0  0  0  0  0  0  0  0  0  0  0
    6.9354   52.0886   27.2953 C   0  0  0  0  0  0  0  0  0  0  0  0
    9.1501   51.1806   27.7921 N   0  0  0  0  0  0  0  0  0  0  0  0
    5.6728   52.5311   27.6927 C   0  0  0  0  0  0  0  0  0  0  0  0
    9.3066   50.5753   26.5666 O   0  0  0  0  0  0  0  0  0  0  0  0
   10.1600   51.6180   28.3811 O   0  0  0  0  0  0  0  0  0  0  0  0
    8.5366   39.1382   34.0136 O   0  0  0  0  0  0  0  0  0  0  0  0
   10.9788   40.0866   33.6873 O   0  0  0  0  0  0  0  0  0  0  0  0
   10.7993   40.0944   32.2886 C   0  0  0  0  0  0  0  0  0  0  0  0
   11.5957   38.9351   31.6994 C   0  0  0  0  0  0  0  0  0  0  0  0
   12.9257   38.9477   32.1798 O   0  0  0  0  0  0  0  0  0  0  0  0
   11.0070   37.5757   32.0732 C   0  0  0  0  0  0  0  0  0  0  0  0
   13.3571   37.5979   32.2612 C   0  0  0  0  0  0  0  0  0  0  0  0
    9.9093   37.1807   31.2875 O   0  0  0  0  0  0  0  0  0  0  0  0
   12.1968   36.6763   31.8894 C   0  0  0  0  0  0  0  0  0  0  0  0
   13.8018   37.2956   33.6197 N   0  0  0  0  0  0  0  0  0  0  0  0
   12.3049   36.2360   30.5554 O   0  0  0  0  0  0  0  0  0  0  0  0
   14.7922   36.4716   33.9864 C   0  0  0  0  0  0  0  0  0  0  0  0
   13.2747   37.7291   34.7944 C   0  0  0  0  0  0  0  0  0  0  0  0
   15.6240   35.7581   33.1861 N   0  0  0  0  0  0  0  0  0  0  0  0
   14.8721   36.4401   35.3331 C   0  0  0  0  0  0  0  0  0  0  0  0
   13.9206   37.2257   35.8810 N   0  0  0  0  0  0  0  0  0  0  0  0
   16.5873   34.9924   33.7802 C   0  0  0  0  0  0  0  0  0  0  0  0
   15.8576   35.6714   35.9444 C   0  0  0  0  0  0  0  0  0  0  0  0
   16.7026   34.9585   35.1439 N   0  0  0  0  0  0  0  0  0  0  0  0
   16.0102   35.6383   37.3564 N   0  0  0  0  0  0  0  0  0  0  0  0
    7.6770   44.0707   34.0503 H   0  0  0  0  0  0  0  0  0  0  0  0
    9.1827   45.3820   35.3534 H   0  0  0  0  0  0  0  0  0  0  0  0
   10.3192   45.4406   34.0999 H   0  0  0  0  0  0  0  0  0  0  0  0
    8.4817   43.0850   31.8669 H   0  0  0  0  0  0  0  0  0  0  0  0
    9.9712   44.0680   31.9740 H   0  0  0  0  0  0  0  0  0  0  0  0
    8.5554   46.1509   31.8740 H   0  0  0  0  0  0  0  0  0  0  0  0
    8.5385   45.1361   30.4021 H   0  0  0  0  0  0  0  0  0  0  0  0
    6.3021   45.0641   32.5333 H   0  0  0  0  0  0  0  0  0  0  0  0
    6.3296   44.1801   30.9675 H   0  0  0  0  0  0  0  0  0  0  0  0
    6.2464   46.2901   29.7218 H   0  0  0  0  0  0  0  0  0  0  0  0
    4.9238   46.2678   30.9269 H   0  0  0  0  0  0  0  0  0  0  0  0
    6.2819   47.7536   32.4209 H   0  0  0  0  0  0  0  0  0  0  0  0
    8.5876   51.5515   31.3970 H   0  0  0  0  0  0  0  0  0  0  0  0
    9.2418   50.3607   30.2341 H   0  0  0  0  0  0  0  0  0  0  0  0
    5.8526   51.8464   31.0086 H   0  0  0  0  0  0  0  0  0  0  0  0
    4.3182   52.8034   29.3393 H   0  0  0  0  0  0  0  0  0  0  0  0
    7.2205   52.1791   26.2547 H   0  0  0  0  0  0  0  0  0  0  0  0
    4.9896   52.9440   26.9617 H   0  0  0  0  0  0  0  0  0  0  0  0
    9.7448   40.0200   31.9304 H   0  0  0  0  0  0  0  0  0  0  0  0
   11.2094   41.0479   31.8921 H   0  0  0  0  0  0  0  0  0  0  0  0
   11.6206   39.0685   30.5942 H   0  0  0  0  0  0  0  0  0  0  0  0
   10.7059   37.5562   33.1438 H   0  0  0  0  0  0  0  0  0  0  0  0
   14.2095   37.4543   31.5601 H   0  0  0  0  0  0  0  0  0  0  0  0
   10.0864   37.4209   30.3413 H   0  0  0  0  0  0  0  0  0  0  0  0
   12.1276   35.7872   32.5549 H   0  0  0  0  0  0  0  0  0  0  0  0
   12.5032   37.0109   29.9672 H   0  0  0  0  0  0  0  0  0  0  0  0
   12.4328   38.3996   34.8703 H   0  0  0  0  0  0  0  0  0  0  0  0
   17.2670   34.4149   33.1691 H   0  0  0  0  0  0  0  0  0  0  0  0
   15.3758   36.1862   37.9791 H   0  0  0  0  0  0  0  0  0  0  0  0
   16.7640   35.0601   37.7896 H   0  0  0  0  0  0  0  0  0  0  0  0
  1  2  2  0
  1  3  1  0
  3  4  1  0
  4  5  1  0
  6  1  1  0
  7  6  1  0
  6  8  1  0
  8  9  1  0
  9 10  1  0
 10 11  1  0
 11 12  1  0
 12 13  1  0
 13 14  1  0
 13 15  2  0
 14 16  1  0
 16 17  1  0
 17 18  2  0
 19 17  1  0
 18 20  1  0
 21 19  2  0
 19 22  1  0
 20 23  2  0
 23 21  1  0
 22 24  1  0
 22 25  2  0
  4 26  2  0
  4 27  1  0
 28 27  1  0
 28 29  1  0
 29 30  1  0
 29 31  1  0
 30 32  1  0
 31 33  1  0
 31 34  1  0
 34 32  1  0
 32 35  1  0
 34 36  1  0
 37 35  1  0
 38 35  1  0
 39 37  2  0
 37 40  1  0
 41 38  2  0
 42 39  1  0
 40 43  2  0
 40 41  1  0
 44 42  2  0
 44 43  1  0
 43 45  1  0
  6 46  1  6
  7 47  1  0
  7 48  1  0
  8 49  1  0
  8 50  1  0
  9 51  1  0
  9 52  1  0
 10 53  1  0
 10 54  1  0
 11 55  1  0
 11 56  1  0
 12 57  1  0
 16 58  1  0
 16 59  1  0
 18 60  1  0
 20 61  1  0
 21 62  1  0
 23 63  1  0
 28 64  1  0
 28 65  1  0
 29 66  1  0
 31 67  1  0
 32 68  1  0
 33 69  1  0
 34 70  1  0
 36 71  1  0
 38 72  1  0
 42 73  1  0
 45 74  1  0
 45 75  1  0
M  CHG  3   5  -1  22   1  24  -1
M  END
>  <EmbedRMS>  (380) 
0.0761302871682

$$$$

     RDKit          3D

 75 78  0  0  0  0  0  0  0  0999 V2000
    9.4314   42.9417   34.3436 C   0  0  0  0  0  0  0  0  0  0  0  0
   10.4887   43.0414   35.0293 O   0  0  0  0  0  0  0  0  0  0  0  0
    8.8559   41.7134   34.0294 O   0  0  0  0  0  0  0  0  0  0  0  0
    9.4932   40.2166   34.4701 P   0  0  0  0  0  0  0  0  0  0  0  0
    9.7295   40.1745   36.1311 O   0  0  0  0  0  0  0  0  0  0  0  0
    8.7489   44.1369   33.7717 C   0  0  1  0  0  0  0  0  0  0  0  0
    9.3052   45.3677   34.3375 N   0  0  0  0  0  0  0  0  0  0  0  0
    8.8890   44.0527   32.2303 C   0  0  0  0  0  0  0  0  0  0  0  0
    8.2004   45.1729   31.4436 C   0  0  0  0  0  0  0  0  0  0  0  0
    6.6632   45.1070   31.4883 C   0  0  0  0  0  0  0  0  0  0  0  0
    6.0243   46.3228   30.8097 C   0  0  0  0  0  0  0  0  0  0  0  0
    6.5002   47.5655   31.4168 N   0  0  0  0  0  0  0  0  0  0  0  0
    7.2533   48.5332   30.6890 C   0  0  0  0  0  0  0  0  0  0  0  0
    7.6528   49.7103   31.3335 O   0  0  0  0  0  0  0  0  0  0  0  0
    7.5937   48.3102   29.4955 O   0  0  0  0  0  0  0  0  0  0  0  0
    8.5432   50.6617   30.7485 C   0  0  0  0  0  0  0  0  0  0  0  0
   10.0063   50.2896   30.9239 C   0  0  0  0  0  0  0  0  0  0  0  0
   10.3689   49.0937   31.5827 C   0  0  0  0  0  0  0  0  0  0  0  0
   11.0389   51.1683   30.4878 C   0  0  0  0  0  0  0  0  0  0  0  0
   11.7090   48.7647   31.7860 C   0  0  0  0  0  0  0  0  0  0  0  0
   12.3821   50.8210   30.7186 C   0  0  0  0  0  0  0  0  0  0  0  0
   10.7556   52.4274   29.8488 N   0  0  0  0  0  0  0  0  0  0  0  0
   12.7133   49.6256   31.3544 C   0  0  0  0  0  0  0  0  0  0  0  0
   11.6123   53.4904   30.0213 O   0  0  0  0  0  0  0  0  0  0  0  0
    9.8440   52.5264   29.0029 O   0  0  0  0  0  0  0  0  0  0  0  0
    8.5367   39.1403   34.0138 O   0  0  0  0  0  0  0  0  0  0  0  0
   10.9789   40.0875   33.6872 O   0  0  0  0  0  0  0  0  0  0  0  0
   10.7993   40.0947   32.2884 C   0  0  0  0  0  0  0  0  0  0  0  0
   11.5957   38.9352   31.6994 C   0  0  0  0  0  0  0  0  0  0  0  0
   12.9257   38.9478   32.1799 O   0  0  0  0  0  0  0  0  0  0  0  0
   11.0070   37.5758   32.0732 C   0  0  0  0  0  0  0  0  0  0  0  0
   13.3571   37.5980   32.2612 C   0  0  0  0  0  0  0  0  0  0  0  0
    9.9093   37.1808   31.2875 O   0  0  0  0  0  0  0  0  0  0  0  0
   12.1967   36.6764   31.8894 C   0  0  0  0  0  0  0  0  0  0  0  0
   13.8018   37.2956   33.6197 N   0  0  0  0  0  0  0  0  0  0  0  0
   12.3048   36.2360   30.5555 O   0  0  0  0  0  0  0  0  0  0  0  0
   14.7922   36.4716   33.9864 C   0  0  0  0  0  0  0  0  0  0  0  0
   13.2747   37.7291   34.7944 C   0  0  0  0  0  0  0  0  0  0  0  0
   15.6240   35.7582   33.1861 N   0  0  0  0  0  0  0  0  0  0  0  0
   14.8721   36.4402   35.3331 C   0  0  0  0  0  0  0  0  0  0  0  0
   13.9206   37.2257   35.8810 N   0  0  0  0  0  0  0  0  0  0  0  0
   16.5873   34.9924   33.7802 C   0  0  0  0  0  0  0  0  0  0  0  0
   15.8576   35.6714   35.9444 C   0  0  0  0  0  0  0  0  0  0  0  0
   16.7026   34.9585   35.1439 N   0  0  0  0  0  0  0  0  0  0  0  0
   16.0102   35.6382   37.3564 N   0  0  0  0  0  0  0  0  0  0  0  0
    7.6769   44.0651   34.0547 H   0  0  0  0  0  0  0  0  0  0  0  0
    8.6477   46.1570   34.1431 H   0  0  0  0  0  0  0  0  0  0  0  0
   10.2153   45.5901   33.8713 H   0  0  0  0  0  0  0  0  0  0  0  0
    8.4830   43.0824   31.8663 H   0  0  0  0  0  0  0  0  0  0  0  0
    9.9705   44.0658   31.9670 H   0  0  0  0  0  0  0  0  0  0  0  0
    8.5197   45.0988   30.3809 H   0  0  0  0  0  0  0  0  0  0  0  0
    8.5684   46.1486   31.8193 H   0  0  0  0  0  0  0  0  0  0  0  0
    6.3145   44.1796   30.9844 H   0  0  0  0  0  0  0  0  0  0  0  0
    6.3131   45.0799   32.5410 H   0  0  0  0  0  0  0  0  0  0  0  0
    6.2456   46.2889   29.7213 H   0  0  0  0  0  0  0  0  0  0  0  0
    4.9208   46.2660   30.9241 H   0  0  0  0  0  0  0  0  0  0  0  0
    6.2794   47.7520   32.4209 H   0  0  0  0  0  0  0  0  0  0  0  0
    8.2984   50.7738   29.6716 H   0  0  0  0  0  0  0  0  0  0  0  0
    8.3698   51.6399   31.2444 H   0  0  0  0  0  0  0  0  0  0  0  0
    9.6244   48.4095   31.9621 H   0  0  0  0  0  0  0  0  0  0  0  0
   11.9683   47.8423   32.2900 H   0  0  0  0  0  0  0  0  0  0  0  0
   13.1801   51.4766   30.3935 H   0  0  0  0  0  0  0  0  0  0  0  0
   13.7521   49.3696   31.5185 H   0  0  0  0  0  0  0  0  0  0  0  0
   11.2093   41.0481   31.8916 H   0  0  0  0  0  0  0  0  0  0  0  0
    9.7448   40.0201   31.9304 H   0  0  0  0  0  0  0  0  0  0  0  0
   11.6207   39.0685   30.5942 H   0  0  0  0  0  0  0  0  0  0  0  0
   10.7059   37.5565   33.1439 H   0  0  0  0  0  0  0  0  0  0  0  0
   14.2095   37.4544   31.5601 H   0  0  0  0  0  0  0  0  0  0  0  0
   10.0864   37.4211   30.3413 H   0  0  0  0  0  0  0  0  0  0  0  0
   12.1275   35.7873   32.5550 H   0  0  0  0  0  0  0  0  0  0  0  0
   12.5030   37.0109   29.9673 H   0  0  0  0  0  0  0  0  0  0  0  0
   12.4328   38.3997   34.8703 H   0  0  0  0  0  0  0  0  0  0  0  0
   17.2670   34.4149   33.1690 H   0  0  0  0  0  0  0  0  0  0  0  0
   16.7640   35.0601   37.7896 H   0  0  0  0  0  0  0  0  0  0  0  0
   15.3758   36.1862   37.9791 H   0  0  0  0  0  0  0  0  0  0  0  0
  1  2  2  0
  1  3  1  0
  3  4  1  0
  4  5  1  0
  6  1  1  0
  7  6  1  0
  6  8  1  0
  8  9  1  0
  9 10  1  0
 10 11  1  0
 11 12  1  0
 12 13  1  0
 13 14  1  0
 13 15  2  0
 14 16  1  0
 16 17  1  0
 17 18  2  0
 19 17  1  0
 18 20  1  0
 21 19  2  0
 19 22  1  0
 20 23  2  0
 23 21  1  0
 22 24  1  0
 22 25  2  0
  4 26  2  0
  4 27  1  0
 28 27  1  0
 28 29  1  0
 29 30  1  0
 29 31  1  0
 30 32  1  0
 31 33  1  0
 31 34  1  0
 34 32  1  0
 32 35  1  0
 34 36  1  0
 37 35  1  0
 38 35  1  0
 39 37  2  0
 37 40  1  0
 41 38  2  0
 42 39  1  0
 40 43  2  0
 40 41  1  0
 44 42  2  0
 44 43  1  0
 43 45  1  0
  6 46  1  6
  7 47  1  0
  7 48  1  0
  8 49  1  0
  8 50  1  0
  9 51  1  0
  9 52  1  0
 10 53  1  0
 10 54  1  0
 11 55  1  0
 11 56  1  0
 12 57  1  0
 16 58  1  0
 16 59  1  0
 18 60  1  0
 20 61  1  0
 21 62  1  0
 23 63  1  0
 28 64  1  0
 28 65  1  0
 29 66  1  0
 31 67  1  0
 32 68  1  0
 33 69  1  0
 34 70  1  0
 36 71  1  0
 38 72  1  0
 42 73  1  0
 45 74  1  0
 45 75  1  0
M  CHG  3   5  -1  22   1  24  -1
M  END
>  <EmbedRMS>  (381) 
0.0757084671569

$$$$

     RDKit          3D

 75 78  0  0  0  0  0  0  0  0999 V2000
    9.4311   42.9414   34.3438 C   0  0  0  0  0  0  0  0  0  0  0  0
   10.4884   43.0413   35.0294 O   0  0  0  0  0  0  0  0  0  0  0  0
    8.8562   41.7130   34.0288 O   0  0  0  0  0  0  0  0  0  0  0  0
    9.4947   40.2164   34.4679 P   0  0  0  0  0  0  0  0  0  0  0  0
    9.7310   40.1742   36.1290 O   0  0  0  0  0  0  0  0  0  0  0  0
    8.7481   44.1363   33.7722 C   0  0  1  0  0  0  0  0  0  0  0  0
    9.3035   45.3670   34.3389 N   0  0  0  0  0  0  0  0  0  0  0  0
    8.8891   44.0522   32.2310 C   0  0  0  0  0  0  0  0  0  0  0  0
    8.2016   45.1727   31.4439 C   0  0  0  0  0  0  0  0  0  0  0  0
    6.6643   45.1060   31.4863 C   0  0  0  0  0  0  0  0  0  0  0  0
    6.0277   46.3238   30.8096 C   0  0  0  0  0  0  0  0  0  0  0  0
    6.5057   47.5636   31.4215 N   0  0  0  0  0  0  0  0  0  0  0  0
    7.2528   48.5395   30.6849 C   0  0  0  0  0  0  0  0  0  0  0  0
    7.6547   49.7464   31.2691 O   0  0  0  0  0  0  0  0  0  0  0  0
    7.5859   48.3099   29.4931 O   0  0  0  0  0  0  0  0  0  0  0  0
    7.3882   50.1015   32.6242 C   0  0  0  0  0  0  0  0  0  0  0  0
    7.9554   51.4621   32.9661 C   0  0  0  0  0  0  0  0  0  0  0  0
    8.2875   52.3679   31.9372 C   0  0  0  0  0  0  0  0  0  0  0  0
    8.1683   51.8479   34.3173 C   0  0  0  0  0  0  0  0  0  0  0  0
    8.8544   53.6081   32.2336 C   0  0  0  0  0  0  0  0  0  0  0  0
    8.7567   53.0964   34.5914 C   0  0  0  0  0  0  0  0  0  0  0  0
    7.8010   50.9927   35.4158 N   0  0  0  0  0  0  0  0  0  0  0  0
    9.0960   53.9682   33.5570 C   0  0  0  0  0  0  0  0  0  0  0  0
    6.6306   50.2705   35.3809 O   0  0  0  0  0  0  0  0  0  0  0  0
    8.4536   51.0251   36.4797 O   0  0  0  0  0  0  0  0  0  0  0  0
    8.5375   39.1405   34.0127 O   0  0  0  0  0  0  0  0  0  0  0  0
   10.9805   40.0889   33.6836 O   0  0  0  0  0  0  0  0  0  0  0  0
   10.8025   40.0902   32.2837 C   0  0  0  0  0  0  0  0  0  0  0  0
   11.5888   38.9175   31.7008 C   0  0  0  0  0  0  0  0  0  0  0  0
   12.9219   38.9374   32.1692 O   0  0  0  0  0  0  0  0  0  0  0  0
   11.0028   37.5683   32.0981 C   0  0  0  0  0  0  0  0  0  0  0  0
   13.3496   37.5886   32.2601 C   0  0  0  0  0  0  0  0  0  0  0  0
    9.9343   37.1823   31.2757 O   0  0  0  0  0  0  0  0  0  0  0  0
   12.1891   36.6677   31.9050 C   0  0  0  0  0  0  0  0  0  0  0  0
   13.8025   37.2965   33.6186 N   0  0  0  0  0  0  0  0  0  0  0  0
   12.2990   36.2868   30.5568 O   0  0  0  0  0  0  0  0  0  0  0  0
   14.7929   36.4725   33.9858 C   0  0  0  0  0  0  0  0  0  0  0  0
   13.2749   37.7294   34.7935 C   0  0  0  0  0  0  0  0  0  0  0  0
   15.6240   35.7580   33.1858 N   0  0  0  0  0  0  0  0  0  0  0  0
   14.8727   36.4411   35.3327 C   0  0  0  0  0  0  0  0  0  0  0  0
   13.9208   37.2263   35.8803 N   0  0  0  0  0  0  0  0  0  0  0  0
   16.5871   34.9921   33.7801 C   0  0  0  0  0  0  0  0  0  0  0  0
   15.8576   35.6718   35.9441 C   0  0  0  0  0  0  0  0  0  0  0  0
   16.7024   34.9584   35.1438 N   0  0  0  0  0  0  0  0  0  0  0  0
   16.0099   35.6384   37.3562 N   0  0  0  0  0  0  0  0  0  0  0  0
    7.6760   44.0638   34.0546 H   0  0  0  0  0  0  0  0  0  0  0  0
    8.6460   46.1563   34.1442 H   0  0  0  0  0  0  0  0  0  0  0  0
   10.2144   45.5891   33.8744 H   0  0  0  0  0  0  0  0  0  0  0  0
    9.9707   44.0646   31.9682 H   0  0  0  0  0  0  0  0  0  0  0  0
    8.4829   43.0822   31.8667 H   0  0  0  0  0  0  0  0  0  0  0  0
    8.5218   45.0979   30.3815 H   0  0  0  0  0  0  0  0  0  0  0  0
    8.5700   46.1493   31.8194 H   0  0  0  0  0  0  0  0  0  0  0  0
    6.3124   45.0760   32.5383 H   0  0  0  0  0  0  0  0  0  0  0  0
    6.3164   44.1799   30.9793 H   0  0  0  0  0  0  0  0  0  0  0  0
    6.2491   46.2915   29.7213 H   0  0  0  0  0  0  0  0  0  0  0  0
    4.9240   46.2684   30.9235 H   0  0  0  0  0  0  0  0  0  0  0  0
    6.2744   47.7255   32.4263 H   0  0  0  0  0  0  0  0  0  0  0  0
    6.2904   50.1181   32.7943 H   0  0  0  0  0  0  0  0  0  0  0  0
    7.8593   49.3368   33.2796 H   0  0  0  0  0  0  0  0  0  0  0  0
    8.1134   52.1207   30.8980 H   0  0  0  0  0  0  0  0  0  0  0  0
    9.1097   54.2908   31.4334 H   0  0  0  0  0  0  0  0  0  0  0  0
    8.9344   53.4053   35.6138 H   0  0  0  0  0  0  0  0  0  0  0  0
    9.5388   54.9296   33.7831 H   0  0  0  0  0  0  0  0  0  0  0  0
   11.2257   41.0358   31.8824 H   0  0  0  0  0  0  0  0  0  0  0  0
    9.7476   40.0332   31.9256 H   0  0  0  0  0  0  0  0  0  0  0  0
   11.5975   39.0148   30.5905 H   0  0  0  0  0  0  0  0  0  0  0  0
   10.7023   37.5457   33.1720 H   0  0  0  0  0  0  0  0  0  0  0  0
   14.1957   37.4366   31.5528 H   0  0  0  0  0  0  0  0  0  0  0  0
    9.1339   37.6658   31.6070 H   0  0  0  0  0  0  0  0  0  0  0  0
   12.1380   35.7717   32.5698 H   0  0  0  0  0  0  0  0  0  0  0  0
   11.7706   35.4530   30.4497 H   0  0  0  0  0  0  0  0  0  0  0  0
   12.4314   38.3980   34.8694 H   0  0  0  0  0  0  0  0  0  0  0  0
   17.2665   34.4140   33.1691 H   0  0  0  0  0  0  0  0  0  0  0  0
   15.3757   36.1868   37.9789 H   0  0  0  0  0  0  0  0  0  0  0  0
   16.7633   35.0598   37.7895 H   0  0  0  0  0  0  0  0  0  0  0  0
  1  2  2  0
  1  3  1  0
  3  4  1  0
  4  5  1  0
  6  1  1  0
  7  6  1  0
  6  8  1  0
  8  9  1  0
  9 10  1  0
 10 11  1  0
 11 12  1  0
 12 13  1  0
 13 14  1  0
 13 15  2  0
 14 16  1  0
 16 17  1  0
 17 18  2  0
 19 17  1  0
 18 20  1  0
 21 19  2  0
 19 22  1  0
 20 23  2  0
 23 21  1  0
 22 24  1  0
 22 25  2  0
  4 26  2  0
  4 27  1  0
 28 27  1  0
 28 29  1  0
 29 30  1  0
 29 31  1  0
 30 32  1  0
 31 33  1  0
 31 34  1  0
 34 32  1  0
 32 35  1  0
 34 36  1  0
 37 35  1  0
 38 35  1  0
 39 37  2  0
 37 40  1  0
 41 38  2  0
 42 39  1  0
 40 43  2  0
 40 41  1  0
 44 42  2  0
 44 43  1  0
 43 45  1  0
  6 46  1  6
  7 47  1  0
  7 48  1  0
  8 49  1  0
  8 50  1  0
  9 51  1  0
  9 52  1  0
 10 53  1  0
 10 54  1  0
 11 55  1  0
 11 56  1  0
 12 57  1  0
 16 58  1  0
 16 59  1  0
 18 60  1  0
 20 61  1  0
 21 62  1  0
 23 63  1  0
 28 64  1  0
 28 65  1  0
 29 66  1  0
 31 67  1  0
 32 68  1  0
 33 69  1  0
 34 70  1  0
 36 71  1  0
 38 72  1  0
 42 73  1  0
 45 74  1  0
 45 75  1  0
M  CHG  3   5  -1  22   1  24  -1
M  END
>  <EmbedRMS>  (382) 
0.0735237447047

$$$$

     RDKit          3D

 75 78  0  0  0  0  0  0  0  0999 V2000
    9.4310   42.9411   34.3440 C   0  0  0  0  0  0  0  0  0  0  0  0
   10.4886   43.0410   35.0293 O   0  0  0  0  0  0  0  0  0  0  0  0
    8.8553   41.7129   34.0302 O   0  0  0  0  0  0  0  0  0  0  0  0
    9.4932   40.2164   34.4705 P   0  0  0  0  0  0  0  0  0  0  0  0
    9.7298   40.1743   36.1313 O   0  0  0  0  0  0  0  0  0  0  0  0
    8.7483   44.1360   33.7722 C   0  0  1  0  0  0  0  0  0  0  0  0
    9.3039   45.3665   34.3388 N   0  0  0  0  0  0  0  0  0  0  0  0
    8.8892   44.0518   32.2309 C   0  0  0  0  0  0  0  0  0  0  0  0
    8.2015   45.1720   31.4435 C   0  0  0  0  0  0  0  0  0  0  0  0
    6.6643   45.1065   31.4887 C   0  0  0  0  0  0  0  0  0  0  0  0
    6.0268   46.3237   30.8123 C   0  0  0  0  0  0  0  0  0  0  0  0
    6.5084   47.5645   31.4190 N   0  0  0  0  0  0  0  0  0  0  0  0
    7.2421   48.5406   30.6825 C   0  0  0  0  0  0  0  0  0  0  0  0
    7.5842   49.7470   31.3026 O   0  0  0  0  0  0  0  0  0  0  0  0
    7.5941   48.3105   29.4938 O   0  0  0  0  0  0  0  0  0  0  0  0
    8.2910   50.7945   30.6403 C   0  0  0  0  0  0  0  0  0  0  0  0
    7.4257   51.4402   29.5818 C   0  0  0  0  0  0  0  0  0  0  0  0
    7.8902   51.4570   28.2535 C   0  0  0  0  0  0  0  0  0  0  0  0
    6.1449   51.9847   29.8757 C   0  0  0  0  0  0  0  0  0  0  0  0
    7.1046   51.9877   27.2301 C   0  0  0  0  0  0  0  0  0  0  0  0
    5.3643   52.5000   28.8253 C   0  0  0  0  0  0  0  0  0  0  0  0
    5.6088   52.0056   31.2118 N   0  0  0  0  0  0  0  0  0  0  0  0
    5.8427   52.5045   27.5147 C   0  0  0  0  0  0  0  0  0  0  0  0
    4.2476   51.9515   31.4061 O   0  0  0  0  0  0  0  0  0  0  0  0
    6.3445   52.2346   32.1932 O   0  0  0  0  0  0  0  0  0  0  0  0
    8.5368   39.1399   34.0142 O   0  0  0  0  0  0  0  0  0  0  0  0
   10.9786   40.0891   33.6868 O   0  0  0  0  0  0  0  0  0  0  0  0
   10.7973   40.0897   32.2881 C   0  0  0  0  0  0  0  0  0  0  0  0
   11.5882   38.9235   31.7043 C   0  0  0  0  0  0  0  0  0  0  0  0
   12.9230   38.9440   32.1728 O   0  0  0  0  0  0  0  0  0  0  0  0
   11.0048   37.5704   32.0917 C   0  0  0  0  0  0  0  0  0  0  0  0
   13.3570   37.5961   32.2595 C   0  0  0  0  0  0  0  0  0  0  0  0
    9.9331   37.1987   31.2677 O   0  0  0  0  0  0  0  0  0  0  0  0
   12.1965   36.6751   31.8950 C   0  0  0  0  0  0  0  0  0  0  0  0
   13.8037   37.2979   33.6187 N   0  0  0  0  0  0  0  0  0  0  0  0
   12.2934   36.2389   30.5582 O   0  0  0  0  0  0  0  0  0  0  0  0
   14.7929   36.4726   33.9860 C   0  0  0  0  0  0  0  0  0  0  0  0
   13.2755   37.7304   34.7935 C   0  0  0  0  0  0  0  0  0  0  0  0
   15.6244   35.7585   33.1859 N   0  0  0  0  0  0  0  0  0  0  0  0
   14.8722   36.4406   35.3328 C   0  0  0  0  0  0  0  0  0  0  0  0
   13.9205   37.2262   35.8803 N   0  0  0  0  0  0  0  0  0  0  0  0
   16.5872   34.9923   33.7802 C   0  0  0  0  0  0  0  0  0  0  0  0
   15.8573   35.6715   35.9442 C   0  0  0  0  0  0  0  0  0  0  0  0
   16.7023   34.9584   35.1439 N   0  0  0  0  0  0  0  0  0  0  0  0
   16.0098   35.6384   37.3563 N   0  0  0  0  0  0  0  0  0  0  0  0
    7.6763   44.0636   34.0548 H   0  0  0  0  0  0  0  0  0  0  0  0
   10.2153   45.5878   33.8747 H   0  0  0  0  0  0  0  0  0  0  0  0
    8.6469   46.1559   34.1430 H   0  0  0  0  0  0  0  0  0  0  0  0
    9.9708   44.0641   31.9680 H   0  0  0  0  0  0  0  0  0  0  0  0
    8.4830   43.0816   31.8668 H   0  0  0  0  0  0  0  0  0  0  0  0
    8.5198   45.0957   30.3807 H   0  0  0  0  0  0  0  0  0  0  0  0
    8.5715   46.1486   31.8172 H   0  0  0  0  0  0  0  0  0  0  0  0
    6.3142   45.0783   32.5413 H   0  0  0  0  0  0  0  0  0  0  0  0
    6.3147   44.1801   30.9836 H   0  0  0  0  0  0  0  0  0  0  0  0
    6.2449   46.2897   29.7232 H   0  0  0  0  0  0  0  0  0  0  0  0
    4.9234   46.2700   30.9300 H   0  0  0  0  0  0  0  0  0  0  0  0
    6.2849   47.7544   32.4218 H   0  0  0  0  0  0  0  0  0  0  0  0
    9.2319   50.3856   30.2105 H   0  0  0  0  0  0  0  0  0  0  0  0
    8.5948   51.5586   31.3845 H   0  0  0  0  0  0  0  0  0  0  0  0
    8.8612   51.0472   28.0039 H   0  0  0  0  0  0  0  0  0  0  0  0
    7.4729   51.9918   26.2122 H   0  0  0  0  0  0  0  0  0  0  0  0
    4.3845   52.9155   29.0241 H   0  0  0  0  0  0  0  0  0  0  0  0
    5.2335   52.9117   26.7180 H   0  0  0  0  0  0  0  0  0  0  0  0
    9.7422   40.0186   31.9315 H   0  0  0  0  0  0  0  0  0  0  0  0
   11.2111   41.0391   31.8857 H   0  0  0  0  0  0  0  0  0  0  0  0
   11.5932   39.0396   30.5966 H   0  0  0  0  0  0  0  0  0  0  0  0
   10.6985   37.5587   33.1640 H   0  0  0  0  0  0  0  0  0  0  0  0
   14.2072   37.4493   31.5564 H   0  0  0  0  0  0  0  0  0  0  0  0
    9.5320   36.3882   31.6772 H   0  0  0  0  0  0  0  0  0  0  0  0
   12.1344   35.7838   32.5584 H   0  0  0  0  0  0  0  0  0  0  0  0
   12.4641   37.0179   29.9675 H   0  0  0  0  0  0  0  0  0  0  0  0
   12.4333   38.4006   34.8692 H   0  0  0  0  0  0  0  0  0  0  0  0
   17.2668   34.4144   33.1692 H   0  0  0  0  0  0  0  0  0  0  0  0
   16.7634   35.0600   37.7896 H   0  0  0  0  0  0  0  0  0  0  0  0
   15.3755   36.1866   37.9789 H   0  0  0  0  0  0  0  0  0  0  0  0
  1  2  2  0
  1  3  1  0
  3  4  1  0
  4  5  1  0
  6  1  1  0
  7  6  1  0
  6  8  1  0
  8  9  1  0
  9 10  1  0
 10 11  1  0
 11 12  1  0
 12 13  1  0
 13 14  1  0
 13 15  2  0
 14 16  1  0
 16 17  1  0
 17 18  2  0
 19 17  1  0
 18 20  1  0
 21 19  2  0
 19 22  1  0
 20 23  2  0
 23 21  1  0
 22 24  1  0
 22 25  2  0
  4 26  2  0
  4 27  1  0
 28 27  1  0
 28 29  1  0
 29 30  1  0
 29 31  1  0
 30 32  1  0
 31 33  1  0
 31 34  1  0
 34 32  1  0
 32 35  1  0
 34 36  1  0
 37 35  1  0
 38 35  1  0
 39 37  2  0
 37 40  1  0
 41 38  2  0
 42 39  1  0
 40 43  2  0
 40 41  1  0
 44 42  2  0
 44 43  1  0
 43 45  1  0
  6 46  1  6
  7 47  1  0
  7 48  1  0
  8 49  1  0
  8 50  1  0
  9 51  1  0
  9 52  1  0
 10 53  1  0
 10 54  1  0
 11 55  1  0
 11 56  1  0
 12 57  1  0
 16 58  1  0
 16 59  1  0
 18 60  1  0
 20 61  1  0
 21 62  1  0
 23 63  1  0
 28 64  1  0
 28 65  1  0
 29 66  1  0
 31 67  1  0
 32 68  1  0
 33 69  1  0
 34 70  1  0
 36 71  1  0
 38 72  1  0
 42 73  1  0
 45 74  1  0
 45 75  1  0
M  CHG  3   5  -1  22   1  24  -1
M  END
>  <EmbedRMS>  (383) 
0.0750263630382

$$$$

     RDKit          3D

 75 78  0  0  0  0  0  0  0  0999 V2000
    9.4315   42.9407   34.3434 C   0  0  0  0  0  0  0  0  0  0  0  0
   10.4886   43.0412   35.0293 O   0  0  0  0  0  0  0  0  0  0  0  0
    8.8560   41.7124   34.0296 O   0  0  0  0  0  0  0  0  0  0  0  0
    9.4935   40.2159   34.4703 P   0  0  0  0  0  0  0  0  0  0  0  0
    9.7296   40.1742   36.1313 O   0  0  0  0  0  0  0  0  0  0  0  0
    8.7485   44.1345   33.7708 C   0  0  1  0  0  0  0  0  0  0  0  0
    9.3010   45.3655   34.3367 N   0  0  0  0  0  0  0  0  0  0  0  0
    8.8902   44.0519   32.2298 C   0  0  0  0  0  0  0  0  0  0  0  0
    8.2024   45.1727   31.4427 C   0  0  0  0  0  0  0  0  0  0  0  0
    6.6655   45.1083   31.4899 C   0  0  0  0  0  0  0  0  0  0  0  0
    6.0283   46.3257   30.8139 C   0  0  0  0  0  0  0  0  0  0  0  0
    6.5071   47.5671   31.4233 N   0  0  0  0  0  0  0  0  0  0  0  0
    7.2320   48.5502   30.6753 C   0  0  0  0  0  0  0  0  0  0  0  0
    7.5434   49.8061   31.2123 O   0  0  0  0  0  0  0  0  0  0  0  0
    7.6023   48.2970   29.4994 O   0  0  0  0  0  0  0  0  0  0  0  0
    7.1506   50.2696   32.5035 C   0  0  0  0  0  0  0  0  0  0  0  0
    7.9935   49.6493   33.5951 C   0  0  0  0  0  0  0  0  0  0  0  0
    7.3414   49.0572   34.6926 C   0  0  0  0  0  0  0  0  0  0  0  0
    9.4149   49.6568   33.5566 C   0  0  0  0  0  0  0  0  0  0  0  0
    8.0728   48.4699   35.7254 C   0  0  0  0  0  0  0  0  0  0  0  0
   10.1314   49.0360   34.5951 C   0  0  0  0  0  0  0  0  0  0  0  0
   10.1474   50.2779   32.4853 N   0  0  0  0  0  0  0  0  0  0  0  0
    9.4650   48.4559   35.6749 C   0  0  0  0  0  0  0  0  0  0  0  0
   11.3725   49.7756   32.1109 O   0  0  0  0  0  0  0  0  0  0  0  0
    9.7762   51.3702   32.0094 O   0  0  0  0  0  0  0  0  0  0  0  0
    8.5369   39.1398   34.0139 O   0  0  0  0  0  0  0  0  0  0  0  0
   10.9790   40.0873   33.6873 O   0  0  0  0  0  0  0  0  0  0  0  0
   10.7993   40.0946   32.2885 C   0  0  0  0  0  0  0  0  0  0  0  0
   11.5957   38.9351   31.6994 C   0  0  0  0  0  0  0  0  0  0  0  0
   12.9257   38.9478   32.1798 O   0  0  0  0  0  0  0  0  0  0  0  0
   11.0070   37.5758   32.0732 C   0  0  0  0  0  0  0  0  0  0  0  0
   13.3571   37.5980   32.2612 C   0  0  0  0  0  0  0  0  0  0  0  0
    9.9093   37.1808   31.2875 O   0  0  0  0  0  0  0  0  0  0  0  0
   12.1967   36.6764   31.8894 C   0  0  0  0  0  0  0  0  0  0  0  0
   13.8018   37.2956   33.6197 N   0  0  0  0  0  0  0  0  0  0  0  0
   12.3048   36.2360   30.5555 O   0  0  0  0  0  0  0  0  0  0  0  0
   14.7922   36.4716   33.9864 C   0  0  0  0  0  0  0  0  0  0  0  0
   13.2747   37.7291   34.7944 C   0  0  0  0  0  0  0  0  0  0  0  0
   15.6240   35.7582   33.1861 N   0  0  0  0  0  0  0  0  0  0  0  0
   14.8721   36.4402   35.3331 C   0  0  0  0  0  0  0  0  0  0  0  0
   13.9206   37.2257   35.8810 N   0  0  0  0  0  0  0  0  0  0  0  0
   16.5873   34.9924   33.7802 C   0  0  0  0  0  0  0  0  0  0  0  0
   15.8576   35.6714   35.9444 C   0  0  0  0  0  0  0  0  0  0  0  0
   16.7026   34.9585   35.1439 N   0  0  0  0  0  0  0  0  0  0  0  0
   16.0102   35.6383   37.3564 N   0  0  0  0  0  0  0  0  0  0  0  0
    7.6763   44.0609   34.0526 H   0  0  0  0  0  0  0  0  0  0  0  0
   10.2183   45.5821   33.8822 H   0  0  0  0  0  0  0  0  0  0  0  0
    8.6477   46.1513   34.1192 H   0  0  0  0  0  0  0  0  0  0  0  0
    9.9719   44.0651   31.9676 H   0  0  0  0  0  0  0  0  0  0  0  0
    8.4847   43.0818   31.8647 H   0  0  0  0  0  0  0  0  0  0  0  0
    8.5736   46.1502   31.8137 H   0  0  0  0  0  0  0  0  0  0  0  0
    8.5191   45.0949   30.3795 H   0  0  0  0  0  0  0  0  0  0  0  0
    6.3168   45.0813   32.5431 H   0  0  0  0  0  0  0  0  0  0  0  0
    6.3145   44.1819   30.9858 H   0  0  0  0  0  0  0  0  0  0  0  0
    6.2462   46.2921   29.7249 H   0  0  0  0  0  0  0  0  0  0  0  0
    4.9249   46.2703   30.9307 H   0  0  0  0  0  0  0  0  0  0  0  0
    6.2734   47.7336   32.4257 H   0  0  0  0  0  0  0  0  0  0  0  0
    6.0643   50.0856   32.6540 H   0  0  0  0  0  0  0  0  0  0  0  0
    7.2853   51.3702   32.5394 H   0  0  0  0  0  0  0  0  0  0  0  0
    6.2599   49.0487   34.7514 H   0  0  0  0  0  0  0  0  0  0  0  0
    7.5582   48.0169   36.5629 H   0  0  0  0  0  0  0  0  0  0  0  0
   11.2138   49.0232   34.5816 H   0  0  0  0  0  0  0  0  0  0  0  0
   10.0299   47.9921   36.4732 H   0  0  0  0  0  0  0  0  0  0  0  0
    9.7448   40.0200   31.9305 H   0  0  0  0  0  0  0  0  0  0  0  0
   11.2093   41.0481   31.8917 H   0  0  0  0  0  0  0  0  0  0  0  0
   11.6207   39.0685   30.5942 H   0  0  0  0  0  0  0  0  0  0  0  0
   10.7059   37.5564   33.1439 H   0  0  0  0  0  0  0  0  0  0  0  0
   14.2095   37.4543   31.5601 H   0  0  0  0  0  0  0  0  0  0  0  0
   10.0864   37.4210   30.3413 H   0  0  0  0  0  0  0  0  0  0  0  0
   12.1275   35.7872   32.5550 H   0  0  0  0  0  0  0  0  0  0  0  0
   12.5030   37.0109   29.9673 H   0  0  0  0  0  0  0  0  0  0  0  0
   12.4328   38.3996   34.8703 H   0  0  0  0  0  0  0  0  0  0  0  0
   17.2670   34.4149   33.1691 H   0  0  0  0  0  0  0  0  0  0  0  0
   16.7640   35.0601   37.7896 H   0  0  0  0  0  0  0  0  0  0  0  0
   15.3758   36.1862   37.9792 H   0  0  0  0  0  0  0  0  0  0  0  0
  1  2  2  0
  1  3  1  0
  3  4  1  0
  4  5  1  0
  6  1  1  0
  7  6  1  0
  6  8  1  0
  8  9  1  0
  9 10  1  0
 10 11  1  0
 11 12  1  0
 12 13  1  0
 13 14  1  0
 13 15  2  0
 14 16  1  0
 16 17  1  0
 17 18  2  0
 19 17  1  0
 18 20  1  0
 21 19  2  0
 19 22  1  0
 20 23  2  0
 23 21  1  0
 22 24  1  0
 22 25  2  0
  4 26  2  0
  4 27  1  0
 28 27  1  0
 28 29  1  0
 29 30  1  0
 29 31  1  0
 30 32  1  0
 31 33  1  0
 31 34  1  0
 34 32  1  0
 32 35  1  0
 34 36  1  0
 37 35  1  0
 38 35  1  0
 39 37  2  0
 37 40  1  0
 41 38  2  0
 42 39  1  0
 40 43  2  0
 40 41  1  0
 44 42  2  0
 44 43  1  0
 43 45  1  0
  6 46  1  6
  7 47  1  0
  7 48  1  0
  8 49  1  0
  8 50  1  0
  9 51  1  0
  9 52  1  0
 10 53  1  0
 10 54  1  0
 11 55  1  0
 11 56  1  0
 12 57  1  0
 16 58  1  0
 16 59  1  0
 18 60  1  0
 20 61  1  0
 21 62  1  0
 23 63  1  0
 28 64  1  0
 28 65  1  0
 29 66  1  0
 31 67  1  0
 32 68  1  0
 33 69  1  0
 34 70  1  0
 36 71  1  0
 38 72  1  0
 42 73  1  0
 45 74  1  0
 45 75  1  0
M  CHG  3   5  -1  22   1  24  -1
M  END
>  <EmbedRMS>  (384) 
0.0753761653593

$$$$

     RDKit          3D

 75 78  0  0  0  0  0  0  0  0999 V2000
    9.4331   42.9366   34.3465 C   0  0  0  0  0  0  0  0  0  0  0  0
   10.4907   43.0330   35.0318 O   0  0  0  0  0  0  0  0  0  0  0  0
    8.8554   41.7104   34.0310 O   0  0  0  0  0  0  0  0  0  0  0  0
    9.4930   40.2143   34.4706 P   0  0  0  0  0  0  0  0  0  0  0  0
    9.7296   40.1727   36.1315 O   0  0  0  0  0  0  0  0  0  0  0  0
    8.7506   44.1348   33.7742 C   0  0  1  0  0  0  0  0  0  0  0  0
    9.2963   45.3821   34.3133 N   0  0  0  0  0  0  0  0  0  0  0  0
    8.8893   44.0526   32.2359 C   0  0  0  0  0  0  0  0  0  0  0  0
    8.2028   45.1822   31.4615 C   0  0  0  0  0  0  0  0  0  0  0  0
    6.6654   45.1046   31.4855 C   0  0  0  0  0  0  0  0  0  0  0  0
    6.0270   46.3226   30.8105 C   0  0  0  0  0  0  0  0  0  0  0  0
    6.5064   47.5639   31.4180 N   0  0  0  0  0  0  0  0  0  0  0  0
    7.2433   48.5393   30.6834 C   0  0  0  0  0  0  0  0  0  0  0  0
    7.5911   49.7409   31.3056 O   0  0  0  0  0  0  0  0  0  0  0  0
    7.5935   48.3118   29.4937 O   0  0  0  0  0  0  0  0  0  0  0  0
    8.3323   50.7633   30.6466 C   0  0  0  0  0  0  0  0  0  0  0  0
    8.5078   51.9420   31.5715 C   0  0  0  0  0  0  0  0  0  0  0  0
    9.8131   52.3696   31.8790 C   0  0  0  0  0  0  0  0  0  0  0  0
    7.4021   52.6034   32.1725 C   0  0  0  0  0  0  0  0  0  0  0  0
   10.0276   53.4223   32.7693 C   0  0  0  0  0  0  0  0  0  0  0  0
    7.6431   53.6528   33.0789 C   0  0  0  0  0  0  0  0  0  0  0  0
    6.0423   52.2178   31.8973 N   0  0  0  0  0  0  0  0  0  0  0  0
    8.9452   54.0601   33.3708 C   0  0  0  0  0  0  0  0  0  0  0  0
    5.6508   51.8775   30.6237 O   0  0  0  0  0  0  0  0  0  0  0  0
    5.1670   52.3420   32.7789 O   0  0  0  0  0  0  0  0  0  0  0  0
    8.5366   39.1382   34.0139 O   0  0  0  0  0  0  0  0  0  0  0  0
   10.9785   40.0883   33.6869 O   0  0  0  0  0  0  0  0  0  0  0  0
   10.7973   40.0895   32.2883 C   0  0  0  0  0  0  0  0  0  0  0  0
   11.5882   38.9234   31.7043 C   0  0  0  0  0  0  0  0  0  0  0  0
   12.9230   38.9440   32.1728 O   0  0  0  0  0  0  0  0  0  0  0  0
   11.0048   37.5703   32.0916 C   0  0  0  0  0  0  0  0  0  0  0  0
   13.3570   37.5960   32.2595 C   0  0  0  0  0  0  0  0  0  0  0  0
    9.9332   37.1986   31.2676 O   0  0  0  0  0  0  0  0  0  0  0  0
   12.1965   36.6751   31.8949 C   0  0  0  0  0  0  0  0  0  0  0  0
   13.8037   37.2979   33.6187 N   0  0  0  0  0  0  0  0  0  0  0  0
   12.2934   36.2389   30.5581 O   0  0  0  0  0  0  0  0  0  0  0  0
   14.7929   36.4726   33.9860 C   0  0  0  0  0  0  0  0  0  0  0  0
   13.2755   37.7304   34.7934 C   0  0  0  0  0  0  0  0  0  0  0  0
   15.6244   35.7585   33.1859 N   0  0  0  0  0  0  0  0  0  0  0  0
   14.8722   36.4406   35.3328 C   0  0  0  0  0  0  0  0  0  0  0  0
   13.9205   37.2262   35.8803 N   0  0  0  0  0  0  0  0  0  0  0  0
   16.5872   34.9923   33.7802 C   0  0  0  0  0  0  0  0  0  0  0  0
   15.8573   35.6715   35.9442 C   0  0  0  0  0  0  0  0  0  0  0  0
   16.7023   34.9584   35.1439 N   0  0  0  0  0  0  0  0  0  0  0  0
   16.0098   35.6384   37.3563 N   0  0  0  0  0  0  0  0  0  0  0  0
    7.6770   44.0708   34.0504 H   0  0  0  0  0  0  0  0  0  0  0  0
   10.3192   45.4407   34.1000 H   0  0  0  0  0  0  0  0  0  0  0  0
    9.1827   45.3822   35.3535 H   0  0  0  0  0  0  0  0  0  0  0  0
    9.9711   44.0680   31.9740 H   0  0  0  0  0  0  0  0  0  0  0  0
    8.4816   43.0850   31.8670 H   0  0  0  0  0  0  0  0  0  0  0  0
    8.5384   45.1361   30.4022 H   0  0  0  0  0  0  0  0  0  0  0  0
    8.5553   46.1509   31.8741 H   0  0  0  0  0  0  0  0  0  0  0  0
    6.3296   44.1799   30.9679 H   0  0  0  0  0  0  0  0  0  0  0  0
    6.3020   45.0643   32.5334 H   0  0  0  0  0  0  0  0  0  0  0  0
    4.9236   46.2673   30.9265 H   0  0  0  0  0  0  0  0  0  0  0  0
    6.2466   46.2897   29.7217 H   0  0  0  0  0  0  0  0  0  0  0  0
    6.2816   47.7534   32.4207 H   0  0  0  0  0  0  0  0  0  0  0  0
    9.3168   50.3494   30.3360 H   0  0  0  0  0  0  0  0  0  0  0  0
    7.8079   51.0867   29.7232 H   0  0  0  0  0  0  0  0  0  0  0  0
   10.6724   51.8823   31.4349 H   0  0  0  0  0  0  0  0  0  0  0  0
   11.0368   53.7400   32.9979 H   0  0  0  0  0  0  0  0  0  0  0  0
    6.8165   54.1684   33.5514 H   0  0  0  0  0  0  0  0  0  0  0  0
    9.1147   54.8738   34.0641 H   0  0  0  0  0  0  0  0  0  0  0  0
   11.2113   41.0390   31.8862 H   0  0  0  0  0  0  0  0  0  0  0  0
    9.7422   40.0186   31.9315 H   0  0  0  0  0  0  0  0  0  0  0  0
   11.5931   39.0396   30.5966 H   0  0  0  0  0  0  0  0  0  0  0  0
   10.6986   37.5585   33.1640 H   0  0  0  0  0  0  0  0  0  0  0  0
   14.2072   37.4492   31.5564 H   0  0  0  0  0  0  0  0  0  0  0  0
    9.5321   36.3881   31.6771 H   0  0  0  0  0  0  0  0  0  0  0  0
   12.1344   35.7838   32.5583 H   0  0  0  0  0  0  0  0  0  0  0  0
   12.4642   37.0179   29.9674 H   0  0  0  0  0  0  0  0  0  0  0  0
   12.4333   38.4005   34.8692 H   0  0  0  0  0  0  0  0  0  0  0  0
   17.2668   34.4144   33.1692 H   0  0  0  0  0  0  0  0  0  0  0  0
   16.7634   35.0600   37.7896 H   0  0  0  0  0  0  0  0  0  0  0  0
   15.3755   36.1866   37.9789 H   0  0  0  0  0  0  0  0  0  0  0  0
  1  2  2  0
  1  3  1  0
  3  4  1  0
  4  5  1  0
  6  1  1  0
  7  6  1  0
  6  8  1  0
  8  9  1  0
  9 10  1  0
 10 11  1  0
 11 12  1  0
 12 13  1  0
 13 14  1  0
 13 15  2  0
 14 16  1  0
 16 17  1  0
 17 18  2  0
 19 17  1  0
 18 20  1  0
 21 19  2  0
 19 22  1  0
 20 23  2  0
 23 21  1  0
 22 24  1  0
 22 25  2  0
  4 26  2  0
  4 27  1  0
 28 27  1  0
 28 29  1  0
 29 30  1  0
 29 31  1  0
 30 32  1  0
 31 33  1  0
 31 34  1  0
 34 32  1  0
 32 35  1  0
 34 36  1  0
 37 35  1  0
 38 35  1  0
 39 37  2  0
 37 40  1  0
 41 38  2  0
 42 39  1  0
 40 43  2  0
 40 41  1  0
 44 42  2  0
 44 43  1  0
 43 45  1  0
  6 46  1  6
  7 47  1  0
  7 48  1  0
  8 49  1  0
  8 50  1  0
  9 51  1  0
  9 52  1  0
 10 53  1  0
 10 54  1  0
 11 55  1  0
 11 56  1  0
 12 57  1  0
 16 58  1  0
 16 59  1  0
 18 60  1  0
 20 61  1  0
 21 62  1  0
 23 63  1  0
 28 64  1  0
 28 65  1  0
 29 66  1  0
 31 67  1  0
 32 68  1  0
 33 69  1  0
 34 70  1  0
 36 71  1  0
 38 72  1  0
 42 73  1  0
 45 74  1  0
 45 75  1  0
M  CHG  3   5  -1  22   1  24  -1
M  END
>  <EmbedRMS>  (385) 
0.0758763839873

$$$$

     RDKit          3D

 75 78  0  0  0  0  0  0  0  0999 V2000
    9.4312   42.9416   34.3437 C   0  0  0  0  0  0  0  0  0  0  0  0
   10.4885   43.0414   35.0293 O   0  0  0  0  0  0  0  0  0  0  0  0
    8.8562   41.7133   34.0287 O   0  0  0  0  0  0  0  0  0  0  0  0
    9.4946   40.2166   34.4678 P   0  0  0  0  0  0  0  0  0  0  0  0
    9.7310   40.1744   36.1289 O   0  0  0  0  0  0  0  0  0  0  0  0
    8.7483   44.1368   33.7722 C   0  0  1  0  0  0  0  0  0  0  0  0
    9.3039   45.3675   34.3387 N   0  0  0  0  0  0  0  0  0  0  0  0
    8.8890   44.0529   32.2309 C   0  0  0  0  0  0  0  0  0  0  0  0
    8.2013   45.1737   31.4443 C   0  0  0  0  0  0  0  0  0  0  0  0
    6.6640   45.1066   31.4865 C   0  0  0  0  0  0  0  0  0  0  0  0
    6.0270   46.3231   30.8075 C   0  0  0  0  0  0  0  0  0  0  0  0
    6.5013   47.5640   31.4200 N   0  0  0  0  0  0  0  0  0  0  0  0
    7.2616   48.5338   30.6892 C   0  0  0  0  0  0  0  0  0  0  0  0
    7.7019   49.7198   31.2880 O   0  0  0  0  0  0  0  0  0  0  0  0
    7.5825   48.3115   29.4926 O   0  0  0  0  0  0  0  0  0  0  0  0
    7.4612   50.0612   32.6499 C   0  0  0  0  0  0  0  0  0  0  0  0
    8.1761   51.3462   32.9838 C   0  0  0  0  0  0  0  0  0  0  0  0
    7.4202   52.4382   33.4501 C   0  0  0  0  0  0  0  0  0  0  0  0
    9.5782   51.4993   32.8045 C   0  0  0  0  0  0  0  0  0  0  0  0
    8.0307   53.6622   33.7254 C   0  0  0  0  0  0  0  0  0  0  0  0
   10.1696   52.7476   33.0743 C   0  0  0  0  0  0  0  0  0  0  0  0
   10.4089   50.4208   32.3342 N   0  0  0  0  0  0  0  0  0  0  0  0
    9.4017   53.8177   33.5345 C   0  0  0  0  0  0  0  0  0  0  0  0
   10.2107   49.1336   32.7765 O   0  0  0  0  0  0  0  0  0  0  0  0
   11.4195   50.6666   31.6436 O   0  0  0  0  0  0  0  0  0  0  0  0
    8.5374   39.1406   34.0127 O   0  0  0  0  0  0  0  0  0  0  0  0
   10.9805   40.0890   33.6836 O   0  0  0  0  0  0  0  0  0  0  0  0
   10.8025   40.0902   32.2837 C   0  0  0  0  0  0  0  0  0  0  0  0
   11.5888   38.9175   31.7008 C   0  0  0  0  0  0  0  0  0  0  0  0
   12.9219   38.9374   32.1692 O   0  0  0  0  0  0  0  0  0  0  0  0
   11.0028   37.5683   32.0981 C   0  0  0  0  0  0  0  0  0  0  0  0
   13.3496   37.5886   32.2601 C   0  0  0  0  0  0  0  0  0  0  0  0
    9.9343   37.1823   31.2757 O   0  0  0  0  0  0  0  0  0  0  0  0
   12.1890   36.6677   31.9050 C   0  0  0  0  0  0  0  0  0  0  0  0
   13.8025   37.2965   33.6186 N   0  0  0  0  0  0  0  0  0  0  0  0
   12.2990   36.2868   30.5568 O   0  0  0  0  0  0  0  0  0  0  0  0
   14.7929   36.4725   33.9858 C   0  0  0  0  0  0  0  0  0  0  0  0
   13.2749   37.7294   34.7935 C   0  0  0  0  0  0  0  0  0  0  0  0
   15.6240   35.7580   33.1858 N   0  0  0  0  0  0  0  0  0  0  0  0
   14.8727   36.4411   35.3327 C   0  0  0  0  0  0  0  0  0  0  0  0
   13.9208   37.2263   35.8803 N   0  0  0  0  0  0  0  0  0  0  0  0
   16.5871   34.9921   33.7801 C   0  0  0  0  0  0  0  0  0  0  0  0
   15.8576   35.6718   35.9441 C   0  0  0  0  0  0  0  0  0  0  0  0
   16.7024   34.9584   35.1438 N   0  0  0  0  0  0  0  0  0  0  0  0
   16.0099   35.6384   37.3562 N   0  0  0  0  0  0  0  0  0  0  0  0
    7.6762   44.0645   34.0546 H   0  0  0  0  0  0  0  0  0  0  0  0
    8.6466   46.1570   34.1439 H   0  0  0  0  0  0  0  0  0  0  0  0
   10.2147   45.5896   33.8740 H   0  0  0  0  0  0  0  0  0  0  0  0
    8.4828   43.0829   31.8665 H   0  0  0  0  0  0  0  0  0  0  0  0
    9.9706   44.0655   31.9680 H   0  0  0  0  0  0  0  0  0  0  0  0
    8.5692   46.1504   31.8202 H   0  0  0  0  0  0  0  0  0  0  0  0
    8.5216   45.0994   30.3819 H   0  0  0  0  0  0  0  0  0  0  0  0
    6.3119   45.0782   32.5385 H   0  0  0  0  0  0  0  0  0  0  0  0
    6.3165   44.1796   30.9809 H   0  0  0  0  0  0  0  0  0  0  0  0
    4.9231   46.2660   30.9178 H   0  0  0  0  0  0  0  0  0  0  0  0
    6.2518   46.2904   29.7199 H   0  0  0  0  0  0  0  0  0  0  0  0
    6.2575   47.7303   32.4210 H   0  0  0  0  0  0  0  0  0  0  0  0
    7.8217   49.2562   33.3236 H   0  0  0  0  0  0  0  0  0  0  0  0
    6.3649   50.1613   32.8069 H   0  0  0  0  0  0  0  0  0  0  0  0
    6.3508   52.3472   33.5950 H   0  0  0  0  0  0  0  0  0  0  0  0
    7.4373   54.4943   34.0821 H   0  0  0  0  0  0  0  0  0  0  0  0
   11.2349   52.8886   32.9414 H   0  0  0  0  0  0  0  0  0  0  0  0
    9.8720   54.7696   33.7451 H   0  0  0  0  0  0  0  0  0  0  0  0
    9.7476   40.0332   31.9255 H   0  0  0  0  0  0  0  0  0  0  0  0
   11.2257   41.0358   31.8824 H   0  0  0  0  0  0  0  0  0  0  0  0
   11.5975   39.0148   30.5905 H   0  0  0  0  0  0  0  0  0  0  0  0
   10.7023   37.5457   33.1720 H   0  0  0  0  0  0  0  0  0  0  0  0
   14.1957   37.4366   31.5528 H   0  0  0  0  0  0  0  0  0  0  0  0
    9.1339   37.6659   31.6070 H   0  0  0  0  0  0  0  0  0  0  0  0
   12.1380   35.7718   32.5698 H   0  0  0  0  0  0  0  0  0  0  0  0
   11.7706   35.4530   30.4497 H   0  0  0  0  0  0  0  0  0  0  0  0
   12.4314   38.3980   34.8694 H   0  0  0  0  0  0  0  0  0  0  0  0
   17.2665   34.4140   33.1691 H   0  0  0  0  0  0  0  0  0  0  0  0
   15.3757   36.1868   37.9789 H   0  0  0  0  0  0  0  0  0  0  0  0
   16.7633   35.0598   37.7895 H   0  0  0  0  0  0  0  0  0  0  0  0
  1  2  2  0
  1  3  1  0
  3  4  1  0
  4  5  1  0
  6  1  1  0
  7  6  1  0
  6  8  1  0
  8  9  1  0
  9 10  1  0
 10 11  1  0
 11 12  1  0
 12 13  1  0
 13 14  1  0
 13 15  2  0
 14 16  1  0
 16 17  1  0
 17 18  2  0
 19 17  1  0
 18 20  1  0
 21 19  2  0
 19 22  1  0
 20 23  2  0
 23 21  1  0
 22 24  1  0
 22 25  2  0
  4 26  2  0
  4 27  1  0
 28 27  1  0
 28 29  1  0
 29 30  1  0
 29 31  1  0
 30 32  1  0
 31 33  1  0
 31 34  1  0
 34 32  1  0
 32 35  1  0
 34 36  1  0
 37 35  1  0
 38 35  1  0
 39 37  2  0
 37 40  1  0
 41 38  2  0
 42 39  1  0
 40 43  2  0
 40 41  1  0
 44 42  2  0
 44 43  1  0
 43 45  1  0
  6 46  1  6
  7 47  1  0
  7 48  1  0
  8 49  1  0
  8 50  1  0
  9 51  1  0
  9 52  1  0
 10 53  1  0
 10 54  1  0
 11 55  1  0
 11 56  1  0
 12 57  1  0
 16 58  1  0
 16 59  1  0
 18 60  1  0
 20 61  1  0
 21 62  1  0
 23 63  1  0
 28 64  1  0
 28 65  1  0
 29 66  1  0
 31 67  1  0
 32 68  1  0
 33 69  1  0
 34 70  1  0
 36 71  1  0
 38 72  1  0
 42 73  1  0
 45 74  1  0
 45 75  1  0
M  CHG  3   5  -1  22   1  24  -1
M  END
>  <EmbedRMS>  (386) 
0.0738446198262

$$$$

     RDKit          3D

 75 78  0  0  0  0  0  0  0  0999 V2000
    9.4334   42.9370   34.3460 C   0  0  0  0  0  0  0  0  0  0  0  0
   10.4909   43.0334   35.0316 O   0  0  0  0  0  0  0  0  0  0  0  0
    8.8560   41.7108   34.0302 O   0  0  0  0  0  0  0  0  0  0  0  0
    9.4930   40.2143   34.4703 P   0  0  0  0  0  0  0  0  0  0  0  0
    9.7293   40.1729   36.1312 O   0  0  0  0  0  0  0  0  0  0  0  0
    8.7510   44.1355   33.7738 C   0  0  1  0  0  0  0  0  0  0  0  0
    9.2970   45.3828   34.3126 N   0  0  0  0  0  0  0  0  0  0  0  0
    8.8892   44.0536   32.2354 C   0  0  0  0  0  0  0  0  0  0  0  0
    8.2020   45.1835   31.4619 C   0  0  0  0  0  0  0  0  0  0  0  0
    6.6646   45.1050   31.4850 C   0  0  0  0  0  0  0  0  0  0  0  0
    6.0250   46.3222   30.8086 C   0  0  0  0  0  0  0  0  0  0  0  0
    6.5002   47.5649   31.4164 N   0  0  0  0  0  0  0  0  0  0  0  0
    7.2525   48.5334   30.6885 C   0  0  0  0  0  0  0  0  0  0  0  0
    7.6502   49.7114   31.3323 O   0  0  0  0  0  0  0  0  0  0  0  0
    7.5929   48.3106   29.4949 O   0  0  0  0  0  0  0  0  0  0  0  0
    8.5176   50.6772   30.7361 C   0  0  0  0  0  0  0  0  0  0  0  0
    9.9886   50.3235   30.8799 C   0  0  0  0  0  0  0  0  0  0  0  0
   10.3802   49.1237   31.5147 C   0  0  0  0  0  0  0  0  0  0  0  0
   11.0004   51.2225   30.4366 C   0  0  0  0  0  0  0  0  0  0  0  0
   11.7283   48.8116   31.6891 C   0  0  0  0  0  0  0  0  0  0  0  0
   12.3524   50.8917   30.6382 C   0  0  0  0  0  0  0  0  0  0  0  0
   10.6874   52.4852   29.8188 N   0  0  0  0  0  0  0  0  0  0  0  0
   12.7122   49.6929   31.2516 C   0  0  0  0  0  0  0  0  0  0  0  0
   11.5329   53.5578   29.9877 O   0  0  0  0  0  0  0  0  0  0  0  0
    9.7576   52.5820   28.9928 O   0  0  0  0  0  0  0  0  0  0  0  0
    8.5365   39.1384   34.0136 O   0  0  0  0  0  0  0  0  0  0  0  0
   10.9788   40.0867   33.6873 O   0  0  0  0  0  0  0  0  0  0  0  0
   10.7993   40.0944   32.2885 C   0  0  0  0  0  0  0  0  0  0  0  0
   11.5957   38.9351   31.6994 C   0  0  0  0  0  0  0  0  0  0  0  0
   12.9257   38.9478   32.1798 O   0  0  0  0  0  0  0  0  0  0  0  0
   11.0070   37.5757   32.0732 C   0  0  0  0  0  0  0  0  0  0  0  0
   13.3571   37.5979   32.2612 C   0  0  0  0  0  0  0  0  0  0  0  0
    9.9093   37.1807   31.2875 O   0  0  0  0  0  0  0  0  0  0  0  0
   12.1967   36.6764   31.8894 C   0  0  0  0  0  0  0  0  0  0  0  0
   13.8018   37.2956   33.6197 N   0  0  0  0  0  0  0  0  0  0  0  0
   12.3049   36.2360   30.5555 O   0  0  0  0  0  0  0  0  0  0  0  0
   14.7922   36.4716   33.9864 C   0  0  0  0  0  0  0  0  0  0  0  0
   13.2747   37.7291   34.7944 C   0  0  0  0  0  0  0  0  0  0  0  0
   15.6240   35.7581   33.1861 N   0  0  0  0  0  0  0  0  0  0  0  0
   14.8721   36.4402   35.3331 C   0  0  0  0  0  0  0  0  0  0  0  0
   13.9206   37.2257   35.8810 N   0  0  0  0  0  0  0  0  0  0  0  0
   16.5873   34.9924   33.7802 C   0  0  0  0  0  0  0  0  0  0  0  0
   15.8576   35.6714   35.9444 C   0  0  0  0  0  0  0  0  0  0  0  0
   16.7026   34.9585   35.1439 N   0  0  0  0  0  0  0  0  0  0  0  0
   16.0102   35.6382   37.3564 N   0  0  0  0  0  0  0  0  0  0  0  0
    7.6774   44.0717   34.0503 H   0  0  0  0  0  0  0  0  0  0  0  0
    9.1866   45.3820   35.3531 H   0  0  0  0  0  0  0  0  0  0  0  0
   10.3190   45.4433   34.0957 H   0  0  0  0  0  0  0  0  0  0  0  0
    8.4818   43.0860   31.8663 H   0  0  0  0  0  0  0  0  0  0  0  0
    9.9709   44.0698   31.9733 H   0  0  0  0  0  0  0  0  0  0  0  0
    8.5390   45.1403   30.4030 H   0  0  0  0  0  0  0  0  0  0  0  0
    8.5522   46.1511   31.8773 H   0  0  0  0  0  0  0  0  0  0  0  0
    6.3008   45.0649   32.5327 H   0  0  0  0  0  0  0  0  0  0  0  0
    6.3300   44.1798   30.9676 H   0  0  0  0  0  0  0  0  0  0  0  0
    4.9215   46.2646   30.9223 H   0  0  0  0  0  0  0  0  0  0  0  0
    6.2465   46.2895   29.7202 H   0  0  0  0  0  0  0  0  0  0  0  0
    6.2783   47.7514   32.4203 H   0  0  0  0  0  0  0  0  0  0  0  0
    8.3414   51.6499   31.2418 H   0  0  0  0  0  0  0  0  0  0  0  0
    8.2504   50.7931   29.6647 H   0  0  0  0  0  0  0  0  0  0  0  0
    9.6525   48.4229   31.8966 H   0  0  0  0  0  0  0  0  0  0  0  0
   12.0101   47.8861   32.1750 H   0  0  0  0  0  0  0  0  0  0  0  0
   13.1349   51.5629   30.3074 H   0  0  0  0  0  0  0  0  0  0  0  0
   13.7574   49.4497   31.3932 H   0  0  0  0  0  0  0  0  0  0  0  0
   11.2094   41.0480   31.8921 H   0  0  0  0  0  0  0  0  0  0  0  0
    9.7449   40.0201   31.9304 H   0  0  0  0  0  0  0  0  0  0  0  0
   11.6207   39.0685   30.5942 H   0  0  0  0  0  0  0  0  0  0  0  0
   10.7059   37.5563   33.1438 H   0  0  0  0  0  0  0  0  0  0  0  0
   14.2095   37.4543   31.5601 H   0  0  0  0  0  0  0  0  0  0  0  0
   10.0864   37.4209   30.3413 H   0  0  0  0  0  0  0  0  0  0  0  0
   12.1276   35.7872   32.5549 H   0  0  0  0  0  0  0  0  0  0  0  0
   12.5031   37.0109   29.9672 H   0  0  0  0  0  0  0  0  0  0  0  0
   12.4328   38.3996   34.8703 H   0  0  0  0  0  0  0  0  0  0  0  0
   17.2670   34.4149   33.1690 H   0  0  0  0  0  0  0  0  0  0  0  0
   16.7640   35.0601   37.7896 H   0  0  0  0  0  0  0  0  0  0  0  0
   15.3758   36.1862   37.9791 H   0  0  0  0  0  0  0  0  0  0  0  0
  1  2  2  0
  1  3  1  0
  3  4  1  0
  4  5  1  0
  6  1  1  0
  7  6  1  0
  6  8  1  0
  8  9  1  0
  9 10  1  0
 10 11  1  0
 11 12  1  0
 12 13  1  0
 13 14  1  0
 13 15  2  0
 14 16  1  0
 16 17  1  0
 17 18  2  0
 19 17  1  0
 18 20  1  0
 21 19  2  0
 19 22  1  0
 20 23  2  0
 23 21  1  0
 22 24  1  0
 22 25  2  0
  4 26  2  0
  4 27  1  0
 28 27  1  0
 28 29  1  0
 29 30  1  0
 29 31  1  0
 30 32  1  0
 31 33  1  0
 31 34  1  0
 34 32  1  0
 32 35  1  0
 34 36  1  0
 37 35  1  0
 38 35  1  0
 39 37  2  0
 37 40  1  0
 41 38  2  0
 42 39  1  0
 40 43  2  0
 40 41  1  0
 44 42  2  0
 44 43  1  0
 43 45  1  0
  6 46  1  6
  7 47  1  0
  7 48  1  0
  8 49  1  0
  8 50  1  0
  9 51  1  0
  9 52  1  0
 10 53  1  0
 10 54  1  0
 11 55  1  0
 11 56  1  0
 12 57  1  0
 16 58  1  0
 16 59  1  0
 18 60  1  0
 20 61  1  0
 21 62  1  0
 23 63  1  0
 28 64  1  0
 28 65  1  0
 29 66  1  0
 31 67  1  0
 32 68  1  0
 33 69  1  0
 34 70  1  0
 36 71  1  0
 38 72  1  0
 42 73  1  0
 45 74  1  0
 45 75  1  0
M  CHG  3   5  -1  22   1  24  -1
M  END
>  <EmbedRMS>  (387) 
0.0764612028634

$$$$

     RDKit          3D

 75 78  0  0  0  0  0  0  0  0999 V2000
    9.4312   42.9412   34.3440 C   0  0  0  0  0  0  0  0  0  0  0  0
   10.4886   43.0411   35.0294 O   0  0  0  0  0  0  0  0  0  0  0  0
    8.8558   41.7129   34.0298 O   0  0  0  0  0  0  0  0  0  0  0  0
    9.4933   40.2164   34.4707 P   0  0  0  0  0  0  0  0  0  0  0  0
    9.7290   40.1745   36.1317 O   0  0  0  0  0  0  0  0  0  0  0  0
    8.7484   44.1360   33.7721 C   0  0  1  0  0  0  0  0  0  0  0  0
    9.3039   45.3665   34.3387 N   0  0  0  0  0  0  0  0  0  0  0  0
    8.8893   44.0518   32.2308 C   0  0  0  0  0  0  0  0  0  0  0  0
    8.2015   45.1721   31.4435 C   0  0  0  0  0  0  0  0  0  0  0  0
    6.6643   45.1066   31.4887 C   0  0  0  0  0  0  0  0  0  0  0  0
    6.0268   46.3236   30.8121 C   0  0  0  0  0  0  0  0  0  0  0  0
    6.5081   47.5647   31.4187 N   0  0  0  0  0  0  0  0  0  0  0  0
    7.2427   48.5406   30.6825 C   0  0  0  0  0  0  0  0  0  0  0  0
    7.5842   49.7467   31.3032 O   0  0  0  0  0  0  0  0  0  0  0  0
    7.5937   48.3100   29.4944 O   0  0  0  0  0  0  0  0  0  0  0  0
    8.3198   50.7872   30.6601 C   0  0  0  0  0  0  0  0  0  0  0  0
    7.4944   51.4383   29.5730 C   0  0  0  0  0  0  0  0  0  0  0  0
    6.2446   51.9761   29.9302 C   0  0  0  0  0  0  0  0  0  0  0  0
    7.9599   51.5990   28.2403 C   0  0  0  0  0  0  0  0  0  0  0  0
    5.4657   52.6562   28.9931 C   0  0  0  0  0  0  0  0  0  0  0  0
    7.1695   52.3038   27.3167 C   0  0  0  0  0  0  0  0  0  0  0  0
    9.2246   51.0774   27.8059 N   0  0  0  0  0  0  0  0  0  0  0  0
    5.9290   52.8229   27.6895 C   0  0  0  0  0  0  0  0  0  0  0  0
   10.0169   51.8283   26.9685 O   0  0  0  0  0  0  0  0  0  0  0  0
    9.4890   49.8675   27.9578 O   0  0  0  0  0  0  0  0  0  0  0  0
    8.5369   39.1403   34.0143 O   0  0  0  0  0  0  0  0  0  0  0  0
   10.9796   40.0883   33.6889 O   0  0  0  0  0  0  0  0  0  0  0  0
   10.8017   40.0949   32.2901 C   0  0  0  0  0  0  0  0  0  0  0  0
   11.5885   38.9267   31.7042 C   0  0  0  0  0  0  0  0  0  0  0  0
   12.9237   38.9445   32.1722 O   0  0  0  0  0  0  0  0  0  0  0  0
   11.0029   37.5726   32.0908 C   0  0  0  0  0  0  0  0  0  0  0  0
   13.3555   37.5960   32.2595 C   0  0  0  0  0  0  0  0  0  0  0  0
    9.9379   37.1847   31.2657 O   0  0  0  0  0  0  0  0  0  0  0  0
   12.1931   36.6769   31.8952 C   0  0  0  0  0  0  0  0  0  0  0  0
   13.8028   37.2977   33.6186 N   0  0  0  0  0  0  0  0  0  0  0  0
   12.2918   36.2396   30.5587 O   0  0  0  0  0  0  0  0  0  0  0  0
   14.7926   36.4727   33.9858 C   0  0  0  0  0  0  0  0  0  0  0  0
   13.2750   37.7302   34.7935 C   0  0  0  0  0  0  0  0  0  0  0  0
   15.6241   35.7586   33.1857 N   0  0  0  0  0  0  0  0  0  0  0  0
   14.8721   36.4408   35.3326 C   0  0  0  0  0  0  0  0  0  0  0  0
   13.9204   37.2263   35.8802 N   0  0  0  0  0  0  0  0  0  0  0  0
   16.5870   34.9925   33.7800 C   0  0  0  0  0  0  0  0  0  0  0  0
   15.8572   35.6717   35.9441 C   0  0  0  0  0  0  0  0  0  0  0  0
   16.7022   34.9585   35.1437 N   0  0  0  0  0  0  0  0  0  0  0  0
   16.0097   35.6384   37.3561 N   0  0  0  0  0  0  0  0  0  0  0  0
    7.6764   44.0635   34.0547 H   0  0  0  0  0  0  0  0  0  0  0  0
    8.6468   46.1559   34.1430 H   0  0  0  0  0  0  0  0  0  0  0  0
   10.2152   45.5879   33.8747 H   0  0  0  0  0  0  0  0  0  0  0  0
    9.9709   44.0642   31.9680 H   0  0  0  0  0  0  0  0  0  0  0  0
    8.4830   43.0817   31.8667 H   0  0  0  0  0  0  0  0  0  0  0  0
    8.5198   45.0958   30.3806 H   0  0  0  0  0  0  0  0  0  0  0  0
    8.5715   46.1487   31.8172 H   0  0  0  0  0  0  0  0  0  0  0  0
    6.3142   45.0786   32.5414 H   0  0  0  0  0  0  0  0  0  0  0  0
    6.3147   44.1801   30.9837 H   0  0  0  0  0  0  0  0  0  0  0  0
    6.2450   46.2895   29.7231 H   0  0  0  0  0  0  0  0  0  0  0  0
    4.9234   46.2698   30.9297 H   0  0  0  0  0  0  0  0  0  0  0  0
    6.2848   47.7544   32.4216 H   0  0  0  0  0  0  0  0  0  0  0  0
    8.5579   51.5607   31.4202 H   0  0  0  0  0  0  0  0  0  0  0  0
    9.2911   50.3929   30.3047 H   0  0  0  0  0  0  0  0  0  0  0  0
    5.8764   51.8766   30.9442 H   0  0  0  0  0  0  0  0  0  0  0  0
    4.5053   53.0636   29.2815 H   0  0  0  0  0  0  0  0  0  0  0  0
    7.5109   52.4380   26.2979 H   0  0  0  0  0  0  0  0  0  0  0  0
    5.3261   53.3561   26.9657 H   0  0  0  0  0  0  0  0  0  0  0  0
   11.2240   41.0428   31.8929 H   0  0  0  0  0  0  0  0  0  0  0  0
    9.7472   40.0378   31.9304 H   0  0  0  0  0  0  0  0  0  0  0  0
   11.5927   39.0434   30.5966 H   0  0  0  0  0  0  0  0  0  0  0  0
   10.7003   37.5444   33.1641 H   0  0  0  0  0  0  0  0  0  0  0  0
   14.2051   37.4477   31.5560 H   0  0  0  0  0  0  0  0  0  0  0  0
    9.1373   37.6722   31.5906 H   0  0  0  0  0  0  0  0  0  0  0  0
   12.1305   35.7856   32.5586 H   0  0  0  0  0  0  0  0  0  0  0  0
   12.4606   37.0186   29.9674 H   0  0  0  0  0  0  0  0  0  0  0  0
   12.4327   38.4001   34.8694 H   0  0  0  0  0  0  0  0  0  0  0  0
   17.2666   34.4146   33.1690 H   0  0  0  0  0  0  0  0  0  0  0  0
   16.7634   35.0601   37.7894 H   0  0  0  0  0  0  0  0  0  0  0  0
   15.3754   36.1866   37.9788 H   0  0  0  0  0  0  0  0  0  0  0  0
  1  2  2  0
  1  3  1  0
  3  4  1  0
  4  5  1  0
  6  1  1  0
  7  6  1  0
  6  8  1  0
  8  9  1  0
  9 10  1  0
 10 11  1  0
 11 12  1  0
 12 13  1  0
 13 14  1  0
 13 15  2  0
 14 16  1  0
 16 17  1  0
 17 18  2  0
 19 17  1  0
 18 20  1  0
 21 19  2  0
 19 22  1  0
 20 23  2  0
 23 21  1  0
 22 24  1  0
 22 25  2  0
  4 26  2  0
  4 27  1  0
 28 27  1  0
 28 29  1  0
 29 30  1  0
 29 31  1  0
 30 32  1  0
 31 33  1  0
 31 34  1  0
 34 32  1  0
 32 35  1  0
 34 36  1  0
 37 35  1  0
 38 35  1  0
 39 37  2  0
 37 40  1  0
 41 38  2  0
 42 39  1  0
 40 43  2  0
 40 41  1  0
 44 42  2  0
 44 43  1  0
 43 45  1  0
  6 46  1  6
  7 47  1  0
  7 48  1  0
  8 49  1  0
  8 50  1  0
  9 51  1  0
  9 52  1  0
 10 53  1  0
 10 54  1  0
 11 55  1  0
 11 56  1  0
 12 57  1  0
 16 58  1  0
 16 59  1  0
 18 60  1  0
 20 61  1  0
 21 62  1  0
 23 63  1  0
 28 64  1  0
 28 65  1  0
 29 66  1  0
 31 67  1  0
 32 68  1  0
 33 69  1  0
 34 70  1  0
 36 71  1  0
 38 72  1  0
 42 73  1  0
 45 74  1  0
 45 75  1  0
M  CHG  3   5  -1  22   1  24  -1
M  END
>  <EmbedRMS>  (388) 
0.0748610450504

$$$$

     RDKit          3D

 75 78  0  0  0  0  0  0  0  0999 V2000
    9.4315   42.9413   34.3430 C   0  0  0  0  0  0  0  0  0  0  0  0
   10.4886   43.0411   35.0290 O   0  0  0  0  0  0  0  0  0  0  0  0
    8.8563   41.7130   34.0283 O   0  0  0  0  0  0  0  0  0  0  0  0
    9.4945   40.2163   34.4676 P   0  0  0  0  0  0  0  0  0  0  0  0
    9.7311   40.1742   36.1287 O   0  0  0  0  0  0  0  0  0  0  0  0
    8.7486   44.1364   33.7716 C   0  0  1  0  0  0  0  0  0  0  0  0
    9.3038   45.3666   34.3390 N   0  0  0  0  0  0  0  0  0  0  0  0
    8.8898   44.0541   32.2303 C   0  0  0  0  0  0  0  0  0  0  0  0
    8.2015   45.1755   31.4444 C   0  0  0  0  0  0  0  0  0  0  0  0
    6.6641   45.1081   31.4889 C   0  0  0  0  0  0  0  0  0  0  0  0
    6.0237   46.3230   30.8103 C   0  0  0  0  0  0  0  0  0  0  0  0
    6.4993   47.5662   31.4166 N   0  0  0  0  0  0  0  0  0  0  0  0
    7.2568   48.5305   30.6890 C   0  0  0  0  0  0  0  0  0  0  0  0
    7.6669   49.7019   31.3339 O   0  0  0  0  0  0  0  0  0  0  0  0
    7.5906   48.3097   29.4933 O   0  0  0  0  0  0  0  0  0  0  0  0
    8.6030   50.6160   30.7662 C   0  0  0  0  0  0  0  0  0  0  0  0
    9.9761   49.9865   30.6888 C   0  0  0  0  0  0  0  0  0  0  0  0
   10.6001   49.8907   29.4313 C   0  0  0  0  0  0  0  0  0  0  0  0
   10.6238   49.4334   31.8290 C   0  0  0  0  0  0  0  0  0  0  0  0
   11.8316   49.2500   29.2932 C   0  0  0  0  0  0  0  0  0  0  0  0
   11.8567   48.7772   31.6621 C   0  0  0  0  0  0  0  0  0  0  0  0
   10.0492   49.5030   33.1479 N   0  0  0  0  0  0  0  0  0  0  0  0
   12.4560   48.6899   30.4052 C   0  0  0  0  0  0  0  0  0  0  0  0
   10.3525   48.5381   34.0808 O   0  0  0  0  0  0  0  0  0  0  0  0
    9.4134   50.5111   33.5172 O   0  0  0  0  0  0  0  0  0  0  0  0
    8.5374   39.1402   34.0123 O   0  0  0  0  0  0  0  0  0  0  0  0
   10.9799   40.0879   33.6828 O   0  0  0  0  0  0  0  0  0  0  0  0
   10.8003   40.0907   32.2831 C   0  0  0  0  0  0  0  0  0  0  0  0
   11.5958   38.9272   31.6964 C   0  0  0  0  0  0  0  0  0  0  0  0
   12.9239   38.9409   32.1767 O   0  0  0  0  0  0  0  0  0  0  0  0
   11.0062   37.5720   32.0794 C   0  0  0  0  0  0  0  0  0  0  0  0
   13.3506   37.5906   32.2614 C   0  0  0  0  0  0  0  0  0  0  0  0
    9.9064   37.1793   31.2946 O   0  0  0  0  0  0  0  0  0  0  0  0
   12.1919   36.6672   31.9003 C   0  0  0  0  0  0  0  0  0  0  0  0
   13.8017   37.2948   33.6193 N   0  0  0  0  0  0  0  0  0  0  0  0
   12.3133   36.2788   30.5561 O   0  0  0  0  0  0  0  0  0  0  0  0
   14.7927   36.4716   33.9862 C   0  0  0  0  0  0  0  0  0  0  0  0
   13.2746   37.7284   34.7941 C   0  0  0  0  0  0  0  0  0  0  0  0
   15.6240   35.7576   33.1859 N   0  0  0  0  0  0  0  0  0  0  0  0
   14.8728   36.4406   35.3330 C   0  0  0  0  0  0  0  0  0  0  0  0
   13.9209   37.2258   35.8808 N   0  0  0  0  0  0  0  0  0  0  0  0
   16.5874   34.9920   33.7802 C   0  0  0  0  0  0  0  0  0  0  0  0
   15.8579   35.6716   35.9443 C   0  0  0  0  0  0  0  0  0  0  0  0
   16.7028   34.9584   35.1439 N   0  0  0  0  0  0  0  0  0  0  0  0
   16.0103   35.6383   37.3563 N   0  0  0  0  0  0  0  0  0  0  0  0
    7.6765   44.0636   34.0538 H   0  0  0  0  0  0  0  0  0  0  0  0
   10.2141   45.5895   33.8736 H   0  0  0  0  0  0  0  0  0  0  0  0
    8.6453   46.1552   34.1450 H   0  0  0  0  0  0  0  0  0  0  0  0
    9.9715   44.0679   31.9677 H   0  0  0  0  0  0  0  0  0  0  0  0
    8.4844   43.0842   31.8649 H   0  0  0  0  0  0  0  0  0  0  0  0
    8.5206   45.1015   30.3816 H   0  0  0  0  0  0  0  0  0  0  0  0
    8.5701   46.1523   31.8198 H   0  0  0  0  0  0  0  0  0  0  0  0
    6.3163   44.1802   30.9851 H   0  0  0  0  0  0  0  0  0  0  0  0
    6.3138   45.0808   32.5415 H   0  0  0  0  0  0  0  0  0  0  0  0
    4.9203   46.2656   30.9255 H   0  0  0  0  0  0  0  0  0  0  0  0
    6.2442   46.2888   29.7217 H   0  0  0  0  0  0  0  0  0  0  0  0
    6.2798   47.7530   32.4209 H   0  0  0  0  0  0  0  0  0  0  0  0
    8.2397   50.9380   29.7655 H   0  0  0  0  0  0  0  0  0  0  0  0
    8.6491   51.5309   31.3912 H   0  0  0  0  0  0  0  0  0  0  0  0
   10.1259   50.3008   28.5481 H   0  0  0  0  0  0  0  0  0  0  0  0
   12.2986   49.1800   28.3193 H   0  0  0  0  0  0  0  0  0  0  0  0
   12.3660   48.3427   32.5129 H   0  0  0  0  0  0  0  0  0  0  0  0
   13.4087   48.1883   30.2941 H   0  0  0  0  0  0  0  0  0  0  0  0
   11.2115   41.0421   31.8829 H   0  0  0  0  0  0  0  0  0  0  0  0
    9.7455   40.0169   31.9262 H   0  0  0  0  0  0  0  0  0  0  0  0
   11.6246   39.0449   30.5889 H   0  0  0  0  0  0  0  0  0  0  0  0
   10.7050   37.5582   33.1500 H   0  0  0  0  0  0  0  0  0  0  0  0
   14.1984   37.4426   31.5553 H   0  0  0  0  0  0  0  0  0  0  0  0
   10.0893   37.4058   30.3459 H   0  0  0  0  0  0  0  0  0  0  0  0
   12.1337   35.7755   32.5703 H   0  0  0  0  0  0  0  0  0  0  0  0
   11.7933   35.4394   30.4514 H   0  0  0  0  0  0  0  0  0  0  0  0
   12.4314   38.3973   34.8699 H   0  0  0  0  0  0  0  0  0  0  0  0
   17.2669   34.4142   33.1691 H   0  0  0  0  0  0  0  0  0  0  0  0
   16.7638   35.0599   37.7896 H   0  0  0  0  0  0  0  0  0  0  0  0
   15.3759   36.1864   37.9790 H   0  0  0  0  0  0  0  0  0  0  0  0
  1  2  2  0
  1  3  1  0
  3  4  1  0
  4  5  1  0
  6  1  1  0
  7  6  1  0
  6  8  1  0
  8  9  1  0
  9 10  1  0
 10 11  1  0
 11 12  1  0
 12 13  1  0
 13 14  1  0
 13 15  2  0
 14 16  1  0
 16 17  1  0
 17 18  2  0
 19 17  1  0
 18 20  1  0
 21 19  2  0
 19 22  1  0
 20 23  2  0
 23 21  1  0
 22 24  1  0
 22 25  2  0
  4 26  2  0
  4 27  1  0
 28 27  1  0
 28 29  1  0
 29 30  1  0
 29 31  1  0
 30 32  1  0
 31 33  1  0
 31 34  1  0
 34 32  1  0
 32 35  1  0
 34 36  1  0
 37 35  1  0
 38 35  1  0
 39 37  2  0
 37 40  1  0
 41 38  2  0
 42 39  1  0
 40 43  2  0
 40 41  1  0
 44 42  2  0
 44 43  1  0
 43 45  1  0
  6 46  1  6
  7 47  1  0
  7 48  1  0
  8 49  1  0
  8 50  1  0
  9 51  1  0
  9 52  1  0
 10 53  1  0
 10 54  1  0
 11 55  1  0
 11 56  1  0
 12 57  1  0
 16 58  1  0
 16 59  1  0
 18 60  1  0
 20 61  1  0
 21 62  1  0
 23 63  1  0
 28 64  1  0
 28 65  1  0
 29 66  1  0
 31 67  1  0
 32 68  1  0
 33 69  1  0
 34 70  1  0
 36 71  1  0
 38 72  1  0
 42 73  1  0
 45 74  1  0
 45 75  1  0
M  CHG  3   5  -1  22   1  24  -1
M  END
>  <EmbedRMS>  (389) 
0.0744165112599

$$$$

     RDKit          3D

 75 78  0  0  0  0  0  0  0  0999 V2000
    9.4310   42.9412   34.3437 C   0  0  0  0  0  0  0  0  0  0  0  0
   10.4883   43.0411   35.0293 O   0  0  0  0  0  0  0  0  0  0  0  0
    8.8561   41.7128   34.0287 O   0  0  0  0  0  0  0  0  0  0  0  0
    9.4944   40.2161   34.4677 P   0  0  0  0  0  0  0  0  0  0  0  0
    9.7313   40.1740   36.1288 O   0  0  0  0  0  0  0  0  0  0  0  0
    8.7481   44.1361   33.7720 C   0  0  1  0  0  0  0  0  0  0  0  0
    9.3034   45.3667   34.3386 N   0  0  0  0  0  0  0  0  0  0  0  0
    8.8891   44.0518   32.2307 C   0  0  0  0  0  0  0  0  0  0  0  0
    8.2018   45.1721   31.4431 C   0  0  0  0  0  0  0  0  0  0  0  0
    6.6645   45.1051   31.4847 C   0  0  0  0  0  0  0  0  0  0  0  0
    6.0271   46.3254   30.8129 C   0  0  0  0  0  0  0  0  0  0  0  0
    6.5119   47.5629   31.4238 N   0  0  0  0  0  0  0  0  0  0  0  0
    7.2395   48.5469   30.6795 C   0  0  0  0  0  0  0  0  0  0  0  0
    7.5925   49.7821   31.2397 O   0  0  0  0  0  0  0  0  0  0  0  0
    7.5937   48.3043   29.4963 O   0  0  0  0  0  0  0  0  0  0  0  0
    7.1969   50.2363   32.5338 C   0  0  0  0  0  0  0  0  0  0  0  0
    5.7102   50.5104   32.5840 C   0  0  0  0  0  0  0  0  0  0  0  0
    4.9441   49.8839   33.5845 C   0  0  0  0  0  0  0  0  0  0  0  0
    5.0605   51.3511   31.6385 C   0  0  0  0  0  0  0  0  0  0  0  0
    3.5606   50.0558   33.6360 C   0  0  0  0  0  0  0  0  0  0  0  0
    3.6631   51.4968   31.6998 C   0  0  0  0  0  0  0  0  0  0  0  0
    5.7853   52.0477   30.6084 N   0  0  0  0  0  0  0  0  0  0  0  0
    2.9207   50.8554   32.6919 C   0  0  0  0  0  0  0  0  0  0  0  0
    5.1737   52.3271   29.4078 O   0  0  0  0  0  0  0  0  0  0  0  0
    6.9018   52.5529   30.8436 O   0  0  0  0  0  0  0  0  0  0  0  0
    8.5373   39.1400   34.0125 O   0  0  0  0  0  0  0  0  0  0  0  0
   10.9796   40.0878   33.6826 O   0  0  0  0  0  0  0  0  0  0  0  0
   10.7996   40.0901   32.2829 C   0  0  0  0  0  0  0  0  0  0  0  0
   11.5968   38.9274   31.6963 C   0  0  0  0  0  0  0  0  0  0  0  0
   12.9242   38.9426   32.1785 O   0  0  0  0  0  0  0  0  0  0  0  0
   11.0085   37.5714   32.0780 C   0  0  0  0  0  0  0  0  0  0  0  0
   13.3528   37.5929   32.2623 C   0  0  0  0  0  0  0  0  0  0  0  0
    9.9098   37.1771   31.2926 O   0  0  0  0  0  0  0  0  0  0  0  0
   12.1942   36.6683   31.8995 C   0  0  0  0  0  0  0  0  0  0  0  0
   13.8019   37.2950   33.6199 N   0  0  0  0  0  0  0  0  0  0  0  0
   12.3026   36.2773   30.5559 O   0  0  0  0  0  0  0  0  0  0  0  0
   14.7926   36.4715   33.9865 C   0  0  0  0  0  0  0  0  0  0  0  0
   13.2749   37.7286   34.7946 C   0  0  0  0  0  0  0  0  0  0  0  0
   15.6239   35.7577   33.1860 N   0  0  0  0  0  0  0  0  0  0  0  0
   14.8727   36.4403   35.3332 C   0  0  0  0  0  0  0  0  0  0  0  0
   13.9210   37.2257   35.8812 N   0  0  0  0  0  0  0  0  0  0  0  0
   16.5873   34.9921   33.7802 C   0  0  0  0  0  0  0  0  0  0  0  0
   15.8579   35.6714   35.9444 C   0  0  0  0  0  0  0  0  0  0  0  0
   16.7028   34.9583   35.1439 N   0  0  0  0  0  0  0  0  0  0  0  0
   16.0104   35.6381   37.3564 N   0  0  0  0  0  0  0  0  0  0  0  0
    7.6760   44.0635   34.0544 H   0  0  0  0  0  0  0  0  0  0  0  0
    8.6458   46.1559   34.1436 H   0  0  0  0  0  0  0  0  0  0  0  0
   10.2143   45.5887   33.8741 H   0  0  0  0  0  0  0  0  0  0  0  0
    9.9707   44.0639   31.9680 H   0  0  0  0  0  0  0  0  0  0  0  0
    8.4828   43.0817   31.8665 H   0  0  0  0  0  0  0  0  0  0  0  0
    8.5705   46.1485   31.8186 H   0  0  0  0  0  0  0  0  0  0  0  0
    8.5223   45.0973   30.3808 H   0  0  0  0  0  0  0  0  0  0  0  0
    6.3124   45.0712   32.5366 H   0  0  0  0  0  0  0  0  0  0  0  0
    6.3166   44.1808   30.9745 H   0  0  0  0  0  0  0  0  0  0  0  0
    4.9241   46.2727   30.9350 H   0  0  0  0  0  0  0  0  0  0  0  0
    6.2406   46.2946   29.7230 H   0  0  0  0  0  0  0  0  0  0  0  0
    6.3163   47.7066   32.4377 H   0  0  0  0  0  0  0  0  0  0  0  0
    7.5144   49.4974   33.3013 H   0  0  0  0  0  0  0  0  0  0  0  0
    7.7426   51.1734   32.7670 H   0  0  0  0  0  0  0  0  0  0  0  0
    5.4166   49.2475   34.3227 H   0  0  0  0  0  0  0  0  0  0  0  0
    2.9828   49.5624   34.4069 H   0  0  0  0  0  0  0  0  0  0  0  0
    3.1463   52.1258   30.9861 H   0  0  0  0  0  0  0  0  0  0  0  0
    1.8466   50.9838   32.7318 H   0  0  0  0  0  0  0  0  0  0  0  0
   11.2095   41.0419   31.8824 H   0  0  0  0  0  0  0  0  0  0  0  0
    9.7449   40.0145   31.9263 H   0  0  0  0  0  0  0  0  0  0  0  0
   11.6265   39.0456   30.5888 H   0  0  0  0  0  0  0  0  0  0  0  0
   10.7063   37.5575   33.1485 H   0  0  0  0  0  0  0  0  0  0  0  0
   14.2020   37.4484   31.5574 H   0  0  0  0  0  0  0  0  0  0  0  0
   10.0952   37.3991   30.3433 H   0  0  0  0  0  0  0  0  0  0  0  0
   12.1162   35.7745   32.5634 H   0  0  0  0  0  0  0  0  0  0  0  0
   12.9614   35.5349   30.5312 H   0  0  0  0  0  0  0  0  0  0  0  0
   12.4321   38.3982   34.8705 H   0  0  0  0  0  0  0  0  0  0  0  0
   17.2669   34.4144   33.1690 H   0  0  0  0  0  0  0  0  0  0  0  0
   16.7641   35.0598   37.7896 H   0  0  0  0  0  0  0  0  0  0  0  0
   15.3761   36.1862   37.9792 H   0  0  0  0  0  0  0  0  0  0  0  0
  1  2  2  0
  1  3  1  0
  3  4  1  0
  4  5  1  0
  6  1  1  0
  7  6  1  0
  6  8  1  0
  8  9  1  0
  9 10  1  0
 10 11  1  0
 11 12  1  0
 12 13  1  0
 13 14  1  0
 13 15  2  0
 14 16  1  0
 16 17  1  0
 17 18  2  0
 19 17  1  0
 18 20  1  0
 21 19  2  0
 19 22  1  0
 20 23  2  0
 23 21  1  0
 22 24  1  0
 22 25  2  0
  4 26  2  0
  4 27  1  0
 28 27  1  0
 28 29  1  0
 29 30  1  0
 29 31  1  0
 30 32  1  0
 31 33  1  0
 31 34  1  0
 34 32  1  0
 32 35  1  0
 34 36  1  0
 37 35  1  0
 38 35  1  0
 39 37  2  0
 37 40  1  0
 41 38  2  0
 42 39  1  0
 40 43  2  0
 40 41  1  0
 44 42  2  0
 44 43  1  0
 43 45  1  0
  6 46  1  6
  7 47  1  0
  7 48  1  0
  8 49  1  0
  8 50  1  0
  9 51  1  0
  9 52  1  0
 10 53  1  0
 10 54  1  0
 11 55  1  0
 11 56  1  0
 12 57  1  0
 16 58  1  0
 16 59  1  0
 18 60  1  0
 20 61  1  0
 21 62  1  0
 23 63  1  0
 28 64  1  0
 28 65  1  0
 29 66  1  0
 31 67  1  0
 32 68  1  0
 33 69  1  0
 34 70  1  0
 36 71  1  0
 38 72  1  0
 42 73  1  0
 45 74  1  0
 45 75  1  0
M  CHG  3   5  -1  22   1  24  -1
M  END
>  <EmbedRMS>  (390) 
0.0735281943357

$$$$

     RDKit          3D

 75 78  0  0  0  0  0  0  0  0999 V2000
    9.4333   42.9366   34.3462 C   0  0  0  0  0  0  0  0  0  0  0  0
   10.4907   43.0331   35.0319 O   0  0  0  0  0  0  0  0  0  0  0  0
    8.8563   41.7104   34.0296 O   0  0  0  0  0  0  0  0  0  0  0  0
    9.4945   40.2142   34.4680 P   0  0  0  0  0  0  0  0  0  0  0  0
    9.7308   40.1726   36.1291 O   0  0  0  0  0  0  0  0  0  0  0  0
    8.7506   44.1349   33.7741 C   0  0  1  0  0  0  0  0  0  0  0  0
    9.2963   45.3821   34.3133 N   0  0  0  0  0  0  0  0  0  0  0  0
    8.8893   44.0528   32.2358 C   0  0  0  0  0  0  0  0  0  0  0  0
    8.2028   45.1825   31.4615 C   0  0  0  0  0  0  0  0  0  0  0  0
    6.6653   45.1046   31.4855 C   0  0  0  0  0  0  0  0  0  0  0  0
    6.0269   46.3225   30.8103 C   0  0  0  0  0  0  0  0  0  0  0  0
    6.5060   47.5639   31.4179 N   0  0  0  0  0  0  0  0  0  0  0  0
    7.2444   48.5387   30.6839 C   0  0  0  0  0  0  0  0  0  0  0  0
    7.5987   49.7373   31.3087 O   0  0  0  0  0  0  0  0  0  0  0  0
    7.5930   48.3120   29.4936 O   0  0  0  0  0  0  0  0  0  0  0  0
    8.3546   50.7533   30.6552 C   0  0  0  0  0  0  0  0  0  0  0  0
    8.6262   51.8826   31.6196 C   0  0  0  0  0  0  0  0  0  0  0  0
    9.1774   51.5654   32.8748 C   0  0  0  0  0  0  0  0  0  0  0  0
    8.3203   53.2374   31.3226 C   0  0  0  0  0  0  0  0  0  0  0  0
    9.3776   52.5565   33.8368 C   0  0  0  0  0  0  0  0  0  0  0  0
    8.5092   54.2176   32.3119 C   0  0  0  0  0  0  0  0  0  0  0  0
    7.8500   53.6439   30.0285 N   0  0  0  0  0  0  0  0  0  0  0  0
    9.0340   53.8784   33.5598 C   0  0  0  0  0  0  0  0  0  0  0  0
    6.9106   54.6439   29.9270 O   0  0  0  0  0  0  0  0  0  0  0  0
    8.4621   53.2865   29.0009 O   0  0  0  0  0  0  0  0  0  0  0  0
    8.5372   39.1386   34.0124 O   0  0  0  0  0  0  0  0  0  0  0  0
   10.9804   40.0880   33.6837 O   0  0  0  0  0  0  0  0  0  0  0  0
   10.8025   40.0899   32.2839 C   0  0  0  0  0  0  0  0  0  0  0  0
   11.5888   38.9174   31.7007 C   0  0  0  0  0  0  0  0  0  0  0  0
   12.9219   38.9373   32.1692 O   0  0  0  0  0  0  0  0  0  0  0  0
   11.0028   37.5682   32.0980 C   0  0  0  0  0  0  0  0  0  0  0  0
   13.3496   37.5885   32.2601 C   0  0  0  0  0  0  0  0  0  0  0  0
    9.9343   37.1822   31.2756 O   0  0  0  0  0  0  0  0  0  0  0  0
   12.1891   36.6677   31.9049 C   0  0  0  0  0  0  0  0  0  0  0  0
   13.8025   37.2965   33.6186 N   0  0  0  0  0  0  0  0  0  0  0  0
   12.2991   36.2867   30.5567 O   0  0  0  0  0  0  0  0  0  0  0  0
   14.7929   36.4725   33.9858 C   0  0  0  0  0  0  0  0  0  0  0  0
   13.2749   37.7294   34.7935 C   0  0  0  0  0  0  0  0  0  0  0  0
   15.6240   35.7580   33.1858 N   0  0  0  0  0  0  0  0  0  0  0  0
   14.8727   36.4411   35.3327 C   0  0  0  0  0  0  0  0  0  0  0  0
   13.9208   37.2263   35.8803 N   0  0  0  0  0  0  0  0  0  0  0  0
   16.5871   34.9921   33.7801 C   0  0  0  0  0  0  0  0  0  0  0  0
   15.8576   35.6718   35.9441 C   0  0  0  0  0  0  0  0  0  0  0  0
   16.7024   34.9584   35.1438 N   0  0  0  0  0  0  0  0  0  0  0  0
   16.0099   35.6384   37.3562 N   0  0  0  0  0  0  0  0  0  0  0  0
    7.6771   44.0707   34.0504 H   0  0  0  0  0  0  0  0  0  0  0  0
    9.1827   45.3821   35.3535 H   0  0  0  0  0  0  0  0  0  0  0  0
   10.3191   45.4408   34.0999 H   0  0  0  0  0  0  0  0  0  0  0  0
    9.9711   44.0683   31.9739 H   0  0  0  0  0  0  0  0  0  0  0  0
    8.4817   43.0852   31.8668 H   0  0  0  0  0  0  0  0  0  0  0  0
    8.5385   45.1365   30.4023 H   0  0  0  0  0  0  0  0  0  0  0  0
    8.5551   46.1511   31.8744 H   0  0  0  0  0  0  0  0  0  0  0  0
    6.3019   45.0643   32.5333 H   0  0  0  0  0  0  0  0  0  0  0  0
    6.3297   44.1799   30.9677 H   0  0  0  0  0  0  0  0  0  0  0  0
    4.9234   46.2671   30.9263 H   0  0  0  0  0  0  0  0  0  0  0  0
    6.2465   46.2897   29.7216 H   0  0  0  0  0  0  0  0  0  0  0  0
    6.2824   47.7525   32.4210 H   0  0  0  0  0  0  0  0  0  0  0  0
    9.3263   50.3326   30.3171 H   0  0  0  0  0  0  0  0  0  0  0  0
    7.7859   51.0886   29.7655 H   0  0  0  0  0  0  0  0  0  0  0  0
    9.4360   50.5413   33.1160 H   0  0  0  0  0  0  0  0  0  0  0  0
    9.7927   52.2971   34.8022 H   0  0  0  0  0  0  0  0  0  0  0  0
    8.2748   55.2542   32.1050 H   0  0  0  0  0  0  0  0  0  0  0  0
    9.1858   54.6446   34.3090 H   0  0  0  0  0  0  0  0  0  0  0  0
    9.7476   40.0331   31.9256 H   0  0  0  0  0  0  0  0  0  0  0  0
   11.2258   41.0357   31.8830 H   0  0  0  0  0  0  0  0  0  0  0  0
   11.5974   39.0148   30.5904 H   0  0  0  0  0  0  0  0  0  0  0  0
   10.7024   37.5455   33.1719 H   0  0  0  0  0  0  0  0  0  0  0  0
   14.1957   37.4366   31.5528 H   0  0  0  0  0  0  0  0  0  0  0  0
    9.1340   37.6658   31.6069 H   0  0  0  0  0  0  0  0  0  0  0  0
   12.1381   35.7717   32.5697 H   0  0  0  0  0  0  0  0  0  0  0  0
   11.7707   35.4530   30.4496 H   0  0  0  0  0  0  0  0  0  0  0  0
   12.4314   38.3980   34.8694 H   0  0  0  0  0  0  0  0  0  0  0  0
   17.2665   34.4140   33.1691 H   0  0  0  0  0  0  0  0  0  0  0  0
   16.7633   35.0598   37.7895 H   0  0  0  0  0  0  0  0  0  0  0  0
   15.3757   36.1867   37.9789 H   0  0  0  0  0  0  0  0  0  0  0  0
  1  2  2  0
  1  3  1  0
  3  4  1  0
  4  5  1  0
  6  1  1  0
  7  6  1  0
  6  8  1  0
  8  9  1  0
  9 10  1  0
 10 11  1  0
 11 12  1  0
 12 13  1  0
 13 14  1  0
 13 15  2  0
 14 16  1  0
 16 17  1  0
 17 18  2  0
 19 17  1  0
 18 20  1  0
 21 19  2  0
 19 22  1  0
 20 23  2  0
 23 21  1  0
 22 24  1  0
 22 25  2  0
  4 26  2  0
  4 27  1  0
 28 27  1  0
 28 29  1  0
 29 30  1  0
 29 31  1  0
 30 32  1  0
 31 33  1  0
 31 34  1  0
 34 32  1  0
 32 35  1  0
 34 36  1  0
 37 35  1  0
 38 35  1  0
 39 37  2  0
 37 40  1  0
 41 38  2  0
 42 39  1  0
 40 43  2  0
 40 41  1  0
 44 42  2  0
 44 43  1  0
 43 45  1  0
  6 46  1  6
  7 47  1  0
  7 48  1  0
  8 49  1  0
  8 50  1  0
  9 51  1  0
  9 52  1  0
 10 53  1  0
 10 54  1  0
 11 55  1  0
 11 56  1  0
 12 57  1  0
 16 58  1  0
 16 59  1  0
 18 60  1  0
 20 61  1  0
 21 62  1  0
 23 63  1  0
 28 64  1  0
 28 65  1  0
 29 66  1  0
 31 67  1  0
 32 68  1  0
 33 69  1  0
 34 70  1  0
 36 71  1  0
 38 72  1  0
 42 73  1  0
 45 74  1  0
 45 75  1  0
M  CHG  3   5  -1  22   1  24  -1
M  END
>  <EmbedRMS>  (391) 
0.0742311715033

$$$$

     RDKit          3D

 75 78  0  0  0  0  0  0  0  0999 V2000
    9.4331   42.9365   34.3460 C   0  0  0  0  0  0  0  0  0  0  0  0
   10.4905   43.0331   35.0318 O   0  0  0  0  0  0  0  0  0  0  0  0
    8.8562   41.7103   34.0295 O   0  0  0  0  0  0  0  0  0  0  0  0
    9.4943   40.2140   34.4679 P   0  0  0  0  0  0  0  0  0  0  0  0
    9.7310   40.1724   36.1290 O   0  0  0  0  0  0  0  0  0  0  0  0
    8.7505   44.1348   33.7737 C   0  0  1  0  0  0  0  0  0  0  0  0
    9.2961   45.3821   34.3129 N   0  0  0  0  0  0  0  0  0  0  0  0
    8.8893   44.0524   32.2353 C   0  0  0  0  0  0  0  0  0  0  0  0
    8.2034   45.1820   31.4603 C   0  0  0  0  0  0  0  0  0  0  0  0
    6.6659   45.1026   31.4802 C   0  0  0  0  0  0  0  0  0  0  0  0
    6.0261   46.3258   30.8144 C   0  0  0  0  0  0  0  0  0  0  0  0
    6.5142   47.5626   31.4244 N   0  0  0  0  0  0  0  0  0  0  0  0
    7.2273   48.5520   30.6748 C   0  0  0  0  0  0  0  0  0  0  0  0
    7.5463   49.8030   31.2196 O   0  0  0  0  0  0  0  0  0  0  0  0
    7.6024   48.2994   29.5002 O   0  0  0  0  0  0  0  0  0  0  0  0
    6.9817   50.3551   32.4090 C   0  0  0  0  0  0  0  0  0  0  0  0
    5.5305   50.7243   32.1983 C   0  0  0  0  0  0  0  0  0  0  0  0
    4.5392   49.9497   32.8304 C   0  0  0  0  0  0  0  0  0  0  0  0
    5.1387   51.8600   31.4359 C   0  0  0  0  0  0  0  0  0  0  0  0
    3.1878   50.2648   32.6898 C   0  0  0  0  0  0  0  0  0  0  0  0
    3.7694   52.1650   31.3188 C   0  0  0  0  0  0  0  0  0  0  0  0
    6.0998   52.7390   30.8205 N   0  0  0  0  0  0  0  0  0  0  0  0
    2.8033   51.3683   31.9329 C   0  0  0  0  0  0  0  0  0  0  0  0
    7.2220   52.2414   30.2019 O   0  0  0  0  0  0  0  0  0  0  0  0
    5.8475   53.9566   30.7073 O   0  0  0  0  0  0  0  0  0  0  0  0
    8.5372   39.1382   34.0121 O   0  0  0  0  0  0  0  0  0  0  0  0
   10.9798   40.0871   33.6829 O   0  0  0  0  0  0  0  0  0  0  0  0
   10.8002   40.0905   32.2832 C   0  0  0  0  0  0  0  0  0  0  0  0
   11.5958   38.9271   31.6963 C   0  0  0  0  0  0  0  0  0  0  0  0
   12.9239   38.9409   32.1766 O   0  0  0  0  0  0  0  0  0  0  0  0
   11.0062   37.5719   32.0793 C   0  0  0  0  0  0  0  0  0  0  0  0
   13.3507   37.5905   32.2614 C   0  0  0  0  0  0  0  0  0  0  0  0
    9.9064   37.1792   31.2946 O   0  0  0  0  0  0  0  0  0  0  0  0
   12.1920   36.6671   31.9003 C   0  0  0  0  0  0  0  0  0  0  0  0
   13.8017   37.2948   33.6193 N   0  0  0  0  0  0  0  0  0  0  0  0
   12.3134   36.2787   30.5560 O   0  0  0  0  0  0  0  0  0  0  0  0
   14.7927   36.4716   33.9861 C   0  0  0  0  0  0  0  0  0  0  0  0
   13.2746   37.7284   34.7941 C   0  0  0  0  0  0  0  0  0  0  0  0
   15.6240   35.7576   33.1859 N   0  0  0  0  0  0  0  0  0  0  0  0
   14.8728   36.4406   35.3330 C   0  0  0  0  0  0  0  0  0  0  0  0
   13.9209   37.2258   35.8808 N   0  0  0  0  0  0  0  0  0  0  0  0
   16.5874   34.9920   33.7802 C   0  0  0  0  0  0  0  0  0  0  0  0
   15.8579   35.6716   35.9443 C   0  0  0  0  0  0  0  0  0  0  0  0
   16.7028   34.9584   35.1439 N   0  0  0  0  0  0  0  0  0  0  0  0
   16.0103   35.6383   37.3563 N   0  0  0  0  0  0  0  0  0  0  0  0
    7.6768   44.0708   34.0499 H   0  0  0  0  0  0  0  0  0  0  0  0
   10.3190   45.4406   34.0998 H   0  0  0  0  0  0  0  0  0  0  0  0
    9.1822   45.3823   35.3530 H   0  0  0  0  0  0  0  0  0  0  0  0
    8.4815   43.0847   31.8665 H   0  0  0  0  0  0  0  0  0  0  0  0
    9.9712   44.0673   31.9737 H   0  0  0  0  0  0  0  0  0  0  0  0
    8.5414   45.1375   30.4017 H   0  0  0  0  0  0  0  0  0  0  0  0
    8.5548   46.1502   31.8747 H   0  0  0  0  0  0  0  0  0  0  0  0
    6.3322   44.1817   30.9545 H   0  0  0  0  0  0  0  0  0  0  0  0
    6.3007   45.0526   32.5270 H   0  0  0  0  0  0  0  0  0  0  0  0
    6.2331   46.2975   29.7232 H   0  0  0  0  0  0  0  0  0  0  0  0
    4.9238   46.2732   30.9429 H   0  0  0  0  0  0  0  0  0  0  0  0
    6.3572   47.6900   32.4465 H   0  0  0  0  0  0  0  0  0  0  0  0
    7.5496   51.2676   32.6871 H   0  0  0  0  0  0  0  0  0  0  0  0
    7.1140   49.6489   33.2560 H   0  0  0  0  0  0  0  0  0  0  0  0
    4.8087   49.1029   33.4476 H   0  0  0  0  0  0  0  0  0  0  0  0
    2.4371   49.6562   33.1773 H   0  0  0  0  0  0  0  0  0  0  0  0
    3.4475   53.0231   30.7421 H   0  0  0  0  0  0  0  0  0  0  0  0
    1.7541   51.6133   31.8291 H   0  0  0  0  0  0  0  0  0  0  0  0
    9.7455   40.0168   31.9263 H   0  0  0  0  0  0  0  0  0  0  0  0
   11.2116   41.0420   31.8834 H   0  0  0  0  0  0  0  0  0  0  0  0
   11.6245   39.0449   30.5888 H   0  0  0  0  0  0  0  0  0  0  0  0
   10.7050   37.5579   33.1499 H   0  0  0  0  0  0  0  0  0  0  0  0
   14.1985   37.4426   31.5553 H   0  0  0  0  0  0  0  0  0  0  0  0
   10.0893   37.4057   30.3459 H   0  0  0  0  0  0  0  0  0  0  0  0
   12.1337   35.7754   32.5703 H   0  0  0  0  0  0  0  0  0  0  0  0
   11.7934   35.4394   30.4513 H   0  0  0  0  0  0  0  0  0  0  0  0
   12.4314   38.3973   34.8700 H   0  0  0  0  0  0  0  0  0  0  0  0
   17.2669   34.4142   33.1691 H   0  0  0  0  0  0  0  0  0  0  0  0
   15.3759   36.1864   37.9790 H   0  0  0  0  0  0  0  0  0  0  0  0
   16.7638   35.0599   37.7896 H   0  0  0  0  0  0  0  0  0  0  0  0
  1  2  2  0
  1  3  1  0
  3  4  1  0
  4  5  1  0
  6  1  1  0
  7  6  1  0
  6  8  1  0
  8  9  1  0
  9 10  1  0
 10 11  1  0
 11 12  1  0
 12 13  1  0
 13 14  1  0
 13 15  2  0
 14 16  1  0
 16 17  1  0
 17 18  2  0
 19 17  1  0
 18 20  1  0
 21 19  2  0
 19 22  1  0
 20 23  2  0
 23 21  1  0
 22 24  1  0
 22 25  2  0
  4 26  2  0
  4 27  1  0
 28 27  1  0
 28 29  1  0
 29 30  1  0
 29 31  1  0
 30 32  1  0
 31 33  1  0
 31 34  1  0
 34 32  1  0
 32 35  1  0
 34 36  1  0
 37 35  1  0
 38 35  1  0
 39 37  2  0
 37 40  1  0
 41 38  2  0
 42 39  1  0
 40 43  2  0
 40 41  1  0
 44 42  2  0
 44 43  1  0
 43 45  1  0
  6 46  1  6
  7 47  1  0
  7 48  1  0
  8 49  1  0
  8 50  1  0
  9 51  1  0
  9 52  1  0
 10 53  1  0
 10 54  1  0
 11 55  1  0
 11 56  1  0
 12 57  1  0
 16 58  1  0
 16 59  1  0
 18 60  1  0
 20 61  1  0
 21 62  1  0
 23 63  1  0
 28 64  1  0
 28 65  1  0
 29 66  1  0
 31 67  1  0
 32 68  1  0
 33 69  1  0
 34 70  1  0
 36 71  1  0
 38 72  1  0
 42 73  1  0
 45 74  1  0
 45 75  1  0
M  CHG  3   5  -1  22   1  24  -1
M  END
>  <EmbedRMS>  (392) 
0.0743699693264

$$$$

     RDKit          3D

 75 78  0  0  0  0  0  0  0  0999 V2000
    9.4333   42.9370   34.3463 C   0  0  0  0  0  0  0  0  0  0  0  0
   10.4908   43.0334   35.0318 O   0  0  0  0  0  0  0  0  0  0  0  0
    8.8559   41.7108   34.0305 O   0  0  0  0  0  0  0  0  0  0  0  0
    9.4931   40.2145   34.4708 P   0  0  0  0  0  0  0  0  0  0  0  0
    9.7288   40.1731   36.1318 O   0  0  0  0  0  0  0  0  0  0  0  0
    8.7507   44.1354   33.7741 C   0  0  1  0  0  0  0  0  0  0  0  0
    9.2963   45.3827   34.3132 N   0  0  0  0  0  0  0  0  0  0  0  0
    8.8892   44.0535   32.2358 C   0  0  0  0  0  0  0  0  0  0  0  0
    8.2025   45.1833   31.4618 C   0  0  0  0  0  0  0  0  0  0  0  0
    6.6649   45.1047   31.4850 C   0  0  0  0  0  0  0  0  0  0  0  0
    6.0256   46.3219   30.8088 C   0  0  0  0  0  0  0  0  0  0  0  0
    6.5026   47.5638   31.4167 N   0  0  0  0  0  0  0  0  0  0  0  0
    7.2541   48.5326   30.6885 C   0  0  0  0  0  0  0  0  0  0  0  0
    7.6530   49.7064   31.3319 O   0  0  0  0  0  0  0  0  0  0  0  0
    7.5888   48.3143   29.4925 O   0  0  0  0  0  0  0  0  0  0  0  0
    8.4659   50.6927   30.7039 C   0  0  0  0  0  0  0  0  0  0  0  0
    8.8378   51.7556   31.7074 C   0  0  0  0  0  0  0  0  0  0  0  0
    8.4767   53.0897   31.4418 C   0  0  0  0  0  0  0  0  0  0  0  0
    9.5027   51.4463   32.9271 C   0  0  0  0  0  0  0  0  0  0  0  0
    8.7541   54.1003   32.3628 C   0  0  0  0  0  0  0  0  0  0  0  0
    9.7574   52.4794   33.8469 C   0  0  0  0  0  0  0  0  0  0  0  0
    9.9031   50.1045   33.2647 N   0  0  0  0  0  0  0  0  0  0  0  0
    9.3896   53.7953   33.5642 C   0  0  0  0  0  0  0  0  0  0  0  0
    9.9663   49.7186   34.5840 O   0  0  0  0  0  0  0  0  0  0  0  0
   10.3468   49.3294   32.3932 O   0  0  0  0  0  0  0  0  0  0  0  0
    8.5366   39.1387   34.0140 O   0  0  0  0  0  0  0  0  0  0  0  0
   10.9794   40.0875   33.6890 O   0  0  0  0  0  0  0  0  0  0  0  0
   10.8017   40.0947   32.2902 C   0  0  0  0  0  0  0  0  0  0  0  0
   11.5885   38.9266   31.7041 C   0  0  0  0  0  0  0  0  0  0  0  0
   12.9237   38.9445   32.1721 O   0  0  0  0  0  0  0  0  0  0  0  0
   11.0029   37.5726   32.0908 C   0  0  0  0  0  0  0  0  0  0  0  0
   13.3555   37.5960   32.2594 C   0  0  0  0  0  0  0  0  0  0  0  0
    9.9380   37.1846   31.2656 O   0  0  0  0  0  0  0  0  0  0  0  0
   12.1932   36.6769   31.8952 C   0  0  0  0  0  0  0  0  0  0  0  0
   13.8028   37.2977   33.6186 N   0  0  0  0  0  0  0  0  0  0  0  0
   12.2918   36.2396   30.5587 O   0  0  0  0  0  0  0  0  0  0  0  0
   14.7926   36.4727   33.9858 C   0  0  0  0  0  0  0  0  0  0  0  0
   13.2750   37.7302   34.7935 C   0  0  0  0  0  0  0  0  0  0  0  0
   15.6241   35.7586   33.1857 N   0  0  0  0  0  0  0  0  0  0  0  0
   14.8721   36.4408   35.3326 C   0  0  0  0  0  0  0  0  0  0  0  0
   13.9204   37.2263   35.8802 N   0  0  0  0  0  0  0  0  0  0  0  0
   16.5870   34.9925   33.7800 C   0  0  0  0  0  0  0  0  0  0  0  0
   15.8572   35.6717   35.9441 C   0  0  0  0  0  0  0  0  0  0  0  0
   16.7022   34.9586   35.1437 N   0  0  0  0  0  0  0  0  0  0  0  0
   16.0097   35.6384   37.3561 N   0  0  0  0  0  0  0  0  0  0  0  0
    7.6771   44.0713   34.0504 H   0  0  0  0  0  0  0  0  0  0  0  0
    9.1835   45.3827   35.3535 H   0  0  0  0  0  0  0  0  0  0  0  0
   10.3190   45.4421   34.0990 H   0  0  0  0  0  0  0  0  0  0  0  0
    8.4817   43.0858   31.8667 H   0  0  0  0  0  0  0  0  0  0  0  0
    9.9710   44.0691   31.9739 H   0  0  0  0  0  0  0  0  0  0  0  0
    8.5540   46.1520   31.8754 H   0  0  0  0  0  0  0  0  0  0  0  0
    8.5387   45.1383   30.4028 H   0  0  0  0  0  0  0  0  0  0  0  0
    6.3302   44.1796   30.9676 H   0  0  0  0  0  0  0  0  0  0  0  0
    6.3011   45.0646   32.5327 H   0  0  0  0  0  0  0  0  0  0  0  0
    6.2467   46.2893   29.7203 H   0  0  0  0  0  0  0  0  0  0  0  0
    4.9221   46.2653   30.9233 H   0  0  0  0  0  0  0  0  0  0  0  0
    6.2821   47.7497   32.4210 H   0  0  0  0  0  0  0  0  0  0  0  0
    7.9062   51.1259   29.8461 H   0  0  0  0  0  0  0  0  0  0  0  0
    9.3889   50.2307   30.2941 H   0  0  0  0  0  0  0  0  0  0  0  0
    7.9701   53.3512   30.5209 H   0  0  0  0  0  0  0  0  0  0  0  0
    8.4696   55.1220   32.1465 H   0  0  0  0  0  0  0  0  0  0  0  0
   10.2581   52.2678   34.7832 H   0  0  0  0  0  0  0  0  0  0  0  0
    9.5998   54.5809   34.2787 H   0  0  0  0  0  0  0  0  0  0  0  0
   11.2242   41.0427   31.8934 H   0  0  0  0  0  0  0  0  0  0  0  0
    9.7472   40.0378   31.9304 H   0  0  0  0  0  0  0  0  0  0  0  0
   11.5927   39.0434   30.5965 H   0  0  0  0  0  0  0  0  0  0  0  0
   10.7003   37.5442   33.1640 H   0  0  0  0  0  0  0  0  0  0  0  0
   14.2052   37.4477   31.5560 H   0  0  0  0  0  0  0  0  0  0  0  0
    9.1374   37.6722   31.5905 H   0  0  0  0  0  0  0  0  0  0  0  0
   12.1305   35.7855   32.5585 H   0  0  0  0  0  0  0  0  0  0  0  0
   12.4606   37.0186   29.9674 H   0  0  0  0  0  0  0  0  0  0  0  0
   12.4327   38.4000   34.8694 H   0  0  0  0  0  0  0  0  0  0  0  0
   17.2666   34.4147   33.1690 H   0  0  0  0  0  0  0  0  0  0  0  0
   16.7633   35.0601   37.7894 H   0  0  0  0  0  0  0  0  0  0  0  0
   15.3754   36.1866   37.9788 H   0  0  0  0  0  0  0  0  0  0  0  0
  1  2  2  0
  1  3  1  0
  3  4  1  0
  4  5  1  0
  6  1  1  0
  7  6  1  0
  6  8  1  0
  8  9  1  0
  9 10  1  0
 10 11  1  0
 11 12  1  0
 12 13  1  0
 13 14  1  0
 13 15  2  0
 14 16  1  0
 16 17  1  0
 17 18  2  0
 19 17  1  0
 18 20  1  0
 21 19  2  0
 19 22  1  0
 20 23  2  0
 23 21  1  0
 22 24  1  0
 22 25  2  0
  4 26  2  0
  4 27  1  0
 28 27  1  0
 28 29  1  0
 29 30  1  0
 29 31  1  0
 30 32  1  0
 31 33  1  0
 31 34  1  0
 34 32  1  0
 32 35  1  0
 34 36  1  0
 37 35  1  0
 38 35  1  0
 39 37  2  0
 37 40  1  0
 41 38  2  0
 42 39  1  0
 40 43  2  0
 40 41  1  0
 44 42  2  0
 44 43  1  0
 43 45  1  0
  6 46  1  6
  7 47  1  0
  7 48  1  0
  8 49  1  0
  8 50  1  0
  9 51  1  0
  9 52  1  0
 10 53  1  0
 10 54  1  0
 11 55  1  0
 11 56  1  0
 12 57  1  0
 16 58  1  0
 16 59  1  0
 18 60  1  0
 20 61  1  0
 21 62  1  0
 23 63  1  0
 28 64  1  0
 28 65  1  0
 29 66  1  0
 31 67  1  0
 32 68  1  0
 33 69  1  0
 34 70  1  0
 36 71  1  0
 38 72  1  0
 42 73  1  0
 45 74  1  0
 45 75  1  0
M  CHG  3   5  -1  22   1  24  -1
M  END
>  <EmbedRMS>  (393) 
0.0759642322302

$$$$

     RDKit          3D

 75 78  0  0  0  0  0  0  0  0999 V2000
    9.4315   42.9409   34.3437 C   0  0  0  0  0  0  0  0  0  0  0  0
   10.4887   43.0408   35.0294 O   0  0  0  0  0  0  0  0  0  0  0  0
    8.8563   41.7126   34.0289 O   0  0  0  0  0  0  0  0  0  0  0  0
    9.4946   40.2159   34.4678 P   0  0  0  0  0  0  0  0  0  0  0  0
    9.7312   40.1738   36.1289 O   0  0  0  0  0  0  0  0  0  0  0  0
    8.7487   44.1355   33.7720 C   0  0  1  0  0  0  0  0  0  0  0  0
    9.3040   45.3662   34.3384 N   0  0  0  0  0  0  0  0  0  0  0  0
    8.8895   44.0511   32.2305 C   0  0  0  0  0  0  0  0  0  0  0  0
    8.1995   45.1696   31.4429 C   0  0  0  0  0  0  0  0  0  0  0  0
    6.6621   45.1021   31.4918 C   0  0  0  0  0  0  0  0  0  0  0  0
    6.0198   46.3197   30.8225 C   0  0  0  0  0  0  0  0  0  0  0  0
    6.5168   47.5595   31.4198 N   0  0  0  0  0  0  0  0  0  0  0  0
    7.2232   48.5453   30.6705 C   0  0  0  0  0  0  0  0  0  0  0  0
    7.0122   48.7446   29.2573 O   0  0  0  0  0  0  0  0  0  0  0  0
    7.6140   48.3235   29.4927 O   0  0  0  0  0  0  0  0  0  0  0  0
    5.8297   49.5679   28.7505 C   0  0  0  0  0  0  0  0  0  0  0  0
    4.5386   48.8109   28.9435 C   0  0  0  0  0  0  0  0  0  0  0  0
    4.3064   47.6921   28.1246 C   0  0  0  0  0  0  0  0  0  0  0  0
    3.5471   49.2019   29.8809 C   0  0  0  0  0  0  0  0  0  0  0  0
    3.1135   46.9746   28.2193 C   0  0  0  0  0  0  0  0  0  0  0  0
    2.3437   48.4772   29.9480 C   0  0  0  0  0  0  0  0  0  0  0  0
    3.7419   50.3109   30.7729 N   0  0  0  0  0  0  0  0  0  0  0  0
    2.1316   47.3696   29.1258 C   0  0  0  0  0  0  0  0  0  0  0  0
    4.8974   50.4096   31.5122 O   0  0  0  0  0  0  0  0  0  0  0  0
    2.7838   51.0609   31.0523 O   0  0  0  0  0  0  0  0  0  0  0  0
    8.5374   39.1399   34.0124 O   0  0  0  0  0  0  0  0  0  0  0  0
   10.9799   40.0878   33.6828 O   0  0  0  0  0  0  0  0  0  0  0  0
   10.8002   40.0907   32.2832 C   0  0  0  0  0  0  0  0  0  0  0  0
   11.5958   38.9271   31.6964 C   0  0  0  0  0  0  0  0  0  0  0  0
   12.9239   38.9409   32.1767 O   0  0  0  0  0  0  0  0  0  0  0  0
   11.0062   37.5719   32.0794 C   0  0  0  0  0  0  0  0  0  0  0  0
   13.3506   37.5905   32.2614 C   0  0  0  0  0  0  0  0  0  0  0  0
    9.9064   37.1793   31.2946 O   0  0  0  0  0  0  0  0  0  0  0  0
   12.1920   36.6672   31.9003 C   0  0  0  0  0  0  0  0  0  0  0  0
   13.8017   37.2948   33.6193 N   0  0  0  0  0  0  0  0  0  0  0  0
   12.3133   36.2788   30.5561 O   0  0  0  0  0  0  0  0  0  0  0  0
   14.7927   36.4717   33.9862 C   0  0  0  0  0  0  0  0  0  0  0  0
   13.2746   37.7284   34.7941 C   0  0  0  0  0  0  0  0  0  0  0  0
   15.6240   35.7576   33.1859 N   0  0  0  0  0  0  0  0  0  0  0  0
   14.8728   36.4406   35.3330 C   0  0  0  0  0  0  0  0  0  0  0  0
   13.9209   37.2258   35.8808 N   0  0  0  0  0  0  0  0  0  0  0  0
   16.5874   34.9920   33.7802 C   0  0  0  0  0  0  0  0  0  0  0  0
   15.8579   35.6716   35.9443 C   0  0  0  0  0  0  0  0  0  0  0  0
   16.7028   34.9584   35.1439 N   0  0  0  0  0  0  0  0  0  0  0  0
   16.0103   35.6383   37.3563 N   0  0  0  0  0  0  0  0  0  0  0  0
    7.6770   44.0626   34.0552 H   0  0  0  0  0  0  0  0  0  0  0  0
   10.2156   45.5873   33.8747 H   0  0  0  0  0  0  0  0  0  0  0  0
    8.6472   46.1556   34.1416 H   0  0  0  0  0  0  0  0  0  0  0  0
    9.9710   44.0651   31.9673 H   0  0  0  0  0  0  0  0  0  0  0  0
    8.4847   43.0802   31.8668 H   0  0  0  0  0  0  0  0  0  0  0  0
    8.5153   45.0923   30.3794 H   0  0  0  0  0  0  0  0  0  0  0  0
    8.5705   46.1464   31.8148 H   0  0  0  0  0  0  0  0  0  0  0  0
    6.3147   45.0701   32.5451 H   0  0  0  0  0  0  0  0  0  0  0  0
    6.3120   44.1767   30.9851 H   0  0  0  0  0  0  0  0  0  0  0  0
    4.9179   46.2716   30.9557 H   0  0  0  0  0  0  0  0  0  0  0  0
    6.2279   46.2775   29.7326 H   0  0  0  0  0  0  0  0  0  0  0  0
    6.3801   47.7207   32.4425 H   0  0  0  0  0  0  0  0  0  0  0  0
    5.8232   50.5592   29.2461 H   0  0  0  0  0  0  0  0  0  0  0  0
    5.9712   49.7670   27.6666 H   0  0  0  0  0  0  0  0  0  0  0  0
    5.0536   47.3767   27.4064 H   0  0  0  0  0  0  0  0  0  0  0  0
    2.9482   46.1140   27.5841 H   0  0  0  0  0  0  0  0  0  0  0  0
    1.5751   48.7598   30.6564 H   0  0  0  0  0  0  0  0  0  0  0  0
    1.2054   46.8139   29.1953 H   0  0  0  0  0  0  0  0  0  0  0  0
    9.7454   40.0168   31.9264 H   0  0  0  0  0  0  0  0  0  0  0  0
   11.2114   41.0421   31.8830 H   0  0  0  0  0  0  0  0  0  0  0  0
   11.6245   39.0449   30.5889 H   0  0  0  0  0  0  0  0  0  0  0  0
   10.7050   37.5581   33.1500 H   0  0  0  0  0  0  0  0  0  0  0  0
   14.1985   37.4426   31.5553 H   0  0  0  0  0  0  0  0  0  0  0  0
   10.0893   37.4058   30.3459 H   0  0  0  0  0  0  0  0  0  0  0  0
   12.1337   35.7754   32.5703 H   0  0  0  0  0  0  0  0  0  0  0  0
   11.7933   35.4394   30.4514 H   0  0  0  0  0  0  0  0  0  0  0  0
   12.4314   38.3973   34.8700 H   0  0  0  0  0  0  0  0  0  0  0  0
   17.2669   34.4142   33.1691 H   0  0  0  0  0  0  0  0  0  0  0  0
   15.3759   36.1864   37.9790 H   0  0  0  0  0  0  0  0  0  0  0  0
   16.7638   35.0599   37.7896 H   0  0  0  0  0  0  0  0  0  0  0  0
  1  2  2  0
  1  3  1  0
  3  4  1  0
  4  5  1  0
  6  1  1  0
  7  6  1  0
  6  8  1  0
  8  9  1  0
  9 10  1  0
 10 11  1  0
 11 12  1  0
 12 13  1  0
 13 14  1  0
 13 15  2  0
 14 16  1  0
 16 17  1  0
 17 18  2  0
 19 17  1  0
 18 20  1  0
 21 19  2  0
 19 22  1  0
 20 23  2  0
 23 21  1  0
 22 24  1  0
 22 25  2  0
  4 26  2  0
  4 27  1  0
 28 27  1  0
 28 29  1  0
 29 30  1  0
 29 31  1  0
 30 32  1  0
 31 33  1  0
 31 34  1  0
 34 32  1  0
 32 35  1  0
 34 36  1  0
 37 35  1  0
 38 35  1  0
 39 37  2  0
 37 40  1  0
 41 38  2  0
 42 39  1  0
 40 43  2  0
 40 41  1  0
 44 42  2  0
 44 43  1  0
 43 45  1  0
  6 46  1  6
  7 47  1  0
  7 48  1  0
  8 49  1  0
  8 50  1  0
  9 51  1  0
  9 52  1  0
 10 53  1  0
 10 54  1  0
 11 55  1  0
 11 56  1  0
 12 57  1  0
 16 58  1  0
 16 59  1  0
 18 60  1  0
 20 61  1  0
 21 62  1  0
 23 63  1  0
 28 64  1  0
 28 65  1  0
 29 66  1  0
 31 67  1  0
 32 68  1  0
 33 69  1  0
 34 70  1  0
 36 71  1  0
 38 72  1  0
 42 73  1  0
 45 74  1  0
 45 75  1  0
M  CHG  3   5  -1  22   1  24  -1
M  END
>  <EmbedRMS>  (394) 
0.0739785895066

$$$$

     RDKit          3D

 75 78  0  0  0  0  0  0  0  0999 V2000
    9.4330   42.9367   34.3463 C   0  0  0  0  0  0  0  0  0  0  0  0
   10.4906   43.0331   35.0318 O   0  0  0  0  0  0  0  0  0  0  0  0
    8.8558   41.7105   34.0299 O   0  0  0  0  0  0  0  0  0  0  0  0
    9.4943   40.2142   34.4677 P   0  0  0  0  0  0  0  0  0  0  0  0
    9.7317   40.1724   36.1287 O   0  0  0  0  0  0  0  0  0  0  0  0
    8.7504   44.1351   33.7742 C   0  0  1  0  0  0  0  0  0  0  0  0
    9.2960   45.3824   34.3134 N   0  0  0  0  0  0  0  0  0  0  0  0
    8.8891   44.0531   32.2360 C   0  0  0  0  0  0  0  0  0  0  0  0
    8.2029   45.1830   31.4619 C   0  0  0  0  0  0  0  0  0  0  0  0
    6.6655   45.1041   31.4831 C   0  0  0  0  0  0  0  0  0  0  0  0
    6.0282   46.3228   30.8077 C   0  0  0  0  0  0  0  0  0  0  0  0
    6.5039   47.5632   31.4206 N   0  0  0  0  0  0  0  0  0  0  0  0
    7.2528   48.5389   30.6855 C   0  0  0  0  0  0  0  0  0  0  0  0
    7.6568   49.7445   31.2713 O   0  0  0  0  0  0  0  0  0  0  0  0
    7.5860   48.3102   29.4934 O   0  0  0  0  0  0  0  0  0  0  0  0
    7.3923   50.0988   32.6260 C   0  0  0  0  0  0  0  0  0  0  0  0
    7.9514   51.4723   32.9086 C   0  0  0  0  0  0  0  0  0  0  0  0
    7.6028   52.5226   32.0398 C   0  0  0  0  0  0  0  0  0  0  0  0
    8.8337   51.7353   33.9903 C   0  0  0  0  0  0  0  0  0  0  0  0
    8.1502   53.7959   32.2044 C   0  0  0  0  0  0  0  0  0  0  0  0
    9.3908   53.0182   34.1266 C   0  0  0  0  0  0  0  0  0  0  0  0
    9.1538   50.7358   34.9699 N   0  0  0  0  0  0  0  0  0  0  0  0
    9.0509   54.0404   33.2394 C   0  0  0  0  0  0  0  0  0  0  0  0
   10.4266   50.6717   35.4884 O   0  0  0  0  0  0  0  0  0  0  0  0
    8.2402   50.1018   35.5370 O   0  0  0  0  0  0  0  0  0  0  0  0
    8.5371   39.1383   34.0123 O   0  0  0  0  0  0  0  0  0  0  0  0
   10.9792   40.0888   33.6814 O   0  0  0  0  0  0  0  0  0  0  0  0
   10.7976   40.0842   32.2817 C   0  0  0  0  0  0  0  0  0  0  0  0
   11.5897   38.9146   31.7008 C   0  0  0  0  0  0  0  0  0  0  0  0
   12.9218   38.9385   32.1717 O   0  0  0  0  0  0  0  0  0  0  0  0
   11.0070   37.5654   32.0975 C   0  0  0  0  0  0  0  0  0  0  0  0
   13.3533   37.5909   32.2610 C   0  0  0  0  0  0  0  0  0  0  0  0
    9.9333   37.1935   31.2754 O   0  0  0  0  0  0  0  0  0  0  0  0
   12.1945   36.6671   31.9040 C   0  0  0  0  0  0  0  0  0  0  0  0
   13.8036   37.2970   33.6193 N   0  0  0  0  0  0  0  0  0  0  0  0
   12.2893   36.2849   30.5562 O   0  0  0  0  0  0  0  0  0  0  0  0
   14.7931   36.4723   33.9863 C   0  0  0  0  0  0  0  0  0  0  0  0
   13.2756   37.7298   34.7940 C   0  0  0  0  0  0  0  0  0  0  0  0
   15.6242   35.7580   33.1861 N   0  0  0  0  0  0  0  0  0  0  0  0
   14.8727   36.4407   35.3331 C   0  0  0  0  0  0  0  0  0  0  0  0
   13.9210   37.2262   35.8808 N   0  0  0  0  0  0  0  0  0  0  0  0
   16.5872   34.9920   33.7803 C   0  0  0  0  0  0  0  0  0  0  0  0
   15.8577   35.6715   35.9444 C   0  0  0  0  0  0  0  0  0  0  0  0
   16.7025   34.9582   35.1440 N   0  0  0  0  0  0  0  0  0  0  0  0
   16.0101   35.6382   37.3564 N   0  0  0  0  0  0  0  0  0  0  0  0
    7.6767   44.0711   34.0502 H   0  0  0  0  0  0  0  0  0  0  0  0
   10.3189   45.4411   34.1004 H   0  0  0  0  0  0  0  0  0  0  0  0
    9.1819   45.3829   35.3535 H   0  0  0  0  0  0  0  0  0  0  0  0
    9.9710   44.0685   31.9743 H   0  0  0  0  0  0  0  0  0  0  0  0
    8.4814   43.0855   31.8668 H   0  0  0  0  0  0  0  0  0  0  0  0
    8.5537   46.1516   31.8764 H   0  0  0  0  0  0  0  0  0  0  0  0
    8.5404   45.1385   30.4032 H   0  0  0  0  0  0  0  0  0  0  0  0
    6.3002   45.0623   32.5303 H   0  0  0  0  0  0  0  0  0  0  0  0
    6.3313   44.1800   30.9636 H   0  0  0  0  0  0  0  0  0  0  0  0
    4.9244   46.2660   30.9195 H   0  0  0  0  0  0  0  0  0  0  0  0
    6.2511   46.2917   29.7197 H   0  0  0  0  0  0  0  0  0  0  0  0
    6.2684   47.7259   32.4242 H   0  0  0  0  0  0  0  0  0  0  0  0
    6.2944   50.1219   32.7966 H   0  0  0  0  0  0  0  0  0  0  0  0
    7.8422   49.3258   33.2796 H   0  0  0  0  0  0  0  0  0  0  0  0
    6.9172   52.3492   31.2191 H   0  0  0  0  0  0  0  0  0  0  0  0
    7.8812   54.5924   31.5227 H   0  0  0  0  0  0  0  0  0  0  0  0
   10.0706   53.2343   34.9413 H   0  0  0  0  0  0  0  0  0  0  0  0
    9.4778   55.0275   33.3624 H   0  0  0  0  0  0  0  0  0  0  0  0
   11.2111   41.0320   31.8753 H   0  0  0  0  0  0  0  0  0  0  0  0
    9.7422   40.0117   31.9267 H   0  0  0  0  0  0  0  0  0  0  0  0
   11.6005   39.0119   30.5904 H   0  0  0  0  0  0  0  0  0  0  0  0
   10.7015   37.5593   33.1701 H   0  0  0  0  0  0  0  0  0  0  0  0
   14.2012   37.4438   31.5552 H   0  0  0  0  0  0  0  0  0  0  0  0
    9.5289   36.3869   31.6895 H   0  0  0  0  0  0  0  0  0  0  0  0
   12.1244   35.7693   32.5633 H   0  0  0  0  0  0  0  0  0  0  0  0
   12.9478   35.5427   30.5201 H   0  0  0  0  0  0  0  0  0  0  0  0
   12.4328   38.3993   34.8697 H   0  0  0  0  0  0  0  0  0  0  0  0
   17.2666   34.4140   33.1692 H   0  0  0  0  0  0  0  0  0  0  0  0
   15.3759   36.1865   37.9791 H   0  0  0  0  0  0  0  0  0  0  0  0
   16.7636   35.0597   37.7897 H   0  0  0  0  0  0  0  0  0  0  0  0
  1  2  2  0
  1  3  1  0
  3  4  1  0
  4  5  1  0
  6  1  1  0
  7  6  1  0
  6  8  1  0
  8  9  1  0
  9 10  1  0
 10 11  1  0
 11 12  1  0
 12 13  1  0
 13 14  1  0
 13 15  2  0
 14 16  1  0
 16 17  1  0
 17 18  2  0
 19 17  1  0
 18 20  1  0
 21 19  2  0
 19 22  1  0
 20 23  2  0
 23 21  1  0
 22 24  1  0
 22 25  2  0
  4 26  2  0
  4 27  1  0
 28 27  1  0
 28 29  1  0
 29 30  1  0
 29 31  1  0
 30 32  1  0
 31 33  1  0
 31 34  1  0
 34 32  1  0
 32 35  1  0
 34 36  1  0
 37 35  1  0
 38 35  1  0
 39 37  2  0
 37 40  1  0
 41 38  2  0
 42 39  1  0
 40 43  2  0
 40 41  1  0
 44 42  2  0
 44 43  1  0
 43 45  1  0
  6 46  1  6
  7 47  1  0
  7 48  1  0
  8 49  1  0
  8 50  1  0
  9 51  1  0
  9 52  1  0
 10 53  1  0
 10 54  1  0
 11 55  1  0
 11 56  1  0
 12 57  1  0
 16 58  1  0
 16 59  1  0
 18 60  1  0
 20 61  1  0
 21 62  1  0
 23 63  1  0
 28 64  1  0
 28 65  1  0
 29 66  1  0
 31 67  1  0
 32 68  1  0
 33 69  1  0
 34 70  1  0
 36 71  1  0
 38 72  1  0
 42 73  1  0
 45 74  1  0
 45 75  1  0
M  CHG  3   5  -1  22   1  24  -1
M  END
>  <EmbedRMS>  (395) 
0.0744331442706

$$$$

     RDKit          3D

 75 78  0  0  0  0  0  0  0  0999 V2000
    9.4315   42.9422   34.3430 C   0  0  0  0  0  0  0  0  0  0  0  0
   10.4886   43.0416   35.0290 O   0  0  0  0  0  0  0  0  0  0  0  0
    8.8558   41.7138   34.0291 O   0  0  0  0  0  0  0  0  0  0  0  0
    9.4931   40.2171   34.4704 P   0  0  0  0  0  0  0  0  0  0  0  0
    9.7288   40.1751   36.1314 O   0  0  0  0  0  0  0  0  0  0  0  0
    8.7492   44.1380   33.7714 C   0  0  1  0  0  0  0  0  0  0  0  0
    9.3053   45.3680   34.3386 N   0  0  0  0  0  0  0  0  0  0  0  0
    8.8901   44.0558   32.2300 C   0  0  0  0  0  0  0  0  0  0  0  0
    8.2007   45.1769   31.4441 C   0  0  0  0  0  0  0  0  0  0  0  0
    6.6632   45.1088   31.4884 C   0  0  0  0  0  0  0  0  0  0  0  0
    6.0207   46.3219   30.8072 C   0  0  0  0  0  0  0  0  0  0  0  0
    6.4902   47.5670   31.4139 N   0  0  0  0  0  0  0  0  0  0  0  0
    7.2730   48.5188   30.6974 C   0  0  0  0  0  0  0  0  0  0  0  0
    7.7600   49.6426   31.3721 O   0  0  0  0  0  0  0  0  0  0  0  0
    7.5866   48.3119   29.4936 O   0  0  0  0  0  0  0  0  0  0  0  0
    8.8342   50.4379   30.8741 C   0  0  0  0  0  0  0  0  0  0  0  0
   10.1184   49.6356   30.8691 C   0  0  0  0  0  0  0  0  0  0  0  0
   10.4595   48.9190   32.0317 C   0  0  0  0  0  0  0  0  0  0  0  0
   10.9473   49.5246   29.7219 C   0  0  0  0  0  0  0  0  0  0  0  0
   11.5662   48.0694   32.0468 C   0  0  0  0  0  0  0  0  0  0  0  0
   12.0474   48.6505   29.7512 C   0  0  0  0  0  0  0  0  0  0  0  0
   10.7078   50.2969   28.5355 N   0  0  0  0  0  0  0  0  0  0  0  0
   12.3526   47.9272   30.9052 C   0  0  0  0  0  0  0  0  0  0  0  0
   10.9572   49.7463   27.2996 O   0  0  0  0  0  0  0  0  0  0  0  0
   10.5137   51.5273   28.6185 O   0  0  0  0  0  0  0  0  0  0  0  0
    8.5367   39.1408   34.0142 O   0  0  0  0  0  0  0  0  0  0  0  0
   10.9794   40.0884   33.6888 O   0  0  0  0  0  0  0  0  0  0  0  0
   10.8017   40.0950   32.2900 C   0  0  0  0  0  0  0  0  0  0  0  0
   11.5885   38.9267   31.7041 C   0  0  0  0  0  0  0  0  0  0  0  0
   12.9237   38.9446   32.1722 O   0  0  0  0  0  0  0  0  0  0  0  0
   11.0029   37.5727   32.0908 C   0  0  0  0  0  0  0  0  0  0  0  0
   13.3555   37.5960   32.2595 C   0  0  0  0  0  0  0  0  0  0  0  0
    9.9379   37.1847   31.2657 O   0  0  0  0  0  0  0  0  0  0  0  0
   12.1931   36.6770   31.8952 C   0  0  0  0  0  0  0  0  0  0  0  0
   13.8028   37.2977   33.6186 N   0  0  0  0  0  0  0  0  0  0  0  0
   12.2917   36.2396   30.5587 O   0  0  0  0  0  0  0  0  0  0  0  0
   14.7926   36.4727   33.9858 C   0  0  0  0  0  0  0  0  0  0  0  0
   13.2750   37.7302   34.7935 C   0  0  0  0  0  0  0  0  0  0  0  0
   15.6241   35.7586   33.1857 N   0  0  0  0  0  0  0  0  0  0  0  0
   14.8721   36.4408   35.3326 C   0  0  0  0  0  0  0  0  0  0  0  0
   13.9204   37.2263   35.8802 N   0  0  0  0  0  0  0  0  0  0  0  0
   16.5870   34.9925   33.7800 C   0  0  0  0  0  0  0  0  0  0  0  0
   15.8572   35.6717   35.9441 C   0  0  0  0  0  0  0  0  0  0  0  0
   16.7022   34.9585   35.1437 N   0  0  0  0  0  0  0  0  0  0  0  0
   16.0097   35.6384   37.3561 N   0  0  0  0  0  0  0  0  0  0  0  0
    7.6771   44.0661   34.0537 H   0  0  0  0  0  0  0  0  0  0  0  0
    8.6514   46.1592   34.1394 H   0  0  0  0  0  0  0  0  0  0  0  0
   10.2186   45.5866   33.8773 H   0  0  0  0  0  0  0  0  0  0  0  0
    9.9717   44.0707   31.9674 H   0  0  0  0  0  0  0  0  0  0  0  0
    8.4855   43.0856   31.8646 H   0  0  0  0  0  0  0  0  0  0  0  0
    8.5686   46.1541   31.8191 H   0  0  0  0  0  0  0  0  0  0  0  0
    8.5201   45.1033   30.3814 H   0  0  0  0  0  0  0  0  0  0  0  0
    6.3129   45.0828   32.5411 H   0  0  0  0  0  0  0  0  0  0  0  0
    6.3163   44.1796   30.9864 H   0  0  0  0  0  0  0  0  0  0  0  0
    6.2446   46.2878   29.7193 H   0  0  0  0  0  0  0  0  0  0  0  0
    4.9172   46.2611   30.9189 H   0  0  0  0  0  0  0  0  0  0  0  0
    6.2722   47.7504   32.4191 H   0  0  0  0  0  0  0  0  0  0  0  0
    8.5569   50.8174   29.8706 H   0  0  0  0  0  0  0  0  0  0  0  0
    8.9658   51.3128   31.5444 H   0  0  0  0  0  0  0  0  0  0  0  0
    9.8472   48.9961   32.9220 H   0  0  0  0  0  0  0  0  0  0  0  0
   11.8084   47.5126   32.9427 H   0  0  0  0  0  0  0  0  0  0  0  0
   12.6859   48.5472   28.8829 H   0  0  0  0  0  0  0  0  0  0  0  0
   13.2076   47.2637   30.9175 H   0  0  0  0  0  0  0  0  0  0  0  0
   11.2241   41.0429   31.8929 H   0  0  0  0  0  0  0  0  0  0  0  0
    9.7472   40.0380   31.9302 H   0  0  0  0  0  0  0  0  0  0  0  0
   11.5928   39.0434   30.5966 H   0  0  0  0  0  0  0  0  0  0  0  0
   10.7003   37.5444   33.1641 H   0  0  0  0  0  0  0  0  0  0  0  0
   14.2051   37.4478   31.5560 H   0  0  0  0  0  0  0  0  0  0  0  0
    9.1374   37.6723   31.5905 H   0  0  0  0  0  0  0  0  0  0  0  0
   12.1304   35.7856   32.5586 H   0  0  0  0  0  0  0  0  0  0  0  0
   12.4606   37.0186   29.9674 H   0  0  0  0  0  0  0  0  0  0  0  0
   12.4327   38.4001   34.8694 H   0  0  0  0  0  0  0  0  0  0  0  0
   17.2666   34.4146   33.1690 H   0  0  0  0  0  0  0  0  0  0  0  0
   16.7634   35.0601   37.7894 H   0  0  0  0  0  0  0  0  0  0  0  0
   15.3754   36.1866   37.9788 H   0  0  0  0  0  0  0  0  0  0  0  0
  1  2  2  0
  1  3  1  0
  3  4  1  0
  4  5  1  0
  6  1  1  0
  7  6  1  0
  6  8  1  0
  8  9  1  0
  9 10  1  0
 10 11  1  0
 11 12  1  0
 12 13  1  0
 13 14  1  0
 13 15  2  0
 14 16  1  0
 16 17  1  0
 17 18  2  0
 19 17  1  0
 18 20  1  0
 21 19  2  0
 19 22  1  0
 20 23  2  0
 23 21  1  0
 22 24  1  0
 22 25  2  0
  4 26  2  0
  4 27  1  0
 28 27  1  0
 28 29  1  0
 29 30  1  0
 29 31  1  0
 30 32  1  0
 31 33  1  0
 31 34  1  0
 34 32  1  0
 32 35  1  0
 34 36  1  0
 37 35  1  0
 38 35  1  0
 39 37  2  0
 37 40  1  0
 41 38  2  0
 42 39  1  0
 40 43  2  0
 40 41  1  0
 44 42  2  0
 44 43  1  0
 43 45  1  0
  6 46  1  6
  7 47  1  0
  7 48  1  0
  8 49  1  0
  8 50  1  0
  9 51  1  0
  9 52  1  0
 10 53  1  0
 10 54  1  0
 11 55  1  0
 11 56  1  0
 12 57  1  0
 16 58  1  0
 16 59  1  0
 18 60  1  0
 20 61  1  0
 21 62  1  0
 23 63  1  0
 28 64  1  0
 28 65  1  0
 29 66  1  0
 31 67  1  0
 32 68  1  0
 33 69  1  0
 34 70  1  0
 36 71  1  0
 38 72  1  0
 42 73  1  0
 45 74  1  0
 45 75  1  0
M  CHG  3   5  -1  22   1  24  -1
M  END
>  <EmbedRMS>  (396) 
0.0760567189481

$$$$

     RDKit          3D

 75 78  0  0  0  0  0  0  0  0999 V2000
    9.4332   42.9369   34.3461 C   0  0  0  0  0  0  0  0  0  0  0  0
   10.4907   43.0334   35.0318 O   0  0  0  0  0  0  0  0  0  0  0  0
    8.8563   41.7107   34.0295 O   0  0  0  0  0  0  0  0  0  0  0  0
    9.4945   40.2144   34.4679 P   0  0  0  0  0  0  0  0  0  0  0  0
    9.7308   40.1727   36.1291 O   0  0  0  0  0  0  0  0  0  0  0  0
    8.7505   44.1353   33.7741 C   0  0  1  0  0  0  0  0  0  0  0  0
    9.2961   45.3827   34.3134 N   0  0  0  0  0  0  0  0  0  0  0  0
    8.8891   44.0536   32.2359 C   0  0  0  0  0  0  0  0  0  0  0  0
    8.2028   45.1838   31.4622 C   0  0  0  0  0  0  0  0  0  0  0  0
    6.6653   45.1046   31.4834 C   0  0  0  0  0  0  0  0  0  0  0  0
    6.0277   46.3225   30.8067 C   0  0  0  0  0  0  0  0  0  0  0  0
    6.5012   47.5636   31.4197 N   0  0  0  0  0  0  0  0  0  0  0  0
    7.2577   48.5357   30.6877 C   0  0  0  0  0  0  0  0  0  0  0  0
    7.6838   49.7293   31.2815 O   0  0  0  0  0  0  0  0  0  0  0  0
    7.5844   48.3107   29.4932 O   0  0  0  0  0  0  0  0  0  0  0  0
    7.4289   50.0790   32.6387 C   0  0  0  0  0  0  0  0  0  0  0  0
    8.1174   51.3806   32.9645 C   0  0  0  0  0  0  0  0  0  0  0  0
    7.3384   52.4614   33.4186 C   0  0  0  0  0  0  0  0  0  0  0  0
    9.5169   51.5599   32.7893 C   0  0  0  0  0  0  0  0  0  0  0  0
    7.9235   53.6996   33.6858 C   0  0  0  0  0  0  0  0  0  0  0  0
   10.0826   52.8218   33.0507 C   0  0  0  0  0  0  0  0  0  0  0  0
   10.3705   50.4941   32.3314 N   0  0  0  0  0  0  0  0  0  0  0  0
    9.2919   53.8804   33.4988 C   0  0  0  0  0  0  0  0  0  0  0  0
   10.1953   49.2069   32.7831 O   0  0  0  0  0  0  0  0  0  0  0  0
   11.3794   50.7539   31.6433 O   0  0  0  0  0  0  0  0  0  0  0  0
    8.5372   39.1388   34.0124 O   0  0  0  0  0  0  0  0  0  0  0  0
   10.9804   40.0881   33.6837 O   0  0  0  0  0  0  0  0  0  0  0  0
   10.8025   40.0900   32.2838 C   0  0  0  0  0  0  0  0  0  0  0  0
   11.5888   38.9174   31.7007 C   0  0  0  0  0  0  0  0  0  0  0  0
   12.9219   38.9373   32.1692 O   0  0  0  0  0  0  0  0  0  0  0  0
   11.0028   37.5682   32.0980 C   0  0  0  0  0  0  0  0  0  0  0  0
   13.3496   37.5885   32.2601 C   0  0  0  0  0  0  0  0  0  0  0  0
    9.9343   37.1822   31.2756 O   0  0  0  0  0  0  0  0  0  0  0  0
   12.1891   36.6677   31.9049 C   0  0  0  0  0  0  0  0  0  0  0  0
   13.8025   37.2965   33.6186 N   0  0  0  0  0  0  0  0  0  0  0  0
   12.2991   36.2867   30.5567 O   0  0  0  0  0  0  0  0  0  0  0  0
   14.7929   36.4725   33.9858 C   0  0  0  0  0  0  0  0  0  0  0  0
   13.2749   37.7294   34.7935 C   0  0  0  0  0  0  0  0  0  0  0  0
   15.6240   35.7580   33.1858 N   0  0  0  0  0  0  0  0  0  0  0  0
   14.8727   36.4411   35.3327 C   0  0  0  0  0  0  0  0  0  0  0  0
   13.9208   37.2263   35.8803 N   0  0  0  0  0  0  0  0  0  0  0  0
   16.5871   34.9921   33.7801 C   0  0  0  0  0  0  0  0  0  0  0  0
   15.8576   35.6718   35.9441 C   0  0  0  0  0  0  0  0  0  0  0  0
   16.7024   34.9584   35.1438 N   0  0  0  0  0  0  0  0  0  0  0  0
   16.0099   35.6384   37.3562 N   0  0  0  0  0  0  0  0  0  0  0  0
    7.6769   44.0713   34.0502 H   0  0  0  0  0  0  0  0  0  0  0  0
   10.3188   45.4420   34.0993 H   0  0  0  0  0  0  0  0  0  0  0  0
    9.1831   45.3826   35.3536 H   0  0  0  0  0  0  0  0  0  0  0  0
    9.9710   44.0691   31.9741 H   0  0  0  0  0  0  0  0  0  0  0  0
    8.4814   43.0861   31.8666 H   0  0  0  0  0  0  0  0  0  0  0  0
    8.5403   45.1397   30.4035 H   0  0  0  0  0  0  0  0  0  0  0  0
    8.5533   46.1524   31.8770 H   0  0  0  0  0  0  0  0  0  0  0  0
    6.3000   45.0637   32.5306 H   0  0  0  0  0  0  0  0  0  0  0  0
    6.3314   44.1799   30.9647 H   0  0  0  0  0  0  0  0  0  0  0  0
    6.2525   46.2911   29.7191 H   0  0  0  0  0  0  0  0  0  0  0  0
    4.9237   46.2646   30.9165 H   0  0  0  0  0  0  0  0  0  0  0  0
    6.2582   47.7293   32.4210 H   0  0  0  0  0  0  0  0  0  0  0  0
    7.8005   49.2870   33.3217 H   0  0  0  0  0  0  0  0  0  0  0  0
    6.3300   50.1603   32.7887 H   0  0  0  0  0  0  0  0  0  0  0  0
    6.2703   52.3507   33.5603 H   0  0  0  0  0  0  0  0  0  0  0  0
    7.3124   54.5227   34.0332 H   0  0  0  0  0  0  0  0  0  0  0  0
   11.1454   52.9826   32.9206 H   0  0  0  0  0  0  0  0  0  0  0  0
    9.7425   54.8432   33.7031 H   0  0  0  0  0  0  0  0  0  0  0  0
   11.2258   41.0357   31.8830 H   0  0  0  0  0  0  0  0  0  0  0  0
    9.7476   40.0332   31.9256 H   0  0  0  0  0  0  0  0  0  0  0  0
   11.5974   39.0148   30.5904 H   0  0  0  0  0  0  0  0  0  0  0  0
   10.7023   37.5455   33.1719 H   0  0  0  0  0  0  0  0  0  0  0  0
   14.1957   37.4366   31.5528 H   0  0  0  0  0  0  0  0  0  0  0  0
    9.1340   37.6658   31.6069 H   0  0  0  0  0  0  0  0  0  0  0  0
   12.1381   35.7717   32.5697 H   0  0  0  0  0  0  0  0  0  0  0  0
   11.7707   35.4530   30.4496 H   0  0  0  0  0  0  0  0  0  0  0  0
   12.4314   38.3980   34.8694 H   0  0  0  0  0  0  0  0  0  0  0  0
   17.2665   34.4140   33.1691 H   0  0  0  0  0  0  0  0  0  0  0  0
   16.7633   35.0598   37.7895 H   0  0  0  0  0  0  0  0  0  0  0  0
   15.3757   36.1868   37.9789 H   0  0  0  0  0  0  0  0  0  0  0  0
  1  2  2  0
  1  3  1  0
  3  4  1  0
  4  5  1  0
  6  1  1  0
  7  6  1  0
  6  8  1  0
  8  9  1  0
  9 10  1  0
 10 11  1  0
 11 12  1  0
 12 13  1  0
 13 14  1  0
 13 15  2  0
 14 16  1  0
 16 17  1  0
 17 18  2  0
 19 17  1  0
 18 20  1  0
 21 19  2  0
 19 22  1  0
 20 23  2  0
 23 21  1  0
 22 24  1  0
 22 25  2  0
  4 26  2  0
  4 27  1  0
 28 27  1  0
 28 29  1  0
 29 30  1  0
 29 31  1  0
 30 32  1  0
 31 33  1  0
 31 34  1  0
 34 32  1  0
 32 35  1  0
 34 36  1  0
 37 35  1  0
 38 35  1  0
 39 37  2  0
 37 40  1  0
 41 38  2  0
 42 39  1  0
 40 43  2  0
 40 41  1  0
 44 42  2  0
 44 43  1  0
 43 45  1  0
  6 46  1  6
  7 47  1  0
  7 48  1  0
  8 49  1  0
  8 50  1  0
  9 51  1  0
  9 52  1  0
 10 53  1  0
 10 54  1  0
 11 55  1  0
 11 56  1  0
 12 57  1  0
 16 58  1  0
 16 59  1  0
 18 60  1  0
 20 61  1  0
 21 62  1  0
 23 63  1  0
 28 64  1  0
 28 65  1  0
 29 66  1  0
 31 67  1  0
 32 68  1  0
 33 69  1  0
 34 70  1  0
 36 71  1  0
 38 72  1  0
 42 73  1  0
 45 74  1  0
 45 75  1  0
M  CHG  3   5  -1  22   1  24  -1
M  END
>  <EmbedRMS>  (397) 
0.074567098135

$$$$

     RDKit          3D

 75 78  0  0  0  0  0  0  0  0999 V2000
    9.4332   42.9365   34.3463 C   0  0  0  0  0  0  0  0  0  0  0  0
   10.4908   43.0330   35.0319 O   0  0  0  0  0  0  0  0  0  0  0  0
    8.8559   41.7104   34.0304 O   0  0  0  0  0  0  0  0  0  0  0  0
    9.4931   40.2140   34.4703 P   0  0  0  0  0  0  0  0  0  0  0  0
    9.7293   40.1727   36.1313 O   0  0  0  0  0  0  0  0  0  0  0  0
    8.7506   44.1348   33.7741 C   0  0  1  0  0  0  0  0  0  0  0  0
    9.2963   45.3820   34.3133 N   0  0  0  0  0  0  0  0  0  0  0  0
    8.8893   44.0527   32.2359 C   0  0  0  0  0  0  0  0  0  0  0  0
    8.2028   45.1823   31.4615 C   0  0  0  0  0  0  0  0  0  0  0  0
    6.6654   45.1046   31.4855 C   0  0  0  0  0  0  0  0  0  0  0  0
    6.0270   46.3225   30.8105 C   0  0  0  0  0  0  0  0  0  0  0  0
    6.5062   47.5640   31.4180 N   0  0  0  0  0  0  0  0  0  0  0  0
    7.2437   48.5392   30.6836 C   0  0  0  0  0  0  0  0  0  0  0  0
    7.5943   49.7398   31.3067 O   0  0  0  0  0  0  0  0  0  0  0  0
    7.5934   48.3117   29.4937 O   0  0  0  0  0  0  0  0  0  0  0  0
    8.3465   50.7573   30.6512 C   0  0  0  0  0  0  0  0  0  0  0  0
    8.5205   51.9358   31.5779 C   0  0  0  0  0  0  0  0  0  0  0  0
    7.3750   52.4729   32.1934 C   0  0  0  0  0  0  0  0  0  0  0  0
    9.7905   52.4960   31.8746 C   0  0  0  0  0  0  0  0  0  0  0  0
    7.4836   53.5116   33.1194 C   0  0  0  0  0  0  0  0  0  0  0  0
    9.8818   53.5287   32.8245 C   0  0  0  0  0  0  0  0  0  0  0  0
   10.9823   52.0609   31.2027 N   0  0  0  0  0  0  0  0  0  0  0  0
    8.7358   54.0313   33.4423 C   0  0  0  0  0  0  0  0  0  0  0  0
   11.0112   52.0000   29.8284 O   0  0  0  0  0  0  0  0  0  0  0  0
   12.0564   51.9723   31.8326 O   0  0  0  0  0  0  0  0  0  0  0  0
    8.5366   39.1382   34.0136 O   0  0  0  0  0  0  0  0  0  0  0  0
   10.9788   40.0866   33.6873 O   0  0  0  0  0  0  0  0  0  0  0  0
   10.7993   40.0944   32.2886 C   0  0  0  0  0  0  0  0  0  0  0  0
   11.5957   38.9351   31.6994 C   0  0  0  0  0  0  0  0  0  0  0  0
   12.9257   38.9477   32.1798 O   0  0  0  0  0  0  0  0  0  0  0  0
   11.0070   37.5757   32.0732 C   0  0  0  0  0  0  0  0  0  0  0  0
   13.3571   37.5979   32.2612 C   0  0  0  0  0  0  0  0  0  0  0  0
    9.9093   37.1807   31.2875 O   0  0  0  0  0  0  0  0  0  0  0  0
   12.1967   36.6763   31.8894 C   0  0  0  0  0  0  0  0  0  0  0  0
   13.8018   37.2956   33.6197 N   0  0  0  0  0  0  0  0  0  0  0  0
   12.3049   36.2360   30.5555 O   0  0  0  0  0  0  0  0  0  0  0  0
   14.7922   36.4716   33.9864 C   0  0  0  0  0  0  0  0  0  0  0  0
   13.2747   37.7291   34.7944 C   0  0  0  0  0  0  0  0  0  0  0  0
   15.6240   35.7581   33.1861 N   0  0  0  0  0  0  0  0  0  0  0  0
   14.8721   36.4401   35.3331 C   0  0  0  0  0  0  0  0  0  0  0  0
   13.9206   37.2257   35.8810 N   0  0  0  0  0  0  0  0  0  0  0  0
   16.5873   34.9924   33.7802 C   0  0  0  0  0  0  0  0  0  0  0  0
   15.8576   35.6714   35.9444 C   0  0  0  0  0  0  0  0  0  0  0  0
   16.7026   34.9585   35.1439 N   0  0  0  0  0  0  0  0  0  0  0  0
   16.0102   35.6382   37.3564 N   0  0  0  0  0  0  0  0  0  0  0  0
    7.6770   44.0707   34.0504 H   0  0  0  0  0  0  0  0  0  0  0  0
    9.1827   45.3821   35.3535 H   0  0  0  0  0  0  0  0  0  0  0  0
   10.3192   45.4407   34.1000 H   0  0  0  0  0  0  0  0  0  0  0  0
    9.9711   44.0681   31.9740 H   0  0  0  0  0  0  0  0  0  0  0  0
    8.4817   43.0850   31.8669 H   0  0  0  0  0  0  0  0  0  0  0  0
    8.5385   45.1362   30.4023 H   0  0  0  0  0  0  0  0  0  0  0  0
    8.5552   46.1510   31.8742 H   0  0  0  0  0  0  0  0  0  0  0  0
    6.3296   44.1799   30.9679 H   0  0  0  0  0  0  0  0  0  0  0  0
    6.3020   45.0643   32.5334 H   0  0  0  0  0  0  0  0  0  0  0  0
    4.9235   46.2672   30.9264 H   0  0  0  0  0  0  0  0  0  0  0  0
    6.2465   46.2897   29.7217 H   0  0  0  0  0  0  0  0  0  0  0  0
    6.2819   47.7531   32.4208 H   0  0  0  0  0  0  0  0  0  0  0  0
    7.8013   51.0943   29.7431 H   0  0  0  0  0  0  0  0  0  0  0  0
    9.3176   50.3237   30.3404 H   0  0  0  0  0  0  0  0  0  0  0  0
    6.3940   52.0721   31.9682 H   0  0  0  0  0  0  0  0  0  0  0  0
    6.5952   53.9087   33.5933 H   0  0  0  0  0  0  0  0  0  0  0  0
   10.8432   53.9642   33.0667 H   0  0  0  0  0  0  0  0  0  0  0  0
    8.8181   54.8341   34.1636 H   0  0  0  0  0  0  0  0  0  0  0  0
    9.7448   40.0200   31.9304 H   0  0  0  0  0  0  0  0  0  0  0  0
   11.2094   41.0479   31.8922 H   0  0  0  0  0  0  0  0  0  0  0  0
   11.6206   39.0685   30.5942 H   0  0  0  0  0  0  0  0  0  0  0  0
   10.7059   37.5563   33.1438 H   0  0  0  0  0  0  0  0  0  0  0  0
   14.2095   37.4543   31.5601 H   0  0  0  0  0  0  0  0  0  0  0  0
   10.0865   37.4209   30.3413 H   0  0  0  0  0  0  0  0  0  0  0  0
   12.1276   35.7872   32.5549 H   0  0  0  0  0  0  0  0  0  0  0  0
   12.5031   37.0109   29.9672 H   0  0  0  0  0  0  0  0  0  0  0  0
   12.4328   38.3996   34.8703 H   0  0  0  0  0  0  0  0  0  0  0  0
   17.2670   34.4149   33.1691 H   0  0  0  0  0  0  0  0  0  0  0  0
   16.7640   35.0601   37.7896 H   0  0  0  0  0  0  0  0  0  0  0  0
   15.3758   36.1862   37.9792 H   0  0  0  0  0  0  0  0  0  0  0  0
  1  2  2  0
  1  3  1  0
  3  4  1  0
  4  5  1  0
  6  1  1  0
  7  6  1  0
  6  8  1  0
  8  9  1  0
  9 10  1  0
 10 11  1  0
 11 12  1  0
 12 13  1  0
 13 14  1  0
 13 15  2  0
 14 16  1  0
 16 17  1  0
 17 18  2  0
 19 17  1  0
 18 20  1  0
 21 19  2  0
 19 22  1  0
 20 23  2  0
 23 21  1  0
 22 24  1  0
 22 25  2  0
  4 26  2  0
  4 27  1  0
 28 27  1  0
 28 29  1  0
 29 30  1  0
 29 31  1  0
 30 32  1  0
 31 33  1  0
 31 34  1  0
 34 32  1  0
 32 35  1  0
 34 36  1  0
 37 35  1  0
 38 35  1  0
 39 37  2  0
 37 40  1  0
 41 38  2  0
 42 39  1  0
 40 43  2  0
 40 41  1  0
 44 42  2  0
 44 43  1  0
 43 45  1  0
  6 46  1  6
  7 47  1  0
  7 48  1  0
  8 49  1  0
  8 50  1  0
  9 51  1  0
  9 52  1  0
 10 53  1  0
 10 54  1  0
 11 55  1  0
 11 56  1  0
 12 57  1  0
 16 58  1  0
 16 59  1  0
 18 60  1  0
 20 61  1  0
 21 62  1  0
 23 63  1  0
 28 64  1  0
 28 65  1  0
 29 66  1  0
 31 67  1  0
 32 68  1  0
 33 69  1  0
 34 70  1  0
 36 71  1  0
 38 72  1  0
 42 73  1  0
 45 74  1  0
 45 75  1  0
M  CHG  3   5  -1  22   1  24  -1
M  END
>  <EmbedRMS>  (398) 
0.0761816065785

$$$$

     RDKit          3D

 75 78  0  0  0  0  0  0  0  0999 V2000
    9.4311   42.9413   34.3438 C   0  0  0  0  0  0  0  0  0  0  0  0
   10.4884   43.0412   35.0293 O   0  0  0  0  0  0  0  0  0  0  0  0
    8.8561   41.7130   34.0288 O   0  0  0  0  0  0  0  0  0  0  0  0
    9.4946   40.2164   34.4678 P   0  0  0  0  0  0  0  0  0  0  0  0
    9.7311   40.1742   36.1289 O   0  0  0  0  0  0  0  0  0  0  0  0
    8.7482   44.1363   33.7722 C   0  0  1  0  0  0  0  0  0  0  0  0
    9.3036   45.3669   34.3389 N   0  0  0  0  0  0  0  0  0  0  0  0
    8.8891   44.0522   32.2309 C   0  0  0  0  0  0  0  0  0  0  0  0
    8.2016   45.1727   31.4438 C   0  0  0  0  0  0  0  0  0  0  0  0
    6.6644   45.1061   31.4864 C   0  0  0  0  0  0  0  0  0  0  0  0
    6.0277   46.3239   30.8099 C   0  0  0  0  0  0  0  0  0  0  0  0
    6.5058   47.5639   31.4217 N   0  0  0  0  0  0  0  0  0  0  0  0
    7.2509   48.5405   30.6841 C   0  0  0  0  0  0  0  0  0  0  0  0
    7.6455   49.7516   31.2649 O   0  0  0  0  0  0  0  0  0  0  0  0
    7.5874   48.3088   29.4936 O   0  0  0  0  0  0  0  0  0  0  0  0
    7.3642   50.1169   32.6134 C   0  0  0  0  0  0  0  0  0  0  0  0
    7.9843   51.4597   32.9144 C   0  0  0  0  0  0  0  0  0  0  0  0
    9.3437   51.6494   32.6051 C   0  0  0  0  0  0  0  0  0  0  0  0
    7.2449   52.5381   33.4665 C   0  0  0  0  0  0  0  0  0  0  0  0
    9.9505   52.8926   32.7905 C   0  0  0  0  0  0  0  0  0  0  0  0
    7.8682   53.7883   33.6275 C   0  0  0  0  0  0  0  0  0  0  0  0
    5.8860   52.3766   33.9013 N   0  0  0  0  0  0  0  0  0  0  0  0
    9.2112   53.9630   33.2905 C   0  0  0  0  0  0  0  0  0  0  0  0
    5.5534   51.3382   34.7405 O   0  0  0  0  0  0  0  0  0  0  0  0
    5.0611   53.2967   33.7246 O   0  0  0  0  0  0  0  0  0  0  0  0
    8.5373   39.1404   34.0128 O   0  0  0  0  0  0  0  0  0  0  0  0
   10.9803   40.0888   33.6834 O   0  0  0  0  0  0  0  0  0  0  0  0
   10.8020   40.0896   32.2836 C   0  0  0  0  0  0  0  0  0  0  0  0
   11.5900   38.9179   31.7007 C   0  0  0  0  0  0  0  0  0  0  0  0
   12.9224   38.9391   32.1711 O   0  0  0  0  0  0  0  0  0  0  0  0
   11.0051   37.5677   32.0967 C   0  0  0  0  0  0  0  0  0  0  0  0
   13.3518   37.5910   32.2610 C   0  0  0  0  0  0  0  0  0  0  0  0
    9.9381   37.1796   31.2733 O   0  0  0  0  0  0  0  0  0  0  0  0
   12.1912   36.6690   31.9043 C   0  0  0  0  0  0  0  0  0  0  0  0
   13.8027   37.2968   33.6192 N   0  0  0  0  0  0  0  0  0  0  0  0
   12.2877   36.2854   30.5568 O   0  0  0  0  0  0  0  0  0  0  0  0
   14.7928   36.4724   33.9861 C   0  0  0  0  0  0  0  0  0  0  0  0
   13.2751   37.7297   34.7941 C   0  0  0  0  0  0  0  0  0  0  0  0
   15.6239   35.7581   33.1859 N   0  0  0  0  0  0  0  0  0  0  0  0
   14.8726   36.4408   35.3329 C   0  0  0  0  0  0  0  0  0  0  0  0
   13.9209   37.2262   35.8807 N   0  0  0  0  0  0  0  0  0  0  0  0
   16.5870   34.9922   33.7801 C   0  0  0  0  0  0  0  0  0  0  0  0
   15.8576   35.6716   35.9442 C   0  0  0  0  0  0  0  0  0  0  0  0
   16.7024   34.9584   35.1438 N   0  0  0  0  0  0  0  0  0  0  0  0
   16.0101   35.6383   37.3563 N   0  0  0  0  0  0  0  0  0  0  0  0
    7.6761   44.0638   34.0546 H   0  0  0  0  0  0  0  0  0  0  0  0
   10.2147   45.5888   33.8745 H   0  0  0  0  0  0  0  0  0  0  0  0
    8.6463   46.1563   34.1437 H   0  0  0  0  0  0  0  0  0  0  0  0
    9.9707   44.0645   31.9682 H   0  0  0  0  0  0  0  0  0  0  0  0
    8.4829   43.0822   31.8666 H   0  0  0  0  0  0  0  0  0  0  0  0
    8.5217   45.0978   30.3814 H   0  0  0  0  0  0  0  0  0  0  0  0
    8.5702   46.1493   31.8192 H   0  0  0  0  0  0  0  0  0  0  0  0
    6.3163   44.1801   30.9794 H   0  0  0  0  0  0  0  0  0  0  0  0
    6.3125   45.0761   32.5385 H   0  0  0  0  0  0  0  0  0  0  0  0
    4.9240   46.2685   30.9240 H   0  0  0  0  0  0  0  0  0  0  0  0
    6.2488   46.2916   29.7215 H   0  0  0  0  0  0  0  0  0  0  0  0
    6.2745   47.7261   32.4264 H   0  0  0  0  0  0  0  0  0  0  0  0
    6.2645   50.1295   32.7468 H   0  0  0  0  0  0  0  0  0  0  0  0
    7.8047   49.3637   33.3019 H   0  0  0  0  0  0  0  0  0  0  0  0
    9.9320   50.8343   32.2010 H   0  0  0  0  0  0  0  0  0  0  0  0
   10.9944   53.0278   32.5386 H   0  0  0  0  0  0  0  0  0  0  0  0
    7.3177   54.6234   34.0423 H   0  0  0  0  0  0  0  0  0  0  0  0
    9.6827   54.9273   33.4298 H   0  0  0  0  0  0  0  0  0  0  0  0
   11.2238   41.0358   31.8821 H   0  0  0  0  0  0  0  0  0  0  0  0
    9.7471   40.0309   31.9256 H   0  0  0  0  0  0  0  0  0  0  0  0
   11.5999   39.0159   30.5905 H   0  0  0  0  0  0  0  0  0  0  0  0
   10.7034   37.5451   33.1703 H   0  0  0  0  0  0  0  0  0  0  0  0
   14.1992   37.4424   31.5548 H   0  0  0  0  0  0  0  0  0  0  0  0
    9.1370   37.6634   31.6025 H   0  0  0  0  0  0  0  0  0  0  0  0
   12.1204   35.7713   32.5637 H   0  0  0  0  0  0  0  0  0  0  0  0
   12.9456   35.5426   30.5221 H   0  0  0  0  0  0  0  0  0  0  0  0
   12.4322   38.3989   34.8700 H   0  0  0  0  0  0  0  0  0  0  0  0
   17.2664   34.4142   33.1690 H   0  0  0  0  0  0  0  0  0  0  0  0
   16.7636   35.0598   37.7895 H   0  0  0  0  0  0  0  0  0  0  0  0
   15.3759   36.1865   37.9790 H   0  0  0  0  0  0  0  0  0  0  0  0
  1  2  2  0
  1  3  1  0
  3  4  1  0
  4  5  1  0
  6  1  1  0
  7  6  1  0
  6  8  1  0
  8  9  1  0
  9 10  1  0
 10 11  1  0
 11 12  1  0
 12 13  1  0
 13 14  1  0
 13 15  2  0
 14 16  1  0
 16 17  1  0
 17 18  2  0
 19 17  1  0
 18 20  1  0
 21 19  2  0
 19 22  1  0
 20 23  2  0
 23 21  1  0
 22 24  1  0
 22 25  2  0
  4 26  2  0
  4 27  1  0
 28 27  1  0
 28 29  1  0
 29 30  1  0
 29 31  1  0
 30 32  1  0
 31 33  1  0
 31 34  1  0
 34 32  1  0
 32 35  1  0
 34 36  1  0
 37 35  1  0
 38 35  1  0
 39 37  2  0
 37 40  1  0
 41 38  2  0
 42 39  1  0
 40 43  2  0
 40 41  1  0
 44 42  2  0
 44 43  1  0
 43 45  1  0
  6 46  1  6
  7 47  1  0
  7 48  1  0
  8 49  1  0
  8 50  1  0
  9 51  1  0
  9 52  1  0
 10 53  1  0
 10 54  1  0
 11 55  1  0
 11 56  1  0
 12 57  1  0
 16 58  1  0
 16 59  1  0
 18 60  1  0
 20 61  1  0
 21 62  1  0
 23 63  1  0
 28 64  1  0
 28 65  1  0
 29 66  1  0
 31 67  1  0
 32 68  1  0
 33 69  1  0
 34 70  1  0
 36 71  1  0
 38 72  1  0
 42 73  1  0
 45 74  1  0
 45 75  1  0
M  CHG  3   5  -1  22   1  24  -1
M  END
>  <EmbedRMS>  (399) 
0.0733672410148

$$$$

     RDKit          3D

 75 78  0  0  0  0  0  0  0  0999 V2000
    9.4313   42.9411   34.3437 C   0  0  0  0  0  0  0  0  0  0  0  0
   10.4886   43.0410   35.0294 O   0  0  0  0  0  0  0  0  0  0  0  0
    8.8562   41.7129   34.0288 O   0  0  0  0  0  0  0  0  0  0  0  0
    9.4947   40.2163   34.4679 P   0  0  0  0  0  0  0  0  0  0  0  0
    9.7311   40.1742   36.1290 O   0  0  0  0  0  0  0  0  0  0  0  0
    8.7484   44.1360   33.7721 C   0  0  1  0  0  0  0  0  0  0  0  0
    9.3039   45.3665   34.3388 N   0  0  0  0  0  0  0  0  0  0  0  0
    8.8892   44.0519   32.2309 C   0  0  0  0  0  0  0  0  0  0  0  0
    8.2014   45.1722   31.4436 C   0  0  0  0  0  0  0  0  0  0  0  0
    6.6642   45.1065   31.4887 C   0  0  0  0  0  0  0  0  0  0  0  0
    6.0265   46.3234   30.8120 C   0  0  0  0  0  0  0  0  0  0  0  0
    6.5074   47.5645   31.4186 N   0  0  0  0  0  0  0  0  0  0  0  0
    7.2443   48.5393   30.6834 C   0  0  0  0  0  0  0  0  0  0  0  0
    7.5961   49.7396   31.3061 O   0  0  0  0  0  0  0  0  0  0  0  0
    7.5931   48.3116   29.4933 O   0  0  0  0  0  0  0  0  0  0  0  0
    8.3467   50.7583   30.6487 C   0  0  0  0  0  0  0  0  0  0  0  0
    8.5897   51.9493   31.5517 C   0  0  0  0  0  0  0  0  0  0  0  0
    7.8452   52.0999   32.7407 C   0  0  0  0  0  0  0  0  0  0  0  0
    9.5734   52.9252   31.2286 C   0  0  0  0  0  0  0  0  0  0  0  0
    8.0897   53.1667   33.6061 C   0  0  0  0  0  0  0  0  0  0  0  0
    9.8133   53.9820   32.1250 C   0  0  0  0  0  0  0  0  0  0  0  0
   10.3445   52.8595   30.0143 N   0  0  0  0  0  0  0  0  0  0  0  0
    9.0761   54.1013   33.3028 C   0  0  0  0  0  0  0  0  0  0  0  0
   11.6150   53.3871   29.9781 O   0  0  0  0  0  0  0  0  0  0  0  0
    9.8215   52.4849   28.9449 O   0  0  0  0  0  0  0  0  0  0  0  0
    8.5375   39.1404   34.0127 O   0  0  0  0  0  0  0  0  0  0  0  0
   10.9805   40.0889   33.6836 O   0  0  0  0  0  0  0  0  0  0  0  0
   10.8025   40.0902   32.2837 C   0  0  0  0  0  0  0  0  0  0  0  0
   11.5888   38.9175   31.7008 C   0  0  0  0  0  0  0  0  0  0  0  0
   12.9219   38.9373   32.1692 O   0  0  0  0  0  0  0  0  0  0  0  0
   11.0028   37.5683   32.0981 C   0  0  0  0  0  0  0  0  0  0  0  0
   13.3496   37.5886   32.2601 C   0  0  0  0  0  0  0  0  0  0  0  0
    9.9343   37.1823   31.2757 O   0  0  0  0  0  0  0  0  0  0  0  0
   12.1891   36.6677   31.9050 C   0  0  0  0  0  0  0  0  0  0  0  0
   13.8025   37.2965   33.6186 N   0  0  0  0  0  0  0  0  0  0  0  0
   12.2990   36.2867   30.5568 O   0  0  0  0  0  0  0  0  0  0  0  0
   14.7929   36.4725   33.9858 C   0  0  0  0  0  0  0  0  0  0  0  0
   13.2749   37.7294   34.7936 C   0  0  0  0  0  0  0  0  0  0  0  0
   15.6240   35.7580   33.1858 N   0  0  0  0  0  0  0  0  0  0  0  0
   14.8727   36.4411   35.3327 C   0  0  0  0  0  0  0  0  0  0  0  0
   13.9208   37.2263   35.8803 N   0  0  0  0  0  0  0  0  0  0  0  0
   16.5871   34.9921   33.7801 C   0  0  0  0  0  0  0  0  0  0  0  0
   15.8576   35.6718   35.9441 C   0  0  0  0  0  0  0  0  0  0  0  0
   16.7024   34.9584   35.1438 N   0  0  0  0  0  0  0  0  0  0  0  0
   16.0099   35.6384   37.3562 N   0  0  0  0  0  0  0  0  0  0  0  0
    7.6764   44.0634   34.0548 H   0  0  0  0  0  0  0  0  0  0  0  0
    8.6468   46.1559   34.1432 H   0  0  0  0  0  0  0  0  0  0  0  0
   10.2152   45.5880   33.8747 H   0  0  0  0  0  0  0  0  0  0  0  0
    8.4831   43.0818   31.8666 H   0  0  0  0  0  0  0  0  0  0  0  0
    9.9708   44.0644   31.9679 H   0  0  0  0  0  0  0  0  0  0  0  0
    8.5712   46.1488   31.8175 H   0  0  0  0  0  0  0  0  0  0  0  0
    8.5198   45.0960   30.3808 H   0  0  0  0  0  0  0  0  0  0  0  0
    6.3148   44.1799   30.9838 H   0  0  0  0  0  0  0  0  0  0  0  0
    6.3141   45.0785   32.5414 H   0  0  0  0  0  0  0  0  0  0  0  0
    4.9231   46.2693   30.9295 H   0  0  0  0  0  0  0  0  0  0  0  0
    6.2450   46.2894   29.7230 H   0  0  0  0  0  0  0  0  0  0  0  0
    6.2853   47.7536   32.4220 H   0  0  0  0  0  0  0  0  0  0  0  0
    7.7955   51.0948   29.7444 H   0  0  0  0  0  0  0  0  0  0  0  0
    9.3250   50.3260   30.3451 H   0  0  0  0  0  0  0  0  0  0  0  0
    7.0716   51.3926   33.0102 H   0  0  0  0  0  0  0  0  0  0  0  0
    7.5138   53.2666   34.5172 H   0  0  0  0  0  0  0  0  0  0  0  0
   10.5628   54.7305   31.9013 H   0  0  0  0  0  0  0  0  0  0  0  0
    9.2654   54.9257   33.9782 H   0  0  0  0  0  0  0  0  0  0  0  0
    9.7476   40.0332   31.9256 H   0  0  0  0  0  0  0  0  0  0  0  0
   11.2257   41.0358   31.8825 H   0  0  0  0  0  0  0  0  0  0  0  0
   11.5975   39.0148   30.5905 H   0  0  0  0  0  0  0  0  0  0  0  0
   10.7023   37.5457   33.1720 H   0  0  0  0  0  0  0  0  0  0  0  0
   14.1957   37.4366   31.5528 H   0  0  0  0  0  0  0  0  0  0  0  0
    9.1339   37.6659   31.6070 H   0  0  0  0  0  0  0  0  0  0  0  0
   12.1380   35.7717   32.5698 H   0  0  0  0  0  0  0  0  0  0  0  0
   11.7706   35.4530   30.4497 H   0  0  0  0  0  0  0  0  0  0  0  0
   12.4314   38.3980   34.8694 H   0  0  0  0  0  0  0  0  0  0  0  0
   17.2665   34.4140   33.1691 H   0  0  0  0  0  0  0  0  0  0  0  0
   15.3757   36.1868   37.9788 H   0  0  0  0  0  0  0  0  0  0  0  0
   16.7633   35.0598   37.7895 H   0  0  0  0  0  0  0  0  0  0  0  0
  1  2  2  0
  1  3  1  0
  3  4  1  0
  4  5  1  0
  6  1  1  0
  7  6  1  0
  6  8  1  0
  8  9  1  0
  9 10  1  0
 10 11  1  0
 11 12  1  0
 12 13  1  0
 13 14  1  0
 13 15  2  0
 14 16  1  0
 16 17  1  0
 17 18  2  0
 19 17  1  0
 18 20  1  0
 21 19  2  0
 19 22  1  0
 20 23  2  0
 23 21  1  0
 22 24  1  0
 22 25  2  0
  4 26  2  0
  4 27  1  0
 28 27  1  0
 28 29  1  0
 29 30  1  0
 29 31  1  0
 30 32  1  0
 31 33  1  0
 31 34  1  0
 34 32  1  0
 32 35  1  0
 34 36  1  0
 37 35  1  0
 38 35  1  0
 39 37  2  0
 37 40  1  0
 41 38  2  0
 42 39  1  0
 40 43  2  0
 40 41  1  0
 44 42  2  0
 44 43  1  0
 43 45  1  0
  6 46  1  6
  7 47  1  0
  7 48  1  0
  8 49  1  0
  8 50  1  0
  9 51  1  0
  9 52  1  0
 10 53  1  0
 10 54  1  0
 11 55  1  0
 11 56  1  0
 12 57  1  0
 16 58  1  0
 16 59  1  0
 18 60  1  0
 20 61  1  0
 21 62  1  0
 23 63  1  0
 28 64  1  0
 28 65  1  0
 29 66  1  0
 31 67  1  0
 32 68  1  0
 33 69  1  0
 34 70  1  0
 36 71  1  0
 38 72  1  0
 42 73  1  0
 45 74  1  0
 45 75  1  0
M  CHG  3   5  -1  22   1  24  -1
M  END
>  <EmbedRMS>  (400) 
0.0733971393411

$$$$

     RDKit          3D

 75 78  0  0  0  0  0  0  0  0999 V2000
    9.4298   42.9395   34.3432 C   0  0  0  0  0  0  0  0  0  0  0  0
   10.4907   43.0381   35.0239 O   0  0  0  0  0  0  0  0  0  0  0  0
    8.8544   41.7117   34.0286 O   0  0  0  0  0  0  0  0  0  0  0  0
    9.4942   40.2156   34.4673 P   0  0  0  0  0  0  0  0  0  0  0  0
    9.7316   40.1738   36.1283 O   0  0  0  0  0  0  0  0  0  0  0  0
    8.7420   44.1376   33.7777 C   0  0  1  0  0  0  0  0  0  0  0  0
    9.3053   45.3697   34.3306 N   0  0  0  0  0  0  0  0  0  0  0  0
    8.8966   44.0593   32.2390 C   0  0  0  0  0  0  0  0  0  0  0  0
    8.2028   45.1688   31.4385 C   0  0  0  0  0  0  0  0  0  0  0  0
    6.6657   45.1087   31.4926 C   0  0  0  0  0  0  0  0  0  0  0  0
    6.0295   46.3228   30.8092 C   0  0  0  0  0  0  0  0  0  0  0  0
    6.4998   47.5668   31.4196 N   0  0  0  0  0  0  0  0  0  0  0  0
    7.2375   48.5463   30.6805 C   0  0  0  0  0  0  0  0  0  0  0  0
    7.5764   49.7900   31.2302 O   0  0  0  0  0  0  0  0  0  0  0  0
    7.6008   48.2989   29.5011 O   0  0  0  0  0  0  0  0  0  0  0  0
    7.2071   50.2594   32.5257 C   0  0  0  0  0  0  0  0  0  0  0  0
    8.0390   49.6242   33.6183 C   0  0  0  0  0  0  0  0  0  0  0  0
    7.3862   48.8835   34.6225 C   0  0  0  0  0  0  0  0  0  0  0  0
    9.4342   49.8599   33.7361 C   0  0  0  0  0  0  0  0  0  0  0  0
    8.0988   48.3601   35.7023 C   0  0  0  0  0  0  0  0  0  0  0  0
   10.1335   49.3269   34.8329 C   0  0  0  0  0  0  0  0  0  0  0  0
   10.1438   50.6816   32.7967 N   0  0  0  0  0  0  0  0  0  0  0  0
    9.4712   48.5760   35.8041 C   0  0  0  0  0  0  0  0  0  0  0  0
   10.1366   50.3685   31.4584 O   0  0  0  0  0  0  0  0  0  0  0  0
   10.9624   51.5283   33.2106 O   0  0  0  0  0  0  0  0  0  0  0  0
    8.5375   39.1390   34.0124 O   0  0  0  0  0  0  0  0  0  0  0  0
   10.9794   40.0898   33.6813 O   0  0  0  0  0  0  0  0  0  0  0  0
   10.7981   40.0850   32.2817 C   0  0  0  0  0  0  0  0  0  0  0  0
   11.5886   38.9143   31.7009 C   0  0  0  0  0  0  0  0  0  0  0  0
   12.9213   38.9368   32.1699 O   0  0  0  0  0  0  0  0  0  0  0  0
   11.0047   37.5661   32.0991 C   0  0  0  0  0  0  0  0  0  0  0  0
   13.3510   37.5885   32.2602 C   0  0  0  0  0  0  0  0  0  0  0  0
    9.9295   37.1961   31.2780 O   0  0  0  0  0  0  0  0  0  0  0  0
   12.1923   36.6659   31.9047 C   0  0  0  0  0  0  0  0  0  0  0  0
   13.8033   37.2967   33.6188 N   0  0  0  0  0  0  0  0  0  0  0  0
   12.3006   36.2865   30.5562 O   0  0  0  0  0  0  0  0  0  0  0  0
   14.7933   36.4724   33.9860 C   0  0  0  0  0  0  0  0  0  0  0  0
   13.2753   37.7296   34.7935 C   0  0  0  0  0  0  0  0  0  0  0  0
   15.6243   35.7579   33.1860 N   0  0  0  0  0  0  0  0  0  0  0  0
   14.8728   36.4410   35.3328 C   0  0  0  0  0  0  0  0  0  0  0  0
   13.9209   37.2263   35.8804 N   0  0  0  0  0  0  0  0  0  0  0  0
   16.5873   34.9919   33.7803 C   0  0  0  0  0  0  0  0  0  0  0  0
   15.8577   35.6717   35.9443 C   0  0  0  0  0  0  0  0  0  0  0  0
   16.7025   34.9583   35.1440 N   0  0  0  0  0  0  0  0  0  0  0  0
   16.0100   35.6384   37.3563 N   0  0  0  0  0  0  0  0  0  0  0  0
    7.6676   44.0677   34.0543 H   0  0  0  0  0  0  0  0  0  0  0  0
    8.7021   46.1670   34.0296 H   0  0  0  0  0  0  0  0  0  0  0  0
    9.2108   45.3383   35.3724 H   0  0  0  0  0  0  0  0  0  0  0  0
    9.9812   44.0905   31.9904 H   0  0  0  0  0  0  0  0  0  0  0  0
    8.5084   43.0840   31.8690 H   0  0  0  0  0  0  0  0  0  0  0  0
    8.5131   45.0717   30.3750 H   0  0  0  0  0  0  0  0  0  0  0  0
    8.5785   46.1530   31.7845 H   0  0  0  0  0  0  0  0  0  0  0  0
    6.3204   45.0917   32.5470 H   0  0  0  0  0  0  0  0  0  0  0  0
    6.3107   44.1790   30.9975 H   0  0  0  0  0  0  0  0  0  0  0  0
    6.2559   46.2874   29.7221 H   0  0  0  0  0  0  0  0  0  0  0  0
    4.9253   46.2642   30.9174 H   0  0  0  0  0  0  0  0  0  0  0  0
    6.2387   47.7414   32.4121 H   0  0  0  0  0  0  0  0  0  0  0  0
    7.3703   51.3570   32.5592 H   0  0  0  0  0  0  0  0  0  0  0  0
    6.1180   50.0996   32.6828 H   0  0  0  0  0  0  0  0  0  0  0  0
    6.3160   48.7243   34.5838 H   0  0  0  0  0  0  0  0  0  0  0  0
    7.5842   47.7880   36.4635 H   0  0  0  0  0  0  0  0  0  0  0  0
   11.1981   49.4971   34.9348 H   0  0  0  0  0  0  0  0  0  0  0  0
   10.0218   48.1685   36.6421 H   0  0  0  0  0  0  0  0  0  0  0  0
    9.7426   40.0141   31.9264 H   0  0  0  0  0  0  0  0  0  0  0  0
   11.2130   41.0321   31.8751 H   0  0  0  0  0  0  0  0  0  0  0  0
   11.5981   39.0107   30.5904 H   0  0  0  0  0  0  0  0  0  0  0  0
   10.7008   37.5603   33.1721 H   0  0  0  0  0  0  0  0  0  0  0  0
   14.1976   37.4380   31.5532 H   0  0  0  0  0  0  0  0  0  0  0  0
    9.5180   36.3962   31.6978 H   0  0  0  0  0  0  0  0  0  0  0  0
   12.1418   35.7698   32.5692 H   0  0  0  0  0  0  0  0  0  0  0  0
   11.7729   35.4524   30.4489 H   0  0  0  0  0  0  0  0  0  0  0  0
   12.4321   38.3985   34.8692 H   0  0  0  0  0  0  0  0  0  0  0  0
   17.2667   34.4138   33.1694 H   0  0  0  0  0  0  0  0  0  0  0  0
   16.7634   35.0598   37.7897 H   0  0  0  0  0  0  0  0  0  0  0  0
   15.3758   36.1867   37.9790 H   0  0  0  0  0  0  0  0  0  0  0  0
  1  2  2  0
  1  3  1  0
  3  4  1  0
  4  5  1  0
  6  1  1  0
  7  6  1  0
  6  8  1  0
  8  9  1  0
  9 10  1  0
 10 11  1  0
 11 12  1  0
 12 13  1  0
 13 14  1  0
 13 15  2  0
 14 16  1  0
 16 17  1  0
 17 18  2  0
 19 17  1  0
 18 20  1  0
 21 19  2  0
 19 22  1  0
 20 23  2  0
 23 21  1  0
 22 24  1  0
 22 25  2  0
  4 26  2  0
  4 27  1  0
 28 27  1  0
 28 29  1  0
 29 30  1  0
 29 31  1  0
 30 32  1  0
 31 33  1  0
 31 34  1  0
 34 32  1  0
 32 35  1  0
 34 36  1  0
 37 35  1  0
 38 35  1  0
 39 37  2  0
 37 40  1  0
 41 38  2  0
 42 39  1  0
 40 43  2  0
 40 41  1  0
 44 42  2  0
 44 43  1  0
 43 45  1  0
  6 46  1  6
  7 47  1  0
  7 48  1  0
  8 49  1  0
  8 50  1  0
  9 51  1  0
  9 52  1  0
 10 53  1  0
 10 54  1  0
 11 55  1  0
 11 56  1  0
 12 57  1  0
 16 58  1  0
 16 59  1  0
 18 60  1  0
 20 61  1  0
 21 62  1  0
 23 63  1  0
 28 64  1  0
 28 65  1  0
 29 66  1  0
 31 67  1  0
 32 68  1  0
 33 69  1  0
 34 70  1  0
 36 71  1  0
 38 72  1  0
 42 73  1  0
 45 74  1  0
 45 75  1  0
M  CHG  3   5  -1  22   1  24  -1
M  END
>  <EmbedRMS>  (401) 
0.0740747310277

$$$$

     RDKit          3D

 75 78  0  0  0  0  0  0  0  0999 V2000
    9.4331   42.9365   34.3462 C   0  0  0  0  0  0  0  0  0  0  0  0
   10.4907   43.0329   35.0318 O   0  0  0  0  0  0  0  0  0  0  0  0
    8.8558   41.7104   34.0299 O   0  0  0  0  0  0  0  0  0  0  0  0
    9.4943   40.2141   34.4677 P   0  0  0  0  0  0  0  0  0  0  0  0
    9.7317   40.1723   36.1287 O   0  0  0  0  0  0  0  0  0  0  0  0
    8.7506   44.1349   33.7741 C   0  0  1  0  0  0  0  0  0  0  0  0
    9.2963   45.3821   34.3133 N   0  0  0  0  0  0  0  0  0  0  0  0
    8.8893   44.0528   32.2358 C   0  0  0  0  0  0  0  0  0  0  0  0
    8.2028   45.1824   31.4615 C   0  0  0  0  0  0  0  0  0  0  0  0
    6.6653   45.1046   31.4854 C   0  0  0  0  0  0  0  0  0  0  0  0
    6.0268   46.3225   30.8103 C   0  0  0  0  0  0  0  0  0  0  0  0
    6.5059   47.5640   31.4179 N   0  0  0  0  0  0  0  0  0  0  0  0
    7.2447   48.5386   30.6841 C   0  0  0  0  0  0  0  0  0  0  0  0
    7.6005   49.7364   31.3094 O   0  0  0  0  0  0  0  0  0  0  0  0
    7.5929   48.3120   29.4935 O   0  0  0  0  0  0  0  0  0  0  0  0
    8.3575   50.7519   30.6562 C   0  0  0  0  0  0  0  0  0  0  0  0
    8.6322   51.8795   31.6218 C   0  0  0  0  0  0  0  0  0  0  0  0
    9.1839   51.5597   32.8761 C   0  0  0  0  0  0  0  0  0  0  0  0
    8.3289   53.2353   31.3266 C   0  0  0  0  0  0  0  0  0  0  0  0
    9.3872   52.5492   33.8391 C   0  0  0  0  0  0  0  0  0  0  0  0
    8.5208   54.2139   32.3168 C   0  0  0  0  0  0  0  0  0  0  0  0
    7.8583   53.6442   30.0334 N   0  0  0  0  0  0  0  0  0  0  0  0
    9.0461   53.8722   33.5638 C   0  0  0  0  0  0  0  0  0  0  0  0
    6.9210   54.6464   29.9339 O   0  0  0  0  0  0  0  0  0  0  0  0
    8.4686   53.2866   29.0048 O   0  0  0  0  0  0  0  0  0  0  0  0
    8.5371   39.1382   34.0123 O   0  0  0  0  0  0  0  0  0  0  0  0
   10.9792   40.0887   33.6814 O   0  0  0  0  0  0  0  0  0  0  0  0
   10.7976   40.0842   32.2817 C   0  0  0  0  0  0  0  0  0  0  0  0
   11.5897   38.9146   31.7008 C   0  0  0  0  0  0  0  0  0  0  0  0
   12.9218   38.9385   32.1717 O   0  0  0  0  0  0  0  0  0  0  0  0
   11.0070   37.5654   32.0975 C   0  0  0  0  0  0  0  0  0  0  0  0
   13.3533   37.5909   32.2610 C   0  0  0  0  0  0  0  0  0  0  0  0
    9.9333   37.1934   31.2754 O   0  0  0  0  0  0  0  0  0  0  0  0
   12.1945   36.6671   31.9040 C   0  0  0  0  0  0  0  0  0  0  0  0
   13.8036   37.2970   33.6193 N   0  0  0  0  0  0  0  0  0  0  0  0
   12.2893   36.2849   30.5562 O   0  0  0  0  0  0  0  0  0  0  0  0
   14.7931   36.4723   33.9863 C   0  0  0  0  0  0  0  0  0  0  0  0
   13.2756   37.7298   34.7940 C   0  0  0  0  0  0  0  0  0  0  0  0
   15.6243   35.7580   33.1861 N   0  0  0  0  0  0  0  0  0  0  0  0
   14.8727   36.4407   35.3331 C   0  0  0  0  0  0  0  0  0  0  0  0
   13.9210   37.2262   35.8807 N   0  0  0  0  0  0  0  0  0  0  0  0
   16.5873   34.9920   33.7803 C   0  0  0  0  0  0  0  0  0  0  0  0
   15.8577   35.6715   35.9444 C   0  0  0  0  0  0  0  0  0  0  0  0
   16.7026   34.9582   35.1440 N   0  0  0  0  0  0  0  0  0  0  0  0
   16.0101   35.6382   37.3564 N   0  0  0  0  0  0  0  0  0  0  0  0
    7.6770   44.0708   34.0504 H   0  0  0  0  0  0  0  0  0  0  0  0
   10.3192   45.4407   34.1000 H   0  0  0  0  0  0  0  0  0  0  0  0
    9.1828   45.3821   35.3535 H   0  0  0  0  0  0  0  0  0  0  0  0
    9.9711   44.0683   31.9740 H   0  0  0  0  0  0  0  0  0  0  0  0
    8.4817   43.0852   31.8668 H   0  0  0  0  0  0  0  0  0  0  0  0
    8.5550   46.1511   31.8744 H   0  0  0  0  0  0  0  0  0  0  0  0
    8.5385   45.1365   30.4023 H   0  0  0  0  0  0  0  0  0  0  0  0
    6.3019   45.0642   32.5332 H   0  0  0  0  0  0  0  0  0  0  0  0
    6.3297   44.1799   30.9677 H   0  0  0  0  0  0  0  0  0  0  0  0
    6.2465   46.2897   29.7216 H   0  0  0  0  0  0  0  0  0  0  0  0
    4.9234   46.2670   30.9262 H   0  0  0  0  0  0  0  0  0  0  0  0
    6.2825   47.7525   32.4210 H   0  0  0  0  0  0  0  0  0  0  0  0
    7.7885   51.0893   29.7676 H   0  0  0  0  0  0  0  0  0  0  0  0
    9.3281   50.3299   30.3167 H   0  0  0  0  0  0  0  0  0  0  0  0
    9.4406   50.5348   33.1158 H   0  0  0  0  0  0  0  0  0  0  0  0
    9.8027   52.2878   34.8037 H   0  0  0  0  0  0  0  0  0  0  0  0
    8.2884   55.2513   32.1113 H   0  0  0  0  0  0  0  0  0  0  0  0
    9.2003   54.6373   34.3138 H   0  0  0  0  0  0  0  0  0  0  0  0
   11.2111   41.0320   31.8753 H   0  0  0  0  0  0  0  0  0  0  0  0
    9.7422   40.0117   31.9267 H   0  0  0  0  0  0  0  0  0  0  0  0
   11.6004   39.0119   30.5904 H   0  0  0  0  0  0  0  0  0  0  0  0
   10.7015   37.5593   33.1701 H   0  0  0  0  0  0  0  0  0  0  0  0
   14.2012   37.4438   31.5551 H   0  0  0  0  0  0  0  0  0  0  0  0
    9.5289   36.3869   31.6895 H   0  0  0  0  0  0  0  0  0  0  0  0
   12.1244   35.7693   32.5633 H   0  0  0  0  0  0  0  0  0  0  0  0
   12.9478   35.5427   30.5201 H   0  0  0  0  0  0  0  0  0  0  0  0
   12.4328   38.3993   34.8697 H   0  0  0  0  0  0  0  0  0  0  0  0
   17.2667   34.4140   33.1693 H   0  0  0  0  0  0  0  0  0  0  0  0
   16.7636   35.0598   37.7897 H   0  0  0  0  0  0  0  0  0  0  0  0
   15.3759   36.1865   37.9791 H   0  0  0  0  0  0  0  0  0  0  0  0
  1  2  2  0
  1  3  1  0
  3  4  1  0
  4  5  1  0
  6  1  1  0
  7  6  1  0
  6  8  1  0
  8  9  1  0
  9 10  1  0
 10 11  1  0
 11 12  1  0
 12 13  1  0
 13 14  1  0
 13 15  2  0
 14 16  1  0
 16 17  1  0
 17 18  2  0
 19 17  1  0
 18 20  1  0
 21 19  2  0
 19 22  1  0
 20 23  2  0
 23 21  1  0
 22 24  1  0
 22 25  2  0
  4 26  2  0
  4 27  1  0
 28 27  1  0
 28 29  1  0
 29 30  1  0
 29 31  1  0
 30 32  1  0
 31 33  1  0
 31 34  1  0
 34 32  1  0
 32 35  1  0
 34 36  1  0
 37 35  1  0
 38 35  1  0
 39 37  2  0
 37 40  1  0
 41 38  2  0
 42 39  1  0
 40 43  2  0
 40 41  1  0
 44 42  2  0
 44 43  1  0
 43 45  1  0
  6 46  1  6
  7 47  1  0
  7 48  1  0
  8 49  1  0
  8 50  1  0
  9 51  1  0
  9 52  1  0
 10 53  1  0
 10 54  1  0
 11 55  1  0
 11 56  1  0
 12 57  1  0
 16 58  1  0
 16 59  1  0
 18 60  1  0
 20 61  1  0
 21 62  1  0
 23 63  1  0
 28 64  1  0
 28 65  1  0
 29 66  1  0
 31 67  1  0
 32 68  1  0
 33 69  1  0
 34 70  1  0
 36 71  1  0
 38 72  1  0
 42 73  1  0
 45 74  1  0
 45 75  1  0
M  CHG  3   5  -1  22   1  24  -1
M  END
>  <EmbedRMS>  (402) 
0.0742832357958

$$$$

     RDKit          3D

 75 78  0  0  0  0  0  0  0  0999 V2000
    9.4329   42.9368   34.3464 C   0  0  0  0  0  0  0  0  0  0  0  0
   10.4904   43.0333   35.0319 O   0  0  0  0  0  0  0  0  0  0  0  0
    8.8562   41.7105   34.0296 O   0  0  0  0  0  0  0  0  0  0  0  0
    9.4942   40.2140   34.4678 P   0  0  0  0  0  0  0  0  0  0  0  0
    9.7311   40.1724   36.1289 O   0  0  0  0  0  0  0  0  0  0  0  0
    8.7500   44.1351   33.7743 C   0  0  1  0  0  0  0  0  0  0  0  0
    9.2953   45.3826   34.3135 N   0  0  0  0  0  0  0  0  0  0  0  0
    8.8890   44.0528   32.2362 C   0  0  0  0  0  0  0  0  0  0  0  0
    8.2030   45.1826   31.4620 C   0  0  0  0  0  0  0  0  0  0  0  0
    6.6655   45.1037   31.4826 C   0  0  0  0  0  0  0  0  0  0  0  0
    6.0290   46.3230   30.8076 C   0  0  0  0  0  0  0  0  0  0  0  0
    6.5079   47.5616   31.4205 N   0  0  0  0  0  0  0  0  0  0  0  0
    7.2539   48.5390   30.6863 C   0  0  0  0  0  0  0  0  0  0  0  0
    7.6602   49.7469   31.2698 O   0  0  0  0  0  0  0  0  0  0  0  0
    7.5819   48.3120   29.4925 O   0  0  0  0  0  0  0  0  0  0  0  0
    7.4689   50.1028   32.6399 C   0  0  0  0  0  0  0  0  0  0  0  0
    6.0110   50.3608   32.9542 C   0  0  0  0  0  0  0  0  0  0  0  0
    5.2397   51.0858   32.0262 C   0  0  0  0  0  0  0  0  0  0  0  0
    5.4283   49.9947   34.1962 C   0  0  0  0  0  0  0  0  0  0  0  0
    3.9108   51.4112   32.3019 C   0  0  0  0  0  0  0  0  0  0  0  0
    4.0939   50.3456   34.4620 C   0  0  0  0  0  0  0  0  0  0  0  0
    6.1755   49.3036   35.2081 N   0  0  0  0  0  0  0  0  0  0  0  0
    3.3384   51.0408   33.5172 C   0  0  0  0  0  0  0  0  0  0  0  0
    6.7026   48.0603   34.9472 O   0  0  0  0  0  0  0  0  0  0  0  0
    6.1239   49.6984   36.3911 O   0  0  0  0  0  0  0  0  0  0  0  0
    8.5370   39.1383   34.0123 O   0  0  0  0  0  0  0  0  0  0  0  0
   10.9795   40.0870   33.6827 O   0  0  0  0  0  0  0  0  0  0  0  0
   10.7996   40.0899   32.2830 C   0  0  0  0  0  0  0  0  0  0  0  0
   11.5968   38.9274   31.6962 C   0  0  0  0  0  0  0  0  0  0  0  0
   12.9242   38.9425   32.1784 O   0  0  0  0  0  0  0  0  0  0  0  0
   11.0086   37.5713   32.0780 C   0  0  0  0  0  0  0  0  0  0  0  0
   13.3528   37.5929   32.2623 C   0  0  0  0  0  0  0  0  0  0  0  0
    9.9098   37.1770   31.2925 O   0  0  0  0  0  0  0  0  0  0  0  0
   12.1943   36.6683   31.8995 C   0  0  0  0  0  0  0  0  0  0  0  0
   13.8019   37.2950   33.6199 N   0  0  0  0  0  0  0  0  0  0  0  0
   12.3027   36.2773   30.5558 O   0  0  0  0  0  0  0  0  0  0  0  0
   14.7926   36.4715   33.9865 C   0  0  0  0  0  0  0  0  0  0  0  0
   13.2749   37.7286   34.7946 C   0  0  0  0  0  0  0  0  0  0  0  0
   15.6239   35.7577   33.1860 N   0  0  0  0  0  0  0  0  0  0  0  0
   14.8727   36.4403   35.3332 C   0  0  0  0  0  0  0  0  0  0  0  0
   13.9210   37.2257   35.8811 N   0  0  0  0  0  0  0  0  0  0  0  0
   16.5873   34.9921   33.7802 C   0  0  0  0  0  0  0  0  0  0  0  0
   15.8579   35.6714   35.9444 C   0  0  0  0  0  0  0  0  0  0  0  0
   16.7028   34.9583   35.1439 N   0  0  0  0  0  0  0  0  0  0  0  0
   16.0104   35.6381   37.3564 N   0  0  0  0  0  0  0  0  0  0  0  0
    7.6763   44.0710   34.0502 H   0  0  0  0  0  0  0  0  0  0  0  0
   10.3186   45.4408   34.1021 H   0  0  0  0  0  0  0  0  0  0  0  0
    9.1792   45.3840   35.3533 H   0  0  0  0  0  0  0  0  0  0  0  0
    8.4813   43.0853   31.8670 H   0  0  0  0  0  0  0  0  0  0  0  0
    9.9709   44.0682   31.9746 H   0  0  0  0  0  0  0  0  0  0  0  0
    8.5409   45.1383   30.4034 H   0  0  0  0  0  0  0  0  0  0  0  0
    8.5539   46.1509   31.8769 H   0  0  0  0  0  0  0  0  0  0  0  0
    6.2999   45.0618   32.5297 H   0  0  0  0  0  0  0  0  0  0  0  0
    6.3313   44.1798   30.9626 H   0  0  0  0  0  0  0  0  0  0  0  0
    6.2505   46.2918   29.7193 H   0  0  0  0  0  0  0  0  0  0  0  0
    4.9253   46.2681   30.9214 H   0  0  0  0  0  0  0  0  0  0  0  0
    6.2791   47.7183   32.4242 H   0  0  0  0  0  0  0  0  0  0  0  0
    8.0251   51.0448   32.8276 H   0  0  0  0  0  0  0  0  0  0  0  0
    7.9271   49.3293   33.2851 H   0  0  0  0  0  0  0  0  0  0  0  0
    5.6701   51.4071   31.0857 H   0  0  0  0  0  0  0  0  0  0  0  0
    3.3270   51.9618   31.5755 H   0  0  0  0  0  0  0  0  0  0  0  0
    3.6368   50.0721   35.4048 H   0  0  0  0  0  0  0  0  0  0  0  0
    2.3096   51.3000   33.7315 H   0  0  0  0  0  0  0  0  0  0  0  0
   11.2096   41.0418   31.8829 H   0  0  0  0  0  0  0  0  0  0  0  0
    9.7449   40.0145   31.9263 H   0  0  0  0  0  0  0  0  0  0  0  0
   11.6265   39.0456   30.5888 H   0  0  0  0  0  0  0  0  0  0  0  0
   10.7064   37.5574   33.1484 H   0  0  0  0  0  0  0  0  0  0  0  0
   14.2021   37.4484   31.5574 H   0  0  0  0  0  0  0  0  0  0  0  0
   10.0952   37.3990   30.3433 H   0  0  0  0  0  0  0  0  0  0  0  0
   12.1163   35.7745   32.5633 H   0  0  0  0  0  0  0  0  0  0  0  0
   12.9615   35.5349   30.5312 H   0  0  0  0  0  0  0  0  0  0  0  0
   12.4321   38.3982   34.8705 H   0  0  0  0  0  0  0  0  0  0  0  0
   17.2669   34.4143   33.1690 H   0  0  0  0  0  0  0  0  0  0  0  0
   16.7641   35.0598   37.7896 H   0  0  0  0  0  0  0  0  0  0  0  0
   15.3761   36.1862   37.9792 H   0  0  0  0  0  0  0  0  0  0  0  0
  1  2  2  0
  1  3  1  0
  3  4  1  0
  4  5  1  0
  6  1  1  0
  7  6  1  0
  6  8  1  0
  8  9  1  0
  9 10  1  0
 10 11  1  0
 11 12  1  0
 12 13  1  0
 13 14  1  0
 13 15  2  0
 14 16  1  0
 16 17  1  0
 17 18  2  0
 19 17  1  0
 18 20  1  0
 21 19  2  0
 19 22  1  0
 20 23  2  0
 23 21  1  0
 22 24  1  0
 22 25  2  0
  4 26  2  0
  4 27  1  0
 28 27  1  0
 28 29  1  0
 29 30  1  0
 29 31  1  0
 30 32  1  0
 31 33  1  0
 31 34  1  0
 34 32  1  0
 32 35  1  0
 34 36  1  0
 37 35  1  0
 38 35  1  0
 39 37  2  0
 37 40  1  0
 41 38  2  0
 42 39  1  0
 40 43  2  0
 40 41  1  0
 44 42  2  0
 44 43  1  0
 43 45  1  0
  6 46  1  6
  7 47  1  0
  7 48  1  0
  8 49  1  0
  8 50  1  0
  9 51  1  0
  9 52  1  0
 10 53  1  0
 10 54  1  0
 11 55  1  0
 11 56  1  0
 12 57  1  0
 16 58  1  0
 16 59  1  0
 18 60  1  0
 20 61  1  0
 21 62  1  0
 23 63  1  0
 28 64  1  0
 28 65  1  0
 29 66  1  0
 31 67  1  0
 32 68  1  0
 33 69  1  0
 34 70  1  0
 36 71  1  0
 38 72  1  0
 42 73  1  0
 45 74  1  0
 45 75  1  0
M  CHG  3   5  -1  22   1  24  -1
M  END
>  <EmbedRMS>  (403) 
0.074681742197

$$$$

     RDKit          3D

 75 78  0  0  0  0  0  0  0  0999 V2000
    9.4311   42.9411   34.3436 C   0  0  0  0  0  0  0  0  0  0  0  0
   10.4883   43.0411   35.0293 O   0  0  0  0  0  0  0  0  0  0  0  0
    8.8561   41.7128   34.0287 O   0  0  0  0  0  0  0  0  0  0  0  0
    9.4945   40.2161   34.4677 P   0  0  0  0  0  0  0  0  0  0  0  0
    9.7312   40.1740   36.1288 O   0  0  0  0  0  0  0  0  0  0  0  0
    8.7482   44.1360   33.7717 C   0  0  1  0  0  0  0  0  0  0  0  0
    9.3035   45.3666   34.3384 N   0  0  0  0  0  0  0  0  0  0  0  0
    8.8892   44.0516   32.2304 C   0  0  0  0  0  0  0  0  0  0  0  0
    8.2020   45.1719   31.4424 C   0  0  0  0  0  0  0  0  0  0  0  0
    6.6646   45.1045   31.4834 C   0  0  0  0  0  0  0  0  0  0  0  0
    6.0258   46.3265   30.8156 C   0  0  0  0  0  0  0  0  0  0  0  0
    6.5152   47.5630   31.4250 N   0  0  0  0  0  0  0  0  0  0  0  0
    7.2297   48.5514   30.6754 C   0  0  0  0  0  0  0  0  0  0  0  0
    7.5550   49.8001   31.2220 O   0  0  0  0  0  0  0  0  0  0  0  0
    7.6007   48.2999   29.4993 O   0  0  0  0  0  0  0  0  0  0  0  0
    7.0162   50.3400   32.4290 C   0  0  0  0  0  0  0  0  0  0  0  0
    5.5553   50.6953   32.2604 C   0  0  0  0  0  0  0  0  0  0  0  0
    4.5954   49.9320   32.9522 C   0  0  0  0  0  0  0  0  0  0  0  0
    5.1235   51.8051   31.4780 C   0  0  0  0  0  0  0  0  0  0  0  0
    3.2367   50.2298   32.8517 C   0  0  0  0  0  0  0  0  0  0  0  0
    3.7478   52.0914   31.4023 C   0  0  0  0  0  0  0  0  0  0  0  0
    6.0458   52.6816   30.8006 N   0  0  0  0  0  0  0  0  0  0  0  0
    2.8135   51.3048   32.0755 C   0  0  0  0  0  0  0  0  0  0  0  0
    5.7027   53.9953   30.5759 O   0  0  0  0  0  0  0  0  0  0  0  0
    7.0944   52.2445   30.2861 O   0  0  0  0  0  0  0  0  0  0  0  0
    8.5374   39.1400   34.0124 O   0  0  0  0  0  0  0  0  0  0  0  0
   10.9799   40.0879   33.6828 O   0  0  0  0  0  0  0  0  0  0  0  0
   10.8002   40.0907   32.2831 C   0  0  0  0  0  0  0  0  0  0  0  0
   11.5958   38.9271   31.6964 C   0  0  0  0  0  0  0  0  0  0  0  0
   12.9239   38.9409   32.1767 O   0  0  0  0  0  0  0  0  0  0  0  0
   11.0062   37.5720   32.0794 C   0  0  0  0  0  0  0  0  0  0  0  0
   13.3506   37.5906   32.2614 C   0  0  0  0  0  0  0  0  0  0  0  0
    9.9064   37.1793   31.2946 O   0  0  0  0  0  0  0  0  0  0  0  0
   12.1920   36.6672   31.9004 C   0  0  0  0  0  0  0  0  0  0  0  0
   13.8017   37.2948   33.6193 N   0  0  0  0  0  0  0  0  0  0  0  0
   12.3133   36.2788   30.5561 O   0  0  0  0  0  0  0  0  0  0  0  0
   14.7927   36.4717   33.9862 C   0  0  0  0  0  0  0  0  0  0  0  0
   13.2746   37.7284   34.7941 C   0  0  0  0  0  0  0  0  0  0  0  0
   15.6240   35.7576   33.1859 N   0  0  0  0  0  0  0  0  0  0  0  0
   14.8728   36.4406   35.3330 C   0  0  0  0  0  0  0  0  0  0  0  0
   13.9209   37.2258   35.8808 N   0  0  0  0  0  0  0  0  0  0  0  0
   16.5874   34.9920   33.7802 C   0  0  0  0  0  0  0  0  0  0  0  0
   15.8579   35.6716   35.9443 C   0  0  0  0  0  0  0  0  0  0  0  0
   16.7028   34.9584   35.1439 N   0  0  0  0  0  0  0  0  0  0  0  0
   16.0103   35.6383   37.3563 N   0  0  0  0  0  0  0  0  0  0  0  0
    7.6761   44.0635   34.0542 H   0  0  0  0  0  0  0  0  0  0  0  0
   10.2145   45.5885   33.8741 H   0  0  0  0  0  0  0  0  0  0  0  0
    8.6460   46.1559   34.1431 H   0  0  0  0  0  0  0  0  0  0  0  0
    8.4829   43.0815   31.8663 H   0  0  0  0  0  0  0  0  0  0  0  0
    9.9709   44.0637   31.9678 H   0  0  0  0  0  0  0  0  0  0  0  0
    8.5227   45.0972   30.3802 H   0  0  0  0  0  0  0  0  0  0  0  0
    8.5708   46.1482   31.8180 H   0  0  0  0  0  0  0  0  0  0  0  0
    6.3172   44.1814   30.9707 H   0  0  0  0  0  0  0  0  0  0  0  0
    6.3125   45.0670   32.5352 H   0  0  0  0  0  0  0  0  0  0  0  0
    4.9236   46.2751   30.9447 H   0  0  0  0  0  0  0  0  0  0  0  0
    6.2327   46.2969   29.7243 H   0  0  0  0  0  0  0  0  0  0  0  0
    6.3564   47.6917   32.4465 H   0  0  0  0  0  0  0  0  0  0  0  0
    7.1802   49.6293   33.2669 H   0  0  0  0  0  0  0  0  0  0  0  0
    7.5810   51.2572   32.6972 H   0  0  0  0  0  0  0  0  0  0  0  0
    4.8956   49.1068   33.5845 H   0  0  0  0  0  0  0  0  0  0  0  0
    2.5106   49.6295   33.3848 H   0  0  0  0  0  0  0  0  0  0  0  0
    3.3940   52.9271   30.8119 H   0  0  0  0  0  0  0  0  0  0  0  0
    1.7586   51.5362   32.0024 H   0  0  0  0  0  0  0  0  0  0  0  0
   11.2114   41.0421   31.8829 H   0  0  0  0  0  0  0  0  0  0  0  0
    9.7454   40.0168   31.9263 H   0  0  0  0  0  0  0  0  0  0  0  0
   11.6246   39.0449   30.5889 H   0  0  0  0  0  0  0  0  0  0  0  0
   10.7050   37.5581   33.1500 H   0  0  0  0  0  0  0  0  0  0  0  0
   14.1984   37.4426   31.5553 H   0  0  0  0  0  0  0  0  0  0  0  0
   10.0893   37.4057   30.3459 H   0  0  0  0  0  0  0  0  0  0  0  0
   12.1337   35.7754   32.5703 H   0  0  0  0  0  0  0  0  0  0  0  0
   11.7933   35.4394   30.4514 H   0  0  0  0  0  0  0  0  0  0  0  0
   12.4314   38.3973   34.8700 H   0  0  0  0  0  0  0  0  0  0  0  0
   17.2669   34.4142   33.1691 H   0  0  0  0  0  0  0  0  0  0  0  0
   16.7638   35.0599   37.7896 H   0  0  0  0  0  0  0  0  0  0  0  0
   15.3759   36.1864   37.9790 H   0  0  0  0  0  0  0  0  0  0  0  0
  1  2  2  0
  1  3  1  0
  3  4  1  0
  4  5  1  0
  6  1  1  0
  7  6  1  0
  6  8  1  0
  8  9  1  0
  9 10  1  0
 10 11  1  0
 11 12  1  0
 12 13  1  0
 13 14  1  0
 13 15  2  0
 14 16  1  0
 16 17  1  0
 17 18  2  0
 19 17  1  0
 18 20  1  0
 21 19  2  0
 19 22  1  0
 20 23  2  0
 23 21  1  0
 22 24  1  0
 22 25  2  0
  4 26  2  0
  4 27  1  0
 28 27  1  0
 28 29  1  0
 29 30  1  0
 29 31  1  0
 30 32  1  0
 31 33  1  0
 31 34  1  0
 34 32  1  0
 32 35  1  0
 34 36  1  0
 37 35  1  0
 38 35  1  0
 39 37  2  0
 37 40  1  0
 41 38  2  0
 42 39  1  0
 40 43  2  0
 40 41  1  0
 44 42  2  0
 44 43  1  0
 43 45  1  0
  6 46  1  6
  7 47  1  0
  7 48  1  0
  8 49  1  0
  8 50  1  0
  9 51  1  0
  9 52  1  0
 10 53  1  0
 10 54  1  0
 11 55  1  0
 11 56  1  0
 12 57  1  0
 16 58  1  0
 16 59  1  0
 18 60  1  0
 20 61  1  0
 21 62  1  0
 23 63  1  0
 28 64  1  0
 28 65  1  0
 29 66  1  0
 31 67  1  0
 32 68  1  0
 33 69  1  0
 34 70  1  0
 36 71  1  0
 38 72  1  0
 42 73  1  0
 45 74  1  0
 45 75  1  0
M  CHG  3   5  -1  22   1  24  -1
M  END
>  <EmbedRMS>  (404) 
0.0735544542133

$$$$

     RDKit          3D

 75 78  0  0  0  0  0  0  0  0999 V2000
    9.4332   42.9369   34.3458 C   0  0  0  0  0  0  0  0  0  0  0  0
   10.4908   43.0332   35.0314 O   0  0  0  0  0  0  0  0  0  0  0  0
    8.8555   41.7107   34.0304 O   0  0  0  0  0  0  0  0  0  0  0  0
    9.4929   40.2145   34.4705 P   0  0  0  0  0  0  0  0  0  0  0  0
    9.7295   40.1730   36.1313 O   0  0  0  0  0  0  0  0  0  0  0  0
    8.7509   44.1355   33.7737 C   0  0  1  0  0  0  0  0  0  0  0  0
    9.2967   45.3821   34.3136 N   0  0  0  0  0  0  0  0  0  0  0  0
    8.8899   44.0552   32.2354 C   0  0  0  0  0  0  0  0  0  0  0  0
    8.2028   45.1859   31.4625 C   0  0  0  0  0  0  0  0  0  0  0  0
    6.6652   45.1062   31.4856 C   0  0  0  0  0  0  0  0  0  0  0  0
    6.0239   46.3220   30.8083 C   0  0  0  0  0  0  0  0  0  0  0  0
    6.4971   47.5657   31.4155 N   0  0  0  0  0  0  0  0  0  0  0  0
    7.2578   48.5292   30.6899 C   0  0  0  0  0  0  0  0  0  0  0  0
    7.6755   49.6954   31.3389 O   0  0  0  0  0  0  0  0  0  0  0  0
    7.5903   48.3103   29.4935 O   0  0  0  0  0  0  0  0  0  0  0  0
    8.6302   50.5967   30.7817 C   0  0  0  0  0  0  0  0  0  0  0  0
    9.9920   49.9438   30.7037 C   0  0  0  0  0  0  0  0  0  0  0  0
   10.6353   49.8764   29.4541 C   0  0  0  0  0  0  0  0  0  0  0  0
   10.6074   49.3401   31.8341 C   0  0  0  0  0  0  0  0  0  0  0  0
   11.8557   49.2147   29.3154 C   0  0  0  0  0  0  0  0  0  0  0  0
   11.8297   48.6632   31.6673 C   0  0  0  0  0  0  0  0  0  0  0  0
   10.0054   49.3829   33.1412 N   0  0  0  0  0  0  0  0  0  0  0  0
   12.4491   48.6048   30.4185 C   0  0  0  0  0  0  0  0  0  0  0  0
    9.3774   50.5214   33.5891 O   0  0  0  0  0  0  0  0  0  0  0  0
   10.1874   48.4449   33.9446 O   0  0  0  0  0  0  0  0  0  0  0  0
    8.5365   39.1384   34.0139 O   0  0  0  0  0  0  0  0  0  0  0  0
   10.9785   40.0883   33.6869 O   0  0  0  0  0  0  0  0  0  0  0  0
   10.7974   40.0896   32.2882 C   0  0  0  0  0  0  0  0  0  0  0  0
   11.5882   38.9234   31.7042 C   0  0  0  0  0  0  0  0  0  0  0  0
   12.9230   38.9440   32.1728 O   0  0  0  0  0  0  0  0  0  0  0  0
   11.0048   37.5703   32.0916 C   0  0  0  0  0  0  0  0  0  0  0  0
   13.3570   37.5960   32.2595 C   0  0  0  0  0  0  0  0  0  0  0  0
    9.9332   37.1987   31.2676 O   0  0  0  0  0  0  0  0  0  0  0  0
   12.1965   36.6751   31.8949 C   0  0  0  0  0  0  0  0  0  0  0  0
   13.8037   37.2979   33.6187 N   0  0  0  0  0  0  0  0  0  0  0  0
   12.2934   36.2389   30.5581 O   0  0  0  0  0  0  0  0  0  0  0  0
   14.7929   36.4726   33.9860 C   0  0  0  0  0  0  0  0  0  0  0  0
   13.2755   37.7304   34.7934 C   0  0  0  0  0  0  0  0  0  0  0  0
   15.6244   35.7585   33.1859 N   0  0  0  0  0  0  0  0  0  0  0  0
   14.8722   36.4406   35.3328 C   0  0  0  0  0  0  0  0  0  0  0  0
   13.9205   37.2262   35.8803 N   0  0  0  0  0  0  0  0  0  0  0  0
   16.5872   34.9923   33.7802 C   0  0  0  0  0  0  0  0  0  0  0  0
   15.8573   35.6715   35.9442 C   0  0  0  0  0  0  0  0  0  0  0  0
   16.7023   34.9584   35.1439 N   0  0  0  0  0  0  0  0  0  0  0  0
   16.0098   35.6384   37.3563 N   0  0  0  0  0  0  0  0  0  0  0  0
    7.6772   44.0715   34.0497 H   0  0  0  0  0  0  0  0  0  0  0  0
    9.1839   45.3819   35.3538 H   0  0  0  0  0  0  0  0  0  0  0  0
   10.3193   45.4413   34.0992 H   0  0  0  0  0  0  0  0  0  0  0  0
    8.4832   43.0877   31.8652 H   0  0  0  0  0  0  0  0  0  0  0  0
    9.9718   44.0721   31.9739 H   0  0  0  0  0  0  0  0  0  0  0  0
    8.5394   45.1424   30.4035 H   0  0  0  0  0  0  0  0  0  0  0  0
    8.5538   46.1548   31.8769 H   0  0  0  0  0  0  0  0  0  0  0  0
    6.3314   44.1802   30.9692 H   0  0  0  0  0  0  0  0  0  0  0  0
    6.3015   45.0667   32.5334 H   0  0  0  0  0  0  0  0  0  0  0  0
    6.2458   46.2889   29.7200 H   0  0  0  0  0  0  0  0  0  0  0  0
    4.9204   46.2630   30.9217 H   0  0  0  0  0  0  0  0  0  0  0  0
    6.2761   47.7521   32.4195 H   0  0  0  0  0  0  0  0  0  0  0  0
    8.2766   50.9335   29.7824 H   0  0  0  0  0  0  0  0  0  0  0  0
    8.6913   51.5045   31.4155 H   0  0  0  0  0  0  0  0  0  0  0  0
   10.1847   50.3257   28.5777 H   0  0  0  0  0  0  0  0  0  0  0  0
   12.3381   49.1671   28.3476 H   0  0  0  0  0  0  0  0  0  0  0  0
   12.3132   48.1898   32.5126 H   0  0  0  0  0  0  0  0  0  0  0  0
   13.3930   48.0869   30.3067 H   0  0  0  0  0  0  0  0  0  0  0  0
    9.7422   40.0187   31.9314 H   0  0  0  0  0  0  0  0  0  0  0  0
   11.2114   41.0391   31.8862 H   0  0  0  0  0  0  0  0  0  0  0  0
   11.5932   39.0396   30.5966 H   0  0  0  0  0  0  0  0  0  0  0  0
   10.6986   37.5585   33.1640 H   0  0  0  0  0  0  0  0  0  0  0  0
   14.2072   37.4493   31.5564 H   0  0  0  0  0  0  0  0  0  0  0  0
    9.5321   36.3881   31.6771 H   0  0  0  0  0  0  0  0  0  0  0  0
   12.1344   35.7838   32.5583 H   0  0  0  0  0  0  0  0  0  0  0  0
   12.4642   37.0179   29.9674 H   0  0  0  0  0  0  0  0  0  0  0  0
   12.4333   38.4005   34.8692 H   0  0  0  0  0  0  0  0  0  0  0  0
   17.2668   34.4144   33.1692 H   0  0  0  0  0  0  0  0  0  0  0  0
   16.7634   35.0600   37.7896 H   0  0  0  0  0  0  0  0  0  0  0  0
   15.3755   36.1866   37.9789 H   0  0  0  0  0  0  0  0  0  0  0  0
  1  2  2  0
  1  3  1  0
  3  4  1  0
  4  5  1  0
  6  1  1  0
  7  6  1  0
  6  8  1  0
  8  9  1  0
  9 10  1  0
 10 11  1  0
 11 12  1  0
 12 13  1  0
 13 14  1  0
 13 15  2  0
 14 16  1  0
 16 17  1  0
 17 18  2  0
 19 17  1  0
 18 20  1  0
 21 19  2  0
 19 22  1  0
 20 23  2  0
 23 21  1  0
 22 24  1  0
 22 25  2  0
  4 26  2  0
  4 27  1  0
 28 27  1  0
 28 29  1  0
 29 30  1  0
 29 31  1  0
 30 32  1  0
 31 33  1  0
 31 34  1  0
 34 32  1  0
 32 35  1  0
 34 36  1  0
 37 35  1  0
 38 35  1  0
 39 37  2  0
 37 40  1  0
 41 38  2  0
 42 39  1  0
 40 43  2  0
 40 41  1  0
 44 42  2  0
 44 43  1  0
 43 45  1  0
  6 46  1  6
  7 47  1  0
  7 48  1  0
  8 49  1  0
  8 50  1  0
  9 51  1  0
  9 52  1  0
 10 53  1  0
 10 54  1  0
 11 55  1  0
 11 56  1  0
 12 57  1  0
 16 58  1  0
 16 59  1  0
 18 60  1  0
 20 61  1  0
 21 62  1  0
 23 63  1  0
 28 64  1  0
 28 65  1  0
 29 66  1  0
 31 67  1  0
 32 68  1  0
 33 69  1  0
 34 70  1  0
 36 71  1  0
 38 72  1  0
 42 73  1  0
 45 74  1  0
 45 75  1  0
M  CHG  3   5  -1  22   1  24  -1
M  END
>  <EmbedRMS>  (405) 
0.0763986227051

$$$$

     RDKit          3D

 75 78  0  0  0  0  0  0  0  0999 V2000
    9.4298   42.9394   34.3437 C   0  0  0  0  0  0  0  0  0  0  0  0
   10.4913   43.0380   35.0234 O   0  0  0  0  0  0  0  0  0  0  0  0
    8.8541   41.7116   34.0296 O   0  0  0  0  0  0  0  0  0  0  0  0
    9.4928   40.2156   34.4702 P   0  0  0  0  0  0  0  0  0  0  0  0
    9.7296   40.1741   36.1311 O   0  0  0  0  0  0  0  0  0  0  0  0
    8.7412   44.1376   33.7786 C   0  0  1  0  0  0  0  0  0  0  0  0
    9.3016   45.3717   34.3325 N   0  0  0  0  0  0  0  0  0  0  0  0
    8.8963   44.0590   32.2399 C   0  0  0  0  0  0  0  0  0  0  0  0
    8.2027   45.1685   31.4400 C   0  0  0  0  0  0  0  0  0  0  0  0
    6.6653   45.1063   31.4910 C   0  0  0  0  0  0  0  0  0  0  0  0
    6.0278   46.3225   30.8125 C   0  0  0  0  0  0  0  0  0  0  0  0
    6.5081   47.5641   31.4188 N   0  0  0  0  0  0  0  0  0  0  0  0
    7.2417   48.5404   30.6824 C   0  0  0  0  0  0  0  0  0  0  0  0
    7.5839   49.7473   31.3021 O   0  0  0  0  0  0  0  0  0  0  0  0
    7.5940   48.3102   29.4937 O   0  0  0  0  0  0  0  0  0  0  0  0
    8.3038   50.7871   30.6414 C   0  0  0  0  0  0  0  0  0  0  0  0
    7.4386   51.4452   29.5897 C   0  0  0  0  0  0  0  0  0  0  0  0
    6.1701   51.9158   29.9746 C   0  0  0  0  0  0  0  0  0  0  0  0
    7.8357   51.5619   28.2315 C   0  0  0  0  0  0  0  0  0  0  0  0
    5.2927   52.4531   29.0316 C   0  0  0  0  0  0  0  0  0  0  0  0
    6.9307   52.0862   27.2932 C   0  0  0  0  0  0  0  0  0  0  0  0
    9.1459   51.1786   27.7884 N   0  0  0  0  0  0  0  0  0  0  0  0
    5.6685   52.5291   27.6916 C   0  0  0  0  0  0  0  0  0  0  0  0
    9.3010   50.5720   26.5633 O   0  0  0  0  0  0  0  0  0  0  0  0
   10.1565   51.6166   28.3757 O   0  0  0  0  0  0  0  0  0  0  0  0
    8.5369   39.1389   34.0141 O   0  0  0  0  0  0  0  0  0  0  0  0
   10.9784   40.0890   33.6866 O   0  0  0  0  0  0  0  0  0  0  0  0
   10.7973   40.0897   32.2880 C   0  0  0  0  0  0  0  0  0  0  0  0
   11.5882   38.9234   31.7043 C   0  0  0  0  0  0  0  0  0  0  0  0
   12.9230   38.9440   32.1729 O   0  0  0  0  0  0  0  0  0  0  0  0
   11.0048   37.5704   32.0916 C   0  0  0  0  0  0  0  0  0  0  0  0
   13.3570   37.5961   32.2595 C   0  0  0  0  0  0  0  0  0  0  0  0
    9.9332   37.1987   31.2676 O   0  0  0  0  0  0  0  0  0  0  0  0
   12.1965   36.6751   31.8950 C   0  0  0  0  0  0  0  0  0  0  0  0
   13.8037   37.2979   33.6187 N   0  0  0  0  0  0  0  0  0  0  0  0
   12.2934   36.2389   30.5582 O   0  0  0  0  0  0  0  0  0  0  0  0
   14.7929   36.4726   33.9860 C   0  0  0  0  0  0  0  0  0  0  0  0
   13.2755   37.7304   34.7934 C   0  0  0  0  0  0  0  0  0  0  0  0
   15.6244   35.7585   33.1859 N   0  0  0  0  0  0  0  0  0  0  0  0
   14.8722   36.4406   35.3328 C   0  0  0  0  0  0  0  0  0  0  0  0
   13.9205   37.2262   35.8803 N   0  0  0  0  0  0  0  0  0  0  0  0
   16.5872   34.9923   33.7802 C   0  0  0  0  0  0  0  0  0  0  0  0
   15.8573   35.6715   35.9442 C   0  0  0  0  0  0  0  0  0  0  0  0
   16.7023   34.9584   35.1439 N   0  0  0  0  0  0  0  0  0  0  0  0
   16.0098   35.6383   37.3563 N   0  0  0  0  0  0  0  0  0  0  0  0
    7.6668   44.0652   34.0547 H   0  0  0  0  0  0  0  0  0  0  0  0
    9.2335   45.3273   35.3759 H   0  0  0  0  0  0  0  0  0  0  0  0
    8.6809   46.1667   34.0586 H   0  0  0  0  0  0  0  0  0  0  0  0
    8.5084   43.0837   31.8696 H   0  0  0  0  0  0  0  0  0  0  0  0
    9.9810   44.0904   31.9916 H   0  0  0  0  0  0  0  0  0  0  0  0
    8.5157   45.0752   30.3769 H   0  0  0  0  0  0  0  0  0  0  0  0
    8.5770   46.1511   31.7918 H   0  0  0  0  0  0  0  0  0  0  0  0
    6.3124   44.1783   30.9911 H   0  0  0  0  0  0  0  0  0  0  0  0
    6.3182   45.0834   32.5446 H   0  0  0  0  0  0  0  0  0  0  0  0
    4.9243   46.2683   30.9294 H   0  0  0  0  0  0  0  0  0  0  0  0
    6.2469   46.2877   29.7237 H   0  0  0  0  0  0  0  0  0  0  0  0
    6.2843   47.7542   32.4216 H   0  0  0  0  0  0  0  0  0  0  0  0
    9.2406   50.3615   30.2312 H   0  0  0  0  0  0  0  0  0  0  0  0
    8.5868   51.5526   31.3939 H   0  0  0  0  0  0  0  0  0  0  0  0
    5.8520   51.8472   31.0079 H   0  0  0  0  0  0  0  0  0  0  0  0
    4.3157   52.8027   29.3395 H   0  0  0  0  0  0  0  0  0  0  0  0
    7.2146   52.1757   26.2522 H   0  0  0  0  0  0  0  0  0  0  0  0
    4.9845   52.9413   26.9611 H   0  0  0  0  0  0  0  0  0  0  0  0
   11.2112   41.0391   31.8856 H   0  0  0  0  0  0  0  0  0  0  0  0
    9.7422   40.0186   31.9312 H   0  0  0  0  0  0  0  0  0  0  0  0
   11.5932   39.0395   30.5966 H   0  0  0  0  0  0  0  0  0  0  0  0
   10.6986   37.5586   33.1640 H   0  0  0  0  0  0  0  0  0  0  0  0
   14.2072   37.4493   31.5564 H   0  0  0  0  0  0  0  0  0  0  0  0
    9.5321   36.3882   31.6772 H   0  0  0  0  0  0  0  0  0  0  0  0
   12.1344   35.7838   32.5583 H   0  0  0  0  0  0  0  0  0  0  0  0
   12.4642   37.0179   29.9675 H   0  0  0  0  0  0  0  0  0  0  0  0
   12.4333   38.4006   34.8692 H   0  0  0  0  0  0  0  0  0  0  0  0
   17.2668   34.4144   33.1692 H   0  0  0  0  0  0  0  0  0  0  0  0
   15.3755   36.1866   37.9790 H   0  0  0  0  0  0  0  0  0  0  0  0
   16.7634   35.0600   37.7896 H   0  0  0  0  0  0  0  0  0  0  0  0
  1  2  2  0
  1  3  1  0
  3  4  1  0
  4  5  1  0
  6  1  1  0
  7  6  1  0
  6  8  1  0
  8  9  1  0
  9 10  1  0
 10 11  1  0
 11 12  1  0
 12 13  1  0
 13 14  1  0
 13 15  2  0
 14 16  1  0
 16 17  1  0
 17 18  2  0
 19 17  1  0
 18 20  1  0
 21 19  2  0
 19 22  1  0
 20 23  2  0
 23 21  1  0
 22 24  1  0
 22 25  2  0
  4 26  2  0
  4 27  1  0
 28 27  1  0
 28 29  1  0
 29 30  1  0
 29 31  1  0
 30 32  1  0
 31 33  1  0
 31 34  1  0
 34 32  1  0
 32 35  1  0
 34 36  1  0
 37 35  1  0
 38 35  1  0
 39 37  2  0
 37 40  1  0
 41 38  2  0
 42 39  1  0
 40 43  2  0
 40 41  1  0
 44 42  2  0
 44 43  1  0
 43 45  1  0
  6 46  1  6
  7 47  1  0
  7 48  1  0
  8 49  1  0
  8 50  1  0
  9 51  1  0
  9 52  1  0
 10 53  1  0
 10 54  1  0
 11 55  1  0
 11 56  1  0
 12 57  1  0
 16 58  1  0
 16 59  1  0
 18 60  1  0
 20 61  1  0
 21 62  1  0
 23 63  1  0
 28 64  1  0
 28 65  1  0
 29 66  1  0
 31 67  1  0
 32 68  1  0
 33 69  1  0
 34 70  1  0
 36 71  1  0
 38 72  1  0
 42 73  1  0
 45 74  1  0
 45 75  1  0
M  CHG  3   5  -1  22   1  24  -1
M  END
>  <EmbedRMS>  (406) 
0.0751778432448

$$$$

     RDKit          3D

 75 78  0  0  0  0  0  0  0  0999 V2000
    9.4312   42.9410   34.3437 C   0  0  0  0  0  0  0  0  0  0  0  0
   10.4885   43.0409   35.0293 O   0  0  0  0  0  0  0  0  0  0  0  0
    8.8562   41.7127   34.0287 O   0  0  0  0  0  0  0  0  0  0  0  0
    9.4945   40.2160   34.4678 P   0  0  0  0  0  0  0  0  0  0  0  0
    9.7312   40.1739   36.1288 O   0  0  0  0  0  0  0  0  0  0  0  0
    8.7484   44.1359   33.7721 C   0  0  1  0  0  0  0  0  0  0  0  0
    9.3039   45.3664   34.3388 N   0  0  0  0  0  0  0  0  0  0  0  0
    8.8893   44.0519   32.2308 C   0  0  0  0  0  0  0  0  0  0  0  0
    8.2015   45.1722   31.4435 C   0  0  0  0  0  0  0  0  0  0  0  0
    6.6643   45.1067   31.4887 C   0  0  0  0  0  0  0  0  0  0  0  0
    6.0267   46.3236   30.8120 C   0  0  0  0  0  0  0  0  0  0  0  0
    6.5079   47.5647   31.4186 N   0  0  0  0  0  0  0  0  0  0  0  0
    7.2429   48.5404   30.6827 C   0  0  0  0  0  0  0  0  0  0  0  0
    7.5846   49.7465   31.3035 O   0  0  0  0  0  0  0  0  0  0  0  0
    7.5937   48.3100   29.4944 O   0  0  0  0  0  0  0  0  0  0  0  0
    8.3268   50.7843   30.6635 C   0  0  0  0  0  0  0  0  0  0  0  0
    7.5158   51.4289   29.5623 C   0  0  0  0  0  0  0  0  0  0  0  0
    6.2510   51.9486   29.8926 C   0  0  0  0  0  0  0  0  0  0  0  0
    8.0105   51.6023   28.2429 C   0  0  0  0  0  0  0  0  0  0  0  0
    5.4839   52.6197   28.9394 C   0  0  0  0  0  0  0  0  0  0  0  0
    7.2304   52.2964   27.3016 C   0  0  0  0  0  0  0  0  0  0  0  0
    9.2941   51.0998   27.8427 N   0  0  0  0  0  0  0  0  0  0  0  0
    5.9739   52.7958   27.6468 C   0  0  0  0  0  0  0  0  0  0  0  0
    9.5872   49.7642   27.9903 O   0  0  0  0  0  0  0  0  0  0  0  0
   10.0435   51.8055   27.1364 O   0  0  0  0  0  0  0  0  0  0  0  0
    8.5374   39.1400   34.0124 O   0  0  0  0  0  0  0  0  0  0  0  0
   10.9799   40.0879   33.6828 O   0  0  0  0  0  0  0  0  0  0  0  0
   10.8002   40.0907   32.2831 C   0  0  0  0  0  0  0  0  0  0  0  0
   11.5958   38.9271   31.6964 C   0  0  0  0  0  0  0  0  0  0  0  0
   12.9239   38.9409   32.1767 O   0  0  0  0  0  0  0  0  0  0  0  0
   11.0062   37.5719   32.0794 C   0  0  0  0  0  0  0  0  0  0  0  0
   13.3506   37.5905   32.2614 C   0  0  0  0  0  0  0  0  0  0  0  0
    9.9064   37.1793   31.2946 O   0  0  0  0  0  0  0  0  0  0  0  0
   12.1919   36.6672   31.9004 C   0  0  0  0  0  0  0  0  0  0  0  0
   13.8017   37.2948   33.6193 N   0  0  0  0  0  0  0  0  0  0  0  0
   12.3133   36.2788   30.5561 O   0  0  0  0  0  0  0  0  0  0  0  0
   14.7927   36.4717   33.9861 C   0  0  0  0  0  0  0  0  0  0  0  0
   13.2746   37.7284   34.7941 C   0  0  0  0  0  0  0  0  0  0  0  0
   15.6240   35.7576   33.1859 N   0  0  0  0  0  0  0  0  0  0  0  0
   14.8728   36.4406   35.3330 C   0  0  0  0  0  0  0  0  0  0  0  0
   13.9209   37.2258   35.8808 N   0  0  0  0  0  0  0  0  0  0  0  0
   16.5874   34.9920   33.7802 C   0  0  0  0  0  0  0  0  0  0  0  0
   15.8579   35.6716   35.9443 C   0  0  0  0  0  0  0  0  0  0  0  0
   16.7028   34.9584   35.1439 N   0  0  0  0  0  0  0  0  0  0  0  0
   16.0103   35.6383   37.3563 N   0  0  0  0  0  0  0  0  0  0  0  0
    7.6764   44.0633   34.0547 H   0  0  0  0  0  0  0  0  0  0  0  0
   10.2152   45.5879   33.8748 H   0  0  0  0  0  0  0  0  0  0  0  0
    8.6468   46.1558   34.1431 H   0  0  0  0  0  0  0  0  0  0  0  0
    9.9708   44.0643   31.9679 H   0  0  0  0  0  0  0  0  0  0  0  0
    8.4831   43.0818   31.8665 H   0  0  0  0  0  0  0  0  0  0  0  0
    8.5714   46.1488   31.8173 H   0  0  0  0  0  0  0  0  0  0  0  0
    8.5198   45.0960   30.3807 H   0  0  0  0  0  0  0  0  0  0  0  0
    6.3142   45.0786   32.5413 H   0  0  0  0  0  0  0  0  0  0  0  0
    6.3148   44.1801   30.9837 H   0  0  0  0  0  0  0  0  0  0  0  0
    4.9234   46.2697   30.9295 H   0  0  0  0  0  0  0  0  0  0  0  0
    6.2450   46.2895   29.7230 H   0  0  0  0  0  0  0  0  0  0  0  0
    6.2844   47.7544   32.4215 H   0  0  0  0  0  0  0  0  0  0  0  0
    8.5546   51.5622   31.4223 H   0  0  0  0  0  0  0  0  0  0  0  0
    9.3021   50.3885   30.3206 H   0  0  0  0  0  0  0  0  0  0  0  0
    5.8613   51.8410   30.8977 H   0  0  0  0  0  0  0  0  0  0  0  0
    4.5113   53.0125   29.2068 H   0  0  0  0  0  0  0  0  0  0  0  0
    7.5937   52.4385   26.2915 H   0  0  0  0  0  0  0  0  0  0  0  0
    5.3798   53.3216   26.9104 H   0  0  0  0  0  0  0  0  0  0  0  0
    9.7454   40.0168   31.9263 H   0  0  0  0  0  0  0  0  0  0  0  0
   11.2114   41.0421   31.8829 H   0  0  0  0  0  0  0  0  0  0  0  0
   11.6246   39.0449   30.5889 H   0  0  0  0  0  0  0  0  0  0  0  0
   10.7050   37.5581   33.1500 H   0  0  0  0  0  0  0  0  0  0  0  0
   14.1984   37.4426   31.5553 H   0  0  0  0  0  0  0  0  0  0  0  0
   10.0892   37.4058   30.3459 H   0  0  0  0  0  0  0  0  0  0  0  0
   12.1337   35.7754   32.5703 H   0  0  0  0  0  0  0  0  0  0  0  0
   11.7934   35.4394   30.4514 H   0  0  0  0  0  0  0  0  0  0  0  0
   12.4314   38.3973   34.8700 H   0  0  0  0  0  0  0  0  0  0  0  0
   17.2669   34.4142   33.1691 H   0  0  0  0  0  0  0  0  0  0  0  0
   16.7638   35.0599   37.7896 H   0  0  0  0  0  0  0  0  0  0  0  0
   15.3760   36.1865   37.9790 H   0  0  0  0  0  0  0  0  0  0  0  0
  1  2  2  0
  1  3  1  0
  3  4  1  0
  4  5  1  0
  6  1  1  0
  7  6  1  0
  6  8  1  0
  8  9  1  0
  9 10  1  0
 10 11  1  0
 11 12  1  0
 12 13  1  0
 13 14  1  0
 13 15  2  0
 14 16  1  0
 16 17  1  0
 17 18  2  0
 19 17  1  0
 18 20  1  0
 21 19  2  0
 19 22  1  0
 20 23  2  0
 23 21  1  0
 22 24  1  0
 22 25  2  0
  4 26  2  0
  4 27  1  0
 28 27  1  0
 28 29  1  0
 29 30  1  0
 29 31  1  0
 30 32  1  0
 31 33  1  0
 31 34  1  0
 34 32  1  0
 32 35  1  0
 34 36  1  0
 37 35  1  0
 38 35  1  0
 39 37  2  0
 37 40  1  0
 41 38  2  0
 42 39  1  0
 40 43  2  0
 40 41  1  0
 44 42  2  0
 44 43  1  0
 43 45  1  0
  6 46  1  6
  7 47  1  0
  7 48  1  0
  8 49  1  0
  8 50  1  0
  9 51  1  0
  9 52  1  0
 10 53  1  0
 10 54  1  0
 11 55  1  0
 11 56  1  0
 12 57  1  0
 16 58  1  0
 16 59  1  0
 18 60  1  0
 20 61  1  0
 21 62  1  0
 23 63  1  0
 28 64  1  0
 28 65  1  0
 29 66  1  0
 31 67  1  0
 32 68  1  0
 33 69  1  0
 34 70  1  0
 36 71  1  0
 38 72  1  0
 42 73  1  0
 45 74  1  0
 45 75  1  0
M  CHG  3   5  -1  22   1  24  -1
M  END
>  <EmbedRMS>  (407) 
0.0739426651468

$$$$

     RDKit          3D

 75 78  0  0  0  0  0  0  0  0999 V2000
    9.4325   42.9357   34.3466 C   0  0  0  0  0  0  0  0  0  0  0  0
   10.4902   43.0324   35.0321 O   0  0  0  0  0  0  0  0  0  0  0  0
    8.8556   41.7097   34.0303 O   0  0  0  0  0  0  0  0  0  0  0  0
    9.4931   40.2137   34.4703 P   0  0  0  0  0  0  0  0  0  0  0  0
    9.7293   40.1725   36.1313 O   0  0  0  0  0  0  0  0  0  0  0  0
    8.7498   44.1337   33.7744 C   0  0  1  0  0  0  0  0  0  0  0  0
    9.2952   45.3798   34.3145 N   0  0  0  0  0  0  0  0  0  0  0  0
    8.8904   44.0528   32.2363 C   0  0  0  0  0  0  0  0  0  0  0  0
    8.2048   45.1831   31.4625 C   0  0  0  0  0  0  0  0  0  0  0  0
    6.6675   45.1034   31.4825 C   0  0  0  0  0  0  0  0  0  0  0  0
    6.0294   46.3250   30.8137 C   0  0  0  0  0  0  0  0  0  0  0  0
    6.5152   47.5628   31.4242 N   0  0  0  0  0  0  0  0  0  0  0  0
    7.2311   48.5517   30.6736 C   0  0  0  0  0  0  0  0  0  0  0  0
    7.5582   49.8005   31.2228 O   0  0  0  0  0  0  0  0  0  0  0  0
    7.5927   48.3045   29.4938 O   0  0  0  0  0  0  0  0  0  0  0  0
    7.2124   50.2225   32.5427 C   0  0  0  0  0  0  0  0  0  0  0  0
    8.1418   49.6623   33.6063 C   0  0  0  0  0  0  0  0  0  0  0  0
    9.2901   48.9281   33.2368 C   0  0  0  0  0  0  0  0  0  0  0  0
    7.9335   49.9545   34.9833 C   0  0  0  0  0  0  0  0  0  0  0  0
   10.1970   48.4848   34.1993 C   0  0  0  0  0  0  0  0  0  0  0  0
    8.8633   49.4997   35.9343 C   0  0  0  0  0  0  0  0  0  0  0  0
    6.8167   50.7393   35.4367 N   0  0  0  0  0  0  0  0  0  0  0  0
    9.9817   48.7644   35.5453 C   0  0  0  0  0  0  0  0  0  0  0  0
    6.9722   51.5941   36.5036 O   0  0  0  0  0  0  0  0  0  0  0  0
    5.6643   50.5064   35.0195 O   0  0  0  0  0  0  0  0  0  0  0  0
    8.5367   39.1377   34.0136 O   0  0  0  0  0  0  0  0  0  0  0  0
   10.9788   40.0866   33.6874 O   0  0  0  0  0  0  0  0  0  0  0  0
   10.7993   40.0944   32.2886 C   0  0  0  0  0  0  0  0  0  0  0  0
   11.5957   38.9351   31.6994 C   0  0  0  0  0  0  0  0  0  0  0  0
   12.9257   38.9478   32.1798 O   0  0  0  0  0  0  0  0  0  0  0  0
   11.0070   37.5757   32.0732 C   0  0  0  0  0  0  0  0  0  0  0  0
   13.3571   37.5979   32.2612 C   0  0  0  0  0  0  0  0  0  0  0  0
    9.9093   37.1807   31.2875 O   0  0  0  0  0  0  0  0  0  0  0  0
   12.1967   36.6763   31.8893 C   0  0  0  0  0  0  0  0  0  0  0  0
   13.8018   37.2956   33.6197 N   0  0  0  0  0  0  0  0  0  0  0  0
   12.3049   36.2360   30.5554 O   0  0  0  0  0  0  0  0  0  0  0  0
   14.7922   36.4716   33.9864 C   0  0  0  0  0  0  0  0  0  0  0  0
   13.2747   37.7291   34.7944 C   0  0  0  0  0  0  0  0  0  0  0  0
   15.6240   35.7581   33.1861 N   0  0  0  0  0  0  0  0  0  0  0  0
   14.8721   36.4402   35.3331 C   0  0  0  0  0  0  0  0  0  0  0  0
   13.9206   37.2257   35.8810 N   0  0  0  0  0  0  0  0  0  0  0  0
   16.5873   34.9924   33.7802 C   0  0  0  0  0  0  0  0  0  0  0  0
   15.8576   35.6714   35.9444 C   0  0  0  0  0  0  0  0  0  0  0  0
   16.7026   34.9585   35.1439 N   0  0  0  0  0  0  0  0  0  0  0  0
   16.0102   35.6382   37.3564 N   0  0  0  0  0  0  0  0  0  0  0  0
    7.6760   44.0695   34.0497 H   0  0  0  0  0  0  0  0  0  0  0  0
   10.3202   45.4322   34.1102 H   0  0  0  0  0  0  0  0  0  0  0  0
    9.1724   45.3847   35.3535 H   0  0  0  0  0  0  0  0  0  0  0  0
    8.4837   43.0854   31.8659 H   0  0  0  0  0  0  0  0  0  0  0  0
    9.9726   44.0692   31.9760 H   0  0  0  0  0  0  0  0  0  0  0  0
    8.5558   46.1507   31.8786 H   0  0  0  0  0  0  0  0  0  0  0  0
    8.5433   45.1401   30.4041 H   0  0  0  0  0  0  0  0  0  0  0  0
    6.3338   44.1815   30.9587 H   0  0  0  0  0  0  0  0  0  0  0  0
    6.3021   45.0564   32.5293 H   0  0  0  0  0  0  0  0  0  0  0  0
    4.9267   46.2719   30.9370 H   0  0  0  0  0  0  0  0  0  0  0  0
    6.2415   46.2949   29.7235 H   0  0  0  0  0  0  0  0  0  0  0  0
    6.3248   47.7058   32.4402 H   0  0  0  0  0  0  0  0  0  0  0  0
    6.1573   49.9472   32.7394 H   0  0  0  0  0  0  0  0  0  0  0  0
    7.2772   51.3301   32.5784 H   0  0  0  0  0  0  0  0  0  0  0  0
    9.5111   48.7100   32.2013 H   0  0  0  0  0  0  0  0  0  0  0  0
   11.0746   47.9272   33.8982 H   0  0  0  0  0  0  0  0  0  0  0  0
    8.7168   49.7117   36.9860 H   0  0  0  0  0  0  0  0  0  0  0  0
   10.6874   48.4177   36.2891 H   0  0  0  0  0  0  0  0  0  0  0  0
   11.2094   41.0479   31.8922 H   0  0  0  0  0  0  0  0  0  0  0  0
    9.7448   40.0200   31.9304 H   0  0  0  0  0  0  0  0  0  0  0  0
   11.6206   39.0685   30.5942 H   0  0  0  0  0  0  0  0  0  0  0  0
   10.7059   37.5562   33.1438 H   0  0  0  0  0  0  0  0  0  0  0  0
   14.2095   37.4543   31.5601 H   0  0  0  0  0  0  0  0  0  0  0  0
   10.0865   37.4209   30.3413 H   0  0  0  0  0  0  0  0  0  0  0  0
   12.1276   35.7872   32.5549 H   0  0  0  0  0  0  0  0  0  0  0  0
   12.5031   37.0109   29.9672 H   0  0  0  0  0  0  0  0  0  0  0  0
   12.4328   38.3996   34.8703 H   0  0  0  0  0  0  0  0  0  0  0  0
   17.2670   34.4149   33.1691 H   0  0  0  0  0  0  0  0  0  0  0  0
   16.7640   35.0601   37.7896 H   0  0  0  0  0  0  0  0  0  0  0  0
   15.3758   36.1862   37.9792 H   0  0  0  0  0  0  0  0  0  0  0  0
  1  2  2  0
  1  3  1  0
  3  4  1  0
  4  5  1  0
  6  1  1  0
  7  6  1  0
  6  8  1  0
  8  9  1  0
  9 10  1  0
 10 11  1  0
 11 12  1  0
 12 13  1  0
 13 14  1  0
 13 15  2  0
 14 16  1  0
 16 17  1  0
 17 18  2  0
 19 17  1  0
 18 20  1  0
 21 19  2  0
 19 22  1  0
 20 23  2  0
 23 21  1  0
 22 24  1  0
 22 25  2  0
  4 26  2  0
  4 27  1  0
 28 27  1  0
 28 29  1  0
 29 30  1  0
 29 31  1  0
 30 32  1  0
 31 33  1  0
 31 34  1  0
 34 32  1  0
 32 35  1  0
 34 36  1  0
 37 35  1  0
 38 35  1  0
 39 37  2  0
 37 40  1  0
 41 38  2  0
 42 39  1  0
 40 43  2  0
 40 41  1  0
 44 42  2  0
 44 43  1  0
 43 45  1  0
  6 46  1  6
  7 47  1  0
  7 48  1  0
  8 49  1  0
  8 50  1  0
  9 51  1  0
  9 52  1  0
 10 53  1  0
 10 54  1  0
 11 55  1  0
 11 56  1  0
 12 57  1  0
 16 58  1  0
 16 59  1  0
 18 60  1  0
 20 61  1  0
 21 62  1  0
 23 63  1  0
 28 64  1  0
 28 65  1  0
 29 66  1  0
 31 67  1  0
 32 68  1  0
 33 69  1  0
 34 70  1  0
 36 71  1  0
 38 72  1  0
 42 73  1  0
 45 74  1  0
 45 75  1  0
M  CHG  3   5  -1  22   1  24  -1
M  END
>  <EmbedRMS>  (408) 
0.0758535048875

$$$$

     RDKit          3D

 75 78  0  0  0  0  0  0  0  0999 V2000
    9.4331   42.9365   34.3462 C   0  0  0  0  0  0  0  0  0  0  0  0
   10.4907   43.0329   35.0318 O   0  0  0  0  0  0  0  0  0  0  0  0
    8.8558   41.7104   34.0299 O   0  0  0  0  0  0  0  0  0  0  0  0
    9.4943   40.2141   34.4677 P   0  0  0  0  0  0  0  0  0  0  0  0
    9.7317   40.1723   36.1287 O   0  0  0  0  0  0  0  0  0  0  0  0
    8.7506   44.1349   33.7741 C   0  0  1  0  0  0  0  0  0  0  0  0
    9.2963   45.3821   34.3134 N   0  0  0  0  0  0  0  0  0  0  0  0
    8.8893   44.0528   32.2358 C   0  0  0  0  0  0  0  0  0  0  0  0
    8.2028   45.1824   31.4615 C   0  0  0  0  0  0  0  0  0  0  0  0
    6.6653   45.1046   31.4854 C   0  0  0  0  0  0  0  0  0  0  0  0
    6.0268   46.3225   30.8103 C   0  0  0  0  0  0  0  0  0  0  0  0
    6.5060   47.5640   31.4179 N   0  0  0  0  0  0  0  0  0  0  0  0
    7.2445   48.5387   30.6840 C   0  0  0  0  0  0  0  0  0  0  0  0
    7.5996   49.7369   31.3090 O   0  0  0  0  0  0  0  0  0  0  0  0
    7.5930   48.3120   29.4935 O   0  0  0  0  0  0  0  0  0  0  0  0
    8.3560   50.7525   30.6555 C   0  0  0  0  0  0  0  0  0  0  0  0
    8.6279   51.8817   31.6195 C   0  0  0  0  0  0  0  0  0  0  0  0
    9.1766   51.5661   32.8761 C   0  0  0  0  0  0  0  0  0  0  0  0
    8.3234   53.2351   31.3192 C   0  0  0  0  0  0  0  0  0  0  0  0
    9.3771   52.5589   33.8363 C   0  0  0  0  0  0  0  0  0  0  0  0
    8.5141   54.2182   32.3063 C   0  0  0  0  0  0  0  0  0  0  0  0
    7.8602   53.6336   30.0200 N   0  0  0  0  0  0  0  0  0  0  0  0
    9.0365   53.8809   33.5558 C   0  0  0  0  0  0  0  0  0  0  0  0
    8.5468   53.2365   28.8957 O   0  0  0  0  0  0  0  0  0  0  0  0
    6.9941   54.5262   29.9134 O   0  0  0  0  0  0  0  0  0  0  0  0
    8.5371   39.1382   34.0123 O   0  0  0  0  0  0  0  0  0  0  0  0
   10.9793   40.0887   33.6814 O   0  0  0  0  0  0  0  0  0  0  0  0
   10.7977   40.0842   32.2818 C   0  0  0  0  0  0  0  0  0  0  0  0
   11.5897   38.9146   31.7008 C   0  0  0  0  0  0  0  0  0  0  0  0
   12.9218   38.9385   32.1717 O   0  0  0  0  0  0  0  0  0  0  0  0
   11.0070   37.5654   32.0975 C   0  0  0  0  0  0  0  0  0  0  0  0
   13.3533   37.5909   32.2610 C   0  0  0  0  0  0  0  0  0  0  0  0
    9.9333   37.1935   31.2754 O   0  0  0  0  0  0  0  0  0  0  0  0
   12.1945   36.6671   31.9040 C   0  0  0  0  0  0  0  0  0  0  0  0
   13.8036   37.2970   33.6193 N   0  0  0  0  0  0  0  0  0  0  0  0
   12.2893   36.2849   30.5562 O   0  0  0  0  0  0  0  0  0  0  0  0
   14.7931   36.4723   33.9863 C   0  0  0  0  0  0  0  0  0  0  0  0
   13.2756   37.7298   34.7940 C   0  0  0  0  0  0  0  0  0  0  0  0
   15.6242   35.7580   33.1861 N   0  0  0  0  0  0  0  0  0  0  0  0
   14.8727   36.4407   35.3331 C   0  0  0  0  0  0  0  0  0  0  0  0
   13.9210   37.2262   35.8807 N   0  0  0  0  0  0  0  0  0  0  0  0
   16.5872   34.9920   33.7803 C   0  0  0  0  0  0  0  0  0  0  0  0
   15.8577   35.6715   35.9444 C   0  0  0  0  0  0  0  0  0  0  0  0
   16.7025   34.9582   35.1440 N   0  0  0  0  0  0  0  0  0  0  0  0
   16.0101   35.6382   37.3564 N   0  0  0  0  0  0  0  0  0  0  0  0
    7.6770   44.0708   34.0504 H   0  0  0  0  0  0  0  0  0  0  0  0
   10.3192   45.4407   34.1000 H   0  0  0  0  0  0  0  0  0  0  0  0
    9.1827   45.3821   35.3535 H   0  0  0  0  0  0  0  0  0  0  0  0
    8.4817   43.0852   31.8668 H   0  0  0  0  0  0  0  0  0  0  0  0
    9.9711   44.0683   31.9740 H   0  0  0  0  0  0  0  0  0  0  0  0
    8.5385   45.1365   30.4023 H   0  0  0  0  0  0  0  0  0  0  0  0
    8.5551   46.1511   31.8744 H   0  0  0  0  0  0  0  0  0  0  0  0
    6.3019   45.0643   32.5332 H   0  0  0  0  0  0  0  0  0  0  0  0
    6.3297   44.1799   30.9677 H   0  0  0  0  0  0  0  0  0  0  0  0
    4.9234   46.2671   30.9263 H   0  0  0  0  0  0  0  0  0  0  0  0
    6.2465   46.2897   29.7216 H   0  0  0  0  0  0  0  0  0  0  0  0
    6.2825   47.7525   32.4210 H   0  0  0  0  0  0  0  0  0  0  0  0
    7.7871   51.0895   29.7665 H   0  0  0  0  0  0  0  0  0  0  0  0
    9.3275   50.3314   30.3172 H   0  0  0  0  0  0  0  0  0  0  0  0
    9.4334   50.5421   33.1196 H   0  0  0  0  0  0  0  0  0  0  0  0
    9.7905   52.3009   34.8028 H   0  0  0  0  0  0  0  0  0  0  0  0
    8.2824   55.2549   32.0963 H   0  0  0  0  0  0  0  0  0  0  0  0
    9.1891   54.6487   34.3034 H   0  0  0  0  0  0  0  0  0  0  0  0
    9.7422   40.0118   31.9267 H   0  0  0  0  0  0  0  0  0  0  0  0
   11.2111   41.0320   31.8754 H   0  0  0  0  0  0  0  0  0  0  0  0
   11.6005   39.0119   30.5904 H   0  0  0  0  0  0  0  0  0  0  0  0
   10.7015   37.5592   33.1701 H   0  0  0  0  0  0  0  0  0  0  0  0
   14.2012   37.4438   31.5552 H   0  0  0  0  0  0  0  0  0  0  0  0
    9.5289   36.3869   31.6895 H   0  0  0  0  0  0  0  0  0  0  0  0
   12.1244   35.7693   32.5633 H   0  0  0  0  0  0  0  0  0  0  0  0
   12.9478   35.5427   30.5201 H   0  0  0  0  0  0  0  0  0  0  0  0
   12.4328   38.3993   34.8697 H   0  0  0  0  0  0  0  0  0  0  0  0
   17.2667   34.4140   33.1692 H   0  0  0  0  0  0  0  0  0  0  0  0
   16.7636   35.0598   37.7897 H   0  0  0  0  0  0  0  0  0  0  0  0
   15.3759   36.1865   37.9791 H   0  0  0  0  0  0  0  0  0  0  0  0
  1  2  2  0
  1  3  1  0
  3  4  1  0
  4  5  1  0
  6  1  1  0
  7  6  1  0
  6  8  1  0
  8  9  1  0
  9 10  1  0
 10 11  1  0
 11 12  1  0
 12 13  1  0
 13 14  1  0
 13 15  2  0
 14 16  1  0
 16 17  1  0
 17 18  2  0
 19 17  1  0
 18 20  1  0
 21 19  2  0
 19 22  1  0
 20 23  2  0
 23 21  1  0
 22 24  1  0
 22 25  2  0
  4 26  2  0
  4 27  1  0
 28 27  1  0
 28 29  1  0
 29 30  1  0
 29 31  1  0
 30 32  1  0
 31 33  1  0
 31 34  1  0
 34 32  1  0
 32 35  1  0
 34 36  1  0
 37 35  1  0
 38 35  1  0
 39 37  2  0
 37 40  1  0
 41 38  2  0
 42 39  1  0
 40 43  2  0
 40 41  1  0
 44 42  2  0
 44 43  1  0
 43 45  1  0
  6 46  1  6
  7 47  1  0
  7 48  1  0
  8 49  1  0
  8 50  1  0
  9 51  1  0
  9 52  1  0
 10 53  1  0
 10 54  1  0
 11 55  1  0
 11 56  1  0
 12 57  1  0
 16 58  1  0
 16 59  1  0
 18 60  1  0
 20 61  1  0
 21 62  1  0
 23 63  1  0
 28 64  1  0
 28 65  1  0
 29 66  1  0
 31 67  1  0
 32 68  1  0
 33 69  1  0
 34 70  1  0
 36 71  1  0
 38 72  1  0
 42 73  1  0
 45 74  1  0
 45 75  1  0
M  CHG  3   5  -1  22   1  24  -1
M  END
>  <EmbedRMS>  (409) 
0.0742812917219

$$$$

     RDKit          3D

 75 78  0  0  0  0  0  0  0  0999 V2000
    9.4299   42.9395   34.3435 C   0  0  0  0  0  0  0  0  0  0  0  0
   10.4912   43.0381   35.0235 O   0  0  0  0  0  0  0  0  0  0  0  0
    8.8550   41.7116   34.0282 O   0  0  0  0  0  0  0  0  0  0  0  0
    9.4942   40.2155   34.4674 P   0  0  0  0  0  0  0  0  0  0  0  0
    9.7309   40.1738   36.1286 O   0  0  0  0  0  0  0  0  0  0  0  0
    8.7410   44.1379   33.7787 C   0  0  1  0  0  0  0  0  0  0  0  0
    9.3013   45.3721   34.3326 N   0  0  0  0  0  0  0  0  0  0  0  0
    8.8962   44.0594   32.2400 C   0  0  0  0  0  0  0  0  0  0  0  0
    8.2028   45.1691   31.4403 C   0  0  0  0  0  0  0  0  0  0  0  0
    6.6654   45.1056   31.4886 C   0  0  0  0  0  0  0  0  0  0  0  0
    6.0288   46.3226   30.8098 C   0  0  0  0  0  0  0  0  0  0  0  0
    6.5056   47.5632   31.4213 N   0  0  0  0  0  0  0  0  0  0  0  0
    7.2522   48.5394   30.6847 C   0  0  0  0  0  0  0  0  0  0  0  0
    7.6527   49.7469   31.2687 O   0  0  0  0  0  0  0  0  0  0  0  0
    7.5859   48.3097   29.4931 O   0  0  0  0  0  0  0  0  0  0  0  0
    7.3853   50.1022   32.6235 C   0  0  0  0  0  0  0  0  0  0  0  0
    7.9510   51.4635   32.9651 C   0  0  0  0  0  0  0  0  0  0  0  0
    8.2823   52.3694   31.9361 C   0  0  0  0  0  0  0  0  0  0  0  0
    8.1634   51.8499   34.3162 C   0  0  0  0  0  0  0  0  0  0  0  0
    8.8478   53.6103   32.2323 C   0  0  0  0  0  0  0  0  0  0  0  0
    8.7504   53.0991   34.5901 C   0  0  0  0  0  0  0  0  0  0  0  0
    7.7968   50.9946   35.4149 N   0  0  0  0  0  0  0  0  0  0  0  0
    9.0889   53.9709   33.5555 C   0  0  0  0  0  0  0  0  0  0  0  0
    6.6271   50.2712   35.3800 O   0  0  0  0  0  0  0  0  0  0  0  0
    8.4493   51.0277   36.4789 O   0  0  0  0  0  0  0  0  0  0  0  0
    8.5375   39.1390   34.0122 O   0  0  0  0  0  0  0  0  0  0  0  0
   10.9797   40.0879   33.6827 O   0  0  0  0  0  0  0  0  0  0  0  0
   10.8002   40.0907   32.2830 C   0  0  0  0  0  0  0  0  0  0  0  0
   11.5958   38.9271   31.6963 C   0  0  0  0  0  0  0  0  0  0  0  0
   12.9239   38.9409   32.1767 O   0  0  0  0  0  0  0  0  0  0  0  0
   11.0062   37.5719   32.0794 C   0  0  0  0  0  0  0  0  0  0  0  0
   13.3506   37.5905   32.2614 C   0  0  0  0  0  0  0  0  0  0  0  0
    9.9064   37.1793   31.2946 O   0  0  0  0  0  0  0  0  0  0  0  0
   12.1920   36.6672   31.9003 C   0  0  0  0  0  0  0  0  0  0  0  0
   13.8017   37.2948   33.6193 N   0  0  0  0  0  0  0  0  0  0  0  0
   12.3133   36.2788   30.5561 O   0  0  0  0  0  0  0  0  0  0  0  0
   14.7927   36.4717   33.9862 C   0  0  0  0  0  0  0  0  0  0  0  0
   13.2746   37.7284   34.7941 C   0  0  0  0  0  0  0  0  0  0  0  0
   15.6240   35.7576   33.1859 N   0  0  0  0  0  0  0  0  0  0  0  0
   14.8728   36.4406   35.3330 C   0  0  0  0  0  0  0  0  0  0  0  0
   13.9209   37.2258   35.8808 N   0  0  0  0  0  0  0  0  0  0  0  0
   16.5874   34.9920   33.7802 C   0  0  0  0  0  0  0  0  0  0  0  0
   15.8579   35.6716   35.9443 C   0  0  0  0  0  0  0  0  0  0  0  0
   16.7028   34.9584   35.1439 N   0  0  0  0  0  0  0  0  0  0  0  0
   16.0103   35.6383   37.3563 N   0  0  0  0  0  0  0  0  0  0  0  0
    7.6665   44.0655   34.0546 H   0  0  0  0  0  0  0  0  0  0  0  0
    8.6804   46.1672   34.0593 H   0  0  0  0  0  0  0  0  0  0  0  0
    9.2335   45.3276   35.3760 H   0  0  0  0  0  0  0  0  0  0  0  0
    8.5082   43.0842   31.8695 H   0  0  0  0  0  0  0  0  0  0  0  0
    9.9809   44.0908   31.9918 H   0  0  0  0  0  0  0  0  0  0  0  0
    8.5757   46.1517   31.7938 H   0  0  0  0  0  0  0  0  0  0  0  0
    8.5176   45.0772   30.3777 H   0  0  0  0  0  0  0  0  0  0  0  0
    6.3164   45.0811   32.5416 H   0  0  0  0  0  0  0  0  0  0  0  0
    6.3141   44.1781   30.9868 H   0  0  0  0  0  0  0  0  0  0  0  0
    6.2512   46.2894   29.7218 H   0  0  0  0  0  0  0  0  0  0  0  0
    4.9250   46.2667   30.9228 H   0  0  0  0  0  0  0  0  0  0  0  0
    6.2736   47.7254   32.4259 H   0  0  0  0  0  0  0  0  0  0  0  0
    7.8567   49.3382   33.2793 H   0  0  0  0  0  0  0  0  0  0  0  0
    6.2874   50.1179   32.7930 H   0  0  0  0  0  0  0  0  0  0  0  0
    8.1085   52.1218   30.8969 H   0  0  0  0  0  0  0  0  0  0  0  0
    9.1025   54.2931   31.4319 H   0  0  0  0  0  0  0  0  0  0  0  0
    8.9278   53.4083   35.6125 H   0  0  0  0  0  0  0  0  0  0  0  0
    9.5307   54.9329   33.7815 H   0  0  0  0  0  0  0  0  0  0  0  0
    9.7454   40.0168   31.9261 H   0  0  0  0  0  0  0  0  0  0  0  0
   11.2115   41.0420   31.8828 H   0  0  0  0  0  0  0  0  0  0  0  0
   11.6246   39.0448   30.5888 H   0  0  0  0  0  0  0  0  0  0  0  0
   10.7050   37.5581   33.1500 H   0  0  0  0  0  0  0  0  0  0  0  0
   14.1985   37.4426   31.5553 H   0  0  0  0  0  0  0  0  0  0  0  0
   10.0893   37.4057   30.3459 H   0  0  0  0  0  0  0  0  0  0  0  0
   12.1337   35.7754   32.5703 H   0  0  0  0  0  0  0  0  0  0  0  0
   11.7934   35.4394   30.4514 H   0  0  0  0  0  0  0  0  0  0  0  0
   12.4314   38.3973   34.8699 H   0  0  0  0  0  0  0  0  0  0  0  0
   17.2669   34.4142   33.1692 H   0  0  0  0  0  0  0  0  0  0  0  0
   15.3759   36.1865   37.9790 H   0  0  0  0  0  0  0  0  0  0  0  0
   16.7638   35.0599   37.7896 H   0  0  0  0  0  0  0  0  0  0  0  0
  1  2  2  0
  1  3  1  0
  3  4  1  0
  4  5  1  0
  6  1  1  0
  7  6  1  0
  6  8  1  0
  8  9  1  0
  9 10  1  0
 10 11  1  0
 11 12  1  0
 12 13  1  0
 13 14  1  0
 13 15  2  0
 14 16  1  0
 16 17  1  0
 17 18  2  0
 19 17  1  0
 18 20  1  0
 21 19  2  0
 19 22  1  0
 20 23  2  0
 23 21  1  0
 22 24  1  0
 22 25  2  0
  4 26  2  0
  4 27  1  0
 28 27  1  0
 28 29  1  0
 29 30  1  0
 29 31  1  0
 30 32  1  0
 31 33  1  0
 31 34  1  0
 34 32  1  0
 32 35  1  0
 34 36  1  0
 37 35  1  0
 38 35  1  0
 39 37  2  0
 37 40  1  0
 41 38  2  0
 42 39  1  0
 40 43  2  0
 40 41  1  0
 44 42  2  0
 44 43  1  0
 43 45  1  0
  6 46  1  6
  7 47  1  0
  7 48  1  0
  8 49  1  0
  8 50  1  0
  9 51  1  0
  9 52  1  0
 10 53  1  0
 10 54  1  0
 11 55  1  0
 11 56  1  0
 12 57  1  0
 16 58  1  0
 16 59  1  0
 18 60  1  0
 20 61  1  0
 21 62  1  0
 23 63  1  0
 28 64  1  0
 28 65  1  0
 29 66  1  0
 31 67  1  0
 32 68  1  0
 33 69  1  0
 34 70  1  0
 36 71  1  0
 38 72  1  0
 42 73  1  0
 45 74  1  0
 45 75  1  0
M  CHG  3   5  -1  22   1  24  -1
M  END
>  <EmbedRMS>  (410) 
0.0742518798213

$$$$

     RDKit          3D

 75 78  0  0  0  0  0  0  0  0999 V2000
    9.4336   42.9373   34.3454 C   0  0  0  0  0  0  0  0  0  0  0  0
   10.4909   43.0336   35.0314 O   0  0  0  0  0  0  0  0  0  0  0  0
    8.8564   41.7110   34.0291 O   0  0  0  0  0  0  0  0  0  0  0  0
    9.4944   40.2146   34.4678 P   0  0  0  0  0  0  0  0  0  0  0  0
    9.7307   40.1730   36.1290 O   0  0  0  0  0  0  0  0  0  0  0  0
    8.7511   44.1360   33.7736 C   0  0  1  0  0  0  0  0  0  0  0  0
    9.2969   45.3831   34.3130 N   0  0  0  0  0  0  0  0  0  0  0  0
    8.8895   44.0552   32.2352 C   0  0  0  0  0  0  0  0  0  0  0  0
    8.2022   45.1857   31.4620 C   0  0  0  0  0  0  0  0  0  0  0  0
    6.6645   45.1061   31.4852 C   0  0  0  0  0  0  0  0  0  0  0  0
    6.0232   46.3216   30.8070 C   0  0  0  0  0  0  0  0  0  0  0  0
    6.4948   47.5656   31.4146 N   0  0  0  0  0  0  0  0  0  0  0  0
    7.2633   48.5258   30.6931 C   0  0  0  0  0  0  0  0  0  0  0  0
    7.7026   49.6778   31.3526 O   0  0  0  0  0  0  0  0  0  0  0  0
    7.5888   48.3115   29.4945 O   0  0  0  0  0  0  0  0  0  0  0  0
    8.6830   50.5648   30.8162 C   0  0  0  0  0  0  0  0  0  0  0  0
   10.0309   49.8815   30.7428 C   0  0  0  0  0  0  0  0  0  0  0  0
   10.5450   49.3129   31.9228 C   0  0  0  0  0  0  0  0  0  0  0  0
   10.8165   49.8449   29.5600 C   0  0  0  0  0  0  0  0  0  0  0  0
   11.8058   48.7154   31.9372 C   0  0  0  0  0  0  0  0  0  0  0  0
   12.0930   49.2589   29.6006 C   0  0  0  0  0  0  0  0  0  0  0  0
   10.3536   50.3998   28.3202 N   0  0  0  0  0  0  0  0  0  0  0  0
   12.5804   48.6922   30.7791 C   0  0  0  0  0  0  0  0  0  0  0  0
   11.2255   51.1098   27.5274 O   0  0  0  0  0  0  0  0  0  0  0  0
    9.2693   50.0220   27.8318 O   0  0  0  0  0  0  0  0  0  0  0  0
    8.5371   39.1390   34.0124 O   0  0  0  0  0  0  0  0  0  0  0  0
   10.9804   40.0881   33.6836 O   0  0  0  0  0  0  0  0  0  0  0  0
   10.8025   40.0900   32.2838 C   0  0  0  0  0  0  0  0  0  0  0  0
   11.5889   38.9174   31.7007 C   0  0  0  0  0  0  0  0  0  0  0  0
   12.9220   38.9373   32.1692 O   0  0  0  0  0  0  0  0  0  0  0  0
   11.0028   37.5682   32.0980 C   0  0  0  0  0  0  0  0  0  0  0  0
   13.3496   37.5885   32.2601 C   0  0  0  0  0  0  0  0  0  0  0  0
    9.9343   37.1822   31.2756 O   0  0  0  0  0  0  0  0  0  0  0  0
   12.1891   36.6677   31.9049 C   0  0  0  0  0  0  0  0  0  0  0  0
   13.8025   37.2965   33.6186 N   0  0  0  0  0  0  0  0  0  0  0  0
   12.2991   36.2867   30.5567 O   0  0  0  0  0  0  0  0  0  0  0  0
   14.7929   36.4725   33.9858 C   0  0  0  0  0  0  0  0  0  0  0  0
   13.2749   37.7294   34.7935 C   0  0  0  0  0  0  0  0  0  0  0  0
   15.6240   35.7580   33.1858 N   0  0  0  0  0  0  0  0  0  0  0  0
   14.8727   36.4411   35.3327 C   0  0  0  0  0  0  0  0  0  0  0  0
   13.9208   37.2263   35.8803 N   0  0  0  0  0  0  0  0  0  0  0  0
   16.5871   34.9921   33.7801 C   0  0  0  0  0  0  0  0  0  0  0  0
   15.8576   35.6718   35.9441 C   0  0  0  0  0  0  0  0  0  0  0  0
   16.7024   34.9584   35.1438 N   0  0  0  0  0  0  0  0  0  0  0  0
   16.0099   35.6384   37.3562 N   0  0  0  0  0  0  0  0  0  0  0  0
    7.6775   44.0721   34.0498 H   0  0  0  0  0  0  0  0  0  0  0  0
    9.1863   45.3819   35.3535 H   0  0  0  0  0  0  0  0  0  0  0  0
   10.3191   45.4438   34.0965 H   0  0  0  0  0  0  0  0  0  0  0  0
    8.4824   43.0877   31.8655 H   0  0  0  0  0  0  0  0  0  0  0  0
    9.9713   44.0717   31.9732 H   0  0  0  0  0  0  0  0  0  0  0  0
    8.5386   45.1417   30.4029 H   0  0  0  0  0  0  0  0  0  0  0  0
    8.5531   46.1546   31.8759 H   0  0  0  0  0  0  0  0  0  0  0  0
    6.3009   45.0671   32.5329 H   0  0  0  0  0  0  0  0  0  0  0  0
    6.3307   44.1799   30.9692 H   0  0  0  0  0  0  0  0  0  0  0  0
    4.9196   46.2619   30.9189 H   0  0  0  0  0  0  0  0  0  0  0  0
    6.2464   46.2887   29.7190 H   0  0  0  0  0  0  0  0  0  0  0  0
    6.2732   47.7509   32.4188 H   0  0  0  0  0  0  0  0  0  0  0  0
    8.7737   51.4339   31.5013 H   0  0  0  0  0  0  0  0  0  0  0  0
    8.3337   50.9663   29.8458 H   0  0  0  0  0  0  0  0  0  0  0  0
    9.9667   49.3370   32.8386 H   0  0  0  0  0  0  0  0  0  0  0  0
   12.1863   48.2773   32.8510 H   0  0  0  0  0  0  0  0  0  0  0  0
   12.7057   49.2257   28.7085 H   0  0  0  0  0  0  0  0  0  0  0  0
   13.5609   48.2339   30.7938 H   0  0  0  0  0  0  0  0  0  0  0  0
   11.2259   41.0357   31.8829 H   0  0  0  0  0  0  0  0  0  0  0  0
    9.7477   40.0332   31.9255 H   0  0  0  0  0  0  0  0  0  0  0  0
   11.5975   39.0148   30.5904 H   0  0  0  0  0  0  0  0  0  0  0  0
   10.7023   37.5455   33.1719 H   0  0  0  0  0  0  0  0  0  0  0  0
   14.1957   37.4366   31.5528 H   0  0  0  0  0  0  0  0  0  0  0  0
    9.1340   37.6659   31.6069 H   0  0  0  0  0  0  0  0  0  0  0  0
   12.1380   35.7717   32.5697 H   0  0  0  0  0  0  0  0  0  0  0  0
   11.7707   35.4530   30.4496 H   0  0  0  0  0  0  0  0  0  0  0  0
   12.4314   38.3980   34.8694 H   0  0  0  0  0  0  0  0  0  0  0  0
   17.2665   34.4140   33.1691 H   0  0  0  0  0  0  0  0  0  0  0  0
   16.7633   35.0598   37.7895 H   0  0  0  0  0  0  0  0  0  0  0  0
   15.3757   36.1868   37.9789 H   0  0  0  0  0  0  0  0  0  0  0  0
  1  2  2  0
  1  3  1  0
  3  4  1  0
  4  5  1  0
  6  1  1  0
  7  6  1  0
  6  8  1  0
  8  9  1  0
  9 10  1  0
 10 11  1  0
 11 12  1  0
 12 13  1  0
 13 14  1  0
 13 15  2  0
 14 16  1  0
 16 17  1  0
 17 18  2  0
 19 17  1  0
 18 20  1  0
 21 19  2  0
 19 22  1  0
 20 23  2  0
 23 21  1  0
 22 24  1  0
 22 25  2  0
  4 26  2  0
  4 27  1  0
 28 27  1  0
 28 29  1  0
 29 30  1  0
 29 31  1  0
 30 32  1  0
 31 33  1  0
 31 34  1  0
 34 32  1  0
 32 35  1  0
 34 36  1  0
 37 35  1  0
 38 35  1  0
 39 37  2  0
 37 40  1  0
 41 38  2  0
 42 39  1  0
 40 43  2  0
 40 41  1  0
 44 42  2  0
 44 43  1  0
 43 45  1  0
  6 46  1  6
  7 47  1  0
  7 48  1  0
  8 49  1  0
  8 50  1  0
  9 51  1  0
  9 52  1  0
 10 53  1  0
 10 54  1  0
 11 55  1  0
 11 56  1  0
 12 57  1  0
 16 58  1  0
 16 59  1  0
 18 60  1  0
 20 61  1  0
 21 62  1  0
 23 63  1  0
 28 64  1  0
 28 65  1  0
 29 66  1  0
 31 67  1  0
 32 68  1  0
 33 69  1  0
 34 70  1  0
 36 71  1  0
 38 72  1  0
 42 73  1  0
 45 74  1  0
 45 75  1  0
M  CHG  3   5  -1  22   1  24  -1
M  END
>  <EmbedRMS>  (411) 
0.07492123372

$$$$

     RDKit          3D

 75 78  0  0  0  0  0  0  0  0999 V2000
    9.4312   42.9412   34.3440 C   0  0  0  0  0  0  0  0  0  0  0  0
   10.4886   43.0411   35.0294 O   0  0  0  0  0  0  0  0  0  0  0  0
    8.8558   41.7129   34.0298 O   0  0  0  0  0  0  0  0  0  0  0  0
    9.4933   40.2164   34.4707 P   0  0  0  0  0  0  0  0  0  0  0  0
    9.7290   40.1745   36.1317 O   0  0  0  0  0  0  0  0  0  0  0  0
    8.7484   44.1360   33.7721 C   0  0  1  0  0  0  0  0  0  0  0  0
    9.3039   45.3665   34.3387 N   0  0  0  0  0  0  0  0  0  0  0  0
    8.8893   44.0518   32.2309 C   0  0  0  0  0  0  0  0  0  0  0  0
    8.2015   45.1721   31.4435 C   0  0  0  0  0  0  0  0  0  0  0  0
    6.6643   45.1066   31.4887 C   0  0  0  0  0  0  0  0  0  0  0  0
    6.0268   46.3236   30.8121 C   0  0  0  0  0  0  0  0  0  0  0  0
    6.5080   47.5647   31.4187 N   0  0  0  0  0  0  0  0  0  0  0  0
    7.2427   48.5405   30.6825 C   0  0  0  0  0  0  0  0  0  0  0  0
    7.5838   49.7470   31.3030 O   0  0  0  0  0  0  0  0  0  0  0  0
    7.5936   48.3100   29.4944 O   0  0  0  0  0  0  0  0  0  0  0  0
    8.3232   50.7860   30.6618 C   0  0  0  0  0  0  0  0  0  0  0  0
    7.5086   51.4298   29.5626 C   0  0  0  0  0  0  0  0  0  0  0  0
    6.2438   51.9475   29.8962 C   0  0  0  0  0  0  0  0  0  0  0  0
    8.0000   51.6045   28.2422 C   0  0  0  0  0  0  0  0  0  0  0  0
    5.4735   52.6179   28.9450 C   0  0  0  0  0  0  0  0  0  0  0  0
    7.2166   52.2977   27.3030 C   0  0  0  0  0  0  0  0  0  0  0  0
    9.2835   51.1042   27.8387 N   0  0  0  0  0  0  0  0  0  0  0  0
    5.9601   52.7951   27.6513 C   0  0  0  0  0  0  0  0  0  0  0  0
    9.5790   49.7690   27.9851 O   0  0  0  0  0  0  0  0  0  0  0  0
   10.0300   51.8113   27.1311 O   0  0  0  0  0  0  0  0  0  0  0  0
    8.5369   39.1403   34.0143 O   0  0  0  0  0  0  0  0  0  0  0  0
   10.9796   40.0883   33.6889 O   0  0  0  0  0  0  0  0  0  0  0  0
   10.8017   40.0949   32.2901 C   0  0  0  0  0  0  0  0  0  0  0  0
   11.5885   38.9267   31.7041 C   0  0  0  0  0  0  0  0  0  0  0  0
   12.9237   38.9445   32.1722 O   0  0  0  0  0  0  0  0  0  0  0  0
   11.0029   37.5726   32.0908 C   0  0  0  0  0  0  0  0  0  0  0  0
   13.3555   37.5960   32.2595 C   0  0  0  0  0  0  0  0  0  0  0  0
    9.9379   37.1847   31.2657 O   0  0  0  0  0  0  0  0  0  0  0  0
   12.1931   36.6769   31.8952 C   0  0  0  0  0  0  0  0  0  0  0  0
   13.8028   37.2977   33.6186 N   0  0  0  0  0  0  0  0  0  0  0  0
   12.2918   36.2396   30.5587 O   0  0  0  0  0  0  0  0  0  0  0  0
   14.7926   36.4727   33.9858 C   0  0  0  0  0  0  0  0  0  0  0  0
   13.2750   37.7302   34.7935 C   0  0  0  0  0  0  0  0  0  0  0  0
   15.6241   35.7586   33.1857 N   0  0  0  0  0  0  0  0  0  0  0  0
   14.8721   36.4408   35.3326 C   0  0  0  0  0  0  0  0  0  0  0  0
   13.9204   37.2263   35.8802 N   0  0  0  0  0  0  0  0  0  0  0  0
   16.5870   34.9925   33.7800 C   0  0  0  0  0  0  0  0  0  0  0  0
   15.8572   35.6717   35.9441 C   0  0  0  0  0  0  0  0  0  0  0  0
   16.7022   34.9585   35.1437 N   0  0  0  0  0  0  0  0  0  0  0  0
   16.0097   35.6384   37.3561 N   0  0  0  0  0  0  0  0  0  0  0  0
    7.6764   44.0635   34.0547 H   0  0  0  0  0  0  0  0  0  0  0  0
   10.2152   45.5879   33.8747 H   0  0  0  0  0  0  0  0  0  0  0  0
    8.6468   46.1559   34.1430 H   0  0  0  0  0  0  0  0  0  0  0  0
    9.9709   44.0642   31.9680 H   0  0  0  0  0  0  0  0  0  0  0  0
    8.4830   43.0817   31.8667 H   0  0  0  0  0  0  0  0  0  0  0  0
    8.5198   45.0958   30.3806 H   0  0  0  0  0  0  0  0  0  0  0  0
    8.5715   46.1487   31.8172 H   0  0  0  0  0  0  0  0  0  0  0  0
    6.3147   44.1801   30.9837 H   0  0  0  0  0  0  0  0  0  0  0  0
    6.3142   45.0786   32.5414 H   0  0  0  0  0  0  0  0  0  0  0  0
    6.2450   46.2895   29.7231 H   0  0  0  0  0  0  0  0  0  0  0  0
    4.9234   46.2698   30.9297 H   0  0  0  0  0  0  0  0  0  0  0  0
    6.2846   47.7544   32.4216 H   0  0  0  0  0  0  0  0  0  0  0  0
    8.5517   51.5639   31.4203 H   0  0  0  0  0  0  0  0  0  0  0  0
    9.2982   50.3916   30.3165 H   0  0  0  0  0  0  0  0  0  0  0  0
    5.8567   51.8391   30.9022 H   0  0  0  0  0  0  0  0  0  0  0  0
    4.5010   53.0091   29.2148 H   0  0  0  0  0  0  0  0  0  0  0  0
    7.5773   52.4407   26.2920 H   0  0  0  0  0  0  0  0  0  0  0  0
    5.3635   53.3202   26.9165 H   0  0  0  0  0  0  0  0  0  0  0  0
   11.2240   41.0428   31.8929 H   0  0  0  0  0  0  0  0  0  0  0  0
    9.7472   40.0378   31.9304 H   0  0  0  0  0  0  0  0  0  0  0  0
   11.5927   39.0434   30.5966 H   0  0  0  0  0  0  0  0  0  0  0  0
   10.7003   37.5444   33.1641 H   0  0  0  0  0  0  0  0  0  0  0  0
   14.2051   37.4477   31.5560 H   0  0  0  0  0  0  0  0  0  0  0  0
    9.1373   37.6722   31.5906 H   0  0  0  0  0  0  0  0  0  0  0  0
   12.1305   35.7856   32.5586 H   0  0  0  0  0  0  0  0  0  0  0  0
   12.4606   37.0186   29.9674 H   0  0  0  0  0  0  0  0  0  0  0  0
   12.4327   38.4001   34.8694 H   0  0  0  0  0  0  0  0  0  0  0  0
   17.2666   34.4146   33.1690 H   0  0  0  0  0  0  0  0  0  0  0  0
   16.7634   35.0601   37.7894 H   0  0  0  0  0  0  0  0  0  0  0  0
   15.3754   36.1866   37.9788 H   0  0  0  0  0  0  0  0  0  0  0  0
  1  2  2  0
  1  3  1  0
  3  4  1  0
  4  5  1  0
  6  1  1  0
  7  6  1  0
  6  8  1  0
  8  9  1  0
  9 10  1  0
 10 11  1  0
 11 12  1  0
 12 13  1  0
 13 14  1  0
 13 15  2  0
 14 16  1  0
 16 17  1  0
 17 18  2  0
 19 17  1  0
 18 20  1  0
 21 19  2  0
 19 22  1  0
 20 23  2  0
 23 21  1  0
 22 24  1  0
 22 25  2  0
  4 26  2  0
  4 27  1  0
 28 27  1  0
 28 29  1  0
 29 30  1  0
 29 31  1  0
 30 32  1  0
 31 33  1  0
 31 34  1  0
 34 32  1  0
 32 35  1  0
 34 36  1  0
 37 35  1  0
 38 35  1  0
 39 37  2  0
 37 40  1  0
 41 38  2  0
 42 39  1  0
 40 43  2  0
 40 41  1  0
 44 42  2  0
 44 43  1  0
 43 45  1  0
  6 46  1  6
  7 47  1  0
  7 48  1  0
  8 49  1  0
  8 50  1  0
  9 51  1  0
  9 52  1  0
 10 53  1  0
 10 54  1  0
 11 55  1  0
 11 56  1  0
 12 57  1  0
 16 58  1  0
 16 59  1  0
 18 60  1  0
 20 61  1  0
 21 62  1  0
 23 63  1  0
 28 64  1  0
 28 65  1  0
 29 66  1  0
 31 67  1  0
 32 68  1  0
 33 69  1  0
 34 70  1  0
 36 71  1  0
 38 72  1  0
 42 73  1  0
 45 74  1  0
 45 75  1  0
M  CHG  3   5  -1  22   1  24  -1
M  END
>  <EmbedRMS>  (412) 
0.0748623893468

$$$$

     RDKit          3D

 75 78  0  0  0  0  0  0  0  0999 V2000
    9.4313   42.9413   34.3436 C   0  0  0  0  0  0  0  0  0  0  0  0
   10.4885   43.0411   35.0293 O   0  0  0  0  0  0  0  0  0  0  0  0
    8.8562   41.7130   34.0286 O   0  0  0  0  0  0  0  0  0  0  0  0
    9.4945   40.2162   34.4677 P   0  0  0  0  0  0  0  0  0  0  0  0
    9.7312   40.1741   36.1288 O   0  0  0  0  0  0  0  0  0  0  0  0
    8.7485   44.1364   33.7721 C   0  0  1  0  0  0  0  0  0  0  0  0
    9.3042   45.3670   34.3387 N   0  0  0  0  0  0  0  0  0  0  0  0
    8.8892   44.0526   32.2308 C   0  0  0  0  0  0  0  0  0  0  0  0
    8.2011   45.1731   31.4439 C   0  0  0  0  0  0  0  0  0  0  0  0
    6.6638   45.1067   31.4884 C   0  0  0  0  0  0  0  0  0  0  0  0
    6.0253   46.3229   30.8106 C   0  0  0  0  0  0  0  0  0  0  0  0
    6.5041   47.5645   31.4176 N   0  0  0  0  0  0  0  0  0  0  0  0
    7.2518   48.5345   30.6871 C   0  0  0  0  0  0  0  0  0  0  0  0
    7.6387   49.7158   31.3246 O   0  0  0  0  0  0  0  0  0  0  0  0
    7.5904   48.3129   29.4928 O   0  0  0  0  0  0  0  0  0  0  0  0
    8.4457   50.7031   30.6921 C   0  0  0  0  0  0  0  0  0  0  0  0
    8.7502   51.8046   31.6731 C   0  0  0  0  0  0  0  0  0  0  0  0
    7.9776   52.9792   31.6253 C   0  0  0  0  0  0  0  0  0  0  0  0
    9.8037   51.7035   32.6211 C   0  0  0  0  0  0  0  0  0  0  0  0
    8.2491   54.0457   32.4831 C   0  0  0  0  0  0  0  0  0  0  0  0
   10.0696   52.7974   33.4658 C   0  0  0  0  0  0  0  0  0  0  0  0
   10.6166   50.5201   32.7324 N   0  0  0  0  0  0  0  0  0  0  0  0
    9.2960   53.9569   33.3980 C   0  0  0  0  0  0  0  0  0  0  0  0
   10.0559   49.2686   32.6266 O   0  0  0  0  0  0  0  0  0  0  0  0
   11.8092   50.6126   33.0902 O   0  0  0  0  0  0  0  0  0  0  0  0
    8.5374   39.1401   34.0124 O   0  0  0  0  0  0  0  0  0  0  0  0
   10.9799   40.0879   33.6828 O   0  0  0  0  0  0  0  0  0  0  0  0
   10.8002   40.0907   32.2831 C   0  0  0  0  0  0  0  0  0  0  0  0
   11.5958   38.9271   31.6964 C   0  0  0  0  0  0  0  0  0  0  0  0
   12.9239   38.9409   32.1767 O   0  0  0  0  0  0  0  0  0  0  0  0
   11.0062   37.5720   32.0794 C   0  0  0  0  0  0  0  0  0  0  0  0
   13.3506   37.5906   32.2614 C   0  0  0  0  0  0  0  0  0  0  0  0
    9.9064   37.1793   31.2946 O   0  0  0  0  0  0  0  0  0  0  0  0
   12.1920   36.6672   31.9004 C   0  0  0  0  0  0  0  0  0  0  0  0
   13.8017   37.2948   33.6193 N   0  0  0  0  0  0  0  0  0  0  0  0
   12.3133   36.2788   30.5561 O   0  0  0  0  0  0  0  0  0  0  0  0
   14.7927   36.4717   33.9861 C   0  0  0  0  0  0  0  0  0  0  0  0
   13.2746   37.7284   34.7941 C   0  0  0  0  0  0  0  0  0  0  0  0
   15.6240   35.7576   33.1859 N   0  0  0  0  0  0  0  0  0  0  0  0
   14.8728   36.4406   35.3330 C   0  0  0  0  0  0  0  0  0  0  0  0
   13.9209   37.2258   35.8808 N   0  0  0  0  0  0  0  0  0  0  0  0
   16.5874   34.9920   33.7802 C   0  0  0  0  0  0  0  0  0  0  0  0
   15.8579   35.6716   35.9443 C   0  0  0  0  0  0  0  0  0  0  0  0
   16.7028   34.9584   35.1439 N   0  0  0  0  0  0  0  0  0  0  0  0
   16.0103   35.6383   37.3563 N   0  0  0  0  0  0  0  0  0  0  0  0
    7.6765   44.0640   34.0547 H   0  0  0  0  0  0  0  0  0  0  0  0
    8.6472   46.1565   34.1433 H   0  0  0  0  0  0  0  0  0  0  0  0
   10.2153   45.5887   33.8744 H   0  0  0  0  0  0  0  0  0  0  0  0
    8.4831   43.0825   31.8664 H   0  0  0  0  0  0  0  0  0  0  0  0
    9.9707   44.0653   31.9678 H   0  0  0  0  0  0  0  0  0  0  0  0
    8.5200   45.0977   30.3811 H   0  0  0  0  0  0  0  0  0  0  0  0
    8.5703   46.1498   31.8184 H   0  0  0  0  0  0  0  0  0  0  0  0
    6.3134   45.0789   32.5410 H   0  0  0  0  0  0  0  0  0  0  0  0
    6.3152   44.1796   30.9838 H   0  0  0  0  0  0  0  0  0  0  0  0
    6.2451   46.2890   29.7219 H   0  0  0  0  0  0  0  0  0  0  0  0
    4.9219   46.2676   30.9268 H   0  0  0  0  0  0  0  0  0  0  0  0
    6.2842   47.7514   32.4218 H   0  0  0  0  0  0  0  0  0  0  0  0
    7.9019   51.1049   29.8089 H   0  0  0  0  0  0  0  0  0  0  0  0
    9.3901   50.2529   30.3167 H   0  0  0  0  0  0  0  0  0  0  0  0
    7.1640   53.0735   30.9163 H   0  0  0  0  0  0  0  0  0  0  0  0
    7.6488   54.9451   32.4345 H   0  0  0  0  0  0  0  0  0  0  0  0
   10.8703   52.7457   34.1928 H   0  0  0  0  0  0  0  0  0  0  0  0
    9.5068   54.7871   34.0599 H   0  0  0  0  0  0  0  0  0  0  0  0
    9.7454   40.0168   31.9263 H   0  0  0  0  0  0  0  0  0  0  0  0
   11.2114   41.0421   31.8829 H   0  0  0  0  0  0  0  0  0  0  0  0
   11.6246   39.0449   30.5889 H   0  0  0  0  0  0  0  0  0  0  0  0
   10.7050   37.5581   33.1500 H   0  0  0  0  0  0  0  0  0  0  0  0
   14.1984   37.4426   31.5553 H   0  0  0  0  0  0  0  0  0  0  0  0
   10.0893   37.4057   30.3459 H   0  0  0  0  0  0  0  0  0  0  0  0
   12.1337   35.7754   32.5703 H   0  0  0  0  0  0  0  0  0  0  0  0
   11.7933   35.4394   30.4514 H   0  0  0  0  0  0  0  0  0  0  0  0
   12.4314   38.3973   34.8699 H   0  0  0  0  0  0  0  0  0  0  0  0
   17.2669   34.4142   33.1691 H   0  0  0  0  0  0  0  0  0  0  0  0
   15.3759   36.1865   37.9790 H   0  0  0  0  0  0  0  0  0  0  0  0
   16.7638   35.0599   37.7896 H   0  0  0  0  0  0  0  0  0  0  0  0
  1  2  2  0
  1  3  1  0
  3  4  1  0
  4  5  1  0
  6  1  1  0
  7  6  1  0
  6  8  1  0
  8  9  1  0
  9 10  1  0
 10 11  1  0
 11 12  1  0
 12 13  1  0
 13 14  1  0
 13 15  2  0
 14 16  1  0
 16 17  1  0
 17 18  2  0
 19 17  1  0
 18 20  1  0
 21 19  2  0
 19 22  1  0
 20 23  2  0
 23 21  1  0
 22 24  1  0
 22 25  2  0
  4 26  2  0
  4 27  1  0
 28 27  1  0
 28 29  1  0
 29 30  1  0
 29 31  1  0
 30 32  1  0
 31 33  1  0
 31 34  1  0
 34 32  1  0
 32 35  1  0
 34 36  1  0
 37 35  1  0
 38 35  1  0
 39 37  2  0
 37 40  1  0
 41 38  2  0
 42 39  1  0
 40 43  2  0
 40 41  1  0
 44 42  2  0
 44 43  1  0
 43 45  1  0
  6 46  1  6
  7 47  1  0
  7 48  1  0
  8 49  1  0
  8 50  1  0
  9 51  1  0
  9 52  1  0
 10 53  1  0
 10 54  1  0
 11 55  1  0
 11 56  1  0
 12 57  1  0
 16 58  1  0
 16 59  1  0
 18 60  1  0
 20 61  1  0
 21 62  1  0
 23 63  1  0
 28 64  1  0
 28 65  1  0
 29 66  1  0
 31 67  1  0
 32 68  1  0
 33 69  1  0
 34 70  1  0
 36 71  1  0
 38 72  1  0
 42 73  1  0
 45 74  1  0
 45 75  1  0
M  CHG  3   5  -1  22   1  24  -1
M  END
>  <EmbedRMS>  (413) 
0.0741789308229

$$$$

     RDKit          3D

 75 78  0  0  0  0  0  0  0  0999 V2000
    9.4334   42.9373   34.3454 C   0  0  0  0  0  0  0  0  0  0  0  0
   10.4908   43.0335   35.0313 O   0  0  0  0  0  0  0  0  0  0  0  0
    8.8560   41.7111   34.0294 O   0  0  0  0  0  0  0  0  0  0  0  0
    9.4943   40.2146   34.4675 P   0  0  0  0  0  0  0  0  0  0  0  0
    9.7315   40.1727   36.1286 O   0  0  0  0  0  0  0  0  0  0  0  0
    8.7511   44.1362   33.7735 C   0  0  1  0  0  0  0  0  0  0  0  0
    9.2970   45.3832   34.3130 N   0  0  0  0  0  0  0  0  0  0  0  0
    8.8895   44.0555   32.2352 C   0  0  0  0  0  0  0  0  0  0  0  0
    8.2021   45.1859   31.4620 C   0  0  0  0  0  0  0  0  0  0  0  0
    6.6644   45.1063   31.4851 C   0  0  0  0  0  0  0  0  0  0  0  0
    6.0228   46.3215   30.8066 C   0  0  0  0  0  0  0  0  0  0  0  0
    6.4936   47.5658   31.4142 N   0  0  0  0  0  0  0  0  0  0  0  0
    7.2656   48.5242   30.6941 C   0  0  0  0  0  0  0  0  0  0  0  0
    7.7150   49.6700   31.3574 O   0  0  0  0  0  0  0  0  0  0  0  0
    7.5884   48.3117   29.4945 O   0  0  0  0  0  0  0  0  0  0  0  0
    8.7179   50.5384   30.8327 C   0  0  0  0  0  0  0  0  0  0  0  0
   10.0530   49.8288   30.7744 C   0  0  0  0  0  0  0  0  0  0  0  0
   10.5411   49.2477   31.9595 C   0  0  0  0  0  0  0  0  0  0  0  0
   10.8515   49.7771   29.6009 C   0  0  0  0  0  0  0  0  0  0  0  0
   11.7885   48.6232   31.9876 C   0  0  0  0  0  0  0  0  0  0  0  0
   12.1147   49.1642   29.6555 C   0  0  0  0  0  0  0  0  0  0  0  0
   10.4148   50.3429   28.3566 N   0  0  0  0  0  0  0  0  0  0  0  0
   12.5760   48.5853   30.8386 C   0  0  0  0  0  0  0  0  0  0  0  0
   11.3102   51.0364   27.5755 O   0  0  0  0  0  0  0  0  0  0  0  0
    9.3293   49.9873   27.8544 O   0  0  0  0  0  0  0  0  0  0  0  0
    8.5371   39.1387   34.0121 O   0  0  0  0  0  0  0  0  0  0  0  0
   10.9795   40.0890   33.6815 O   0  0  0  0  0  0  0  0  0  0  0  0
   10.7982   40.0849   32.2819 C   0  0  0  0  0  0  0  0  0  0  0  0
   11.5886   38.9142   31.7009 C   0  0  0  0  0  0  0  0  0  0  0  0
   12.9214   38.9368   32.1698 O   0  0  0  0  0  0  0  0  0  0  0  0
   11.0047   37.5660   32.0990 C   0  0  0  0  0  0  0  0  0  0  0  0
   13.3511   37.5885   32.2601 C   0  0  0  0  0  0  0  0  0  0  0  0
    9.9296   37.1961   31.2780 O   0  0  0  0  0  0  0  0  0  0  0  0
   12.1923   36.6659   31.9047 C   0  0  0  0  0  0  0  0  0  0  0  0
   13.8033   37.2967   33.6188 N   0  0  0  0  0  0  0  0  0  0  0  0
   12.3007   36.2864   30.5561 O   0  0  0  0  0  0  0  0  0  0  0  0
   14.7933   36.4724   33.9860 C   0  0  0  0  0  0  0  0  0  0  0  0
   13.2753   37.7296   34.7935 C   0  0  0  0  0  0  0  0  0  0  0  0
   15.6243   35.7579   33.1860 N   0  0  0  0  0  0  0  0  0  0  0  0
   14.8728   36.4410   35.3328 C   0  0  0  0  0  0  0  0  0  0  0  0
   13.9209   37.2263   35.8804 N   0  0  0  0  0  0  0  0  0  0  0  0
   16.5873   34.9919   33.7803 C   0  0  0  0  0  0  0  0  0  0  0  0
   15.8577   35.6717   35.9443 C   0  0  0  0  0  0  0  0  0  0  0  0
   16.7025   34.9583   35.1440 N   0  0  0  0  0  0  0  0  0  0  0  0
   16.0100   35.6384   37.3563 N   0  0  0  0  0  0  0  0  0  0  0  0
    7.6775   44.0723   34.0498 H   0  0  0  0  0  0  0  0  0  0  0  0
    9.1868   45.3819   35.3535 H   0  0  0  0  0  0  0  0  0  0  0  0
   10.3190   45.4441   34.0960 H   0  0  0  0  0  0  0  0  0  0  0  0
    9.9712   44.0721   31.9732 H   0  0  0  0  0  0  0  0  0  0  0  0
    8.4824   43.0879   31.8654 H   0  0  0  0  0  0  0  0  0  0  0  0
    8.5528   46.1549   31.8761 H   0  0  0  0  0  0  0  0  0  0  0  0
    8.5386   45.1422   30.4029 H   0  0  0  0  0  0  0  0  0  0  0  0
    6.3307   44.1798   30.9694 H   0  0  0  0  0  0  0  0  0  0  0  0
    6.3007   45.0674   32.5329 H   0  0  0  0  0  0  0  0  0  0  0  0
    4.9191   46.2613   30.9181 H   0  0  0  0  0  0  0  0  0  0  0  0
    6.2465   46.2886   29.7187 H   0  0  0  0  0  0  0  0  0  0  0  0
    6.2722   47.7506   32.4185 H   0  0  0  0  0  0  0  0  0  0  0  0
    8.8175   51.4054   31.5191 H   0  0  0  0  0  0  0  0  0  0  0  0
    8.3875   50.9465   29.8584 H   0  0  0  0  0  0  0  0  0  0  0  0
    9.9526   49.2824   32.8684 H   0  0  0  0  0  0  0  0  0  0  0  0
   12.1486   48.1755   32.9049 H   0  0  0  0  0  0  0  0  0  0  0  0
   12.7370   49.1192   28.7705 H   0  0  0  0  0  0  0  0  0  0  0  0
   13.5462   48.1061   30.8639 H   0  0  0  0  0  0  0  0  0  0  0  0
    9.7427   40.0142   31.9265 H   0  0  0  0  0  0  0  0  0  0  0  0
   11.2132   41.0321   31.8757 H   0  0  0  0  0  0  0  0  0  0  0  0
   11.5980   39.0108   30.5904 H   0  0  0  0  0  0  0  0  0  0  0  0
   10.7008   37.5602   33.1721 H   0  0  0  0  0  0  0  0  0  0  0  0
   14.1977   37.4380   31.5532 H   0  0  0  0  0  0  0  0  0  0  0  0
    9.5180   36.3961   31.6977 H   0  0  0  0  0  0  0  0  0  0  0  0
   12.1418   35.7697   32.5692 H   0  0  0  0  0  0  0  0  0  0  0  0
   11.7730   35.4523   30.4489 H   0  0  0  0  0  0  0  0  0  0  0  0
   12.4321   38.3985   34.8692 H   0  0  0  0  0  0  0  0  0  0  0  0
   17.2667   34.4138   33.1693 H   0  0  0  0  0  0  0  0  0  0  0  0
   15.3757   36.1867   37.9790 H   0  0  0  0  0  0  0  0  0  0  0  0
   16.7634   35.0598   37.7897 H   0  0  0  0  0  0  0  0  0  0  0  0
  1  2  2  0
  1  3  1  0
  3  4  1  0
  4  5  1  0
  6  1  1  0
  7  6  1  0
  6  8  1  0
  8  9  1  0
  9 10  1  0
 10 11  1  0
 11 12  1  0
 12 13  1  0
 13 14  1  0
 13 15  2  0
 14 16  1  0
 16 17  1  0
 17 18  2  0
 19 17  1  0
 18 20  1  0
 21 19  2  0
 19 22  1  0
 20 23  2  0
 23 21  1  0
 22 24  1  0
 22 25  2  0
  4 26  2  0
  4 27  1  0
 28 27  1  0
 28 29  1  0
 29 30  1  0
 29 31  1  0
 30 32  1  0
 31 33  1  0
 31 34  1  0
 34 32  1  0
 32 35  1  0
 34 36  1  0
 37 35  1  0
 38 35  1  0
 39 37  2  0
 37 40  1  0
 41 38  2  0
 42 39  1  0
 40 43  2  0
 40 41  1  0
 44 42  2  0
 44 43  1  0
 43 45  1  0
  6 46  1  6
  7 47  1  0
  7 48  1  0
  8 49  1  0
  8 50  1  0
  9 51  1  0
  9 52  1  0
 10 53  1  0
 10 54  1  0
 11 55  1  0
 11 56  1  0
 12 57  1  0
 16 58  1  0
 16 59  1  0
 18 60  1  0
 20 61  1  0
 21 62  1  0
 23 63  1  0
 28 64  1  0
 28 65  1  0
 29 66  1  0
 31 67  1  0
 32 68  1  0
 33 69  1  0
 34 70  1  0
 36 71  1  0
 38 72  1  0
 42 73  1  0
 45 74  1  0
 45 75  1  0
M  CHG  3   5  -1  22   1  24  -1
M  END
>  <EmbedRMS>  (414) 
0.0752078562507

$$$$

     RDKit          3D

 75 78  0  0  0  0  0  0  0  0999 V2000
    9.4333   42.9365   34.3462 C   0  0  0  0  0  0  0  0  0  0  0  0
   10.4907   43.0330   35.0319 O   0  0  0  0  0  0  0  0  0  0  0  0
    8.8563   41.7104   34.0296 O   0  0  0  0  0  0  0  0  0  0  0  0
    9.4945   40.2142   34.4680 P   0  0  0  0  0  0  0  0  0  0  0  0
    9.7309   40.1726   36.1291 O   0  0  0  0  0  0  0  0  0  0  0  0
    8.7506   44.1348   33.7741 C   0  0  1  0  0  0  0  0  0  0  0  0
    9.2963   45.3821   34.3133 N   0  0  0  0  0  0  0  0  0  0  0  0
    8.8893   44.0527   32.2358 C   0  0  0  0  0  0  0  0  0  0  0  0
    8.2028   45.1823   31.4615 C   0  0  0  0  0  0  0  0  0  0  0  0
    6.6653   45.1046   31.4855 C   0  0  0  0  0  0  0  0  0  0  0  0
    6.0270   46.3226   30.8105 C   0  0  0  0  0  0  0  0  0  0  0  0
    6.5064   47.5640   31.4180 N   0  0  0  0  0  0  0  0  0  0  0  0
    7.2434   48.5393   30.6835 C   0  0  0  0  0  0  0  0  0  0  0  0
    7.5917   49.7407   31.3058 O   0  0  0  0  0  0  0  0  0  0  0  0
    7.5935   48.3117   29.4937 O   0  0  0  0  0  0  0  0  0  0  0  0
    8.3334   50.7627   30.6468 C   0  0  0  0  0  0  0  0  0  0  0  0
    8.5101   51.9404   31.5732 C   0  0  0  0  0  0  0  0  0  0  0  0
    9.8165   52.3512   31.8986 C   0  0  0  0  0  0  0  0  0  0  0  0
    7.4042   52.6182   32.1584 C   0  0  0  0  0  0  0  0  0  0  0  0
   10.0325   53.4018   32.7909 C   0  0  0  0  0  0  0  0  0  0  0  0
    7.6471   53.6641   33.0671 C   0  0  0  0  0  0  0  0  0  0  0  0
    6.0408   52.2547   31.8700 N   0  0  0  0  0  0  0  0  0  0  0  0
    8.9503   54.0543   33.3767 C   0  0  0  0  0  0  0  0  0  0  0  0
    5.0616   52.4590   32.8150 O   0  0  0  0  0  0  0  0  0  0  0  0
    5.6997   51.9063   30.7215 O   0  0  0  0  0  0  0  0  0  0  0  0
    8.5372   39.1386   34.0125 O   0  0  0  0  0  0  0  0  0  0  0  0
   10.9805   40.0880   33.6837 O   0  0  0  0  0  0  0  0  0  0  0  0
   10.8025   40.0899   32.2839 C   0  0  0  0  0  0  0  0  0  0  0  0
   11.5888   38.9174   31.7007 C   0  0  0  0  0  0  0  0  0  0  0  0
   12.9219   38.9373   32.1692 O   0  0  0  0  0  0  0  0  0  0  0  0
   11.0028   37.5682   32.0980 C   0  0  0  0  0  0  0  0  0  0  0  0
   13.3496   37.5885   32.2601 C   0  0  0  0  0  0  0  0  0  0  0  0
    9.9343   37.1822   31.2756 O   0  0  0  0  0  0  0  0  0  0  0  0
   12.1891   36.6677   31.9049 C   0  0  0  0  0  0  0  0  0  0  0  0
   13.8025   37.2965   33.6186 N   0  0  0  0  0  0  0  0  0  0  0  0
   12.2991   36.2867   30.5567 O   0  0  0  0  0  0  0  0  0  0  0  0
   14.7929   36.4725   33.9858 C   0  0  0  0  0  0  0  0  0  0  0  0
   13.2749   37.7294   34.7935 C   0  0  0  0  0  0  0  0  0  0  0  0
   15.6240   35.7580   33.1858 N   0  0  0  0  0  0  0  0  0  0  0  0
   14.8727   36.4411   35.3327 C   0  0  0  0  0  0  0  0  0  0  0  0
   13.9208   37.2263   35.8803 N   0  0  0  0  0  0  0  0  0  0  0  0
   16.5871   34.9921   33.7801 C   0  0  0  0  0  0  0  0  0  0  0  0
   15.8576   35.6718   35.9441 C   0  0  0  0  0  0  0  0  0  0  0  0
   16.7024   34.9584   35.1438 N   0  0  0  0  0  0  0  0  0  0  0  0
   16.0099   35.6384   37.3562 N   0  0  0  0  0  0  0  0  0  0  0  0
    7.6770   44.0706   34.0504 H   0  0  0  0  0  0  0  0  0  0  0  0
   10.3191   45.4407   34.0999 H   0  0  0  0  0  0  0  0  0  0  0  0
    9.1827   45.3820   35.3535 H   0  0  0  0  0  0  0  0  0  0  0  0
    9.9711   44.0682   31.9739 H   0  0  0  0  0  0  0  0  0  0  0  0
    8.4816   43.0851   31.8668 H   0  0  0  0  0  0  0  0  0  0  0  0
    8.5552   46.1510   31.8742 H   0  0  0  0  0  0  0  0  0  0  0  0
    8.5384   45.1363   30.4022 H   0  0  0  0  0  0  0  0  0  0  0  0
    6.3020   45.0643   32.5334 H   0  0  0  0  0  0  0  0  0  0  0  0
    6.3296   44.1800   30.9678 H   0  0  0  0  0  0  0  0  0  0  0  0
    4.9235   46.2674   30.9266 H   0  0  0  0  0  0  0  0  0  0  0  0
    6.2465   46.2898   29.7217 H   0  0  0  0  0  0  0  0  0  0  0  0
    6.2816   47.7534   32.4207 H   0  0  0  0  0  0  0  0  0  0  0  0
    9.3174   50.3480   30.3356 H   0  0  0  0  0  0  0  0  0  0  0  0
    7.8087   51.0870   29.7236 H   0  0  0  0  0  0  0  0  0  0  0  0
   10.6755   51.8520   31.4674 H   0  0  0  0  0  0  0  0  0  0  0  0
   11.0425   53.7064   33.0334 H   0  0  0  0  0  0  0  0  0  0  0  0
    6.8217   54.1919   33.5278 H   0  0  0  0  0  0  0  0  0  0  0  0
    9.1210   54.8663   34.0717 H   0  0  0  0  0  0  0  0  0  0  0  0
    9.7476   40.0331   31.9256 H   0  0  0  0  0  0  0  0  0  0  0  0
   11.2258   41.0357   31.8830 H   0  0  0  0  0  0  0  0  0  0  0  0
   11.5975   39.0148   30.5904 H   0  0  0  0  0  0  0  0  0  0  0  0
   10.7023   37.5455   33.1719 H   0  0  0  0  0  0  0  0  0  0  0  0
   14.1957   37.4366   31.5528 H   0  0  0  0  0  0  0  0  0  0  0  0
    9.1340   37.6658   31.6069 H   0  0  0  0  0  0  0  0  0  0  0  0
   12.1381   35.7717   32.5697 H   0  0  0  0  0  0  0  0  0  0  0  0
   11.7707   35.4530   30.4496 H   0  0  0  0  0  0  0  0  0  0  0  0
   12.4314   38.3980   34.8694 H   0  0  0  0  0  0  0  0  0  0  0  0
   17.2665   34.4140   33.1691 H   0  0  0  0  0  0  0  0  0  0  0  0
   16.7633   35.0599   37.7895 H   0  0  0  0  0  0  0  0  0  0  0  0
   15.3757   36.1868   37.9789 H   0  0  0  0  0  0  0  0  0  0  0  0
  1  2  2  0
  1  3  1  0
  3  4  1  0
  4  5  1  0
  6  1  1  0
  7  6  1  0
  6  8  1  0
  8  9  1  0
  9 10  1  0
 10 11  1  0
 11 12  1  0
 12 13  1  0
 13 14  1  0
 13 15  2  0
 14 16  1  0
 16 17  1  0
 17 18  2  0
 19 17  1  0
 18 20  1  0
 21 19  2  0
 19 22  1  0
 20 23  2  0
 23 21  1  0
 22 24  1  0
 22 25  2  0
  4 26  2  0
  4 27  1  0
 28 27  1  0
 28 29  1  0
 29 30  1  0
 29 31  1  0
 30 32  1  0
 31 33  1  0
 31 34  1  0
 34 32  1  0
 32 35  1  0
 34 36  1  0
 37 35  1  0
 38 35  1  0
 39 37  2  0
 37 40  1  0
 41 38  2  0
 42 39  1  0
 40 43  2  0
 40 41  1  0
 44 42  2  0
 44 43  1  0
 43 45  1  0
  6 46  1  6
  7 47  1  0
  7 48  1  0
  8 49  1  0
  8 50  1  0
  9 51  1  0
  9 52  1  0
 10 53  1  0
 10 54  1  0
 11 55  1  0
 11 56  1  0
 12 57  1  0
 16 58  1  0
 16 59  1  0
 18 60  1  0
 20 61  1  0
 21 62  1  0
 23 63  1  0
 28 64  1  0
 28 65  1  0
 29 66  1  0
 31 67  1  0
 32 68  1  0
 33 69  1  0
 34 70  1  0
 36 71  1  0
 38 72  1  0
 42 73  1  0
 45 74  1  0
 45 75  1  0
M  CHG  3   5  -1  22   1  24  -1
M  END
>  <EmbedRMS>  (415) 
0.0742078376899

$$$$

     RDKit          3D

 75 78  0  0  0  0  0  0  0  0999 V2000
    9.4336   42.9373   34.3454 C   0  0  0  0  0  0  0  0  0  0  0  0
   10.4909   43.0336   35.0314 O   0  0  0  0  0  0  0  0  0  0  0  0
    8.8564   41.7110   34.0291 O   0  0  0  0  0  0  0  0  0  0  0  0
    9.4944   40.2146   34.4678 P   0  0  0  0  0  0  0  0  0  0  0  0
    9.7308   40.1730   36.1290 O   0  0  0  0  0  0  0  0  0  0  0  0
    8.7511   44.1361   33.7736 C   0  0  1  0  0  0  0  0  0  0  0  0
    9.2970   45.3832   34.3130 N   0  0  0  0  0  0  0  0  0  0  0  0
    8.8895   44.0553   32.2352 C   0  0  0  0  0  0  0  0  0  0  0  0
    8.2022   45.1858   31.4620 C   0  0  0  0  0  0  0  0  0  0  0  0
    6.6645   45.1062   31.4851 C   0  0  0  0  0  0  0  0  0  0  0  0
    6.0231   46.3215   30.8068 C   0  0  0  0  0  0  0  0  0  0  0  0
    6.4944   47.5656   31.4145 N   0  0  0  0  0  0  0  0  0  0  0  0
    7.2640   48.5253   30.6935 C   0  0  0  0  0  0  0  0  0  0  0  0
    7.7066   49.6753   31.3543 O   0  0  0  0  0  0  0  0  0  0  0  0
    7.5887   48.3116   29.4945 O   0  0  0  0  0  0  0  0  0  0  0  0
    8.6949   50.5559   30.8222 C   0  0  0  0  0  0  0  0  0  0  0  0
   10.0385   49.8637   30.7545 C   0  0  0  0  0  0  0  0  0  0  0  0
   10.5433   49.2907   31.9365 C   0  0  0  0  0  0  0  0  0  0  0  0
   10.8291   49.8221   29.5752 C   0  0  0  0  0  0  0  0  0  0  0  0
   11.7996   48.6839   31.9560 C   0  0  0  0  0  0  0  0  0  0  0  0
   12.1011   49.2269   29.6211 C   0  0  0  0  0  0  0  0  0  0  0  0
   10.3757   50.3808   28.3336 N   0  0  0  0  0  0  0  0  0  0  0  0
   12.5792   48.6559   30.8014 C   0  0  0  0  0  0  0  0  0  0  0  0
   11.2558   51.0855   27.5454 O   0  0  0  0  0  0  0  0  0  0  0  0
    9.2912   50.0105   27.8400 O   0  0  0  0  0  0  0  0  0  0  0  0
    8.5371   39.1390   34.0124 O   0  0  0  0  0  0  0  0  0  0  0  0
   10.9804   40.0881   33.6836 O   0  0  0  0  0  0  0  0  0  0  0  0
   10.8025   40.0900   32.2838 C   0  0  0  0  0  0  0  0  0  0  0  0
   11.5889   38.9174   31.7007 C   0  0  0  0  0  0  0  0  0  0  0  0
   12.9220   38.9373   32.1692 O   0  0  0  0  0  0  0  0  0  0  0  0
   11.0028   37.5682   32.0980 C   0  0  0  0  0  0  0  0  0  0  0  0
   13.3496   37.5885   32.2601 C   0  0  0  0  0  0  0  0  0  0  0  0
    9.9343   37.1822   31.2756 O   0  0  0  0  0  0  0  0  0  0  0  0
   12.1891   36.6677   31.9049 C   0  0  0  0  0  0  0  0  0  0  0  0
   13.8025   37.2965   33.6186 N   0  0  0  0  0  0  0  0  0  0  0  0
   12.2991   36.2867   30.5568 O   0  0  0  0  0  0  0  0  0  0  0  0
   14.7929   36.4725   33.9858 C   0  0  0  0  0  0  0  0  0  0  0  0
   13.2749   37.7294   34.7935 C   0  0  0  0  0  0  0  0  0  0  0  0
   15.6240   35.7580   33.1858 N   0  0  0  0  0  0  0  0  0  0  0  0
   14.8727   36.4411   35.3327 C   0  0  0  0  0  0  0  0  0  0  0  0
   13.9208   37.2263   35.8803 N   0  0  0  0  0  0  0  0  0  0  0  0
   16.5871   34.9921   33.7801 C   0  0  0  0  0  0  0  0  0  0  0  0
   15.8576   35.6718   35.9441 C   0  0  0  0  0  0  0  0  0  0  0  0
   16.7024   34.9584   35.1438 N   0  0  0  0  0  0  0  0  0  0  0  0
   16.0099   35.6384   37.3562 N   0  0  0  0  0  0  0  0  0  0  0  0
    7.6775   44.0721   34.0498 H   0  0  0  0  0  0  0  0  0  0  0  0
    9.1865   45.3820   35.3535 H   0  0  0  0  0  0  0  0  0  0  0  0
   10.3190   45.4439   34.0963 H   0  0  0  0  0  0  0  0  0  0  0  0
    9.9713   44.0718   31.9732 H   0  0  0  0  0  0  0  0  0  0  0  0
    8.4824   43.0877   31.8654 H   0  0  0  0  0  0  0  0  0  0  0  0
    8.5386   45.1419   30.4029 H   0  0  0  0  0  0  0  0  0  0  0  0
    8.5530   46.1547   31.8760 H   0  0  0  0  0  0  0  0  0  0  0  0
    6.3008   45.0672   32.5329 H   0  0  0  0  0  0  0  0  0  0  0  0
    6.3307   44.1798   30.9693 H   0  0  0  0  0  0  0  0  0  0  0  0
    6.2465   46.2886   29.7188 H   0  0  0  0  0  0  0  0  0  0  0  0
    4.9194   46.2617   30.9186 H   0  0  0  0  0  0  0  0  0  0  0  0
    6.2727   47.7507   32.4186 H   0  0  0  0  0  0  0  0  0  0  0  0
    8.7883   51.4243   31.5076 H   0  0  0  0  0  0  0  0  0  0  0  0
    8.3524   50.9596   29.8502 H   0  0  0  0  0  0  0  0  0  0  0  0
    9.9610   49.3182   32.8497 H   0  0  0  0  0  0  0  0  0  0  0  0
   12.1728   48.2424   32.8712 H   0  0  0  0  0  0  0  0  0  0  0  0
   12.7176   49.1898   28.7317 H   0  0  0  0  0  0  0  0  0  0  0  0
   13.5562   48.1905   30.8201 H   0  0  0  0  0  0  0  0  0  0  0  0
    9.7477   40.0332   31.9255 H   0  0  0  0  0  0  0  0  0  0  0  0
   11.2259   41.0357   31.8829 H   0  0  0  0  0  0  0  0  0  0  0  0
   11.5975   39.0148   30.5904 H   0  0  0  0  0  0  0  0  0  0  0  0
   10.7023   37.5456   33.1719 H   0  0  0  0  0  0  0  0  0  0  0  0
   14.1957   37.4366   31.5528 H   0  0  0  0  0  0  0  0  0  0  0  0
    9.1340   37.6659   31.6069 H   0  0  0  0  0  0  0  0  0  0  0  0
   12.1381   35.7717   32.5698 H   0  0  0  0  0  0  0  0  0  0  0  0
   11.7707   35.4530   30.4496 H   0  0  0  0  0  0  0  0  0  0  0  0
   12.4314   38.3980   34.8694 H   0  0  0  0  0  0  0  0  0  0  0  0
   17.2665   34.4140   33.1691 H   0  0  0  0  0  0  0  0  0  0  0  0
   15.3757   36.1868   37.9789 H   0  0  0  0  0  0  0  0  0  0  0  0
   16.7633   35.0599   37.7895 H   0  0  0  0  0  0  0  0  0  0  0  0
  1  2  2  0
  1  3  1  0
  3  4  1  0
  4  5  1  0
  6  1  1  0
  7  6  1  0
  6  8  1  0
  8  9  1  0
  9 10  1  0
 10 11  1  0
 11 12  1  0
 12 13  1  0
 13 14  1  0
 13 15  2  0
 14 16  1  0
 16 17  1  0
 17 18  2  0
 19 17  1  0
 18 20  1  0
 21 19  2  0
 19 22  1  0
 20 23  2  0
 23 21  1  0
 22 24  1  0
 22 25  2  0
  4 26  2  0
  4 27  1  0
 28 27  1  0
 28 29  1  0
 29 30  1  0
 29 31  1  0
 30 32  1  0
 31 33  1  0
 31 34  1  0
 34 32  1  0
 32 35  1  0
 34 36  1  0
 37 35  1  0
 38 35  1  0
 39 37  2  0
 37 40  1  0
 41 38  2  0
 42 39  1  0
 40 43  2  0
 40 41  1  0
 44 42  2  0
 44 43  1  0
 43 45  1  0
  6 46  1  6
  7 47  1  0
  7 48  1  0
  8 49  1  0
  8 50  1  0
  9 51  1  0
  9 52  1  0
 10 53  1  0
 10 54  1  0
 11 55  1  0
 11 56  1  0
 12 57  1  0
 16 58  1  0
 16 59  1  0
 18 60  1  0
 20 61  1  0
 21 62  1  0
 23 63  1  0
 28 64  1  0
 28 65  1  0
 29 66  1  0
 31 67  1  0
 32 68  1  0
 33 69  1  0
 34 70  1  0
 36 71  1  0
 38 72  1  0
 42 73  1  0
 45 74  1  0
 45 75  1  0
M  CHG  3   5  -1  22   1  24  -1
M  END
>  <EmbedRMS>  (416) 
0.0749554553582

$$$$

     RDKit          3D

 75 78  0  0  0  0  0  0  0  0999 V2000
    9.4312   42.9407   34.3433 C   0  0  0  0  0  0  0  0  0  0  0  0
   10.4884   43.0414   35.0289 O   0  0  0  0  0  0  0  0  0  0  0  0
    8.8560   41.7124   34.0292 O   0  0  0  0  0  0  0  0  0  0  0  0
    9.4948   40.2160   34.4677 P   0  0  0  0  0  0  0  0  0  0  0  0
    9.7320   40.1738   36.1287 O   0  0  0  0  0  0  0  0  0  0  0  0
    8.7474   44.1343   33.7712 C   0  0  1  0  0  0  0  0  0  0  0  0
    9.2988   45.3653   34.3387 N   0  0  0  0  0  0  0  0  0  0  0  0
    8.8900   44.0521   32.2303 C   0  0  0  0  0  0  0  0  0  0  0  0
    8.2028   45.1736   31.4443 C   0  0  0  0  0  0  0  0  0  0  0  0
    6.6656   45.1069   31.4878 C   0  0  0  0  0  0  0  0  0  0  0  0
    6.0284   46.3258   30.8143 C   0  0  0  0  0  0  0  0  0  0  0  0
    6.5124   47.5649   31.4236 N   0  0  0  0  0  0  0  0  0  0  0  0
    7.2400   48.5469   30.6776 C   0  0  0  0  0  0  0  0  0  0  0  0
    7.5871   49.7860   31.2318 O   0  0  0  0  0  0  0  0  0  0  0  0
    7.5916   48.3032   29.4940 O   0  0  0  0  0  0  0  0  0  0  0  0
    7.2960   50.1979   32.5675 C   0  0  0  0  0  0  0  0  0  0  0  0
    8.1797   49.4902   33.5737 C   0  0  0  0  0  0  0  0  0  0  0  0
    9.5394   49.3021   33.2585 C   0  0  0  0  0  0  0  0  0  0  0  0
    7.7232   49.1476   34.8747 C   0  0  0  0  0  0  0  0  0  0  0  0
   10.4241   48.7692   34.1970 C   0  0  0  0  0  0  0  0  0  0  0  0
    8.6339   48.6322   35.8121 C   0  0  0  0  0  0  0  0  0  0  0  0
    6.3614   49.3475   35.2796 N   0  0  0  0  0  0  0  0  0  0  0  0
    9.9734   48.4397   35.4734 C   0  0  0  0  0  0  0  0  0  0  0  0
    6.0952   49.8787   36.5204 O   0  0  0  0  0  0  0  0  0  0  0  0
    5.4347   48.7977   34.6505 O   0  0  0  0  0  0  0  0  0  0  0  0
    8.5377   39.1398   34.0126 O   0  0  0  0  0  0  0  0  0  0  0  0
   10.9798   40.0896   33.6815 O   0  0  0  0  0  0  0  0  0  0  0  0
   10.7982   40.0850   32.2819 C   0  0  0  0  0  0  0  0  0  0  0  0
   11.5886   38.9143   31.7009 C   0  0  0  0  0  0  0  0  0  0  0  0
   12.9214   38.9368   32.1698 O   0  0  0  0  0  0  0  0  0  0  0  0
   11.0047   37.5661   32.0991 C   0  0  0  0  0  0  0  0  0  0  0  0
   13.3510   37.5885   32.2601 C   0  0  0  0  0  0  0  0  0  0  0  0
    9.9296   37.1962   31.2780 O   0  0  0  0  0  0  0  0  0  0  0  0
   12.1923   36.6659   31.9047 C   0  0  0  0  0  0  0  0  0  0  0  0
   13.8033   37.2967   33.6188 N   0  0  0  0  0  0  0  0  0  0  0  0
   12.3006   36.2865   30.5562 O   0  0  0  0  0  0  0  0  0  0  0  0
   14.7933   36.4724   33.9860 C   0  0  0  0  0  0  0  0  0  0  0  0
   13.2753   37.7296   34.7935 C   0  0  0  0  0  0  0  0  0  0  0  0
   15.6243   35.7579   33.1860 N   0  0  0  0  0  0  0  0  0  0  0  0
   14.8728   36.4410   35.3328 C   0  0  0  0  0  0  0  0  0  0  0  0
   13.9209   37.2263   35.8804 N   0  0  0  0  0  0  0  0  0  0  0  0
   16.5873   34.9919   33.7803 C   0  0  0  0  0  0  0  0  0  0  0  0
   15.8577   35.6717   35.9443 C   0  0  0  0  0  0  0  0  0  0  0  0
   16.7025   34.9583   35.1440 N   0  0  0  0  0  0  0  0  0  0  0  0
   16.0100   35.6384   37.3563 N   0  0  0  0  0  0  0  0  0  0  0  0
    7.6752   44.0594   34.0524 H   0  0  0  0  0  0  0  0  0  0  0  0
   10.2090   45.5912   33.8745 H   0  0  0  0  0  0  0  0  0  0  0  0
    8.6369   46.1493   34.1392 H   0  0  0  0  0  0  0  0  0  0  0  0
    9.9719   44.0657   31.9687 H   0  0  0  0  0  0  0  0  0  0  0  0
    8.4847   43.0823   31.8645 H   0  0  0  0  0  0  0  0  0  0  0  0
    8.5222   45.0994   30.3817 H   0  0  0  0  0  0  0  0  0  0  0  0
    8.5721   46.1500   31.8201 H   0  0  0  0  0  0  0  0  0  0  0  0
    6.3148   45.0761   32.5402 H   0  0  0  0  0  0  0  0  0  0  0  0
    6.3169   44.1816   30.9800 H   0  0  0  0  0  0  0  0  0  0  0  0
    6.2431   46.2930   29.7247 H   0  0  0  0  0  0  0  0  0  0  0  0
    4.9254   46.2727   30.9351 H   0  0  0  0  0  0  0  0  0  0  0  0
    6.3005   47.7215   32.4318 H   0  0  0  0  0  0  0  0  0  0  0  0
    6.2138   50.0776   32.7635 H   0  0  0  0  0  0  0  0  0  0  0  0
    7.5109   51.2844   32.6415 H   0  0  0  0  0  0  0  0  0  0  0  0
    9.9233   49.5848   32.2861 H   0  0  0  0  0  0  0  0  0  0  0  0
   11.4650   48.6249   33.9380 H   0  0  0  0  0  0  0  0  0  0  0  0
    8.2998   48.3693   36.8080 H   0  0  0  0  0  0  0  0  0  0  0  0
   10.6628   48.0331   36.2020 H   0  0  0  0  0  0  0  0  0  0  0  0
    9.7427   40.0141   31.9268 H   0  0  0  0  0  0  0  0  0  0  0  0
   11.2130   41.0321   31.8753 H   0  0  0  0  0  0  0  0  0  0  0  0
   11.5980   39.0108   30.5905 H   0  0  0  0  0  0  0  0  0  0  0  0
   10.7008   37.5603   33.1721 H   0  0  0  0  0  0  0  0  0  0  0  0
   14.1977   37.4380   31.5532 H   0  0  0  0  0  0  0  0  0  0  0  0
    9.5180   36.3962   31.6978 H   0  0  0  0  0  0  0  0  0  0  0  0
   12.1418   35.7698   32.5692 H   0  0  0  0  0  0  0  0  0  0  0  0
   11.7729   35.4524   30.4489 H   0  0  0  0  0  0  0  0  0  0  0  0
   12.4320   38.3984   34.8692 H   0  0  0  0  0  0  0  0  0  0  0  0
   17.2667   34.4138   33.1694 H   0  0  0  0  0  0  0  0  0  0  0  0
   16.7634   35.0598   37.7897 H   0  0  0  0  0  0  0  0  0  0  0  0
   15.3757   36.1867   37.9790 H   0  0  0  0  0  0  0  0  0  0  0  0
  1  2  2  0
  1  3  1  0
  3  4  1  0
  4  5  1  0
  6  1  1  0
  7  6  1  0
  6  8  1  0
  8  9  1  0
  9 10  1  0
 10 11  1  0
 11 12  1  0
 12 13  1  0
 13 14  1  0
 13 15  2  0
 14 16  1  0
 16 17  1  0
 17 18  2  0
 19 17  1  0
 18 20  1  0
 21 19  2  0
 19 22  1  0
 20 23  2  0
 23 21  1  0
 22 24  1  0
 22 25  2  0
  4 26  2  0
  4 27  1  0
 28 27  1  0
 28 29  1  0
 29 30  1  0
 29 31  1  0
 30 32  1  0
 31 33  1  0
 31 34  1  0
 34 32  1  0
 32 35  1  0
 34 36  1  0
 37 35  1  0
 38 35  1  0
 39 37  2  0
 37 40  1  0
 41 38  2  0
 42 39  1  0
 40 43  2  0
 40 41  1  0
 44 42  2  0
 44 43  1  0
 43 45  1  0
  6 46  1  6
  7 47  1  0
  7 48  1  0
  8 49  1  0
  8 50  1  0
  9 51  1  0
  9 52  1  0
 10 53  1  0
 10 54  1  0
 11 55  1  0
 11 56  1  0
 12 57  1  0
 16 58  1  0
 16 59  1  0
 18 60  1  0
 20 61  1  0
 21 62  1  0
 23 63  1  0
 28 64  1  0
 28 65  1  0
 29 66  1  0
 31 67  1  0
 32 68  1  0
 33 69  1  0
 34 70  1  0
 36 71  1  0
 38 72  1  0
 42 73  1  0
 45 74  1  0
 45 75  1  0
M  CHG  3   5  -1  22   1  24  -1
M  END
>  <EmbedRMS>  (417) 
0.0733536210018

$$$$

     RDKit          3D

 75 78  0  0  0  0  0  0  0  0999 V2000
    9.4314   42.9408   34.3434 C   0  0  0  0  0  0  0  0  0  0  0  0
   10.4885   43.0406   35.0295 O   0  0  0  0  0  0  0  0  0  0  0  0
    8.8558   41.7127   34.0291 O   0  0  0  0  0  0  0  0  0  0  0  0
    9.4945   40.2161   34.4676 P   0  0  0  0  0  0  0  0  0  0  0  0
    9.7319   40.1739   36.1286 O   0  0  0  0  0  0  0  0  0  0  0  0
    8.7492   44.1355   33.7712 C   0  0  1  0  0  0  0  0  0  0  0  0
    9.3043   45.3658   34.3365 N   0  0  0  0  0  0  0  0  0  0  0  0
    8.8899   44.0524   32.2301 C   0  0  0  0  0  0  0  0  0  0  0  0
    8.2018   45.1729   31.4425 C   0  0  0  0  0  0  0  0  0  0  0  0
    6.6649   45.1093   31.4907 C   0  0  0  0  0  0  0  0  0  0  0  0
    6.0283   46.3246   30.8102 C   0  0  0  0  0  0  0  0  0  0  0  0
    6.5009   47.5678   31.4204 N   0  0  0  0  0  0  0  0  0  0  0  0
    7.2382   48.5466   30.6798 C   0  0  0  0  0  0  0  0  0  0  0  0
    7.5781   49.7906   31.2279 O   0  0  0  0  0  0  0  0  0  0  0  0
    7.6006   48.2981   29.5003 O   0  0  0  0  0  0  0  0  0  0  0  0
    7.2098   50.2608   32.5231 C   0  0  0  0  0  0  0  0  0  0  0  0
    8.0392   49.6233   33.6161 C   0  0  0  0  0  0  0  0  0  0  0  0
    7.3827   48.8993   34.6298 C   0  0  0  0  0  0  0  0  0  0  0  0
    9.4375   49.8422   33.7241 C   0  0  0  0  0  0  0  0  0  0  0  0
    8.0944   48.3792   35.7119 C   0  0  0  0  0  0  0  0  0  0  0  0
   10.1364   49.3121   34.8223 C   0  0  0  0  0  0  0  0  0  0  0  0
   10.1517   50.6429   32.7710 N   0  0  0  0  0  0  0  0  0  0  0  0
    9.4699   48.5797   35.8048 C   0  0  0  0  0  0  0  0  0  0  0  0
   10.1610   50.2912   31.4422 O   0  0  0  0  0  0  0  0  0  0  0  0
   10.9659   51.5004   33.1710 O   0  0  0  0  0  0  0  0  0  0  0  0
    8.5373   39.1399   34.0126 O   0  0  0  0  0  0  0  0  0  0  0  0
   10.9794   40.0895   33.6813 O   0  0  0  0  0  0  0  0  0  0  0  0
   10.7977   40.0844   32.2817 C   0  0  0  0  0  0  0  0  0  0  0  0
   11.5897   38.9147   31.7009 C   0  0  0  0  0  0  0  0  0  0  0  0
   12.9218   38.9385   32.1718 O   0  0  0  0  0  0  0  0  0  0  0  0
   11.0070   37.5655   32.0975 C   0  0  0  0  0  0  0  0  0  0  0  0
   13.3532   37.5910   32.2611 C   0  0  0  0  0  0  0  0  0  0  0  0
    9.9333   37.1935   31.2754 O   0  0  0  0  0  0  0  0  0  0  0  0
   12.1945   36.6672   31.9041 C   0  0  0  0  0  0  0  0  0  0  0  0
   13.8036   37.2970   33.6193 N   0  0  0  0  0  0  0  0  0  0  0  0
   12.2893   36.2849   30.5563 O   0  0  0  0  0  0  0  0  0  0  0  0
   14.7931   36.4723   33.9863 C   0  0  0  0  0  0  0  0  0  0  0  0
   13.2756   37.7298   34.7940 C   0  0  0  0  0  0  0  0  0  0  0  0
   15.6242   35.7580   33.1861 N   0  0  0  0  0  0  0  0  0  0  0  0
   14.8727   36.4407   35.3331 C   0  0  0  0  0  0  0  0  0  0  0  0
   13.9210   37.2262   35.8808 N   0  0  0  0  0  0  0  0  0  0  0  0
   16.5872   34.9920   33.7803 C   0  0  0  0  0  0  0  0  0  0  0  0
   15.8577   35.6715   35.9444 C   0  0  0  0  0  0  0  0  0  0  0  0
   16.7025   34.9582   35.1440 N   0  0  0  0  0  0  0  0  0  0  0  0
   16.0101   35.6382   37.3564 N   0  0  0  0  0  0  0  0  0  0  0  0
    7.6771   44.0639   34.0538 H   0  0  0  0  0  0  0  0  0  0  0  0
    8.6589   46.1549   34.1100 H   0  0  0  0  0  0  0  0  0  0  0  0
   10.2265   45.5744   33.8883 H   0  0  0  0  0  0  0  0  0  0  0  0
    9.9715   44.0654   31.9673 H   0  0  0  0  0  0  0  0  0  0  0  0
    8.4841   43.0823   31.8656 H   0  0  0  0  0  0  0  0  0  0  0  0
    8.5732   46.1509   31.8115 H   0  0  0  0  0  0  0  0  0  0  0  0
    8.5177   45.0935   30.3792 H   0  0  0  0  0  0  0  0  0  0  0  0
    6.3134   44.1812   30.9898 H   0  0  0  0  0  0  0  0  0  0  0  0
    6.3166   45.0861   32.5441 H   0  0  0  0  0  0  0  0  0  0  0  0
    6.2522   46.2899   29.7224 H   0  0  0  0  0  0  0  0  0  0  0  0
    4.9243   46.2668   30.9205 H   0  0  0  0  0  0  0  0  0  0  0  0
    6.2438   47.7419   32.4142 H   0  0  0  0  0  0  0  0  0  0  0  0
    6.1201   50.1046   32.6796 H   0  0  0  0  0  0  0  0  0  0  0  0
    7.3773   51.3577   32.5566 H   0  0  0  0  0  0  0  0  0  0  0  0
    6.3106   48.7513   34.5965 H   0  0  0  0  0  0  0  0  0  0  0  0
    7.5768   47.8213   36.4816 H   0  0  0  0  0  0  0  0  0  0  0  0
   11.2035   49.4703   34.9162 H   0  0  0  0  0  0  0  0  0  0  0  0
   10.0199   48.1745   36.6443 H   0  0  0  0  0  0  0  0  0  0  0  0
    9.7422   40.0118   31.9267 H   0  0  0  0  0  0  0  0  0  0  0  0
   11.2110   41.0321   31.8749 H   0  0  0  0  0  0  0  0  0  0  0  0
   11.6005   39.0120   30.5905 H   0  0  0  0  0  0  0  0  0  0  0  0
   10.7015   37.5594   33.1702 H   0  0  0  0  0  0  0  0  0  0  0  0
   14.2012   37.4438   31.5552 H   0  0  0  0  0  0  0  0  0  0  0  0
    9.5289   36.3870   31.6895 H   0  0  0  0  0  0  0  0  0  0  0  0
   12.1243   35.7694   32.5633 H   0  0  0  0  0  0  0  0  0  0  0  0
   12.9477   35.5427   30.5202 H   0  0  0  0  0  0  0  0  0  0  0  0
   12.4328   38.3993   34.8697 H   0  0  0  0  0  0  0  0  0  0  0  0
   17.2666   34.4140   33.1692 H   0  0  0  0  0  0  0  0  0  0  0  0
   15.3759   36.1865   37.9791 H   0  0  0  0  0  0  0  0  0  0  0  0
   16.7636   35.0598   37.7897 H   0  0  0  0  0  0  0  0  0  0  0  0
  1  2  2  0
  1  3  1  0
  3  4  1  0
  4  5  1  0
  6  1  1  0
  7  6  1  0
  6  8  1  0
  8  9  1  0
  9 10  1  0
 10 11  1  0
 11 12  1  0
 12 13  1  0
 13 14  1  0
 13 15  2  0
 14 16  1  0
 16 17  1  0
 17 18  2  0
 19 17  1  0
 18 20  1  0
 21 19  2  0
 19 22  1  0
 20 23  2  0
 23 21  1  0
 22 24  1  0
 22 25  2  0
  4 26  2  0
  4 27  1  0
 28 27  1  0
 28 29  1  0
 29 30  1  0
 29 31  1  0
 30 32  1  0
 31 33  1  0
 31 34  1  0
 34 32  1  0
 32 35  1  0
 34 36  1  0
 37 35  1  0
 38 35  1  0
 39 37  2  0
 37 40  1  0
 41 38  2  0
 42 39  1  0
 40 43  2  0
 40 41  1  0
 44 42  2  0
 44 43  1  0
 43 45  1  0
  6 46  1  6
  7 47  1  0
  7 48  1  0
  8 49  1  0
  8 50  1  0
  9 51  1  0
  9 52  1  0
 10 53  1  0
 10 54  1  0
 11 55  1  0
 11 56  1  0
 12 57  1  0
 16 58  1  0
 16 59  1  0
 18 60  1  0
 20 61  1  0
 21 62  1  0
 23 63  1  0
 28 64  1  0
 28 65  1  0
 29 66  1  0
 31 67  1  0
 32 68  1  0
 33 69  1  0
 34 70  1  0
 36 71  1  0
 38 72  1  0
 42 73  1  0
 45 74  1  0
 45 75  1  0
M  CHG  3   5  -1  22   1  24  -1
M  END
>  <EmbedRMS>  (418) 
0.0737286144348

$$$$

     RDKit          3D

 75 78  0  0  0  0  0  0  0  0999 V2000
    9.4297   42.9397   34.3436 C   0  0  0  0  0  0  0  0  0  0  0  0
   10.4910   43.0383   35.0235 O   0  0  0  0  0  0  0  0  0  0  0  0
    8.8549   41.7117   34.0283 O   0  0  0  0  0  0  0  0  0  0  0  0
    9.4942   40.2155   34.4674 P   0  0  0  0  0  0  0  0  0  0  0  0
    9.7309   40.1738   36.1286 O   0  0  0  0  0  0  0  0  0  0  0  0
    8.7407   44.1380   33.7788 C   0  0  1  0  0  0  0  0  0  0  0  0
    9.3008   45.3723   34.3327 N   0  0  0  0  0  0  0  0  0  0  0  0
    8.8960   44.0592   32.2401 C   0  0  0  0  0  0  0  0  0  0  0  0
    8.2028   45.1687   31.4401 C   0  0  0  0  0  0  0  0  0  0  0  0
    6.6653   45.1053   31.4880 C   0  0  0  0  0  0  0  0  0  0  0  0
    6.0294   46.3227   30.8098 C   0  0  0  0  0  0  0  0  0  0  0  0
    6.5091   47.5618   31.4212 N   0  0  0  0  0  0  0  0  0  0  0  0
    7.2523   48.5398   30.6853 C   0  0  0  0  0  0  0  0  0  0  0  0
    7.6522   49.7513   31.2659 O   0  0  0  0  0  0  0  0  0  0  0  0
    7.5832   48.3107   29.4928 O   0  0  0  0  0  0  0  0  0  0  0  0
    7.4344   50.1205   32.6284 C   0  0  0  0  0  0  0  0  0  0  0  0
    5.9700   50.3840   32.9090 C   0  0  0  0  0  0  0  0  0  0  0  0
    5.2262   51.1127   31.9615 C   0  0  0  0  0  0  0  0  0  0  0  0
    5.3532   50.0224   34.1370 C   0  0  0  0  0  0  0  0  0  0  0  0
    3.8934   51.4481   32.2041 C   0  0  0  0  0  0  0  0  0  0  0  0
    4.0163   50.3855   34.3697 C   0  0  0  0  0  0  0  0  0  0  0  0
    6.0656   49.3296   35.1723 N   0  0  0  0  0  0  0  0  0  0  0  0
    3.2893   51.0845   33.4058 C   0  0  0  0  0  0  0  0  0  0  0  0
    5.9340   49.7449   36.4771 O   0  0  0  0  0  0  0  0  0  0  0  0
    6.5660   48.2089   34.9469 O   0  0  0  0  0  0  0  0  0  0  0  0
    8.5375   39.1391   34.0123 O   0  0  0  0  0  0  0  0  0  0  0  0
   10.9797   40.0879   33.6827 O   0  0  0  0  0  0  0  0  0  0  0  0
   10.8002   40.0907   32.2830 C   0  0  0  0  0  0  0  0  0  0  0  0
   11.5958   38.9271   31.6963 C   0  0  0  0  0  0  0  0  0  0  0  0
   12.9238   38.9409   32.1767 O   0  0  0  0  0  0  0  0  0  0  0  0
   11.0062   37.5719   32.0794 C   0  0  0  0  0  0  0  0  0  0  0  0
   13.3506   37.5906   32.2614 C   0  0  0  0  0  0  0  0  0  0  0  0
    9.9064   37.1793   31.2946 O   0  0  0  0  0  0  0  0  0  0  0  0
   12.1920   36.6672   31.9003 C   0  0  0  0  0  0  0  0  0  0  0  0
   13.8017   37.2948   33.6193 N   0  0  0  0  0  0  0  0  0  0  0  0
   12.3133   36.2788   30.5561 O   0  0  0  0  0  0  0  0  0  0  0  0
   14.7927   36.4717   33.9862 C   0  0  0  0  0  0  0  0  0  0  0  0
   13.2746   37.7284   34.7941 C   0  0  0  0  0  0  0  0  0  0  0  0
   15.6240   35.7576   33.1859 N   0  0  0  0  0  0  0  0  0  0  0  0
   14.8728   36.4406   35.3330 C   0  0  0  0  0  0  0  0  0  0  0  0
   13.9209   37.2258   35.8808 N   0  0  0  0  0  0  0  0  0  0  0  0
   16.5874   34.9920   33.7802 C   0  0  0  0  0  0  0  0  0  0  0  0
   15.8579   35.6716   35.9443 C   0  0  0  0  0  0  0  0  0  0  0  0
   16.7028   34.9584   35.1439 N   0  0  0  0  0  0  0  0  0  0  0  0
   16.0102   35.6383   37.3563 N   0  0  0  0  0  0  0  0  0  0  0  0
    7.6662   44.0656   34.0546 H   0  0  0  0  0  0  0  0  0  0  0  0
    9.2312   45.3284   35.3760 H   0  0  0  0  0  0  0  0  0  0  0  0
    8.6808   46.1675   34.0579 H   0  0  0  0  0  0  0  0  0  0  0  0
    9.9808   44.0906   31.9920 H   0  0  0  0  0  0  0  0  0  0  0  0
    8.5081   43.0839   31.8697 H   0  0  0  0  0  0  0  0  0  0  0  0
    8.5759   46.1512   31.7935 H   0  0  0  0  0  0  0  0  0  0  0  0
    8.5178   45.0766   30.3775 H   0  0  0  0  0  0  0  0  0  0  0  0
    6.3138   44.1780   30.9860 H   0  0  0  0  0  0  0  0  0  0  0  0
    6.3163   45.0808   32.5411 H   0  0  0  0  0  0  0  0  0  0  0  0
    4.9257   46.2687   30.9248 H   0  0  0  0  0  0  0  0  0  0  0  0
    6.2503   46.2896   29.7214 H   0  0  0  0  0  0  0  0  0  0  0  0
    6.2843   47.7180   32.4260 H   0  0  0  0  0  0  0  0  0  0  0  0
    7.9876   51.0640   32.8173 H   0  0  0  0  0  0  0  0  0  0  0  0
    7.8810   49.3541   33.2897 H   0  0  0  0  0  0  0  0  0  0  0  0
    5.6817   51.4301   31.0315 H   0  0  0  0  0  0  0  0  0  0  0  0
    3.3316   52.0017   31.4629 H   0  0  0  0  0  0  0  0  0  0  0  0
    3.5340   50.1174   35.3015 H   0  0  0  0  0  0  0  0  0  0  0  0
    2.2577   51.3520   33.5949 H   0  0  0  0  0  0  0  0  0  0  0  0
   11.2114   41.0420   31.8828 H   0  0  0  0  0  0  0  0  0  0  0  0
    9.7454   40.0168   31.9261 H   0  0  0  0  0  0  0  0  0  0  0  0
   11.6246   39.0448   30.5888 H   0  0  0  0  0  0  0  0  0  0  0  0
   10.7050   37.5581   33.1500 H   0  0  0  0  0  0  0  0  0  0  0  0
   14.1985   37.4426   31.5553 H   0  0  0  0  0  0  0  0  0  0  0  0
   10.0893   37.4057   30.3459 H   0  0  0  0  0  0  0  0  0  0  0  0
   12.1337   35.7754   32.5703 H   0  0  0  0  0  0  0  0  0  0  0  0
   11.7934   35.4394   30.4514 H   0  0  0  0  0  0  0  0  0  0  0  0
   12.4314   38.3973   34.8699 H   0  0  0  0  0  0  0  0  0  0  0  0
   17.2669   34.4142   33.1692 H   0  0  0  0  0  0  0  0  0  0  0  0
   16.7638   35.0599   37.7897 H   0  0  0  0  0  0  0  0  0  0  0  0
   15.3759   36.1865   37.9790 H   0  0  0  0  0  0  0  0  0  0  0  0
  1  2  2  0
  1  3  1  0
  3  4  1  0
  4  5  1  0
  6  1  1  0
  7  6  1  0
  6  8  1  0
  8  9  1  0
  9 10  1  0
 10 11  1  0
 11 12  1  0
 12 13  1  0
 13 14  1  0
 13 15  2  0
 14 16  1  0
 16 17  1  0
 17 18  2  0
 19 17  1  0
 18 20  1  0
 21 19  2  0
 19 22  1  0
 20 23  2  0
 23 21  1  0
 22 24  1  0
 22 25  2  0
  4 26  2  0
  4 27  1  0
 28 27  1  0
 28 29  1  0
 29 30  1  0
 29 31  1  0
 30 32  1  0
 31 33  1  0
 31 34  1  0
 34 32  1  0
 32 35  1  0
 34 36  1  0
 37 35  1  0
 38 35  1  0
 39 37  2  0
 37 40  1  0
 41 38  2  0
 42 39  1  0
 40 43  2  0
 40 41  1  0
 44 42  2  0
 44 43  1  0
 43 45  1  0
  6 46  1  6
  7 47  1  0
  7 48  1  0
  8 49  1  0
  8 50  1  0
  9 51  1  0
  9 52  1  0
 10 53  1  0
 10 54  1  0
 11 55  1  0
 11 56  1  0
 12 57  1  0
 16 58  1  0
 16 59  1  0
 18 60  1  0
 20 61  1  0
 21 62  1  0
 23 63  1  0
 28 64  1  0
 28 65  1  0
 29 66  1  0
 31 67  1  0
 32 68  1  0
 33 69  1  0
 34 70  1  0
 36 71  1  0
 38 72  1  0
 42 73  1  0
 45 74  1  0
 45 75  1  0
M  CHG  3   5  -1  22   1  24  -1
M  END
>  <EmbedRMS>  (419) 
0.0741542317989

$$$$

     RDKit          3D

 75 78  0  0  0  0  0  0  0  0999 V2000
    9.4332   42.9365   34.3464 C   0  0  0  0  0  0  0  0  0  0  0  0
   10.4907   43.0330   35.0319 O   0  0  0  0  0  0  0  0  0  0  0  0
    8.8559   41.7103   34.0304 O   0  0  0  0  0  0  0  0  0  0  0  0
    9.4931   40.2140   34.4703 P   0  0  0  0  0  0  0  0  0  0  0  0
    9.7293   40.1727   36.1313 O   0  0  0  0  0  0  0  0  0  0  0  0
    8.7506   44.1348   33.7741 C   0  0  1  0  0  0  0  0  0  0  0  0
    9.2963   45.3820   34.3133 N   0  0  0  0  0  0  0  0  0  0  0  0
    8.8893   44.0525   32.2358 C   0  0  0  0  0  0  0  0  0  0  0  0
    8.2029   45.1821   31.4613 C   0  0  0  0  0  0  0  0  0  0  0  0
    6.6654   45.1045   31.4853 C   0  0  0  0  0  0  0  0  0  0  0  0
    6.0273   46.3229   30.8107 C   0  0  0  0  0  0  0  0  0  0  0  0
    6.5075   47.5640   31.4182 N   0  0  0  0  0  0  0  0  0  0  0  0
    7.2412   48.5412   30.6827 C   0  0  0  0  0  0  0  0  0  0  0  0
    7.5893   49.7436   31.3090 O   0  0  0  0  0  0  0  0  0  0  0  0
    7.5942   48.3100   29.4946 O   0  0  0  0  0  0  0  0  0  0  0  0
    8.2570   50.8229   30.6549 C   0  0  0  0  0  0  0  0  0  0  0  0
    7.2524   51.8608   30.2051 C   0  0  0  0  0  0  0  0  0  0  0  0
    6.2943   51.4914   29.2429 C   0  0  0  0  0  0  0  0  0  0  0  0
    7.2064   53.1712   30.7525 C   0  0  0  0  0  0  0  0  0  0  0  0
    5.2900   52.3802   28.8565 C   0  0  0  0  0  0  0  0  0  0  0  0
    6.1756   54.0442   30.3666 C   0  0  0  0  0  0  0  0  0  0  0  0
    8.1944   53.6420   31.6800 N   0  0  0  0  0  0  0  0  0  0  0  0
    5.2248   53.6508   29.4245 C   0  0  0  0  0  0  0  0  0  0  0  0
    7.8062   54.4034   32.7580 O   0  0  0  0  0  0  0  0  0  0  0  0
    9.4033   53.6087   31.3706 O   0  0  0  0  0  0  0  0  0  0  0  0
    8.5366   39.1381   34.0136 O   0  0  0  0  0  0  0  0  0  0  0  0
   10.9788   40.0866   33.6873 O   0  0  0  0  0  0  0  0  0  0  0  0
   10.7993   40.0944   32.2886 C   0  0  0  0  0  0  0  0  0  0  0  0
   11.5957   38.9351   31.6994 C   0  0  0  0  0  0  0  0  0  0  0  0
   12.9257   38.9478   32.1798 O   0  0  0  0  0  0  0  0  0  0  0  0
   11.0070   37.5757   32.0732 C   0  0  0  0  0  0  0  0  0  0  0  0
   13.3571   37.5979   32.2612 C   0  0  0  0  0  0  0  0  0  0  0  0
    9.9093   37.1807   31.2875 O   0  0  0  0  0  0  0  0  0  0  0  0
   12.1968   36.6763   31.8893 C   0  0  0  0  0  0  0  0  0  0  0  0
   13.8018   37.2956   33.6197 N   0  0  0  0  0  0  0  0  0  0  0  0
   12.3049   36.2360   30.5554 O   0  0  0  0  0  0  0  0  0  0  0  0
   14.7922   36.4716   33.9864 C   0  0  0  0  0  0  0  0  0  0  0  0
   13.2747   37.7291   34.7944 C   0  0  0  0  0  0  0  0  0  0  0  0
   15.6240   35.7581   33.1861 N   0  0  0  0  0  0  0  0  0  0  0  0
   14.8721   36.4401   35.3331 C   0  0  0  0  0  0  0  0  0  0  0  0
   13.9206   37.2257   35.8810 N   0  0  0  0  0  0  0  0  0  0  0  0
   16.5873   34.9924   33.7802 C   0  0  0  0  0  0  0  0  0  0  0  0
   15.8576   35.6714   35.9444 C   0  0  0  0  0  0  0  0  0  0  0  0
   16.7026   34.9585   35.1439 N   0  0  0  0  0  0  0  0  0  0  0  0
   16.0102   35.6382   37.3564 N   0  0  0  0  0  0  0  0  0  0  0  0
    7.6770   44.0707   34.0504 H   0  0  0  0  0  0  0  0  0  0  0  0
   10.3192   45.4406   34.0999 H   0  0  0  0  0  0  0  0  0  0  0  0
    9.1827   45.3821   35.3534 H   0  0  0  0  0  0  0  0  0  0  0  0
    8.4816   43.0849   31.8670 H   0  0  0  0  0  0  0  0  0  0  0  0
    9.9711   44.0678   31.9740 H   0  0  0  0  0  0  0  0  0  0  0  0
    8.5554   46.1507   31.8740 H   0  0  0  0  0  0  0  0  0  0  0  0
    8.5385   45.1359   30.4021 H   0  0  0  0  0  0  0  0  0  0  0  0
    6.3296   44.1801   30.9672 H   0  0  0  0  0  0  0  0  0  0  0  0
    6.3020   45.0639   32.5331 H   0  0  0  0  0  0  0  0  0  0  0  0
    6.2461   46.2901   29.7217 H   0  0  0  0  0  0  0  0  0  0  0  0
    4.9239   46.2681   30.9273 H   0  0  0  0  0  0  0  0  0  0  0  0
    6.2837   47.7527   32.4212 H   0  0  0  0  0  0  0  0  0  0  0  0
    8.8499   50.4662   29.7849 H   0  0  0  0  0  0  0  0  0  0  0  0
    8.9819   51.2369   31.3790 H   0  0  0  0  0  0  0  0  0  0  0  0
    6.3153   50.5073   28.7949 H   0  0  0  0  0  0  0  0  0  0  0  0
    4.5560   52.0796   28.1200 H   0  0  0  0  0  0  0  0  0  0  0  0
    6.1238   55.0433   30.7808 H   0  0  0  0  0  0  0  0  0  0  0  0
    4.4419   54.3365   29.1270 H   0  0  0  0  0  0  0  0  0  0  0  0
    9.7448   40.0200   31.9304 H   0  0  0  0  0  0  0  0  0  0  0  0
   11.2094   41.0479   31.8922 H   0  0  0  0  0  0  0  0  0  0  0  0
   11.6206   39.0685   30.5942 H   0  0  0  0  0  0  0  0  0  0  0  0
   10.7059   37.5563   33.1438 H   0  0  0  0  0  0  0  0  0  0  0  0
   14.2095   37.4543   31.5601 H   0  0  0  0  0  0  0  0  0  0  0  0
   10.0865   37.4209   30.3413 H   0  0  0  0  0  0  0  0  0  0  0  0
   12.1276   35.7872   32.5549 H   0  0  0  0  0  0  0  0  0  0  0  0
   12.5032   37.0109   29.9672 H   0  0  0  0  0  0  0  0  0  0  0  0
   12.4328   38.3996   34.8703 H   0  0  0  0  0  0  0  0  0  0  0  0
   17.2670   34.4148   33.1690 H   0  0  0  0  0  0  0  0  0  0  0  0
   16.7640   35.0601   37.7896 H   0  0  0  0  0  0  0  0  0  0  0  0
   15.3758   36.1862   37.9792 H   0  0  0  0  0  0  0  0  0  0  0  0
  1  2  2  0
  1  3  1  0
  3  4  1  0
  4  5  1  0
  6  1  1  0
  7  6  1  0
  6  8  1  0
  8  9  1  0
  9 10  1  0
 10 11  1  0
 11 12  1  0
 12 13  1  0
 13 14  1  0
 13 15  2  0
 14 16  1  0
 16 17  1  0
 17 18  2  0
 19 17  1  0
 18 20  1  0
 21 19  2  0
 19 22  1  0
 20 23  2  0
 23 21  1  0
 22 24  1  0
 22 25  2  0
  4 26  2  0
  4 27  1  0
 28 27  1  0
 28 29  1  0
 29 30  1  0
 29 31  1  0
 30 32  1  0
 31 33  1  0
 31 34  1  0
 34 32  1  0
 32 35  1  0
 34 36  1  0
 37 35  1  0
 38 35  1  0
 39 37  2  0
 37 40  1  0
 41 38  2  0
 42 39  1  0
 40 43  2  0
 40 41  1  0
 44 42  2  0
 44 43  1  0
 43 45  1  0
  6 46  1  6
  7 47  1  0
  7 48  1  0
  8 49  1  0
  8 50  1  0
  9 51  1  0
  9 52  1  0
 10 53  1  0
 10 54  1  0
 11 55  1  0
 11 56  1  0
 12 57  1  0
 16 58  1  0
 16 59  1  0
 18 60  1  0
 20 61  1  0
 21 62  1  0
 23 63  1  0
 28 64  1  0
 28 65  1  0
 29 66  1  0
 31 67  1  0
 32 68  1  0
 33 69  1  0
 34 70  1  0
 36 71  1  0
 38 72  1  0
 42 73  1  0
 45 74  1  0
 45 75  1  0
M  CHG  3   5  -1  22   1  24  -1
M  END
>  <EmbedRMS>  (420) 
0.076106546774

$$$$

     RDKit          3D

 75 78  0  0  0  0  0  0  0  0999 V2000
    9.4333   42.9364   34.3461 C   0  0  0  0  0  0  0  0  0  0  0  0
   10.4907   43.0329   35.0319 O   0  0  0  0  0  0  0  0  0  0  0  0
    8.8563   41.7102   34.0295 O   0  0  0  0  0  0  0  0  0  0  0  0
    9.4943   40.2139   34.4679 P   0  0  0  0  0  0  0  0  0  0  0  0
    9.7310   40.1724   36.1290 O   0  0  0  0  0  0  0  0  0  0  0  0
    8.7506   44.1347   33.7741 C   0  0  1  0  0  0  0  0  0  0  0  0
    9.2963   45.3819   34.3133 N   0  0  0  0  0  0  0  0  0  0  0  0
    8.8893   44.0527   32.2358 C   0  0  0  0  0  0  0  0  0  0  0  0
    8.2029   45.1822   31.4614 C   0  0  0  0  0  0  0  0  0  0  0  0
    6.6654   45.1046   31.4854 C   0  0  0  0  0  0  0  0  0  0  0  0
    6.0272   46.3228   30.8107 C   0  0  0  0  0  0  0  0  0  0  0  0
    6.5072   47.5640   31.4182 N   0  0  0  0  0  0  0  0  0  0  0  0
    7.2415   48.5407   30.6827 C   0  0  0  0  0  0  0  0  0  0  0  0
    7.5868   49.7446   31.3058 O   0  0  0  0  0  0  0  0  0  0  0  0
    7.5943   48.3104   29.4945 O   0  0  0  0  0  0  0  0  0  0  0  0
    8.2810   50.8030   30.6477 C   0  0  0  0  0  0  0  0  0  0  0  0
    7.3786   51.5014   29.6568 C   0  0  0  0  0  0  0  0  0  0  0  0
    7.5793   51.2619   28.2846 C   0  0  0  0  0  0  0  0  0  0  0  0
    6.3682   52.4185   30.0607 C   0  0  0  0  0  0  0  0  0  0  0  0
    6.7999   51.9088   27.3256 C   0  0  0  0  0  0  0  0  0  0  0  0
    5.6045   53.0693   29.0745 C   0  0  0  0  0  0  0  0  0  0  0  0
    6.1207   52.7319   31.4449 N   0  0  0  0  0  0  0  0  0  0  0  0
    5.8156   52.8118   27.7196 C   0  0  0  0  0  0  0  0  0  0  0  0
    5.6103   53.9628   31.7889 O   0  0  0  0  0  0  0  0  0  0  0  0
    6.2150   51.8571   32.3293 O   0  0  0  0  0  0  0  0  0  0  0  0
    8.5372   39.1382   34.0121 O   0  0  0  0  0  0  0  0  0  0  0  0
   10.9798   40.0870   33.6829 O   0  0  0  0  0  0  0  0  0  0  0  0
   10.8002   40.0905   32.2832 C   0  0  0  0  0  0  0  0  0  0  0  0
   11.5958   38.9270   31.6963 C   0  0  0  0  0  0  0  0  0  0  0  0
   12.9239   38.9408   32.1766 O   0  0  0  0  0  0  0  0  0  0  0  0
   11.0062   37.5719   32.0793 C   0  0  0  0  0  0  0  0  0  0  0  0
   13.3507   37.5905   32.2614 C   0  0  0  0  0  0  0  0  0  0  0  0
    9.9064   37.1792   31.2946 O   0  0  0  0  0  0  0  0  0  0  0  0
   12.1920   36.6671   31.9003 C   0  0  0  0  0  0  0  0  0  0  0  0
   13.8017   37.2948   33.6193 N   0  0  0  0  0  0  0  0  0  0  0  0
   12.3134   36.2788   30.5560 O   0  0  0  0  0  0  0  0  0  0  0  0
   14.7927   36.4716   33.9861 C   0  0  0  0  0  0  0  0  0  0  0  0
   13.2746   37.7284   34.7941 C   0  0  0  0  0  0  0  0  0  0  0  0
   15.6240   35.7576   33.1859 N   0  0  0  0  0  0  0  0  0  0  0  0
   14.8728   36.4406   35.3330 C   0  0  0  0  0  0  0  0  0  0  0  0
   13.9209   37.2258   35.8807 N   0  0  0  0  0  0  0  0  0  0  0  0
   16.5874   34.9920   33.7802 C   0  0  0  0  0  0  0  0  0  0  0  0
   15.8579   35.6716   35.9443 C   0  0  0  0  0  0  0  0  0  0  0  0
   16.7028   34.9584   35.1439 N   0  0  0  0  0  0  0  0  0  0  0  0
   16.0103   35.6383   37.3563 N   0  0  0  0  0  0  0  0  0  0  0  0
    7.6770   44.0705   34.0504 H   0  0  0  0  0  0  0  0  0  0  0  0
   10.3192   45.4405   34.1000 H   0  0  0  0  0  0  0  0  0  0  0  0
    9.1827   45.3819   35.3535 H   0  0  0  0  0  0  0  0  0  0  0  0
    9.9711   44.0680   31.9739 H   0  0  0  0  0  0  0  0  0  0  0  0
    8.4816   43.0850   31.8668 H   0  0  0  0  0  0  0  0  0  0  0  0
    8.5385   45.1362   30.4021 H   0  0  0  0  0  0  0  0  0  0  0  0
    8.5554   46.1509   31.8741 H   0  0  0  0  0  0  0  0  0  0  0  0
    6.3296   44.1801   30.9675 H   0  0  0  0  0  0  0  0  0  0  0  0
    6.3021   45.0641   32.5332 H   0  0  0  0  0  0  0  0  0  0  0  0
    6.2462   46.2901   29.7218 H   0  0  0  0  0  0  0  0  0  0  0  0
    4.9238   46.2679   30.9271 H   0  0  0  0  0  0  0  0  0  0  0  0
    6.2826   47.7534   32.4209 H   0  0  0  0  0  0  0  0  0  0  0  0
    9.1902   50.3954   30.1530 H   0  0  0  0  0  0  0  0  0  0  0  0
    8.6396   51.5338   31.4026 H   0  0  0  0  0  0  0  0  0  0  0  0
    8.3460   50.5727   27.9525 H   0  0  0  0  0  0  0  0  0  0  0  0
    6.9638   51.7132   26.2737 H   0  0  0  0  0  0  0  0  0  0  0  0
    4.8310   53.7726   29.3560 H   0  0  0  0  0  0  0  0  0  0  0  0
    5.2146   53.3153   26.9734 H   0  0  0  0  0  0  0  0  0  0  0  0
    9.7455   40.0168   31.9263 H   0  0  0  0  0  0  0  0  0  0  0  0
   11.2116   41.0420   31.8834 H   0  0  0  0  0  0  0  0  0  0  0  0
   11.6245   39.0449   30.5888 H   0  0  0  0  0  0  0  0  0  0  0  0
   10.7050   37.5579   33.1500 H   0  0  0  0  0  0  0  0  0  0  0  0
   14.1985   37.4426   31.5553 H   0  0  0  0  0  0  0  0  0  0  0  0
   10.0893   37.4056   30.3459 H   0  0  0  0  0  0  0  0  0  0  0  0
   12.1337   35.7754   32.5703 H   0  0  0  0  0  0  0  0  0  0  0  0
   11.7934   35.4394   30.4513 H   0  0  0  0  0  0  0  0  0  0  0  0
   12.4314   38.3972   34.8700 H   0  0  0  0  0  0  0  0  0  0  0  0
   17.2669   34.4142   33.1692 H   0  0  0  0  0  0  0  0  0  0  0  0
   15.3759   36.1865   37.9790 H   0  0  0  0  0  0  0  0  0  0  0  0
   16.7638   35.0599   37.7896 H   0  0  0  0  0  0  0  0  0  0  0  0
  1  2  2  0
  1  3  1  0
  3  4  1  0
  4  5  1  0
  6  1  1  0
  7  6  1  0
  6  8  1  0
  8  9  1  0
  9 10  1  0
 10 11  1  0
 11 12  1  0
 12 13  1  0
 13 14  1  0
 13 15  2  0
 14 16  1  0
 16 17  1  0
 17 18  2  0
 19 17  1  0
 18 20  1  0
 21 19  2  0
 19 22  1  0
 20 23  2  0
 23 21  1  0
 22 24  1  0
 22 25  2  0
  4 26  2  0
  4 27  1  0
 28 27  1  0
 28 29  1  0
 29 30  1  0
 29 31  1  0
 30 32  1  0
 31 33  1  0
 31 34  1  0
 34 32  1  0
 32 35  1  0
 34 36  1  0
 37 35  1  0
 38 35  1  0
 39 37  2  0
 37 40  1  0
 41 38  2  0
 42 39  1  0
 40 43  2  0
 40 41  1  0
 44 42  2  0
 44 43  1  0
 43 45  1  0
  6 46  1  6
  7 47  1  0
  7 48  1  0
  8 49  1  0
  8 50  1  0
  9 51  1  0
  9 52  1  0
 10 53  1  0
 10 54  1  0
 11 55  1  0
 11 56  1  0
 12 57  1  0
 16 58  1  0
 16 59  1  0
 18 60  1  0
 20 61  1  0
 21 62  1  0
 23 63  1  0
 28 64  1  0
 28 65  1  0
 29 66  1  0
 31 67  1  0
 32 68  1  0
 33 69  1  0
 34 70  1  0
 36 71  1  0
 38 72  1  0
 42 73  1  0
 45 74  1  0
 45 75  1  0
M  CHG  3   5  -1  22   1  24  -1
M  END
>  <EmbedRMS>  (421) 
0.0747339746143

$$$$

     RDKit          3D

 75 78  0  0  0  0  0  0  0  0999 V2000
    9.4336   42.9373   34.3454 C   0  0  0  0  0  0  0  0  0  0  0  0
   10.4909   43.0336   35.0314 O   0  0  0  0  0  0  0  0  0  0  0  0
    8.8564   41.7110   34.0291 O   0  0  0  0  0  0  0  0  0  0  0  0
    9.4944   40.2146   34.4678 P   0  0  0  0  0  0  0  0  0  0  0  0
    9.7307   40.1730   36.1290 O   0  0  0  0  0  0  0  0  0  0  0  0
    8.7511   44.1360   33.7736 C   0  0  1  0  0  0  0  0  0  0  0  0
    9.2969   45.3832   34.3130 N   0  0  0  0  0  0  0  0  0  0  0  0
    8.8895   44.0553   32.2352 C   0  0  0  0  0  0  0  0  0  0  0  0
    8.2022   45.1857   31.4620 C   0  0  0  0  0  0  0  0  0  0  0  0
    6.6645   45.1062   31.4852 C   0  0  0  0  0  0  0  0  0  0  0  0
    6.0231   46.3216   30.8069 C   0  0  0  0  0  0  0  0  0  0  0  0
    6.4946   47.5657   31.4146 N   0  0  0  0  0  0  0  0  0  0  0  0
    7.2638   48.5255   30.6933 C   0  0  0  0  0  0  0  0  0  0  0  0
    7.7053   49.6762   31.3536 O   0  0  0  0  0  0  0  0  0  0  0  0
    7.5887   48.3115   29.4944 O   0  0  0  0  0  0  0  0  0  0  0  0
    8.6892   50.5602   30.8189 C   0  0  0  0  0  0  0  0  0  0  0  0
   10.0348   49.8721   30.7459 C   0  0  0  0  0  0  0  0  0  0  0  0
   10.5456   49.3001   31.9257 C   0  0  0  0  0  0  0  0  0  0  0  0
   10.8212   49.8338   29.5638 C   0  0  0  0  0  0  0  0  0  0  0  0
   11.8040   48.6975   31.9404 C   0  0  0  0  0  0  0  0  0  0  0  0
   12.0953   49.2427   29.6047 C   0  0  0  0  0  0  0  0  0  0  0  0
   10.3616   50.3918   28.3242 N   0  0  0  0  0  0  0  0  0  0  0  0
   12.5795   48.6726   30.7830 C   0  0  0  0  0  0  0  0  0  0  0  0
   11.2367   51.0995   27.5330 O   0  0  0  0  0  0  0  0  0  0  0  0
    9.2763   50.0186   27.8343 O   0  0  0  0  0  0  0  0  0  0  0  0
    8.5371   39.1390   34.0124 O   0  0  0  0  0  0  0  0  0  0  0  0
   10.9804   40.0881   33.6836 O   0  0  0  0  0  0  0  0  0  0  0  0
   10.8025   40.0900   32.2838 C   0  0  0  0  0  0  0  0  0  0  0  0
   11.5889   38.9174   31.7007 C   0  0  0  0  0  0  0  0  0  0  0  0
   12.9220   38.9373   32.1692 O   0  0  0  0  0  0  0  0  0  0  0  0
   11.0028   37.5682   32.0980 C   0  0  0  0  0  0  0  0  0  0  0  0
   13.3496   37.5885   32.2601 C   0  0  0  0  0  0  0  0  0  0  0  0
    9.9343   37.1823   31.2756 O   0  0  0  0  0  0  0  0  0  0  0  0
   12.1891   36.6677   31.9049 C   0  0  0  0  0  0  0  0  0  0  0  0
   13.8025   37.2965   33.6186 N   0  0  0  0  0  0  0  0  0  0  0  0
   12.2991   36.2867   30.5567 O   0  0  0  0  0  0  0  0  0  0  0  0
   14.7929   36.4725   33.9858 C   0  0  0  0  0  0  0  0  0  0  0  0
   13.2749   37.7294   34.7935 C   0  0  0  0  0  0  0  0  0  0  0  0
   15.6240   35.7580   33.1858 N   0  0  0  0  0  0  0  0  0  0  0  0
   14.8727   36.4411   35.3327 C   0  0  0  0  0  0  0  0  0  0  0  0
   13.9208   37.2263   35.8803 N   0  0  0  0  0  0  0  0  0  0  0  0
   16.5871   34.9921   33.7801 C   0  0  0  0  0  0  0  0  0  0  0  0
   15.8576   35.6718   35.9441 C   0  0  0  0  0  0  0  0  0  0  0  0
   16.7024   34.9584   35.1438 N   0  0  0  0  0  0  0  0  0  0  0  0
   16.0099   35.6384   37.3562 N   0  0  0  0  0  0  0  0  0  0  0  0
    7.6775   44.0721   34.0498 H   0  0  0  0  0  0  0  0  0  0  0  0
    9.1864   45.3819   35.3535 H   0  0  0  0  0  0  0  0  0  0  0  0
   10.3191   45.4438   34.0964 H   0  0  0  0  0  0  0  0  0  0  0  0
    8.4824   43.0877   31.8654 H   0  0  0  0  0  0  0  0  0  0  0  0
    9.9713   44.0718   31.9732 H   0  0  0  0  0  0  0  0  0  0  0  0
    8.5386   45.1418   30.4029 H   0  0  0  0  0  0  0  0  0  0  0  0
    8.5531   46.1547   31.8759 H   0  0  0  0  0  0  0  0  0  0  0  0
    6.3307   44.1799   30.9692 H   0  0  0  0  0  0  0  0  0  0  0  0
    6.3009   45.0672   32.5329 H   0  0  0  0  0  0  0  0  0  0  0  0
    4.9195   46.2618   30.9188 H   0  0  0  0  0  0  0  0  0  0  0  0
    6.2464   46.2887   29.7189 H   0  0  0  0  0  0  0  0  0  0  0  0
    6.2731   47.7508   32.4187 H   0  0  0  0  0  0  0  0  0  0  0  0
    8.3422   50.9638   29.8485 H   0  0  0  0  0  0  0  0  0  0  0  0
    8.7825   51.4283   31.5048 H   0  0  0  0  0  0  0  0  0  0  0  0
    9.9666   49.3252   32.8410 H   0  0  0  0  0  0  0  0  0  0  0  0
   12.1819   48.2567   32.8540 H   0  0  0  0  0  0  0  0  0  0  0  0
   12.7087   49.2082   28.7131 H   0  0  0  0  0  0  0  0  0  0  0  0
   13.5581   48.2104   30.7979 H   0  0  0  0  0  0  0  0  0  0  0  0
   11.2259   41.0357   31.8829 H   0  0  0  0  0  0  0  0  0  0  0  0
    9.7477   40.0332   31.9255 H   0  0  0  0  0  0  0  0  0  0  0  0
   11.5975   39.0148   30.5904 H   0  0  0  0  0  0  0  0  0  0  0  0
   10.7023   37.5456   33.1719 H   0  0  0  0  0  0  0  0  0  0  0  0
   14.1957   37.4366   31.5528 H   0  0  0  0  0  0  0  0  0  0  0  0
    9.1340   37.6658   31.6069 H   0  0  0  0  0  0  0  0  0  0  0  0
   12.1380   35.7717   32.5697 H   0  0  0  0  0  0  0  0  0  0  0  0
   11.7707   35.4530   30.4496 H   0  0  0  0  0  0  0  0  0  0  0  0
   12.4314   38.3980   34.8694 H   0  0  0  0  0  0  0  0  0  0  0  0
   17.2665   34.4140   33.1691 H   0  0  0  0  0  0  0  0  0  0  0  0
   15.3757   36.1868   37.9789 H   0  0  0  0  0  0  0  0  0  0  0  0
   16.7633   35.0598   37.7895 H   0  0  0  0  0  0  0  0  0  0  0  0
  1  2  2  0
  1  3  1  0
  3  4  1  0
  4  5  1  0
  6  1  1  0
  7  6  1  0
  6  8  1  0
  8  9  1  0
  9 10  1  0
 10 11  1  0
 11 12  1  0
 12 13  1  0
 13 14  1  0
 13 15  2  0
 14 16  1  0
 16 17  1  0
 17 18  2  0
 19 17  1  0
 18 20  1  0
 21 19  2  0
 19 22  1  0
 20 23  2  0
 23 21  1  0
 22 24  1  0
 22 25  2  0
  4 26  2  0
  4 27  1  0
 28 27  1  0
 28 29  1  0
 29 30  1  0
 29 31  1  0
 30 32  1  0
 31 33  1  0
 31 34  1  0
 34 32  1  0
 32 35  1  0
 34 36  1  0
 37 35  1  0
 38 35  1  0
 39 37  2  0
 37 40  1  0
 41 38  2  0
 42 39  1  0
 40 43  2  0
 40 41  1  0
 44 42  2  0
 44 43  1  0
 43 45  1  0
  6 46  1  6
  7 47  1  0
  7 48  1  0
  8 49  1  0
  8 50  1  0
  9 51  1  0
  9 52  1  0
 10 53  1  0
 10 54  1  0
 11 55  1  0
 11 56  1  0
 12 57  1  0
 16 58  1  0
 16 59  1  0
 18 60  1  0
 20 61  1  0
 21 62  1  0
 23 63  1  0
 28 64  1  0
 28 65  1  0
 29 66  1  0
 31 67  1  0
 32 68  1  0
 33 69  1  0
 34 70  1  0
 36 71  1  0
 38 72  1  0
 42 73  1  0
 45 74  1  0
 45 75  1  0
M  CHG  3   5  -1  22   1  24  -1
M  END
>  <EmbedRMS>  (422) 
0.0749391859718

$$$$

     RDKit          3D

 75 78  0  0  0  0  0  0  0  0999 V2000
    9.4326   42.9358   34.3464 C   0  0  0  0  0  0  0  0  0  0  0  0
   10.4901   43.0324   35.0321 O   0  0  0  0  0  0  0  0  0  0  0  0
    8.8559   41.7097   34.0295 O   0  0  0  0  0  0  0  0  0  0  0  0
    9.4944   40.2137   34.4680 P   0  0  0  0  0  0  0  0  0  0  0  0
    9.7309   40.1724   36.1291 O   0  0  0  0  0  0  0  0  0  0  0  0
    8.7498   44.1337   33.7744 C   0  0  1  0  0  0  0  0  0  0  0  0
    9.2952   45.3798   34.3145 N   0  0  0  0  0  0  0  0  0  0  0  0
    8.8904   44.0529   32.2363 C   0  0  0  0  0  0  0  0  0  0  0  0
    8.2048   45.1831   31.4625 C   0  0  0  0  0  0  0  0  0  0  0  0
    6.6675   45.1034   31.4825 C   0  0  0  0  0  0  0  0  0  0  0  0
    6.0294   46.3251   30.8137 C   0  0  0  0  0  0  0  0  0  0  0  0
    6.5152   47.5629   31.4242 N   0  0  0  0  0  0  0  0  0  0  0  0
    7.2311   48.5517   30.6736 C   0  0  0  0  0  0  0  0  0  0  0  0
    7.5580   49.8005   31.2227 O   0  0  0  0  0  0  0  0  0  0  0  0
    7.5927   48.3045   29.4938 O   0  0  0  0  0  0  0  0  0  0  0  0
    7.2124   50.2223   32.5428 C   0  0  0  0  0  0  0  0  0  0  0  0
    8.1417   49.6615   33.6062 C   0  0  0  0  0  0  0  0  0  0  0  0
    9.2905   48.9282   33.2363 C   0  0  0  0  0  0  0  0  0  0  0  0
    7.9327   49.9523   34.9833 C   0  0  0  0  0  0  0  0  0  0  0  0
   10.1973   48.4845   34.1987 C   0  0  0  0  0  0  0  0  0  0  0  0
    8.8625   49.4970   35.9343 C   0  0  0  0  0  0  0  0  0  0  0  0
    6.8154   50.7360   35.4371 N   0  0  0  0  0  0  0  0  0  0  0  0
    9.9813   48.7626   35.5449 C   0  0  0  0  0  0  0  0  0  0  0  0
    6.9704   51.5905   36.5044 O   0  0  0  0  0  0  0  0  0  0  0  0
    5.6632   50.5022   35.0200 O   0  0  0  0  0  0  0  0  0  0  0  0
    8.5372   39.1381   34.0126 O   0  0  0  0  0  0  0  0  0  0  0  0
   10.9802   40.0878   33.6835 O   0  0  0  0  0  0  0  0  0  0  0  0
   10.8020   40.0894   32.2837 C   0  0  0  0  0  0  0  0  0  0  0  0
   11.5900   38.9178   31.7006 C   0  0  0  0  0  0  0  0  0  0  0  0
   12.9224   38.9390   32.1711 O   0  0  0  0  0  0  0  0  0  0  0  0
   11.0052   37.5676   32.0966 C   0  0  0  0  0  0  0  0  0  0  0  0
   13.3518   37.5909   32.2610 C   0  0  0  0  0  0  0  0  0  0  0  0
    9.9381   37.1795   31.2732 O   0  0  0  0  0  0  0  0  0  0  0  0
   12.1912   36.6689   31.9042 C   0  0  0  0  0  0  0  0  0  0  0  0
   13.8027   37.2968   33.6192 N   0  0  0  0  0  0  0  0  0  0  0  0
   12.2877   36.2853   30.5567 O   0  0  0  0  0  0  0  0  0  0  0  0
   14.7928   36.4724   33.9861 C   0  0  0  0  0  0  0  0  0  0  0  0
   13.2751   37.7297   34.7941 C   0  0  0  0  0  0  0  0  0  0  0  0
   15.6239   35.7581   33.1859 N   0  0  0  0  0  0  0  0  0  0  0  0
   14.8726   36.4408   35.3329 C   0  0  0  0  0  0  0  0  0  0  0  0
   13.9209   37.2262   35.8807 N   0  0  0  0  0  0  0  0  0  0  0  0
   16.5871   34.9922   33.7801 C   0  0  0  0  0  0  0  0  0  0  0  0
   15.8576   35.6716   35.9442 C   0  0  0  0  0  0  0  0  0  0  0  0
   16.7024   34.9584   35.1438 N   0  0  0  0  0  0  0  0  0  0  0  0
   16.0101   35.6383   37.3563 N   0  0  0  0  0  0  0  0  0  0  0  0
    7.6760   44.0695   34.0497 H   0  0  0  0  0  0  0  0  0  0  0  0
   10.3201   45.4323   34.1102 H   0  0  0  0  0  0  0  0  0  0  0  0
    9.1724   45.3846   35.3536 H   0  0  0  0  0  0  0  0  0  0  0  0
    8.4837   43.0855   31.8658 H   0  0  0  0  0  0  0  0  0  0  0  0
    9.9726   44.0693   31.9760 H   0  0  0  0  0  0  0  0  0  0  0  0
    8.5557   46.1508   31.8787 H   0  0  0  0  0  0  0  0  0  0  0  0
    8.5433   45.1402   30.4041 H   0  0  0  0  0  0  0  0  0  0  0  0
    6.3020   45.0564   32.5293 H   0  0  0  0  0  0  0  0  0  0  0  0
    6.3338   44.1815   30.9586 H   0  0  0  0  0  0  0  0  0  0  0  0
    4.9266   46.2719   30.9370 H   0  0  0  0  0  0  0  0  0  0  0  0
    6.2415   46.2949   29.7235 H   0  0  0  0  0  0  0  0  0  0  0  0
    6.3246   47.7059   32.4402 H   0  0  0  0  0  0  0  0  0  0  0  0
    6.1573   49.9474   32.7394 H   0  0  0  0  0  0  0  0  0  0  0  0
    7.2776   51.3300   32.5788 H   0  0  0  0  0  0  0  0  0  0  0  0
    9.5119   48.7114   32.2007 H   0  0  0  0  0  0  0  0  0  0  0  0
   11.0752   47.9276   33.8973 H   0  0  0  0  0  0  0  0  0  0  0  0
    8.7155   49.7078   36.9861 H   0  0  0  0  0  0  0  0  0  0  0  0
   10.6870   48.4154   36.2885 H   0  0  0  0  0  0  0  0  0  0  0  0
    9.7472   40.0309   31.9256 H   0  0  0  0  0  0  0  0  0  0  0  0
   11.2239   41.0357   31.8826 H   0  0  0  0  0  0  0  0  0  0  0  0
   11.5999   39.0159   30.5904 H   0  0  0  0  0  0  0  0  0  0  0  0
   10.7034   37.5449   33.1702 H   0  0  0  0  0  0  0  0  0  0  0  0
   14.1993   37.4424   31.5548 H   0  0  0  0  0  0  0  0  0  0  0  0
    9.1370   37.6634   31.6023 H   0  0  0  0  0  0  0  0  0  0  0  0
   12.1204   35.7712   32.5636 H   0  0  0  0  0  0  0  0  0  0  0  0
   12.9457   35.5426   30.5221 H   0  0  0  0  0  0  0  0  0  0  0  0
   12.4322   38.3989   34.8700 H   0  0  0  0  0  0  0  0  0  0  0  0
   17.2665   34.4142   33.1690 H   0  0  0  0  0  0  0  0  0  0  0  0
   15.3758   36.1865   37.9790 H   0  0  0  0  0  0  0  0  0  0  0  0
   16.7636   35.0598   37.7895 H   0  0  0  0  0  0  0  0  0  0  0  0
  1  2  2  0
  1  3  1  0
  3  4  1  0
  4  5  1  0
  6  1  1  0
  7  6  1  0
  6  8  1  0
  8  9  1  0
  9 10  1  0
 10 11  1  0
 11 12  1  0
 12 13  1  0
 13 14  1  0
 13 15  2  0
 14 16  1  0
 16 17  1  0
 17 18  2  0
 19 17  1  0
 18 20  1  0
 21 19  2  0
 19 22  1  0
 20 23  2  0
 23 21  1  0
 22 24  1  0
 22 25  2  0
  4 26  2  0
  4 27  1  0
 28 27  1  0
 28 29  1  0
 29 30  1  0
 29 31  1  0
 30 32  1  0
 31 33  1  0
 31 34  1  0
 34 32  1  0
 32 35  1  0
 34 36  1  0
 37 35  1  0
 38 35  1  0
 39 37  2  0
 37 40  1  0
 41 38  2  0
 42 39  1  0
 40 43  2  0
 40 41  1  0
 44 42  2  0
 44 43  1  0
 43 45  1  0
  6 46  1  6
  7 47  1  0
  7 48  1  0
  8 49  1  0
  8 50  1  0
  9 51  1  0
  9 52  1  0
 10 53  1  0
 10 54  1  0
 11 55  1  0
 11 56  1  0
 12 57  1  0
 16 58  1  0
 16 59  1  0
 18 60  1  0
 20 61  1  0
 21 62  1  0
 23 63  1  0
 28 64  1  0
 28 65  1  0
 29 66  1  0
 31 67  1  0
 32 68  1  0
 33 69  1  0
 34 70  1  0
 36 71  1  0
 38 72  1  0
 42 73  1  0
 45 74  1  0
 45 75  1  0
M  CHG  3   5  -1  22   1  24  -1
M  END
>  <EmbedRMS>  (423) 
0.0737554349886

$$$$

     RDKit          3D

 75 78  0  0  0  0  0  0  0  0999 V2000
    9.4337   42.9375   34.3451 C   0  0  0  0  0  0  0  0  0  0  0  0
   10.4909   43.0337   35.0313 O   0  0  0  0  0  0  0  0  0  0  0  0
    8.8565   41.7112   34.0288 O   0  0  0  0  0  0  0  0  0  0  0  0
    9.4942   40.2146   34.4676 P   0  0  0  0  0  0  0  0  0  0  0  0
    9.7309   40.1729   36.1288 O   0  0  0  0  0  0  0  0  0  0  0  0
    8.7514   44.1365   33.7734 C   0  0  1  0  0  0  0  0  0  0  0  0
    9.2974   45.3836   34.3129 N   0  0  0  0  0  0  0  0  0  0  0  0
    8.8895   44.0563   32.2349 C   0  0  0  0  0  0  0  0  0  0  0  0
    8.2018   45.1870   31.4623 C   0  0  0  0  0  0  0  0  0  0  0  0
    6.6640   45.1067   31.4850 C   0  0  0  0  0  0  0  0  0  0  0  0
    6.0214   46.3211   30.8054 C   0  0  0  0  0  0  0  0  0  0  0  0
    6.4896   47.5663   31.4130 N   0  0  0  0  0  0  0  0  0  0  0  0
    7.2721   48.5193   30.6973 C   0  0  0  0  0  0  0  0  0  0  0  0
    7.7521   49.6455   31.3722 O   0  0  0  0  0  0  0  0  0  0  0  0
    7.5872   48.3123   29.4947 O   0  0  0  0  0  0  0  0  0  0  0  0
    8.8229   50.4526   30.8853 C   0  0  0  0  0  0  0  0  0  0  0  0
   10.1123   49.6611   30.8663 C   0  0  0  0  0  0  0  0  0  0  0  0
   10.5103   49.0185   32.0535 C   0  0  0  0  0  0  0  0  0  0  0  0
   10.9543   49.5873   29.7264 C   0  0  0  0  0  0  0  0  0  0  0  0
   11.7094   48.3074   32.1132 C   0  0  0  0  0  0  0  0  0  0  0  0
   12.1691   48.8851   29.8125 C   0  0  0  0  0  0  0  0  0  0  0  0
   10.6042   50.2158   28.4849 N   0  0  0  0  0  0  0  0  0  0  0  0
   12.5394   48.2440   30.9956 C   0  0  0  0  0  0  0  0  0  0  0  0
    9.4225   49.8917   27.8603 O   0  0  0  0  0  0  0  0  0  0  0  0
   11.4698   50.8473   27.8444 O   0  0  0  0  0  0  0  0  0  0  0  0
    8.5370   39.1388   34.0120 O   0  0  0  0  0  0  0  0  0  0  0  0
   10.9797   40.0871   33.6829 O   0  0  0  0  0  0  0  0  0  0  0  0
   10.8003   40.0906   32.2832 C   0  0  0  0  0  0  0  0  0  0  0  0
   11.5958   38.9271   31.6963 C   0  0  0  0  0  0  0  0  0  0  0  0
   12.9239   38.9409   32.1766 O   0  0  0  0  0  0  0  0  0  0  0  0
   11.0062   37.5719   32.0793 C   0  0  0  0  0  0  0  0  0  0  0  0
   13.3507   37.5905   32.2614 C   0  0  0  0  0  0  0  0  0  0  0  0
    9.9064   37.1793   31.2946 O   0  0  0  0  0  0  0  0  0  0  0  0
   12.1920   36.6672   31.9003 C   0  0  0  0  0  0  0  0  0  0  0  0
   13.8017   37.2948   33.6193 N   0  0  0  0  0  0  0  0  0  0  0  0
   12.3133   36.2788   30.5560 O   0  0  0  0  0  0  0  0  0  0  0  0
   14.7927   36.4717   33.9862 C   0  0  0  0  0  0  0  0  0  0  0  0
   13.2746   37.7284   34.7941 C   0  0  0  0  0  0  0  0  0  0  0  0
   15.6240   35.7576   33.1859 N   0  0  0  0  0  0  0  0  0  0  0  0
   14.8728   36.4406   35.3330 C   0  0  0  0  0  0  0  0  0  0  0  0
   13.9209   37.2258   35.8808 N   0  0  0  0  0  0  0  0  0  0  0  0
   16.5874   34.9920   33.7802 C   0  0  0  0  0  0  0  0  0  0  0  0
   15.8579   35.6716   35.9443 C   0  0  0  0  0  0  0  0  0  0  0  0
   16.7028   34.9584   35.1439 N   0  0  0  0  0  0  0  0  0  0  0  0
   16.0103   35.6383   37.3563 N   0  0  0  0  0  0  0  0  0  0  0  0
    7.6778   44.0727   34.0497 H   0  0  0  0  0  0  0  0  0  0  0  0
    9.1884   45.3818   35.3535 H   0  0  0  0  0  0  0  0  0  0  0  0
   10.3191   45.4451   34.0946 H   0  0  0  0  0  0  0  0  0  0  0  0
    9.9713   44.0733   31.9729 H   0  0  0  0  0  0  0  0  0  0  0  0
    8.4828   43.0887   31.8649 H   0  0  0  0  0  0  0  0  0  0  0  0
    8.5386   45.1441   30.4033 H   0  0  0  0  0  0  0  0  0  0  0  0
    8.5519   46.1559   31.8770 H   0  0  0  0  0  0  0  0  0  0  0  0
    6.3003   45.0683   32.5328 H   0  0  0  0  0  0  0  0  0  0  0  0
    6.3310   44.1797   30.9699 H   0  0  0  0  0  0  0  0  0  0  0  0
    6.2464   46.2882   29.7177 H   0  0  0  0  0  0  0  0  0  0  0  0
    4.9177   46.2594   30.9155 H   0  0  0  0  0  0  0  0  0  0  0  0
    6.2689   47.7499   32.4177 H   0  0  0  0  0  0  0  0  0  0  0  0
    8.9532   51.3090   31.5797 H   0  0  0  0  0  0  0  0  0  0  0  0
    8.5516   50.8815   29.9017 H   0  0  0  0  0  0  0  0  0  0  0  0
    9.8875   49.0693   32.9385 H   0  0  0  0  0  0  0  0  0  0  0  0
   11.9987   47.8112   33.0307 H   0  0  0  0  0  0  0  0  0  0  0  0
   12.8231   48.8206   28.9519 H   0  0  0  0  0  0  0  0  0  0  0  0
   13.4720   47.6970   31.0455 H   0  0  0  0  0  0  0  0  0  0  0  0
   11.2117   41.0420   31.8834 H   0  0  0  0  0  0  0  0  0  0  0  0
    9.7455   40.0169   31.9262 H   0  0  0  0  0  0  0  0  0  0  0  0
   11.6246   39.0449   30.5888 H   0  0  0  0  0  0  0  0  0  0  0  0
   10.7050   37.5580   33.1499 H   0  0  0  0  0  0  0  0  0  0  0  0
   14.1985   37.4426   31.5553 H   0  0  0  0  0  0  0  0  0  0  0  0
   10.0893   37.4057   30.3459 H   0  0  0  0  0  0  0  0  0  0  0  0
   12.1337   35.7754   32.5703 H   0  0  0  0  0  0  0  0  0  0  0  0
   11.7934   35.4394   30.4514 H   0  0  0  0  0  0  0  0  0  0  0  0
   12.4314   38.3973   34.8700 H   0  0  0  0  0  0  0  0  0  0  0  0
   17.2669   34.4142   33.1692 H   0  0  0  0  0  0  0  0  0  0  0  0
   15.3759   36.1865   37.9790 H   0  0  0  0  0  0  0  0  0  0  0  0
   16.7638   35.0599   37.7896 H   0  0  0  0  0  0  0  0  0  0  0  0
  1  2  2  0
  1  3  1  0
  3  4  1  0
  4  5  1  0
  6  1  1  0
  7  6  1  0
  6  8  1  0
  8  9  1  0
  9 10  1  0
 10 11  1  0
 11 12  1  0
 12 13  1  0
 13 14  1  0
 13 15  2  0
 14 16  1  0
 16 17  1  0
 17 18  2  0
 19 17  1  0
 18 20  1  0
 21 19  2  0
 19 22  1  0
 20 23  2  0
 23 21  1  0
 22 24  1  0
 22 25  2  0
  4 26  2  0
  4 27  1  0
 28 27  1  0
 28 29  1  0
 29 30  1  0
 29 31  1  0
 30 32  1  0
 31 33  1  0
 31 34  1  0
 34 32  1  0
 32 35  1  0
 34 36  1  0
 37 35  1  0
 38 35  1  0
 39 37  2  0
 37 40  1  0
 41 38  2  0
 42 39  1  0
 40 43  2  0
 40 41  1  0
 44 42  2  0
 44 43  1  0
 43 45  1  0
  6 46  1  6
  7 47  1  0
  7 48  1  0
  8 49  1  0
  8 50  1  0
  9 51  1  0
  9 52  1  0
 10 53  1  0
 10 54  1  0
 11 55  1  0
 11 56  1  0
 12 57  1  0
 16 58  1  0
 16 59  1  0
 18 60  1  0
 20 61  1  0
 21 62  1  0
 23 63  1  0
 28 64  1  0
 28 65  1  0
 29 66  1  0
 31 67  1  0
 32 68  1  0
 33 69  1  0
 34 70  1  0
 36 71  1  0
 38 72  1  0
 42 73  1  0
 45 74  1  0
 45 75  1  0
M  CHG  3   5  -1  22   1  24  -1
M  END
>  <EmbedRMS>  (424) 
0.0759191940102

$$$$

     RDKit          3D

 75 78  0  0  0  0  0  0  0  0999 V2000
    9.4312   42.9411   34.3437 C   0  0  0  0  0  0  0  0  0  0  0  0
   10.4885   43.0409   35.0294 O   0  0  0  0  0  0  0  0  0  0  0  0
    8.8562   41.7128   34.0288 O   0  0  0  0  0  0  0  0  0  0  0  0
    9.4946   40.2162   34.4678 P   0  0  0  0  0  0  0  0  0  0  0  0
    9.7311   40.1742   36.1290 O   0  0  0  0  0  0  0  0  0  0  0  0
    8.7484   44.1360   33.7721 C   0  0  1  0  0  0  0  0  0  0  0  0
    9.3039   45.3664   34.3388 N   0  0  0  0  0  0  0  0  0  0  0  0
    8.8892   44.0519   32.2308 C   0  0  0  0  0  0  0  0  0  0  0  0
    8.2015   45.1721   31.4435 C   0  0  0  0  0  0  0  0  0  0  0  0
    6.6643   45.1066   31.4887 C   0  0  0  0  0  0  0  0  0  0  0  0
    6.0267   46.3237   30.8123 C   0  0  0  0  0  0  0  0  0  0  0  0
    6.5081   47.5646   31.4190 N   0  0  0  0  0  0  0  0  0  0  0  0
    7.2423   48.5405   30.6826 C   0  0  0  0  0  0  0  0  0  0  0  0
    7.5858   49.7468   31.3026 O   0  0  0  0  0  0  0  0  0  0  0  0
    7.5941   48.3103   29.4938 O   0  0  0  0  0  0  0  0  0  0  0  0
    8.3076   50.7857   30.6426 C   0  0  0  0  0  0  0  0  0  0  0  0
    7.4446   51.4448   29.5897 C   0  0  0  0  0  0  0  0  0  0  0  0
    6.1759   51.9161   29.9728 C   0  0  0  0  0  0  0  0  0  0  0  0
    7.8441   51.5617   28.2323 C   0  0  0  0  0  0  0  0  0  0  0  0
    5.3004   52.4543   29.0285 C   0  0  0  0  0  0  0  0  0  0  0  0
    6.9410   52.0870   27.2927 C   0  0  0  0  0  0  0  0  0  0  0  0
    9.1548   51.1777   27.7913 N   0  0  0  0  0  0  0  0  0  0  0  0
    5.6785   52.5305   27.6892 C   0  0  0  0  0  0  0  0  0  0  0  0
    9.3116   50.5717   26.5661 O   0  0  0  0  0  0  0  0  0  0  0  0
   10.1647   51.6146   28.3806 O   0  0  0  0  0  0  0  0  0  0  0  0
    8.5374   39.1403   34.0128 O   0  0  0  0  0  0  0  0  0  0  0  0
   10.9803   40.0887   33.6834 O   0  0  0  0  0  0  0  0  0  0  0  0
   10.8020   40.0896   32.2836 C   0  0  0  0  0  0  0  0  0  0  0  0
   11.5900   38.9179   31.7007 C   0  0  0  0  0  0  0  0  0  0  0  0
   12.9224   38.9391   32.1711 O   0  0  0  0  0  0  0  0  0  0  0  0
   11.0051   37.5677   32.0967 C   0  0  0  0  0  0  0  0  0  0  0  0
   13.3518   37.5910   32.2610 C   0  0  0  0  0  0  0  0  0  0  0  0
    9.9381   37.1796   31.2733 O   0  0  0  0  0  0  0  0  0  0  0  0
   12.1912   36.6690   31.9043 C   0  0  0  0  0  0  0  0  0  0  0  0
   13.8027   37.2968   33.6192 N   0  0  0  0  0  0  0  0  0  0  0  0
   12.2877   36.2854   30.5568 O   0  0  0  0  0  0  0  0  0  0  0  0
   14.7928   36.4724   33.9861 C   0  0  0  0  0  0  0  0  0  0  0  0
   13.2751   37.7297   34.7941 C   0  0  0  0  0  0  0  0  0  0  0  0
   15.6239   35.7581   33.1859 N   0  0  0  0  0  0  0  0  0  0  0  0
   14.8726   36.4408   35.3329 C   0  0  0  0  0  0  0  0  0  0  0  0
   13.9209   37.2262   35.8807 N   0  0  0  0  0  0  0  0  0  0  0  0
   16.5870   34.9922   33.7801 C   0  0  0  0  0  0  0  0  0  0  0  0
   15.8576   35.6716   35.9442 C   0  0  0  0  0  0  0  0  0  0  0  0
   16.7024   34.9584   35.1438 N   0  0  0  0  0  0  0  0  0  0  0  0
   16.0101   35.6383   37.3563 N   0  0  0  0  0  0  0  0  0  0  0  0
    7.6764   44.0634   34.0547 H   0  0  0  0  0  0  0  0  0  0  0  0
    8.6468   46.1558   34.1431 H   0  0  0  0  0  0  0  0  0  0  0  0
   10.2152   45.5879   33.8747 H   0  0  0  0  0  0  0  0  0  0  0  0
    8.4830   43.0818   31.8666 H   0  0  0  0  0  0  0  0  0  0  0  0
    9.9708   44.0643   31.9679 H   0  0  0  0  0  0  0  0  0  0  0  0
    8.5714   46.1488   31.8173 H   0  0  0  0  0  0  0  0  0  0  0  0
    8.5198   45.0959   30.3807 H   0  0  0  0  0  0  0  0  0  0  0  0
    6.3142   45.0784   32.5413 H   0  0  0  0  0  0  0  0  0  0  0  0
    6.3147   44.1801   30.9835 H   0  0  0  0  0  0  0  0  0  0  0  0
    4.9233   46.2698   30.9300 H   0  0  0  0  0  0  0  0  0  0  0  0
    6.2448   46.2897   29.7232 H   0  0  0  0  0  0  0  0  0  0  0  0
    6.2850   47.7543   32.4220 H   0  0  0  0  0  0  0  0  0  0  0  0
    9.2444   50.3588   30.2336 H   0  0  0  0  0  0  0  0  0  0  0  0
    8.5907   51.5509   31.3954 H   0  0  0  0  0  0  0  0  0  0  0  0
    5.8560   51.8474   31.0055 H   0  0  0  0  0  0  0  0  0  0  0  0
    4.3231   52.8046   29.3349 H   0  0  0  0  0  0  0  0  0  0  0  0
    7.2267   52.1767   26.2522 H   0  0  0  0  0  0  0  0  0  0  0  0
    4.9959   52.9435   26.9576 H   0  0  0  0  0  0  0  0  0  0  0  0
   11.2238   41.0358   31.8821 H   0  0  0  0  0  0  0  0  0  0  0  0
    9.7471   40.0309   31.9256 H   0  0  0  0  0  0  0  0  0  0  0  0
   11.5999   39.0159   30.5905 H   0  0  0  0  0  0  0  0  0  0  0  0
   10.7034   37.5451   33.1703 H   0  0  0  0  0  0  0  0  0  0  0  0
   14.1992   37.4424   31.5548 H   0  0  0  0  0  0  0  0  0  0  0  0
    9.1370   37.6634   31.6025 H   0  0  0  0  0  0  0  0  0  0  0  0
   12.1204   35.7713   32.5637 H   0  0  0  0  0  0  0  0  0  0  0  0
   12.9456   35.5426   30.5221 H   0  0  0  0  0  0  0  0  0  0  0  0
   12.4322   38.3989   34.8700 H   0  0  0  0  0  0  0  0  0  0  0  0
   17.2664   34.4142   33.1690 H   0  0  0  0  0  0  0  0  0  0  0  0
   15.3759   36.1865   37.9790 H   0  0  0  0  0  0  0  0  0  0  0  0
   16.7636   35.0598   37.7895 H   0  0  0  0  0  0  0  0  0  0  0  0
  1  2  2  0
  1  3  1  0
  3  4  1  0
  4  5  1  0
  6  1  1  0
  7  6  1  0
  6  8  1  0
  8  9  1  0
  9 10  1  0
 10 11  1  0
 11 12  1  0
 12 13  1  0
 13 14  1  0
 13 15  2  0
 14 16  1  0
 16 17  1  0
 17 18  2  0
 19 17  1  0
 18 20  1  0
 21 19  2  0
 19 22  1  0
 20 23  2  0
 23 21  1  0
 22 24  1  0
 22 25  2  0
  4 26  2  0
  4 27  1  0
 28 27  1  0
 28 29  1  0
 29 30  1  0
 29 31  1  0
 30 32  1  0
 31 33  1  0
 31 34  1  0
 34 32  1  0
 32 35  1  0
 34 36  1  0
 37 35  1  0
 38 35  1  0
 39 37  2  0
 37 40  1  0
 41 38  2  0
 42 39  1  0
 40 43  2  0
 40 41  1  0
 44 42  2  0
 44 43  1  0
 43 45  1  0
  6 46  1  6
  7 47  1  0
  7 48  1  0
  8 49  1  0
  8 50  1  0
  9 51  1  0
  9 52  1  0
 10 53  1  0
 10 54  1  0
 11 55  1  0
 11 56  1  0
 12 57  1  0
 16 58  1  0
 16 59  1  0
 18 60  1  0
 20 61  1  0
 21 62  1  0
 23 63  1  0
 28 64  1  0
 28 65  1  0
 29 66  1  0
 31 67  1  0
 32 68  1  0
 33 69  1  0
 34 70  1  0
 36 71  1  0
 38 72  1  0
 42 73  1  0
 45 74  1  0
 45 75  1  0
M  CHG  3   5  -1  22   1  24  -1
M  END
>  <EmbedRMS>  (425) 
0.0732202727476

$$$$

     RDKit          3D

 75 78  0  0  0  0  0  0  0  0999 V2000
    9.4309   42.9414   34.3441 C   0  0  0  0  0  0  0  0  0  0  0  0
   10.4884   43.0412   35.0294 O   0  0  0  0  0  0  0  0  0  0  0  0
    8.8557   41.7130   34.0297 O   0  0  0  0  0  0  0  0  0  0  0  0
    9.4932   40.2163   34.4702 P   0  0  0  0  0  0  0  0  0  0  0  0
    9.7295   40.1743   36.1311 O   0  0  0  0  0  0  0  0  0  0  0  0
    8.7480   44.1363   33.7724 C   0  0  1  0  0  0  0  0  0  0  0  0
    9.3035   45.3670   34.3389 N   0  0  0  0  0  0  0  0  0  0  0  0
    8.8889   44.0519   32.2311 C   0  0  0  0  0  0  0  0  0  0  0  0
    8.2016   45.1723   31.4438 C   0  0  0  0  0  0  0  0  0  0  0  0
    6.6643   45.1058   31.4860 C   0  0  0  0  0  0  0  0  0  0  0  0
    6.0283   46.3240   30.8096 C   0  0  0  0  0  0  0  0  0  0  0  0
    6.5087   47.5626   31.4213 N   0  0  0  0  0  0  0  0  0  0  0  0
    7.2508   48.5409   30.6847 C   0  0  0  0  0  0  0  0  0  0  0  0
    7.6436   49.7560   31.2625 O   0  0  0  0  0  0  0  0  0  0  0  0
    7.5852   48.3098   29.4935 O   0  0  0  0  0  0  0  0  0  0  0  0
    7.4051   50.1353   32.6188 C   0  0  0  0  0  0  0  0  0  0  0  0
    5.9360   50.3924   32.8784 C   0  0  0  0  0  0  0  0  0  0  0  0
    5.1904   51.0859   31.9061 C   0  0  0  0  0  0  0  0  0  0  0  0
    5.3164   50.0595   34.1116 C   0  0  0  0  0  0  0  0  0  0  0  0
    3.8517   51.4107   32.1303 C   0  0  0  0  0  0  0  0  0  0  0  0
    3.9724   50.4094   34.3252 C   0  0  0  0  0  0  0  0  0  0  0  0
    6.0353   49.4037   35.1662 N   0  0  0  0  0  0  0  0  0  0  0  0
    3.2432   51.0719   33.3372 C   0  0  0  0  0  0  0  0  0  0  0  0
    6.5710   48.1540   34.9603 O   0  0  0  0  0  0  0  0  0  0  0  0
    5.9477   49.8353   36.3342 O   0  0  0  0  0  0  0  0  0  0  0  0
    8.5368   39.1400   34.0139 O   0  0  0  0  0  0  0  0  0  0  0  0
   10.9789   40.0875   33.6872 O   0  0  0  0  0  0  0  0  0  0  0  0
   10.7992   40.0946   32.2884 C   0  0  0  0  0  0  0  0  0  0  0  0
   11.5957   38.9352   31.6994 C   0  0  0  0  0  0  0  0  0  0  0  0
   12.9257   38.9478   32.1799 O   0  0  0  0  0  0  0  0  0  0  0  0
   11.0070   37.5758   32.0732 C   0  0  0  0  0  0  0  0  0  0  0  0
   13.3571   37.5980   32.2612 C   0  0  0  0  0  0  0  0  0  0  0  0
    9.9093   37.1808   31.2875 O   0  0  0  0  0  0  0  0  0  0  0  0
   12.1967   36.6764   31.8894 C   0  0  0  0  0  0  0  0  0  0  0  0
   13.8018   37.2956   33.6197 N   0  0  0  0  0  0  0  0  0  0  0  0
   12.3048   36.2360   30.5555 O   0  0  0  0  0  0  0  0  0  0  0  0
   14.7922   36.4716   33.9864 C   0  0  0  0  0  0  0  0  0  0  0  0
   13.2747   37.7291   34.7944 C   0  0  0  0  0  0  0  0  0  0  0  0
   15.6240   35.7582   33.1861 N   0  0  0  0  0  0  0  0  0  0  0  0
   14.8721   36.4402   35.3331 C   0  0  0  0  0  0  0  0  0  0  0  0
   13.9206   37.2257   35.8810 N   0  0  0  0  0  0  0  0  0  0  0  0
   16.5873   34.9924   33.7802 C   0  0  0  0  0  0  0  0  0  0  0  0
   15.8576   35.6714   35.9444 C   0  0  0  0  0  0  0  0  0  0  0  0
   16.7026   34.9585   35.1439 N   0  0  0  0  0  0  0  0  0  0  0  0
   16.0102   35.6383   37.3564 N   0  0  0  0  0  0  0  0  0  0  0  0
    7.6759   44.0641   34.0548 H   0  0  0  0  0  0  0  0  0  0  0  0
    8.6469   46.1565   34.1424 H   0  0  0  0  0  0  0  0  0  0  0  0
   10.2151   45.5881   33.8752 H   0  0  0  0  0  0  0  0  0  0  0  0
    9.9706   44.0641   31.9684 H   0  0  0  0  0  0  0  0  0  0  0  0
    8.4826   43.0819   31.8670 H   0  0  0  0  0  0  0  0  0  0  0  0
    8.5703   46.1488   31.8192 H   0  0  0  0  0  0  0  0  0  0  0  0
    8.5218   45.0973   30.3815 H   0  0  0  0  0  0  0  0  0  0  0  0
    6.3123   45.0761   32.5381 H   0  0  0  0  0  0  0  0  0  0  0  0
    6.3161   44.1799   30.9790 H   0  0  0  0  0  0  0  0  0  0  0  0
    6.2483   46.2916   29.7210 H   0  0  0  0  0  0  0  0  0  0  0  0
    4.9247   46.2701   30.9252 H   0  0  0  0  0  0  0  0  0  0  0  0
    6.2831   47.7197   32.4259 H   0  0  0  0  0  0  0  0  0  0  0  0
    7.9513   51.0827   32.8086 H   0  0  0  0  0  0  0  0  0  0  0  0
    7.8432   49.3748   33.2929 H   0  0  0  0  0  0  0  0  0  0  0  0
    5.6483   51.3832   30.9708 H   0  0  0  0  0  0  0  0  0  0  0  0
    3.2882   51.9364   31.3703 H   0  0  0  0  0  0  0  0  0  0  0  0
    3.4875   50.1607   35.2610 H   0  0  0  0  0  0  0  0  0  0  0  0
    2.2068   51.3307   33.5116 H   0  0  0  0  0  0  0  0  0  0  0  0
    9.7448   40.0201   31.9304 H   0  0  0  0  0  0  0  0  0  0  0  0
   11.2092   41.0481   31.8916 H   0  0  0  0  0  0  0  0  0  0  0  0
   11.6207   39.0685   30.5942 H   0  0  0  0  0  0  0  0  0  0  0  0
   10.7059   37.5565   33.1439 H   0  0  0  0  0  0  0  0  0  0  0  0
   14.2095   37.4543   31.5601 H   0  0  0  0  0  0  0  0  0  0  0  0
   10.0864   37.4210   30.3414 H   0  0  0  0  0  0  0  0  0  0  0  0
   12.1275   35.7873   32.5550 H   0  0  0  0  0  0  0  0  0  0  0  0
   12.5030   37.0109   29.9673 H   0  0  0  0  0  0  0  0  0  0  0  0
   12.4328   38.3996   34.8703 H   0  0  0  0  0  0  0  0  0  0  0  0
   17.2670   34.4149   33.1690 H   0  0  0  0  0  0  0  0  0  0  0  0
   16.7640   35.0601   37.7896 H   0  0  0  0  0  0  0  0  0  0  0  0
   15.3758   36.1862   37.9792 H   0  0  0  0  0  0  0  0  0  0  0  0
  1  2  2  0
  1  3  1  0
  3  4  1  0
  4  5  1  0
  6  1  1  0
  7  6  1  0
  6  8  1  0
  8  9  1  0
  9 10  1  0
 10 11  1  0
 11 12  1  0
 12 13  1  0
 13 14  1  0
 13 15  2  0
 14 16  1  0
 16 17  1  0
 17 18  2  0
 19 17  1  0
 18 20  1  0
 21 19  2  0
 19 22  1  0
 20 23  2  0
 23 21  1  0
 22 24  1  0
 22 25  2  0
  4 26  2  0
  4 27  1  0
 28 27  1  0
 28 29  1  0
 29 30  1  0
 29 31  1  0
 30 32  1  0
 31 33  1  0
 31 34  1  0
 34 32  1  0
 32 35  1  0
 34 36  1  0
 37 35  1  0
 38 35  1  0
 39 37  2  0
 37 40  1  0
 41 38  2  0
 42 39  1  0
 40 43  2  0
 40 41  1  0
 44 42  2  0
 44 43  1  0
 43 45  1  0
  6 46  1  6
  7 47  1  0
  7 48  1  0
  8 49  1  0
  8 50  1  0
  9 51  1  0
  9 52  1  0
 10 53  1  0
 10 54  1  0
 11 55  1  0
 11 56  1  0
 12 57  1  0
 16 58  1  0
 16 59  1  0
 18 60  1  0
 20 61  1  0
 21 62  1  0
 23 63  1  0
 28 64  1  0
 28 65  1  0
 29 66  1  0
 31 67  1  0
 32 68  1  0
 33 69  1  0
 34 70  1  0
 36 71  1  0
 38 72  1  0
 42 73  1  0
 45 74  1  0
 45 75  1  0
M  CHG  3   5  -1  22   1  24  -1
M  END
>  <EmbedRMS>  (426) 
0.0753984349596

$$$$

     RDKit          3D

 75 78  0  0  0  0  0  0  0  0999 V2000
    9.4300   42.9391   34.3431 C   0  0  0  0  0  0  0  0  0  0  0  0
   10.4909   43.0385   35.0236 O   0  0  0  0  0  0  0  0  0  0  0  0
    8.8552   41.7112   34.0284 O   0  0  0  0  0  0  0  0  0  0  0  0
    9.4945   40.2154   34.4677 P   0  0  0  0  0  0  0  0  0  0  0  0
    9.7309   40.1739   36.1289 O   0  0  0  0  0  0  0  0  0  0  0  0
    8.7408   44.1361   33.7774 C   0  0  1  0  0  0  0  0  0  0  0  0
    9.2996   45.3700   34.3306 N   0  0  0  0  0  0  0  0  0  0  0  0
    8.8969   44.0586   32.2390 C   0  0  0  0  0  0  0  0  0  0  0  0
    8.2038   45.1686   31.4392 C   0  0  0  0  0  0  0  0  0  0  0  0
    6.6666   45.1070   31.4913 C   0  0  0  0  0  0  0  0  0  0  0  0
    6.0297   46.3246   30.8151 C   0  0  0  0  0  0  0  0  0  0  0  0
    6.5108   47.5651   31.4241 N   0  0  0  0  0  0  0  0  0  0  0  0
    7.2287   48.5520   30.6737 C   0  0  0  0  0  0  0  0  0  0  0  0
    7.5270   49.8122   31.2089 O   0  0  0  0  0  0  0  0  0  0  0  0
    7.6015   48.2990   29.4986 O   0  0  0  0  0  0  0  0  0  0  0  0
    7.1392   50.2579   32.5079 C   0  0  0  0  0  0  0  0  0  0  0  0
    8.0185   49.6485   33.5777 C   0  0  0  0  0  0  0  0  0  0  0  0
    9.4108   49.6369   33.3742 C   0  0  0  0  0  0  0  0  0  0  0  0
    7.4925   49.0998   34.7772 C   0  0  0  0  0  0  0  0  0  0  0  0
   10.2647   49.0606   34.3157 C   0  0  0  0  0  0  0  0  0  0  0  0
    8.3669   48.5116   35.7065 C   0  0  0  0  0  0  0  0  0  0  0  0
    6.0914   49.1509   35.0842 N   0  0  0  0  0  0  0  0  0  0  0  0
    9.7435   48.4958   35.4781 C   0  0  0  0  0  0  0  0  0  0  0  0
    5.4929   48.0866   35.7182 O   0  0  0  0  0  0  0  0  0  0  0  0
    5.4729   50.2324   35.0080 O   0  0  0  0  0  0  0  0  0  0  0  0
    8.5377   39.1392   34.0127 O   0  0  0  0  0  0  0  0  0  0  0  0
   10.9805   40.0887   33.6835 O   0  0  0  0  0  0  0  0  0  0  0  0
   10.8025   40.0901   32.2837 C   0  0  0  0  0  0  0  0  0  0  0  0
   11.5888   38.9174   31.7007 C   0  0  0  0  0  0  0  0  0  0  0  0
   12.9219   38.9373   32.1692 O   0  0  0  0  0  0  0  0  0  0  0  0
   11.0028   37.5682   32.0981 C   0  0  0  0  0  0  0  0  0  0  0  0
   13.3496   37.5886   32.2601 C   0  0  0  0  0  0  0  0  0  0  0  0
    9.9343   37.1823   31.2756 O   0  0  0  0  0  0  0  0  0  0  0  0
   12.1891   36.6677   31.9050 C   0  0  0  0  0  0  0  0  0  0  0  0
   13.8025   37.2965   33.6186 N   0  0  0  0  0  0  0  0  0  0  0  0
   12.2990   36.2867   30.5568 O   0  0  0  0  0  0  0  0  0  0  0  0
   14.7929   36.4725   33.9858 C   0  0  0  0  0  0  0  0  0  0  0  0
   13.2749   37.7294   34.7935 C   0  0  0  0  0  0  0  0  0  0  0  0
   15.6240   35.7580   33.1858 N   0  0  0  0  0  0  0  0  0  0  0  0
   14.8727   36.4411   35.3327 C   0  0  0  0  0  0  0  0  0  0  0  0
   13.9208   37.2263   35.8803 N   0  0  0  0  0  0  0  0  0  0  0  0
   16.5871   34.9921   33.7801 C   0  0  0  0  0  0  0  0  0  0  0  0
   15.8576   35.6718   35.9441 C   0  0  0  0  0  0  0  0  0  0  0  0
   16.7024   34.9584   35.1438 N   0  0  0  0  0  0  0  0  0  0  0  0
   16.0099   35.6384   37.3562 N   0  0  0  0  0  0  0  0  0  0  0  0
    7.6663   44.0630   34.0530 H   0  0  0  0  0  0  0  0  0  0  0  0
    8.6819   46.1618   34.0431 H   0  0  0  0  0  0  0  0  0  0  0  0
    9.2184   45.3321   35.3733 H   0  0  0  0  0  0  0  0  0  0  0  0
    8.5093   43.0834   31.8680 H   0  0  0  0  0  0  0  0  0  0  0  0
    9.9817   44.0903   31.9914 H   0  0  0  0  0  0  0  0  0  0  0  0
    8.5157   45.0741   30.3760 H   0  0  0  0  0  0  0  0  0  0  0  0
    8.5791   46.1518   31.7889 H   0  0  0  0  0  0  0  0  0  0  0  0
    6.3203   45.0835   32.5452 H   0  0  0  0  0  0  0  0  0  0  0  0
    6.3127   44.1798   30.9906 H   0  0  0  0  0  0  0  0  0  0  0  0
    6.2464   46.2908   29.7258 H   0  0  0  0  0  0  0  0  0  0  0  0
    4.9265   46.2703   30.9338 H   0  0  0  0  0  0  0  0  0  0  0  0
    6.2901   47.7254   32.4310 H   0  0  0  0  0  0  0  0  0  0  0  0
    7.2702   51.3595   32.5465 H   0  0  0  0  0  0  0  0  0  0  0  0
    6.0603   50.0512   32.6540 H   0  0  0  0  0  0  0  0  0  0  0  0
    9.8372   50.0681   32.4767 H   0  0  0  0  0  0  0  0  0  0  0  0
   11.3330   49.0503   34.1422 H   0  0  0  0  0  0  0  0  0  0  0  0
    7.9816   48.0835   36.6233 H   0  0  0  0  0  0  0  0  0  0  0  0
   10.4072   48.0465   36.2054 H   0  0  0  0  0  0  0  0  0  0  0  0
   11.2257   41.0357   31.8825 H   0  0  0  0  0  0  0  0  0  0  0  0
    9.7476   40.0332   31.9255 H   0  0  0  0  0  0  0  0  0  0  0  0
   11.5975   39.0147   30.5905 H   0  0  0  0  0  0  0  0  0  0  0  0
   10.7023   37.5456   33.1720 H   0  0  0  0  0  0  0  0  0  0  0  0
   14.1957   37.4366   31.5528 H   0  0  0  0  0  0  0  0  0  0  0  0
    9.1339   37.6658   31.6069 H   0  0  0  0  0  0  0  0  0  0  0  0
   12.1380   35.7717   32.5698 H   0  0  0  0  0  0  0  0  0  0  0  0
   11.7707   35.4530   30.4496 H   0  0  0  0  0  0  0  0  0  0  0  0
   12.4314   38.3980   34.8694 H   0  0  0  0  0  0  0  0  0  0  0  0
   17.2665   34.4140   33.1691 H   0  0  0  0  0  0  0  0  0  0  0  0
   15.3757   36.1868   37.9789 H   0  0  0  0  0  0  0  0  0  0  0  0
   16.7634   35.0598   37.7895 H   0  0  0  0  0  0  0  0  0  0  0  0
  1  2  2  0
  1  3  1  0
  3  4  1  0
  4  5  1  0
  6  1  1  0
  7  6  1  0
  6  8  1  0
  8  9  1  0
  9 10  1  0
 10 11  1  0
 11 12  1  0
 12 13  1  0
 13 14  1  0
 13 15  2  0
 14 16  1  0
 16 17  1  0
 17 18  2  0
 19 17  1  0
 18 20  1  0
 21 19  2  0
 19 22  1  0
 20 23  2  0
 23 21  1  0
 22 24  1  0
 22 25  2  0
  4 26  2  0
  4 27  1  0
 28 27  1  0
 28 29  1  0
 29 30  1  0
 29 31  1  0
 30 32  1  0
 31 33  1  0
 31 34  1  0
 34 32  1  0
 32 35  1  0
 34 36  1  0
 37 35  1  0
 38 35  1  0
 39 37  2  0
 37 40  1  0
 41 38  2  0
 42 39  1  0
 40 43  2  0
 40 41  1  0
 44 42  2  0
 44 43  1  0
 43 45  1  0
  6 46  1  6
  7 47  1  0
  7 48  1  0
  8 49  1  0
  8 50  1  0
  9 51  1  0
  9 52  1  0
 10 53  1  0
 10 54  1  0
 11 55  1  0
 11 56  1  0
 12 57  1  0
 16 58  1  0
 16 59  1  0
 18 60  1  0
 20 61  1  0
 21 62  1  0
 23 63  1  0
 28 64  1  0
 28 65  1  0
 29 66  1  0
 31 67  1  0
 32 68  1  0
 33 69  1  0
 34 70  1  0
 36 71  1  0
 38 72  1  0
 42 73  1  0
 45 74  1  0
 45 75  1  0
M  CHG  3   5  -1  22   1  24  -1
M  END
>  <EmbedRMS>  (427) 
0.073410809818

$$$$

     RDKit          3D

 75 78  0  0  0  0  0  0  0  0999 V2000
    9.4331   42.9366   34.3462 C   0  0  0  0  0  0  0  0  0  0  0  0
   10.4906   43.0332   35.0318 O   0  0  0  0  0  0  0  0  0  0  0  0
    8.8562   41.7104   34.0296 O   0  0  0  0  0  0  0  0  0  0  0  0
    9.4945   40.2142   34.4680 P   0  0  0  0  0  0  0  0  0  0  0  0
    9.7309   40.1726   36.1291 O   0  0  0  0  0  0  0  0  0  0  0  0
    8.7504   44.1349   33.7739 C   0  0  1  0  0  0  0  0  0  0  0  0
    9.2960   45.3822   34.3131 N   0  0  0  0  0  0  0  0  0  0  0  0
    8.8892   44.0526   32.2356 C   0  0  0  0  0  0  0  0  0  0  0  0
    8.2032   45.1823   31.4610 C   0  0  0  0  0  0  0  0  0  0  0  0
    6.6657   45.1033   31.4817 C   0  0  0  0  0  0  0  0  0  0  0  0
    6.0276   46.3245   30.8115 C   0  0  0  0  0  0  0  0  0  0  0  0
    6.5106   47.5625   31.4231 N   0  0  0  0  0  0  0  0  0  0  0  0
    7.2372   48.5475   30.6789 C   0  0  0  0  0  0  0  0  0  0  0  0
    7.5829   49.7857   31.2372 O   0  0  0  0  0  0  0  0  0  0  0  0
    7.5953   48.3039   29.4971 O   0  0  0  0  0  0  0  0  0  0  0  0
    7.1732   50.2450   32.5251 C   0  0  0  0  0  0  0  0  0  0  0  0
    5.6847   50.5117   32.5600 C   0  0  0  0  0  0  0  0  0  0  0  0
    4.9123   49.8856   33.5559 C   0  0  0  0  0  0  0  0  0  0  0  0
    5.0396   51.3445   31.6043 C   0  0  0  0  0  0  0  0  0  0  0  0
    3.5275   50.0503   33.5933 C   0  0  0  0  0  0  0  0  0  0  0  0
    3.6410   51.4830   31.6515 C   0  0  0  0  0  0  0  0  0  0  0  0
    5.7706   52.0399   30.5777 N   0  0  0  0  0  0  0  0  0  0  0  0
    2.8924   50.8423   32.6394 C   0  0  0  0  0  0  0  0  0  0  0  0
    5.1690   52.3104   29.3701 O   0  0  0  0  0  0  0  0  0  0  0  0
    6.8823   52.5519   30.8210 O   0  0  0  0  0  0  0  0  0  0  0  0
    8.5372   39.1386   34.0125 O   0  0  0  0  0  0  0  0  0  0  0  0
   10.9804   40.0881   33.6837 O   0  0  0  0  0  0  0  0  0  0  0  0
   10.8025   40.0900   32.2839 C   0  0  0  0  0  0  0  0  0  0  0  0
   11.5888   38.9174   31.7007 C   0  0  0  0  0  0  0  0  0  0  0  0
   12.9219   38.9373   32.1692 O   0  0  0  0  0  0  0  0  0  0  0  0
   11.0028   37.5682   32.0980 C   0  0  0  0  0  0  0  0  0  0  0  0
   13.3496   37.5885   32.2601 C   0  0  0  0  0  0  0  0  0  0  0  0
    9.9343   37.1822   31.2756 O   0  0  0  0  0  0  0  0  0  0  0  0
   12.1891   36.6677   31.9049 C   0  0  0  0  0  0  0  0  0  0  0  0
   13.8025   37.2965   33.6186 N   0  0  0  0  0  0  0  0  0  0  0  0
   12.2991   36.2867   30.5567 O   0  0  0  0  0  0  0  0  0  0  0  0
   14.7929   36.4725   33.9858 C   0  0  0  0  0  0  0  0  0  0  0  0
   13.2749   37.7294   34.7935 C   0  0  0  0  0  0  0  0  0  0  0  0
   15.6240   35.7580   33.1858 N   0  0  0  0  0  0  0  0  0  0  0  0
   14.8727   36.4411   35.3327 C   0  0  0  0  0  0  0  0  0  0  0  0
   13.9208   37.2263   35.8803 N   0  0  0  0  0  0  0  0  0  0  0  0
   16.5871   34.9921   33.7801 C   0  0  0  0  0  0  0  0  0  0  0  0
   15.8576   35.6718   35.9441 C   0  0  0  0  0  0  0  0  0  0  0  0
   16.7024   34.9584   35.1438 N   0  0  0  0  0  0  0  0  0  0  0  0
   16.0099   35.6384   37.3562 N   0  0  0  0  0  0  0  0  0  0  0  0
    7.6767   44.0709   34.0501 H   0  0  0  0  0  0  0  0  0  0  0  0
   10.3189   45.4408   34.1001 H   0  0  0  0  0  0  0  0  0  0  0  0
    9.1820   45.3825   35.3532 H   0  0  0  0  0  0  0  0  0  0  0  0
    8.4814   43.0850   31.8667 H   0  0  0  0  0  0  0  0  0  0  0  0
    9.9711   44.0677   31.9740 H   0  0  0  0  0  0  0  0  0  0  0  0
    8.5545   46.1507   31.8754 H   0  0  0  0  0  0  0  0  0  0  0  0
    8.5409   45.1376   30.4024 H   0  0  0  0  0  0  0  0  0  0  0  0
    6.3316   44.1810   30.9589 H   0  0  0  0  0  0  0  0  0  0  0  0
    6.3005   45.0573   32.5286 H   0  0  0  0  0  0  0  0  0  0  0  0
    6.2420   46.2949   29.7217 H   0  0  0  0  0  0  0  0  0  0  0  0
    4.9245   46.2706   30.9323 H   0  0  0  0  0  0  0  0  0  0  0  0
    6.3129   47.7067   32.4365 H   0  0  0  0  0  0  0  0  0  0  0  0
    7.7121   51.1861   32.7581 H   0  0  0  0  0  0  0  0  0  0  0  0
    7.4872   49.5120   33.2995 H   0  0  0  0  0  0  0  0  0  0  0  0
    5.3810   49.2551   34.3014 H   0  0  0  0  0  0  0  0  0  0  0  0
    2.9448   49.5574   34.3608 H   0  0  0  0  0  0  0  0  0  0  0  0
    3.1278   52.1058   30.9298 H   0  0  0  0  0  0  0  0  0  0  0  0
    1.8174   50.9651   32.6683 H   0  0  0  0  0  0  0  0  0  0  0  0
   11.2258   41.0357   31.8830 H   0  0  0  0  0  0  0  0  0  0  0  0
    9.7476   40.0331   31.9256 H   0  0  0  0  0  0  0  0  0  0  0  0
   11.5974   39.0148   30.5904 H   0  0  0  0  0  0  0  0  0  0  0  0
   10.7023   37.5455   33.1719 H   0  0  0  0  0  0  0  0  0  0  0  0
   14.1957   37.4366   31.5528 H   0  0  0  0  0  0  0  0  0  0  0  0
    9.1339   37.6658   31.6069 H   0  0  0  0  0  0  0  0  0  0  0  0
   12.1381   35.7717   32.5697 H   0  0  0  0  0  0  0  0  0  0  0  0
   11.7707   35.4530   30.4496 H   0  0  0  0  0  0  0  0  0  0  0  0
   12.4314   38.3980   34.8694 H   0  0  0  0  0  0  0  0  0  0  0  0
   17.2665   34.4140   33.1691 H   0  0  0  0  0  0  0  0  0  0  0  0
   16.7633   35.0598   37.7895 H   0  0  0  0  0  0  0  0  0  0  0  0
   15.3757   36.1868   37.9789 H   0  0  0  0  0  0  0  0  0  0  0  0
  1  2  2  0
  1  3  1  0
  3  4  1  0
  4  5  1  0
  6  1  1  0
  7  6  1  0
  6  8  1  0
  8  9  1  0
  9 10  1  0
 10 11  1  0
 11 12  1  0
 12 13  1  0
 13 14  1  0
 13 15  2  0
 14 16  1  0
 16 17  1  0
 17 18  2  0
 19 17  1  0
 18 20  1  0
 21 19  2  0
 19 22  1  0
 20 23  2  0
 23 21  1  0
 22 24  1  0
 22 25  2  0
  4 26  2  0
  4 27  1  0
 28 27  1  0
 28 29  1  0
 29 30  1  0
 29 31  1  0
 30 32  1  0
 31 33  1  0
 31 34  1  0
 34 32  1  0
 32 35  1  0
 34 36  1  0
 37 35  1  0
 38 35  1  0
 39 37  2  0
 37 40  1  0
 41 38  2  0
 42 39  1  0
 40 43  2  0
 40 41  1  0
 44 42  2  0
 44 43  1  0
 43 45  1  0
  6 46  1  6
  7 47  1  0
  7 48  1  0
  8 49  1  0
  8 50  1  0
  9 51  1  0
  9 52  1  0
 10 53  1  0
 10 54  1  0
 11 55  1  0
 11 56  1  0
 12 57  1  0
 16 58  1  0
 16 59  1  0
 18 60  1  0
 20 61  1  0
 21 62  1  0
 23 63  1  0
 28 64  1  0
 28 65  1  0
 29 66  1  0
 31 67  1  0
 32 68  1  0
 33 69  1  0
 34 70  1  0
 36 71  1  0
 38 72  1  0
 42 73  1  0
 45 74  1  0
 45 75  1  0
M  CHG  3   5  -1  22   1  24  -1
M  END
>  <EmbedRMS>  (428) 
0.0739602009674

$$$$

     RDKit          3D

 75 78  0  0  0  0  0  0  0  0999 V2000
    9.4312   42.9415   34.3439 C   0  0  0  0  0  0  0  0  0  0  0  0
   10.4886   43.0413   35.0294 O   0  0  0  0  0  0  0  0  0  0  0  0
    8.8558   41.7132   34.0297 O   0  0  0  0  0  0  0  0  0  0  0  0
    9.4933   40.2166   34.4707 P   0  0  0  0  0  0  0  0  0  0  0  0
    9.7290   40.1746   36.1316 O   0  0  0  0  0  0  0  0  0  0  0  0
    8.7485   44.1365   33.7721 C   0  0  1  0  0  0  0  0  0  0  0  0
    9.3042   45.3671   34.3387 N   0  0  0  0  0  0  0  0  0  0  0  0
    8.8892   44.0525   32.2308 C   0  0  0  0  0  0  0  0  0  0  0  0
    8.2012   45.1729   31.4438 C   0  0  0  0  0  0  0  0  0  0  0  0
    6.6639   45.1067   31.4884 C   0  0  0  0  0  0  0  0  0  0  0  0
    6.0254   46.3229   30.8107 C   0  0  0  0  0  0  0  0  0  0  0  0
    6.5043   47.5644   31.4176 N   0  0  0  0  0  0  0  0  0  0  0  0
    7.2514   48.5348   30.6869 C   0  0  0  0  0  0  0  0  0  0  0  0
    7.6365   49.7169   31.3239 O   0  0  0  0  0  0  0  0  0  0  0  0
    7.5904   48.3130   29.4929 O   0  0  0  0  0  0  0  0  0  0  0  0
    8.4402   50.7063   30.6902 C   0  0  0  0  0  0  0  0  0  0  0  0
    8.7474   51.8072   31.6719 C   0  0  0  0  0  0  0  0  0  0  0  0
    8.0083   53.0018   31.5936 C   0  0  0  0  0  0  0  0  0  0  0  0
    9.7714   51.6862   32.6517 C   0  0  0  0  0  0  0  0  0  0  0  0
    8.2826   54.0669   32.4520 C   0  0  0  0  0  0  0  0  0  0  0  0
   10.0404   52.7790   33.4957 C   0  0  0  0  0  0  0  0  0  0  0  0
   10.5590   50.4888   32.7957 N   0  0  0  0  0  0  0  0  0  0  0  0
    9.2994   53.9574   33.3979 C   0  0  0  0  0  0  0  0  0  0  0  0
   11.8458   50.5679   33.2769 O   0  0  0  0  0  0  0  0  0  0  0  0
   10.0448   49.3615   32.6479 O   0  0  0  0  0  0  0  0  0  0  0  0
    8.5368   39.1405   34.0143 O   0  0  0  0  0  0  0  0  0  0  0  0
   10.9795   40.0883   33.6888 O   0  0  0  0  0  0  0  0  0  0  0  0
   10.8017   40.0949   32.2900 C   0  0  0  0  0  0  0  0  0  0  0  0
   11.5885   38.9267   31.7042 C   0  0  0  0  0  0  0  0  0  0  0  0
   12.9237   38.9445   32.1722 O   0  0  0  0  0  0  0  0  0  0  0  0
   11.0029   37.5726   32.0908 C   0  0  0  0  0  0  0  0  0  0  0  0
   13.3555   37.5960   32.2595 C   0  0  0  0  0  0  0  0  0  0  0  0
    9.9379   37.1847   31.2657 O   0  0  0  0  0  0  0  0  0  0  0  0
   12.1931   36.6769   31.8952 C   0  0  0  0  0  0  0  0  0  0  0  0
   13.8028   37.2977   33.6186 N   0  0  0  0  0  0  0  0  0  0  0  0
   12.2918   36.2396   30.5587 O   0  0  0  0  0  0  0  0  0  0  0  0
   14.7926   36.4727   33.9858 C   0  0  0  0  0  0  0  0  0  0  0  0
   13.2750   37.7302   34.7935 C   0  0  0  0  0  0  0  0  0  0  0  0
   15.6241   35.7586   33.1857 N   0  0  0  0  0  0  0  0  0  0  0  0
   14.8721   36.4408   35.3326 C   0  0  0  0  0  0  0  0  0  0  0  0
   13.9204   37.2263   35.8802 N   0  0  0  0  0  0  0  0  0  0  0  0
   16.5870   34.9924   33.7800 C   0  0  0  0  0  0  0  0  0  0  0  0
   15.8572   35.6717   35.9441 C   0  0  0  0  0  0  0  0  0  0  0  0
   16.7022   34.9585   35.1437 N   0  0  0  0  0  0  0  0  0  0  0  0
   16.0097   35.6384   37.3561 N   0  0  0  0  0  0  0  0  0  0  0  0
    7.6765   44.0642   34.0547 H   0  0  0  0  0  0  0  0  0  0  0  0
    8.6472   46.1566   34.1432 H   0  0  0  0  0  0  0  0  0  0  0  0
   10.2153   45.5888   33.8743 H   0  0  0  0  0  0  0  0  0  0  0  0
    9.9708   44.0651   31.9679 H   0  0  0  0  0  0  0  0  0  0  0  0
    8.4831   43.0824   31.8666 H   0  0  0  0  0  0  0  0  0  0  0  0
    8.5704   46.1497   31.8182 H   0  0  0  0  0  0  0  0  0  0  0  0
    8.5200   45.0974   30.3811 H   0  0  0  0  0  0  0  0  0  0  0  0
    6.3135   45.0789   32.5410 H   0  0  0  0  0  0  0  0  0  0  0  0
    6.3152   44.1796   30.9838 H   0  0  0  0  0  0  0  0  0  0  0  0
    6.2453   46.2889   29.7220 H   0  0  0  0  0  0  0  0  0  0  0  0
    4.9220   46.2676   30.9268 H   0  0  0  0  0  0  0  0  0  0  0  0
    6.2843   47.7513   32.4218 H   0  0  0  0  0  0  0  0  0  0  0  0
    9.3847   50.2588   30.3118 H   0  0  0  0  0  0  0  0  0  0  0  0
    7.8921   51.1068   29.8090 H   0  0  0  0  0  0  0  0  0  0  0  0
    7.2182   53.1128   30.8609 H   0  0  0  0  0  0  0  0  0  0  0  0
    7.7079   54.9813   32.3799 H   0  0  0  0  0  0  0  0  0  0  0  0
   10.8180   52.7132   34.2460 H   0  0  0  0  0  0  0  0  0  0  0  0
    9.5125   54.7866   34.0602 H   0  0  0  0  0  0  0  0  0  0  0  0
    9.7472   40.0378   31.9304 H   0  0  0  0  0  0  0  0  0  0  0  0
   11.2240   41.0428   31.8929 H   0  0  0  0  0  0  0  0  0  0  0  0
   11.5927   39.0434   30.5966 H   0  0  0  0  0  0  0  0  0  0  0  0
   10.7003   37.5444   33.1641 H   0  0  0  0  0  0  0  0  0  0  0  0
   14.2051   37.4477   31.5560 H   0  0  0  0  0  0  0  0  0  0  0  0
    9.1373   37.6722   31.5906 H   0  0  0  0  0  0  0  0  0  0  0  0
   12.1305   35.7856   32.5586 H   0  0  0  0  0  0  0  0  0  0  0  0
   12.4606   37.0186   29.9674 H   0  0  0  0  0  0  0  0  0  0  0  0
   12.4327   38.4001   34.8694 H   0  0  0  0  0  0  0  0  0  0  0  0
   17.2666   34.4146   33.1690 H   0  0  0  0  0  0  0  0  0  0  0  0
   16.7634   35.0601   37.7894 H   0  0  0  0  0  0  0  0  0  0  0  0
   15.3754   36.1866   37.9788 H   0  0  0  0  0  0  0  0  0  0  0  0
  1  2  2  0
  1  3  1  0
  3  4  1  0
  4  5  1  0
  6  1  1  0
  7  6  1  0
  6  8  1  0
  8  9  1  0
  9 10  1  0
 10 11  1  0
 11 12  1  0
 12 13  1  0
 13 14  1  0
 13 15  2  0
 14 16  1  0
 16 17  1  0
 17 18  2  0
 19 17  1  0
 18 20  1  0
 21 19  2  0
 19 22  1  0
 20 23  2  0
 23 21  1  0
 22 24  1  0
 22 25  2  0
  4 26  2  0
  4 27  1  0
 28 27  1  0
 28 29  1  0
 29 30  1  0
 29 31  1  0
 30 32  1  0
 31 33  1  0
 31 34  1  0
 34 32  1  0
 32 35  1  0
 34 36  1  0
 37 35  1  0
 38 35  1  0
 39 37  2  0
 37 40  1  0
 41 38  2  0
 42 39  1  0
 40 43  2  0
 40 41  1  0
 44 42  2  0
 44 43  1  0
 43 45  1  0
  6 46  1  6
  7 47  1  0
  7 48  1  0
  8 49  1  0
  8 50  1  0
  9 51  1  0
  9 52  1  0
 10 53  1  0
 10 54  1  0
 11 55  1  0
 11 56  1  0
 12 57  1  0
 16 58  1  0
 16 59  1  0
 18 60  1  0
 20 61  1  0
 21 62  1  0
 23 63  1  0
 28 64  1  0
 28 65  1  0
 29 66  1  0
 31 67  1  0
 32 68  1  0
 33 69  1  0
 34 70  1  0
 36 71  1  0
 38 72  1  0
 42 73  1  0
 45 74  1  0
 45 75  1  0
M  CHG  3   5  -1  22   1  24  -1
M  END
>  <EmbedRMS>  (429) 
0.0750892912845

$$$$

     RDKit          3D

 75 78  0  0  0  0  0  0  0  0999 V2000
    9.4310   42.9413   34.3437 C   0  0  0  0  0  0  0  0  0  0  0  0
   10.4884   43.0412   35.0293 O   0  0  0  0  0  0  0  0  0  0  0  0
    8.8561   41.7129   34.0288 O   0  0  0  0  0  0  0  0  0  0  0  0
    9.4947   40.2164   34.4679 P   0  0  0  0  0  0  0  0  0  0  0  0
    9.7311   40.1742   36.1290 O   0  0  0  0  0  0  0  0  0  0  0  0
    8.7481   44.1361   33.7720 C   0  0  1  0  0  0  0  0  0  0  0  0
    9.3033   45.3668   34.3386 N   0  0  0  0  0  0  0  0  0  0  0  0
    8.8891   44.0518   32.2307 C   0  0  0  0  0  0  0  0  0  0  0  0
    8.2018   45.1721   31.4431 C   0  0  0  0  0  0  0  0  0  0  0  0
    6.6645   45.1052   31.4848 C   0  0  0  0  0  0  0  0  0  0  0  0
    6.0271   46.3253   30.8128 C   0  0  0  0  0  0  0  0  0  0  0  0
    6.5117   47.5629   31.4237 N   0  0  0  0  0  0  0  0  0  0  0  0
    7.2394   48.5469   30.6794 C   0  0  0  0  0  0  0  0  0  0  0  0
    7.5917   49.7824   31.2395 O   0  0  0  0  0  0  0  0  0  0  0  0
    7.5939   48.3042   29.4964 O   0  0  0  0  0  0  0  0  0  0  0  0
    7.1963   50.2355   32.5339 C   0  0  0  0  0  0  0  0  0  0  0  0
    5.7090   50.5050   32.5865 C   0  0  0  0  0  0  0  0  0  0  0  0
    4.9486   49.8893   33.5980 C   0  0  0  0  0  0  0  0  0  0  0  0
    5.0539   51.3287   31.6317 C   0  0  0  0  0  0  0  0  0  0  0  0
    3.5647   50.0575   33.6523 C   0  0  0  0  0  0  0  0  0  0  0  0
    3.6555   51.4721   31.6963 C   0  0  0  0  0  0  0  0  0  0  0  0
    5.7785   52.0106   30.5917 N   0  0  0  0  0  0  0  0  0  0  0  0
    2.9187   50.8424   32.6999 C   0  0  0  0  0  0  0  0  0  0  0  0
    6.9908   52.6045   30.8547 O   0  0  0  0  0  0  0  0  0  0  0  0
    5.2401   52.2129   29.4836 O   0  0  0  0  0  0  0  0  0  0  0  0
    8.5375   39.1404   34.0127 O   0  0  0  0  0  0  0  0  0  0  0  0
   10.9805   40.0889   33.6836 O   0  0  0  0  0  0  0  0  0  0  0  0
   10.8025   40.0902   32.2837 C   0  0  0  0  0  0  0  0  0  0  0  0
   11.5888   38.9175   31.7008 C   0  0  0  0  0  0  0  0  0  0  0  0
   12.9219   38.9373   32.1692 O   0  0  0  0  0  0  0  0  0  0  0  0
   11.0028   37.5683   32.0981 C   0  0  0  0  0  0  0  0  0  0  0  0
   13.3496   37.5886   32.2601 C   0  0  0  0  0  0  0  0  0  0  0  0
    9.9343   37.1823   31.2757 O   0  0  0  0  0  0  0  0  0  0  0  0
   12.1891   36.6677   31.9050 C   0  0  0  0  0  0  0  0  0  0  0  0
   13.8025   37.2965   33.6186 N   0  0  0  0  0  0  0  0  0  0  0  0
   12.2990   36.2868   30.5568 O   0  0  0  0  0  0  0  0  0  0  0  0
   14.7929   36.4725   33.9858 C   0  0  0  0  0  0  0  0  0  0  0  0
   13.2749   37.7294   34.7935 C   0  0  0  0  0  0  0  0  0  0  0  0
   15.6240   35.7580   33.1858 N   0  0  0  0  0  0  0  0  0  0  0  0
   14.8727   36.4411   35.3327 C   0  0  0  0  0  0  0  0  0  0  0  0
   13.9208   37.2263   35.8803 N   0  0  0  0  0  0  0  0  0  0  0  0
   16.5871   34.9921   33.7801 C   0  0  0  0  0  0  0  0  0  0  0  0
   15.8576   35.6718   35.9441 C   0  0  0  0  0  0  0  0  0  0  0  0
   16.7024   34.9584   35.1438 N   0  0  0  0  0  0  0  0  0  0  0  0
   16.0099   35.6384   37.3562 N   0  0  0  0  0  0  0  0  0  0  0  0
    7.6760   44.0636   34.0544 H   0  0  0  0  0  0  0  0  0  0  0  0
    8.6458   46.1560   34.1436 H   0  0  0  0  0  0  0  0  0  0  0  0
   10.2143   45.5888   33.8741 H   0  0  0  0  0  0  0  0  0  0  0  0
    8.4828   43.0817   31.8665 H   0  0  0  0  0  0  0  0  0  0  0  0
    9.9707   44.0640   31.9680 H   0  0  0  0  0  0  0  0  0  0  0  0
    8.5222   45.0973   30.3808 H   0  0  0  0  0  0  0  0  0  0  0  0
    8.5705   46.1485   31.8186 H   0  0  0  0  0  0  0  0  0  0  0  0
    6.3166   44.1808   30.9747 H   0  0  0  0  0  0  0  0  0  0  0  0
    6.3124   45.0714   32.5367 H   0  0  0  0  0  0  0  0  0  0  0  0
    6.2409   46.2945   29.7229 H   0  0  0  0  0  0  0  0  0  0  0  0
    4.9241   46.2726   30.9347 H   0  0  0  0  0  0  0  0  0  0  0  0
    6.3148   47.7074   32.4373 H   0  0  0  0  0  0  0  0  0  0  0  0
    7.5167   49.4973   33.3010 H   0  0  0  0  0  0  0  0  0  0  0  0
    7.7395   51.1738   32.7671 H   0  0  0  0  0  0  0  0  0  0  0  0
    5.4260   49.2642   34.3426 H   0  0  0  0  0  0  0  0  0  0  0  0
    2.9913   49.5727   34.4319 H   0  0  0  0  0  0  0  0  0  0  0  0
    3.1348   52.0894   30.9751 H   0  0  0  0  0  0  0  0  0  0  0  0
    1.8445   50.9682   32.7421 H   0  0  0  0  0  0  0  0  0  0  0  0
    9.7476   40.0332   31.9256 H   0  0  0  0  0  0  0  0  0  0  0  0
   11.2257   41.0358   31.8824 H   0  0  0  0  0  0  0  0  0  0  0  0
   11.5975   39.0148   30.5905 H   0  0  0  0  0  0  0  0  0  0  0  0
   10.7023   37.5457   33.1720 H   0  0  0  0  0  0  0  0  0  0  0  0
   14.1957   37.4366   31.5528 H   0  0  0  0  0  0  0  0  0  0  0  0
    9.1339   37.6659   31.6070 H   0  0  0  0  0  0  0  0  0  0  0  0
   12.1380   35.7717   32.5698 H   0  0  0  0  0  0  0  0  0  0  0  0
   11.7706   35.4530   30.4496 H   0  0  0  0  0  0  0  0  0  0  0  0
   12.4314   38.3980   34.8694 H   0  0  0  0  0  0  0  0  0  0  0  0
   17.2665   34.4140   33.1691 H   0  0  0  0  0  0  0  0  0  0  0  0
   15.3757   36.1867   37.9789 H   0  0  0  0  0  0  0  0  0  0  0  0
   16.7634   35.0598   37.7895 H   0  0  0  0  0  0  0  0  0  0  0  0
  1  2  2  0
  1  3  1  0
  3  4  1  0
  4  5  1  0
  6  1  1  0
  7  6  1  0
  6  8  1  0
  8  9  1  0
  9 10  1  0
 10 11  1  0
 11 12  1  0
 12 13  1  0
 13 14  1  0
 13 15  2  0
 14 16  1  0
 16 17  1  0
 17 18  2  0
 19 17  1  0
 18 20  1  0
 21 19  2  0
 19 22  1  0
 20 23  2  0
 23 21  1  0
 22 24  1  0
 22 25  2  0
  4 26  2  0
  4 27  1  0
 28 27  1  0
 28 29  1  0
 29 30  1  0
 29 31  1  0
 30 32  1  0
 31 33  1  0
 31 34  1  0
 34 32  1  0
 32 35  1  0
 34 36  1  0
 37 35  1  0
 38 35  1  0
 39 37  2  0
 37 40  1  0
 41 38  2  0
 42 39  1  0
 40 43  2  0
 40 41  1  0
 44 42  2  0
 44 43  1  0
 43 45  1  0
  6 46  1  6
  7 47  1  0
  7 48  1  0
  8 49  1  0
  8 50  1  0
  9 51  1  0
  9 52  1  0
 10 53  1  0
 10 54  1  0
 11 55  1  0
 11 56  1  0
 12 57  1  0
 16 58  1  0
 16 59  1  0
 18 60  1  0
 20 61  1  0
 21 62  1  0
 23 63  1  0
 28 64  1  0
 28 65  1  0
 29 66  1  0
 31 67  1  0
 32 68  1  0
 33 69  1  0
 34 70  1  0
 36 71  1  0
 38 72  1  0
 42 73  1  0
 45 74  1  0
 45 75  1  0
M  CHG  3   5  -1  22   1  24  -1
M  END
>  <EmbedRMS>  (430) 
0.073141677764

$$$$

     RDKit          3D

 75 78  0  0  0  0  0  0  0  0999 V2000
    9.4332   42.9364   34.3461 C   0  0  0  0  0  0  0  0  0  0  0  0
   10.4907   43.0329   35.0318 O   0  0  0  0  0  0  0  0  0  0  0  0
    8.8562   41.7102   34.0295 O   0  0  0  0  0  0  0  0  0  0  0  0
    9.4942   40.2139   34.4678 P   0  0  0  0  0  0  0  0  0  0  0  0
    9.7311   40.1724   36.1289 O   0  0  0  0  0  0  0  0  0  0  0  0
    8.7506   44.1347   33.7741 C   0  0  1  0  0  0  0  0  0  0  0  0
    9.2963   45.3819   34.3133 N   0  0  0  0  0  0  0  0  0  0  0  0
    8.8893   44.0527   32.2358 C   0  0  0  0  0  0  0  0  0  0  0  0
    8.2029   45.1822   31.4614 C   0  0  0  0  0  0  0  0  0  0  0  0
    6.6654   45.1046   31.4854 C   0  0  0  0  0  0  0  0  0  0  0  0
    6.0272   46.3228   30.8107 C   0  0  0  0  0  0  0  0  0  0  0  0
    6.5071   47.5639   31.4183 N   0  0  0  0  0  0  0  0  0  0  0  0
    7.2415   48.5404   30.6828 C   0  0  0  0  0  0  0  0  0  0  0  0
    7.5829   49.7467   31.3034 O   0  0  0  0  0  0  0  0  0  0  0  0
    7.5943   48.3108   29.4942 O   0  0  0  0  0  0  0  0  0  0  0  0
    8.2897   50.7945   30.6418 C   0  0  0  0  0  0  0  0  0  0  0  0
    7.4262   51.4397   29.5820 C   0  0  0  0  0  0  0  0  0  0  0  0
    7.9016   51.4766   28.2581 C   0  0  0  0  0  0  0  0  0  0  0  0
    6.1367   51.9632   29.8706 C   0  0  0  0  0  0  0  0  0  0  0  0
    7.1178   52.0084   27.2336 C   0  0  0  0  0  0  0  0  0  0  0  0
    5.3577   52.4809   28.8192 C   0  0  0  0  0  0  0  0  0  0  0  0
    5.5956   51.9605   31.2046 N   0  0  0  0  0  0  0  0  0  0  0  0
    5.8470   52.5059   27.5128 C   0  0  0  0  0  0  0  0  0  0  0  0
    6.3906   52.2574   32.2868 O   0  0  0  0  0  0  0  0  0  0  0  0
    4.3647   51.8458   31.3796 O   0  0  0  0  0  0  0  0  0  0  0  0
    8.5370   39.1382   34.0122 O   0  0  0  0  0  0  0  0  0  0  0  0
   10.9795   40.0869   33.6827 O   0  0  0  0  0  0  0  0  0  0  0  0
   10.7997   40.0898   32.2830 C   0  0  0  0  0  0  0  0  0  0  0  0
   11.5968   38.9273   31.6962 C   0  0  0  0  0  0  0  0  0  0  0  0
   12.9242   38.9425   32.1784 O   0  0  0  0  0  0  0  0  0  0  0  0
   11.0086   37.5713   32.0780 C   0  0  0  0  0  0  0  0  0  0  0  0
   13.3528   37.5929   32.2623 C   0  0  0  0  0  0  0  0  0  0  0  0
    9.9098   37.1770   31.2925 O   0  0  0  0  0  0  0  0  0  0  0  0
   12.1943   36.6683   31.8994 C   0  0  0  0  0  0  0  0  0  0  0  0
   13.8019   37.2950   33.6199 N   0  0  0  0  0  0  0  0  0  0  0  0
   12.3027   36.2773   30.5558 O   0  0  0  0  0  0  0  0  0  0  0  0
   14.7926   36.4715   33.9865 C   0  0  0  0  0  0  0  0  0  0  0  0
   13.2749   37.7286   34.7946 C   0  0  0  0  0  0  0  0  0  0  0  0
   15.6239   35.7577   33.1860 N   0  0  0  0  0  0  0  0  0  0  0  0
   14.8727   36.4403   35.3332 C   0  0  0  0  0  0  0  0  0  0  0  0
   13.9210   37.2257   35.8811 N   0  0  0  0  0  0  0  0  0  0  0  0
   16.5873   34.9921   33.7802 C   0  0  0  0  0  0  0  0  0  0  0  0
   15.8579   35.6714   35.9444 C   0  0  0  0  0  0  0  0  0  0  0  0
   16.7028   34.9583   35.1439 N   0  0  0  0  0  0  0  0  0  0  0  0
   16.0104   35.6381   37.3564 N   0  0  0  0  0  0  0  0  0  0  0  0
    7.6770   44.0706   34.0504 H   0  0  0  0  0  0  0  0  0  0  0  0
    9.1827   45.3819   35.3535 H   0  0  0  0  0  0  0  0  0  0  0  0
   10.3192   45.4405   34.1000 H   0  0  0  0  0  0  0  0  0  0  0  0
    9.9711   44.0680   31.9739 H   0  0  0  0  0  0  0  0  0  0  0  0
    8.4816   43.0850   31.8668 H   0  0  0  0  0  0  0  0  0  0  0  0
    8.5554   46.1509   31.8741 H   0  0  0  0  0  0  0  0  0  0  0  0
    8.5385   45.1362   30.4021 H   0  0  0  0  0  0  0  0  0  0  0  0
    6.3296   44.1801   30.9675 H   0  0  0  0  0  0  0  0  0  0  0  0
    6.3020   45.0641   32.5332 H   0  0  0  0  0  0  0  0  0  0  0  0
    6.2463   46.2901   29.7219 H   0  0  0  0  0  0  0  0  0  0  0  0
    4.9238   46.2679   30.9271 H   0  0  0  0  0  0  0  0  0  0  0  0
    6.2816   47.7539   32.4207 H   0  0  0  0  0  0  0  0  0  0  0  0
    9.2315   50.3863   30.2133 H   0  0  0  0  0  0  0  0  0  0  0  0
    8.5920   51.5589   31.3860 H   0  0  0  0  0  0  0  0  0  0  0  0
    8.8801   51.0823   28.0128 H   0  0  0  0  0  0  0  0  0  0  0  0
    7.4948   52.0282   26.2191 H   0  0  0  0  0  0  0  0  0  0  0  0
    4.3708   52.8810   29.0149 H   0  0  0  0  0  0  0  0  0  0  0  0
    5.2394   52.9139   26.7154 H   0  0  0  0  0  0  0  0  0  0  0  0
   11.2096   41.0418   31.8830 H   0  0  0  0  0  0  0  0  0  0  0  0
    9.7449   40.0145   31.9263 H   0  0  0  0  0  0  0  0  0  0  0  0
   11.6265   39.0456   30.5888 H   0  0  0  0  0  0  0  0  0  0  0  0
   10.7064   37.5573   33.1484 H   0  0  0  0  0  0  0  0  0  0  0  0
   14.2021   37.4484   31.5574 H   0  0  0  0  0  0  0  0  0  0  0  0
   10.0952   37.3990   30.3433 H   0  0  0  0  0  0  0  0  0  0  0  0
   12.1163   35.7744   32.5633 H   0  0  0  0  0  0  0  0  0  0  0  0
   12.9615   35.5349   30.5311 H   0  0  0  0  0  0  0  0  0  0  0  0
   12.4321   38.3982   34.8705 H   0  0  0  0  0  0  0  0  0  0  0  0
   17.2669   34.4143   33.1690 H   0  0  0  0  0  0  0  0  0  0  0  0
   15.3761   36.1862   37.9792 H   0  0  0  0  0  0  0  0  0  0  0  0
   16.7641   35.0598   37.7896 H   0  0  0  0  0  0  0  0  0  0  0  0
  1  2  2  0
  1  3  1  0
  3  4  1  0
  4  5  1  0
  6  1  1  0
  7  6  1  0
  6  8  1  0
  8  9  1  0
  9 10  1  0
 10 11  1  0
 11 12  1  0
 12 13  1  0
 13 14  1  0
 13 15  2  0
 14 16  1  0
 16 17  1  0
 17 18  2  0
 19 17  1  0
 18 20  1  0
 21 19  2  0
 19 22  1  0
 20 23  2  0
 23 21  1  0
 22 24  1  0
 22 25  2  0
  4 26  2  0
  4 27  1  0
 28 27  1  0
 28 29  1  0
 29 30  1  0
 29 31  1  0
 30 32  1  0
 31 33  1  0
 31 34  1  0
 34 32  1  0
 32 35  1  0
 34 36  1  0
 37 35  1  0
 38 35  1  0
 39 37  2  0
 37 40  1  0
 41 38  2  0
 42 39  1  0
 40 43  2  0
 40 41  1  0
 44 42  2  0
 44 43  1  0
 43 45  1  0
  6 46  1  6
  7 47  1  0
  7 48  1  0
  8 49  1  0
  8 50  1  0
  9 51  1  0
  9 52  1  0
 10 53  1  0
 10 54  1  0
 11 55  1  0
 11 56  1  0
 12 57  1  0
 16 58  1  0
 16 59  1  0
 18 60  1  0
 20 61  1  0
 21 62  1  0
 23 63  1  0
 28 64  1  0
 28 65  1  0
 29 66  1  0
 31 67  1  0
 32 68  1  0
 33 69  1  0
 34 70  1  0
 36 71  1  0
 38 72  1  0
 42 73  1  0
 45 74  1  0
 45 75  1  0
M  CHG  3   5  -1  22   1  24  -1
M  END
>  <EmbedRMS>  (431) 
0.0745474094843

$$$$

     RDKit          3D

 75 78  0  0  0  0  0  0  0  0999 V2000
    9.4310   42.9412   34.3440 C   0  0  0  0  0  0  0  0  0  0  0  0
   10.4886   43.0410   35.0293 O   0  0  0  0  0  0  0  0  0  0  0  0
    8.8554   41.7129   34.0302 O   0  0  0  0  0  0  0  0  0  0  0  0
    9.4932   40.2164   34.4705 P   0  0  0  0  0  0  0  0  0  0  0  0
    9.7298   40.1743   36.1314 O   0  0  0  0  0  0  0  0  0  0  0  0
    8.7484   44.1360   33.7722 C   0  0  1  0  0  0  0  0  0  0  0  0
    9.3039   45.3666   34.3388 N   0  0  0  0  0  0  0  0  0  0  0  0
    8.8892   44.0519   32.2309 C   0  0  0  0  0  0  0  0  0  0  0  0
    8.2014   45.1721   31.4436 C   0  0  0  0  0  0  0  0  0  0  0  0
    6.6642   45.1065   31.4887 C   0  0  0  0  0  0  0  0  0  0  0  0
    6.0265   46.3234   30.8119 C   0  0  0  0  0  0  0  0  0  0  0  0
    6.5074   47.5645   31.4186 N   0  0  0  0  0  0  0  0  0  0  0  0
    7.2444   48.5393   30.6835 C   0  0  0  0  0  0  0  0  0  0  0  0
    7.5953   49.7398   31.3061 O   0  0  0  0  0  0  0  0  0  0  0  0
    7.5930   48.3116   29.4933 O   0  0  0  0  0  0  0  0  0  0  0  0
    8.3417   50.7582   30.6481 C   0  0  0  0  0  0  0  0  0  0  0  0
    8.5443   51.9180   31.5877 C   0  0  0  0  0  0  0  0  0  0  0  0
    9.7560   52.0027   32.2972 C   0  0  0  0  0  0  0  0  0  0  0  0
    7.5667   52.9345   31.7579 C   0  0  0  0  0  0  0  0  0  0  0  0
   10.0114   53.0815   33.1446 C   0  0  0  0  0  0  0  0  0  0  0  0
    7.8518   54.0215   32.6053 C   0  0  0  0  0  0  0  0  0  0  0  0
    6.2975   52.8899   31.0800 N   0  0  0  0  0  0  0  0  0  0  0  0
    9.0635   54.0916   33.2941 C   0  0  0  0  0  0  0  0  0  0  0  0
    5.6191   51.7021   30.9365 O   0  0  0  0  0  0  0  0  0  0  0  0
    5.7206   53.9507   30.7625 O   0  0  0  0  0  0  0  0  0  0  0  0
    8.5368   39.1400   34.0142 O   0  0  0  0  0  0  0  0  0  0  0  0
   10.9786   40.0891   33.6868 O   0  0  0  0  0  0  0  0  0  0  0  0
   10.7973   40.0897   32.2881 C   0  0  0  0  0  0  0  0  0  0  0  0
   11.5882   38.9235   31.7043 C   0  0  0  0  0  0  0  0  0  0  0  0
   12.9230   38.9440   32.1728 O   0  0  0  0  0  0  0  0  0  0  0  0
   11.0048   37.5704   32.0917 C   0  0  0  0  0  0  0  0  0  0  0  0
   13.3570   37.5961   32.2595 C   0  0  0  0  0  0  0  0  0  0  0  0
    9.9331   37.1987   31.2677 O   0  0  0  0  0  0  0  0  0  0  0  0
   12.1965   36.6751   31.8950 C   0  0  0  0  0  0  0  0  0  0  0  0
   13.8037   37.2979   33.6187 N   0  0  0  0  0  0  0  0  0  0  0  0
   12.2934   36.2389   30.5582 O   0  0  0  0  0  0  0  0  0  0  0  0
   14.7929   36.4726   33.9860 C   0  0  0  0  0  0  0  0  0  0  0  0
   13.2755   37.7304   34.7935 C   0  0  0  0  0  0  0  0  0  0  0  0
   15.6244   35.7585   33.1859 N   0  0  0  0  0  0  0  0  0  0  0  0
   14.8722   36.4406   35.3328 C   0  0  0  0  0  0  0  0  0  0  0  0
   13.9205   37.2262   35.8803 N   0  0  0  0  0  0  0  0  0  0  0  0
   16.5872   34.9923   33.7802 C   0  0  0  0  0  0  0  0  0  0  0  0
   15.8573   35.6715   35.9442 C   0  0  0  0  0  0  0  0  0  0  0  0
   16.7023   34.9584   35.1439 N   0  0  0  0  0  0  0  0  0  0  0  0
   16.0098   35.6384   37.3563 N   0  0  0  0  0  0  0  0  0  0  0  0
    7.6763   44.0636   34.0548 H   0  0  0  0  0  0  0  0  0  0  0  0
    8.6469   46.1560   34.1431 H   0  0  0  0  0  0  0  0  0  0  0  0
   10.2153   45.5880   33.8747 H   0  0  0  0  0  0  0  0  0  0  0  0
    8.4831   43.0817   31.8668 H   0  0  0  0  0  0  0  0  0  0  0  0
    9.9708   44.0643   31.9680 H   0  0  0  0  0  0  0  0  0  0  0  0
    8.5713   46.1488   31.8175 H   0  0  0  0  0  0  0  0  0  0  0  0
    8.5198   45.0959   30.3808 H   0  0  0  0  0  0  0  0  0  0  0  0
    6.3141   45.0785   32.5414 H   0  0  0  0  0  0  0  0  0  0  0  0
    6.3148   44.1799   30.9838 H   0  0  0  0  0  0  0  0  0  0  0  0
    6.2451   46.2893   29.7230 H   0  0  0  0  0  0  0  0  0  0  0  0
    4.9231   46.2693   30.9293 H   0  0  0  0  0  0  0  0  0  0  0  0
    6.2849   47.7536   32.4219 H   0  0  0  0  0  0  0  0  0  0  0  0
    7.8164   51.0927   29.7277 H   0  0  0  0  0  0  0  0  0  0  0  0
    9.3228   50.3419   30.3292 H   0  0  0  0  0  0  0  0  0  0  0  0
   10.5108   51.2331   32.1897 H   0  0  0  0  0  0  0  0  0  0  0  0
   10.9490   53.1365   33.6826 H   0  0  0  0  0  0  0  0  0  0  0  0
    7.1242   54.8107   32.7471 H   0  0  0  0  0  0  0  0  0  0  0  0
    9.2654   54.9292   33.9493 H   0  0  0  0  0  0  0  0  0  0  0  0
    9.7422   40.0186   31.9315 H   0  0  0  0  0  0  0  0  0  0  0  0
   11.2111   41.0391   31.8857 H   0  0  0  0  0  0  0  0  0  0  0  0
   11.5932   39.0396   30.5966 H   0  0  0  0  0  0  0  0  0  0  0  0
   10.6985   37.5587   33.1640 H   0  0  0  0  0  0  0  0  0  0  0  0
   14.2072   37.4493   31.5564 H   0  0  0  0  0  0  0  0  0  0  0  0
    9.5320   36.3882   31.6772 H   0  0  0  0  0  0  0  0  0  0  0  0
   12.1344   35.7838   32.5583 H   0  0  0  0  0  0  0  0  0  0  0  0
   12.4641   37.0179   29.9675 H   0  0  0  0  0  0  0  0  0  0  0  0
   12.4333   38.4006   34.8692 H   0  0  0  0  0  0  0  0  0  0  0  0
   17.2668   34.4144   33.1692 H   0  0  0  0  0  0  0  0  0  0  0  0
   16.7634   35.0600   37.7896 H   0  0  0  0  0  0  0  0  0  0  0  0
   15.3755   36.1866   37.9789 H   0  0  0  0  0  0  0  0  0  0  0  0
  1  2  2  0
  1  3  1  0
  3  4  1  0
  4  5  1  0
  6  1  1  0
  7  6  1  0
  6  8  1  0
  8  9  1  0
  9 10  1  0
 10 11  1  0
 11 12  1  0
 12 13  1  0
 13 14  1  0
 13 15  2  0
 14 16  1  0
 16 17  1  0
 17 18  2  0
 19 17  1  0
 18 20  1  0
 21 19  2  0
 19 22  1  0
 20 23  2  0
 23 21  1  0
 22 24  1  0
 22 25  2  0
  4 26  2  0
  4 27  1  0
 28 27  1  0
 28 29  1  0
 29 30  1  0
 29 31  1  0
 30 32  1  0
 31 33  1  0
 31 34  1  0
 34 32  1  0
 32 35  1  0
 34 36  1  0
 37 35  1  0
 38 35  1  0
 39 37  2  0
 37 40  1  0
 41 38  2  0
 42 39  1  0
 40 43  2  0
 40 41  1  0
 44 42  2  0
 44 43  1  0
 43 45  1  0
  6 46  1  6
  7 47  1  0
  7 48  1  0
  8 49  1  0
  8 50  1  0
  9 51  1  0
  9 52  1  0
 10 53  1  0
 10 54  1  0
 11 55  1  0
 11 56  1  0
 12 57  1  0
 16 58  1  0
 16 59  1  0
 18 60  1  0
 20 61  1  0
 21 62  1  0
 23 63  1  0
 28 64  1  0
 28 65  1  0
 29 66  1  0
 31 67  1  0
 32 68  1  0
 33 69  1  0
 34 70  1  0
 36 71  1  0
 38 72  1  0
 42 73  1  0
 45 74  1  0
 45 75  1  0
M  CHG  3   5  -1  22   1  24  -1
M  END
>  <EmbedRMS>  (432) 
0.0750837220078

$$$$

     RDKit          3D

 75 78  0  0  0  0  0  0  0  0999 V2000
    9.4332   42.9365   34.3464 C   0  0  0  0  0  0  0  0  0  0  0  0
   10.4908   43.0330   35.0319 O   0  0  0  0  0  0  0  0  0  0  0  0
    8.8559   41.7104   34.0304 O   0  0  0  0  0  0  0  0  0  0  0  0
    9.4931   40.2141   34.4703 P   0  0  0  0  0  0  0  0  0  0  0  0
    9.7293   40.1727   36.1313 O   0  0  0  0  0  0  0  0  0  0  0  0
    8.7506   44.1348   33.7741 C   0  0  1  0  0  0  0  0  0  0  0  0
    9.2963   45.3821   34.3133 N   0  0  0  0  0  0  0  0  0  0  0  0
    8.8893   44.0527   32.2359 C   0  0  0  0  0  0  0  0  0  0  0  0
    8.2028   45.1823   31.4615 C   0  0  0  0  0  0  0  0  0  0  0  0
    6.6654   45.1045   31.4855 C   0  0  0  0  0  0  0  0  0  0  0  0
    6.0270   46.3225   30.8105 C   0  0  0  0  0  0  0  0  0  0  0  0
    6.5063   47.5639   31.4180 N   0  0  0  0  0  0  0  0  0  0  0  0
    7.2436   48.5392   30.6836 C   0  0  0  0  0  0  0  0  0  0  0  0
    7.5944   49.7395   31.3069 O   0  0  0  0  0  0  0  0  0  0  0  0
    7.5934   48.3119   29.4936 O   0  0  0  0  0  0  0  0  0  0  0  0
    8.3459   50.7582   30.6508 C   0  0  0  0  0  0  0  0  0  0  0  0
    8.6011   51.9419   31.5600 C   0  0  0  0  0  0  0  0  0  0  0  0
    8.4035   51.8209   32.9517 C   0  0  0  0  0  0  0  0  0  0  0  0
    9.0314   53.1915   31.0331 C   0  0  0  0  0  0  0  0  0  0  0  0
    8.5904   52.9148   33.7973 C   0  0  0  0  0  0  0  0  0  0  0  0
    9.1963   54.2840   31.9032 C   0  0  0  0  0  0  0  0  0  0  0  0
    9.2937   53.3790   29.6296 N   0  0  0  0  0  0  0  0  0  0  0  0
    8.9784   54.1452   33.2736 C   0  0  0  0  0  0  0  0  0  0  0  0
    9.1210   54.6189   29.0584 O   0  0  0  0  0  0  0  0  0  0  0  0
    9.8374   52.4801   28.9559 O   0  0  0  0  0  0  0  0  0  0  0  0
    8.5366   39.1382   34.0136 O   0  0  0  0  0  0  0  0  0  0  0  0
   10.9788   40.0866   33.6873 O   0  0  0  0  0  0  0  0  0  0  0  0
   10.7993   40.0944   32.2885 C   0  0  0  0  0  0  0  0  0  0  0  0
   11.5957   38.9351   31.6994 C   0  0  0  0  0  0  0  0  0  0  0  0
   12.9257   38.9477   32.1798 O   0  0  0  0  0  0  0  0  0  0  0  0
   11.0070   37.5757   32.0732 C   0  0  0  0  0  0  0  0  0  0  0  0
   13.3571   37.5979   32.2612 C   0  0  0  0  0  0  0  0  0  0  0  0
    9.9093   37.1807   31.2875 O   0  0  0  0  0  0  0  0  0  0  0  0
   12.1967   36.6763   31.8894 C   0  0  0  0  0  0  0  0  0  0  0  0
   13.8018   37.2956   33.6197 N   0  0  0  0  0  0  0  0  0  0  0  0
   12.3049   36.2360   30.5554 O   0  0  0  0  0  0  0  0  0  0  0  0
   14.7922   36.4716   33.9864 C   0  0  0  0  0  0  0  0  0  0  0  0
   13.2747   37.7291   34.7944 C   0  0  0  0  0  0  0  0  0  0  0  0
   15.6240   35.7581   33.1861 N   0  0  0  0  0  0  0  0  0  0  0  0
   14.8721   36.4401   35.3331 C   0  0  0  0  0  0  0  0  0  0  0  0
   13.9206   37.2257   35.8810 N   0  0  0  0  0  0  0  0  0  0  0  0
   16.5873   34.9924   33.7802 C   0  0  0  0  0  0  0  0  0  0  0  0
   15.8576   35.6714   35.9444 C   0  0  0  0  0  0  0  0  0  0  0  0
   16.7026   34.9585   35.1439 N   0  0  0  0  0  0  0  0  0  0  0  0
   16.0102   35.6382   37.3564 N   0  0  0  0  0  0  0  0  0  0  0  0
    7.6770   44.0707   34.0504 H   0  0  0  0  0  0  0  0  0  0  0  0
   10.3192   45.4407   34.1000 H   0  0  0  0  0  0  0  0  0  0  0  0
    9.1827   45.3821   35.3535 H   0  0  0  0  0  0  0  0  0  0  0  0
    9.9711   44.0681   31.9740 H   0  0  0  0  0  0  0  0  0  0  0  0
    8.4817   43.0850   31.8669 H   0  0  0  0  0  0  0  0  0  0  0  0
    8.5385   45.1363   30.4023 H   0  0  0  0  0  0  0  0  0  0  0  0
    8.5552   46.1510   31.8743 H   0  0  0  0  0  0  0  0  0  0  0  0
    6.3297   44.1799   30.9678 H   0  0  0  0  0  0  0  0  0  0  0  0
    6.3020   45.0642   32.5333 H   0  0  0  0  0  0  0  0  0  0  0  0
    6.2465   46.2897   29.7217 H   0  0  0  0  0  0  0  0  0  0  0  0
    4.9235   46.2672   30.9265 H   0  0  0  0  0  0  0  0  0  0  0  0
    6.2825   47.7528   32.4210 H   0  0  0  0  0  0  0  0  0  0  0  0
    9.3204   50.3401   30.3185 H   0  0  0  0  0  0  0  0  0  0  0  0
    7.7679   51.0971   29.7635 H   0  0  0  0  0  0  0  0  0  0  0  0
    8.1010   50.8807   33.3943 H   0  0  0  0  0  0  0  0  0  0  0  0
    8.4303   52.8082   34.8625 H   0  0  0  0  0  0  0  0  0  0  0  0
    9.5154   55.2453   31.5210 H   0  0  0  0  0  0  0  0  0  0  0  0
    9.1191   54.9926   33.9323 H   0  0  0  0  0  0  0  0  0  0  0  0
   11.2094   41.0479   31.8921 H   0  0  0  0  0  0  0  0  0  0  0  0
    9.7448   40.0200   31.9304 H   0  0  0  0  0  0  0  0  0  0  0  0
   11.6207   39.0685   30.5942 H   0  0  0  0  0  0  0  0  0  0  0  0
   10.7059   37.5563   33.1438 H   0  0  0  0  0  0  0  0  0  0  0  0
   14.2095   37.4543   31.5601 H   0  0  0  0  0  0  0  0  0  0  0  0
   10.0865   37.4209   30.3413 H   0  0  0  0  0  0  0  0  0  0  0  0
   12.1276   35.7872   32.5549 H   0  0  0  0  0  0  0  0  0  0  0  0
   12.5032   37.0109   29.9672 H   0  0  0  0  0  0  0  0  0  0  0  0
   12.4328   38.3996   34.8703 H   0  0  0  0  0  0  0  0  0  0  0  0
   17.2670   34.4149   33.1691 H   0  0  0  0  0  0  0  0  0  0  0  0
   16.7640   35.0601   37.7896 H   0  0  0  0  0  0  0  0  0  0  0  0
   15.3758   36.1862   37.9791 H   0  0  0  0  0  0  0  0  0  0  0  0
  1  2  2  0
  1  3  1  0
  3  4  1  0
  4  5  1  0
  6  1  1  0
  7  6  1  0
  6  8  1  0
  8  9  1  0
  9 10  1  0
 10 11  1  0
 11 12  1  0
 12 13  1  0
 13 14  1  0
 13 15  2  0
 14 16  1  0
 16 17  1  0
 17 18  2  0
 19 17  1  0
 18 20  1  0
 21 19  2  0
 19 22  1  0
 20 23  2  0
 23 21  1  0
 22 24  1  0
 22 25  2  0
  4 26  2  0
  4 27  1  0
 28 27  1  0
 28 29  1  0
 29 30  1  0
 29 31  1  0
 30 32  1  0
 31 33  1  0
 31 34  1  0
 34 32  1  0
 32 35  1  0
 34 36  1  0
 37 35  1  0
 38 35  1  0
 39 37  2  0
 37 40  1  0
 41 38  2  0
 42 39  1  0
 40 43  2  0
 40 41  1  0
 44 42  2  0
 44 43  1  0
 43 45  1  0
  6 46  1  6
  7 47  1  0
  7 48  1  0
  8 49  1  0
  8 50  1  0
  9 51  1  0
  9 52  1  0
 10 53  1  0
 10 54  1  0
 11 55  1  0
 11 56  1  0
 12 57  1  0
 16 58  1  0
 16 59  1  0
 18 60  1  0
 20 61  1  0
 21 62  1  0
 23 63  1  0
 28 64  1  0
 28 65  1  0
 29 66  1  0
 31 67  1  0
 32 68  1  0
 33 69  1  0
 34 70  1  0
 36 71  1  0
 38 72  1  0
 42 73  1  0
 45 74  1  0
 45 75  1  0
M  CHG  3   5  -1  22   1  24  -1
M  END
>  <EmbedRMS>  (433) 
0.0761776510009

$$$$

     RDKit          3D

 75 78  0  0  0  0  0  0  0  0999 V2000
    9.4331   42.9366   34.3460 C   0  0  0  0  0  0  0  0  0  0  0  0
   10.4905   43.0332   35.0318 O   0  0  0  0  0  0  0  0  0  0  0  0
    8.8562   41.7104   34.0296 O   0  0  0  0  0  0  0  0  0  0  0  0
    9.4945   40.2142   34.4680 P   0  0  0  0  0  0  0  0  0  0  0  0
    9.7308   40.1726   36.1291 O   0  0  0  0  0  0  0  0  0  0  0  0
    8.7505   44.1349   33.7737 C   0  0  1  0  0  0  0  0  0  0  0  0
    9.2961   45.3822   34.3128 N   0  0  0  0  0  0  0  0  0  0  0  0
    8.8893   44.0524   32.2353 C   0  0  0  0  0  0  0  0  0  0  0  0
    8.2034   45.1820   31.4602 C   0  0  0  0  0  0  0  0  0  0  0  0
    6.6659   45.1026   31.4801 C   0  0  0  0  0  0  0  0  0  0  0  0
    6.0261   46.3258   30.8144 C   0  0  0  0  0  0  0  0  0  0  0  0
    6.5142   47.5626   31.4245 N   0  0  0  0  0  0  0  0  0  0  0  0
    7.2277   48.5518   30.6750 C   0  0  0  0  0  0  0  0  0  0  0  0
    7.5486   49.8021   31.2205 O   0  0  0  0  0  0  0  0  0  0  0  0
    7.6020   48.2995   29.5001 O   0  0  0  0  0  0  0  0  0  0  0  0
    6.9881   50.3529   32.4125 C   0  0  0  0  0  0  0  0  0  0  0  0
    5.5368   50.7242   32.2068 C   0  0  0  0  0  0  0  0  0  0  0  0
    4.5465   49.9507   32.8418 C   0  0  0  0  0  0  0  0  0  0  0  0
    5.1440   51.8612   31.4469 C   0  0  0  0  0  0  0  0  0  0  0  0
    3.1951   50.2679   32.7062 C   0  0  0  0  0  0  0  0  0  0  0  0
    3.7748   52.1684   31.3347 C   0  0  0  0  0  0  0  0  0  0  0  0
    6.1043   52.7396   30.8292 N   0  0  0  0  0  0  0  0  0  0  0  0
    2.8097   51.3725   31.9515 C   0  0  0  0  0  0  0  0  0  0  0  0
    7.2236   52.2412   30.2062 O   0  0  0  0  0  0  0  0  0  0  0  0
    5.8533   53.9577   30.7184 O   0  0  0  0  0  0  0  0  0  0  0  0
    8.5372   39.1386   34.0125 O   0  0  0  0  0  0  0  0  0  0  0  0
   10.9804   40.0881   33.6837 O   0  0  0  0  0  0  0  0  0  0  0  0
   10.8025   40.0900   32.2839 C   0  0  0  0  0  0  0  0  0  0  0  0
   11.5888   38.9174   31.7007 C   0  0  0  0  0  0  0  0  0  0  0  0
   12.9219   38.9373   32.1692 O   0  0  0  0  0  0  0  0  0  0  0  0
   11.0028   37.5682   32.0980 C   0  0  0  0  0  0  0  0  0  0  0  0
   13.3496   37.5885   32.2601 C   0  0  0  0  0  0  0  0  0  0  0  0
    9.9343   37.1822   31.2756 O   0  0  0  0  0  0  0  0  0  0  0  0
   12.1891   36.6677   31.9049 C   0  0  0  0  0  0  0  0  0  0  0  0
   13.8025   37.2965   33.6186 N   0  0  0  0  0  0  0  0  0  0  0  0
   12.2991   36.2867   30.5567 O   0  0  0  0  0  0  0  0  0  0  0  0
   14.7929   36.4725   33.9858 C   0  0  0  0  0  0  0  0  0  0  0  0
   13.2749   37.7294   34.7935 C   0  0  0  0  0  0  0  0  0  0  0  0
   15.6240   35.7580   33.1858 N   0  0  0  0  0  0  0  0  0  0  0  0
   14.8727   36.4411   35.3327 C   0  0  0  0  0  0  0  0  0  0  0  0
   13.9208   37.2263   35.8803 N   0  0  0  0  0  0  0  0  0  0  0  0
   16.5871   34.9921   33.7801 C   0  0  0  0  0  0  0  0  0  0  0  0
   15.8576   35.6718   35.9441 C   0  0  0  0  0  0  0  0  0  0  0  0
   16.7024   34.9584   35.1438 N   0  0  0  0  0  0  0  0  0  0  0  0
   16.0099   35.6384   37.3562 N   0  0  0  0  0  0  0  0  0  0  0  0
    7.6768   44.0708   34.0499 H   0  0  0  0  0  0  0  0  0  0  0  0
   10.3190   45.4407   34.0997 H   0  0  0  0  0  0  0  0  0  0  0  0
    9.1822   45.3824   35.3530 H   0  0  0  0  0  0  0  0  0  0  0  0
    8.4815   43.0847   31.8665 H   0  0  0  0  0  0  0  0  0  0  0  0
    9.9712   44.0674   31.9737 H   0  0  0  0  0  0  0  0  0  0  0  0
    8.5548   46.1503   31.8746 H   0  0  0  0  0  0  0  0  0  0  0  0
    8.5414   45.1374   30.4017 H   0  0  0  0  0  0  0  0  0  0  0  0
    6.3007   45.0526   32.5269 H   0  0  0  0  0  0  0  0  0  0  0  0
    6.3322   44.1817   30.9545 H   0  0  0  0  0  0  0  0  0  0  0  0
    6.2332   46.2975   29.7231 H   0  0  0  0  0  0  0  0  0  0  0  0
    4.9238   46.2732   30.9428 H   0  0  0  0  0  0  0  0  0  0  0  0
    6.3572   47.6898   32.4465 H   0  0  0  0  0  0  0  0  0  0  0  0
    7.1223   49.6451   33.2579 H   0  0  0  0  0  0  0  0  0  0  0  0
    7.5579   51.2643   32.6903 H   0  0  0  0  0  0  0  0  0  0  0  0
    4.8168   49.1032   33.4577 H   0  0  0  0  0  0  0  0  0  0  0  0
    2.4451   49.6600   33.1958 H   0  0  0  0  0  0  0  0  0  0  0  0
    3.4522   53.0275   30.7600 H   0  0  0  0  0  0  0  0  0  0  0  0
    1.7605   51.6192   31.8515 H   0  0  0  0  0  0  0  0  0  0  0  0
   11.2258   41.0357   31.8829 H   0  0  0  0  0  0  0  0  0  0  0  0
    9.7476   40.0331   31.9256 H   0  0  0  0  0  0  0  0  0  0  0  0
   11.5974   39.0148   30.5904 H   0  0  0  0  0  0  0  0  0  0  0  0
   10.7023   37.5455   33.1719 H   0  0  0  0  0  0  0  0  0  0  0  0
   14.1957   37.4366   31.5528 H   0  0  0  0  0  0  0  0  0  0  0  0
    9.1340   37.6658   31.6069 H   0  0  0  0  0  0  0  0  0  0  0  0
   12.1381   35.7717   32.5697 H   0  0  0  0  0  0  0  0  0  0  0  0
   11.7707   35.4530   30.4496 H   0  0  0  0  0  0  0  0  0  0  0  0
   12.4314   38.3980   34.8694 H   0  0  0  0  0  0  0  0  0  0  0  0
   17.2665   34.4140   33.1691 H   0  0  0  0  0  0  0  0  0  0  0  0
   16.7633   35.0598   37.7895 H   0  0  0  0  0  0  0  0  0  0  0  0
   15.3757   36.1868   37.9789 H   0  0  0  0  0  0  0  0  0  0  0  0
  1  2  2  0
  1  3  1  0
  3  4  1  0
  4  5  1  0
  6  1  1  0
  7  6  1  0
  6  8  1  0
  8  9  1  0
  9 10  1  0
 10 11  1  0
 11 12  1  0
 12 13  1  0
 13 14  1  0
 13 15  2  0
 14 16  1  0
 16 17  1  0
 17 18  2  0
 19 17  1  0
 18 20  1  0
 21 19  2  0
 19 22  1  0
 20 23  2  0
 23 21  1  0
 22 24  1  0
 22 25  2  0
  4 26  2  0
  4 27  1  0
 28 27  1  0
 28 29  1  0
 29 30  1  0
 29 31  1  0
 30 32  1  0
 31 33  1  0
 31 34  1  0
 34 32  1  0
 32 35  1  0
 34 36  1  0
 37 35  1  0
 38 35  1  0
 39 37  2  0
 37 40  1  0
 41 38  2  0
 42 39  1  0
 40 43  2  0
 40 41  1  0
 44 42  2  0
 44 43  1  0
 43 45  1  0
  6 46  1  6
  7 47  1  0
  7 48  1  0
  8 49  1  0
  8 50  1  0
  9 51  1  0
  9 52  1  0
 10 53  1  0
 10 54  1  0
 11 55  1  0
 11 56  1  0
 12 57  1  0
 16 58  1  0
 16 59  1  0
 18 60  1  0
 20 61  1  0
 21 62  1  0
 23 63  1  0
 28 64  1  0
 28 65  1  0
 29 66  1  0
 31 67  1  0
 32 68  1  0
 33 69  1  0
 34 70  1  0
 36 71  1  0
 38 72  1  0
 42 73  1  0
 45 74  1  0
 45 75  1  0
M  CHG  3   5  -1  22   1  24  -1
M  END
>  <EmbedRMS>  (434) 
0.0737872488825

$$$$

     RDKit          3D

 75 78  0  0  0  0  0  0  0  0999 V2000
    9.4333   42.9368   34.3460 C   0  0  0  0  0  0  0  0  0  0  0  0
   10.4907   43.0332   35.0318 O   0  0  0  0  0  0  0  0  0  0  0  0
    8.8563   41.7106   34.0294 O   0  0  0  0  0  0  0  0  0  0  0  0
    9.4942   40.2141   34.4678 P   0  0  0  0  0  0  0  0  0  0  0  0
    9.7310   40.1725   36.1289 O   0  0  0  0  0  0  0  0  0  0  0  0
    8.7507   44.1353   33.7740 C   0  0  1  0  0  0  0  0  0  0  0  0
    9.2963   45.3826   34.3133 N   0  0  0  0  0  0  0  0  0  0  0  0
    8.8892   44.0536   32.2357 C   0  0  0  0  0  0  0  0  0  0  0  0
    8.2024   45.1835   31.4619 C   0  0  0  0  0  0  0  0  0  0  0  0
    6.6649   45.1047   31.4849 C   0  0  0  0  0  0  0  0  0  0  0  0
    6.0255   46.3219   30.8087 C   0  0  0  0  0  0  0  0  0  0  0  0
    6.5024   47.5638   31.4166 N   0  0  0  0  0  0  0  0  0  0  0  0
    7.2543   48.5324   30.6886 C   0  0  0  0  0  0  0  0  0  0  0  0
    7.6544   49.7055   31.3327 O   0  0  0  0  0  0  0  0  0  0  0  0
    7.5888   48.3144   29.4926 O   0  0  0  0  0  0  0  0  0  0  0  0
    8.4698   50.6905   30.7059 C   0  0  0  0  0  0  0  0  0  0  0  0
    8.8446   51.7516   31.7098 C   0  0  0  0  0  0  0  0  0  0  0  0
    8.5085   53.0902   31.4347 C   0  0  0  0  0  0  0  0  0  0  0  0
    9.4876   51.4360   32.9382 C   0  0  0  0  0  0  0  0  0  0  0  0
    8.7903   54.0998   32.3558 C   0  0  0  0  0  0  0  0  0  0  0  0
    9.7482   52.4685   33.8583 C   0  0  0  0  0  0  0  0  0  0  0  0
    9.8601   50.0872   33.2789 N   0  0  0  0  0  0  0  0  0  0  0  0
    9.4055   53.7892   33.5664 C   0  0  0  0  0  0  0  0  0  0  0  0
   10.3883   49.2412   32.3319 O   0  0  0  0  0  0  0  0  0  0  0  0
    9.8537   49.7195   34.4721 O   0  0  0  0  0  0  0  0  0  0  0  0
    8.5370   39.1384   34.0122 O   0  0  0  0  0  0  0  0  0  0  0  0
   10.9795   40.0869   33.6827 O   0  0  0  0  0  0  0  0  0  0  0  0
   10.7997   40.0898   32.2830 C   0  0  0  0  0  0  0  0  0  0  0  0
   11.5968   38.9274   31.6962 C   0  0  0  0  0  0  0  0  0  0  0  0
   12.9242   38.9425   32.1784 O   0  0  0  0  0  0  0  0  0  0  0  0
   11.0086   37.5713   32.0780 C   0  0  0  0  0  0  0  0  0  0  0  0
   13.3528   37.5929   32.2623 C   0  0  0  0  0  0  0  0  0  0  0  0
    9.9098   37.1770   31.2925 O   0  0  0  0  0  0  0  0  0  0  0  0
   12.1943   36.6683   31.8995 C   0  0  0  0  0  0  0  0  0  0  0  0
   13.8019   37.2950   33.6199 N   0  0  0  0  0  0  0  0  0  0  0  0
   12.3027   36.2773   30.5558 O   0  0  0  0  0  0  0  0  0  0  0  0
   14.7926   36.4715   33.9865 C   0  0  0  0  0  0  0  0  0  0  0  0
   13.2749   37.7286   34.7946 C   0  0  0  0  0  0  0  0  0  0  0  0
   15.6239   35.7577   33.1860 N   0  0  0  0  0  0  0  0  0  0  0  0
   14.8727   36.4403   35.3332 C   0  0  0  0  0  0  0  0  0  0  0  0
   13.9210   37.2257   35.8811 N   0  0  0  0  0  0  0  0  0  0  0  0
   16.5873   34.9921   33.7802 C   0  0  0  0  0  0  0  0  0  0  0  0
   15.8579   35.6714   35.9444 C   0  0  0  0  0  0  0  0  0  0  0  0
   16.7028   34.9583   35.1439 N   0  0  0  0  0  0  0  0  0  0  0  0
   16.0104   35.6381   37.3564 N   0  0  0  0  0  0  0  0  0  0  0  0
    7.6771   44.0712   34.0503 H   0  0  0  0  0  0  0  0  0  0  0  0
    9.1835   45.3825   35.3535 H   0  0  0  0  0  0  0  0  0  0  0  0
   10.3190   45.4421   34.0990 H   0  0  0  0  0  0  0  0  0  0  0  0
    8.4817   43.0860   31.8665 H   0  0  0  0  0  0  0  0  0  0  0  0
    9.9710   44.0694   31.9738 H   0  0  0  0  0  0  0  0  0  0  0  0
    8.5539   46.1522   31.8756 H   0  0  0  0  0  0  0  0  0  0  0  0
    8.5388   45.1386   30.4028 H   0  0  0  0  0  0  0  0  0  0  0  0
    6.3302   44.1796   30.9675 H   0  0  0  0  0  0  0  0  0  0  0  0
    6.3010   45.0646   32.5326 H   0  0  0  0  0  0  0  0  0  0  0  0
    4.9220   46.2652   30.9232 H   0  0  0  0  0  0  0  0  0  0  0  0
    6.2467   46.2893   29.7202 H   0  0  0  0  0  0  0  0  0  0  0  0
    6.2820   47.7496   32.4209 H   0  0  0  0  0  0  0  0  0  0  0  0
    7.9114   51.1260   29.8484 H   0  0  0  0  0  0  0  0  0  0  0  0
    9.3916   50.2269   30.2960 H   0  0  0  0  0  0  0  0  0  0  0  0
    8.0185   53.3563   30.5062 H   0  0  0  0  0  0  0  0  0  0  0  0
    8.5252   55.1251   32.1322 H   0  0  0  0  0  0  0  0  0  0  0  0
   10.2332   52.2512   34.8017 H   0  0  0  0  0  0  0  0  0  0  0  0
    9.6192   54.5738   34.2807 H   0  0  0  0  0  0  0  0  0  0  0  0
   11.2096   41.0418   31.8829 H   0  0  0  0  0  0  0  0  0  0  0  0
    9.7449   40.0145   31.9263 H   0  0  0  0  0  0  0  0  0  0  0  0
   11.6265   39.0456   30.5888 H   0  0  0  0  0  0  0  0  0  0  0  0
   10.7064   37.5574   33.1484 H   0  0  0  0  0  0  0  0  0  0  0  0
   14.2021   37.4484   31.5574 H   0  0  0  0  0  0  0  0  0  0  0  0
   10.0952   37.3990   30.3433 H   0  0  0  0  0  0  0  0  0  0  0  0
   12.1163   35.7745   32.5633 H   0  0  0  0  0  0  0  0  0  0  0  0
   12.9615   35.5349   30.5312 H   0  0  0  0  0  0  0  0  0  0  0  0
   12.4321   38.3982   34.8705 H   0  0  0  0  0  0  0  0  0  0  0  0
   17.2669   34.4143   33.1690 H   0  0  0  0  0  0  0  0  0  0  0  0
   15.3761   36.1862   37.9792 H   0  0  0  0  0  0  0  0  0  0  0  0
   16.7641   35.0599   37.7896 H   0  0  0  0  0  0  0  0  0  0  0  0
  1  2  2  0
  1  3  1  0
  3  4  1  0
  4  5  1  0
  6  1  1  0
  7  6  1  0
  6  8  1  0
  8  9  1  0
  9 10  1  0
 10 11  1  0
 11 12  1  0
 12 13  1  0
 13 14  1  0
 13 15  2  0
 14 16  1  0
 16 17  1  0
 17 18  2  0
 19 17  1  0
 18 20  1  0
 21 19  2  0
 19 22  1  0
 20 23  2  0
 23 21  1  0
 22 24  1  0
 22 25  2  0
  4 26  2  0
  4 27  1  0
 28 27  1  0
 28 29  1  0
 29 30  1  0
 29 31  1  0
 30 32  1  0
 31 33  1  0
 31 34  1  0
 34 32  1  0
 32 35  1  0
 34 36  1  0
 37 35  1  0
 38 35  1  0
 39 37  2  0
 37 40  1  0
 41 38  2  0
 42 39  1  0
 40 43  2  0
 40 41  1  0
 44 42  2  0
 44 43  1  0
 43 45  1  0
  6 46  1  6
  7 47  1  0
  7 48  1  0
  8 49  1  0
  8 50  1  0
  9 51  1  0
  9 52  1  0
 10 53  1  0
 10 54  1  0
 11 55  1  0
 11 56  1  0
 12 57  1  0
 16 58  1  0
 16 59  1  0
 18 60  1  0
 20 61  1  0
 21 62  1  0
 23 63  1  0
 28 64  1  0
 28 65  1  0
 29 66  1  0
 31 67  1  0
 32 68  1  0
 33 69  1  0
 34 70  1  0
 36 71  1  0
 38 72  1  0
 42 73  1  0
 45 74  1  0
 45 75  1  0
M  CHG  3   5  -1  22   1  24  -1
M  END
>  <EmbedRMS>  (435) 
0.0748730613347

$$$$

     RDKit          3D

 75 78  0  0  0  0  0  0  0  0999 V2000
    9.4300   42.9391   34.3430 C   0  0  0  0  0  0  0  0  0  0  0  0
   10.4909   43.0383   35.0236 O   0  0  0  0  0  0  0  0  0  0  0  0
    8.8551   41.7112   34.0282 O   0  0  0  0  0  0  0  0  0  0  0  0
    9.4943   40.2152   34.4675 P   0  0  0  0  0  0  0  0  0  0  0  0
    9.7310   40.1738   36.1286 O   0  0  0  0  0  0  0  0  0  0  0  0
    8.7413   44.1365   33.7774 C   0  0  1  0  0  0  0  0  0  0  0  0
    9.3012   45.3699   34.3305 N   0  0  0  0  0  0  0  0  0  0  0  0
    8.8969   44.0589   32.2389 C   0  0  0  0  0  0  0  0  0  0  0  0
    8.2035   45.1690   31.4391 C   0  0  0  0  0  0  0  0  0  0  0  0
    6.6664   45.1077   31.4918 C   0  0  0  0  0  0  0  0  0  0  0  0
    6.0295   46.3242   30.8135 C   0  0  0  0  0  0  0  0  0  0  0  0
    6.5069   47.5661   31.4229 N   0  0  0  0  0  0  0  0  0  0  0  0
    7.2306   48.5504   30.6754 C   0  0  0  0  0  0  0  0  0  0  0  0
    7.5381   49.8072   31.2126 O   0  0  0  0  0  0  0  0  0  0  0  0
    7.6025   48.2977   29.4998 O   0  0  0  0  0  0  0  0  0  0  0  0
    7.1435   50.2676   32.5043 C   0  0  0  0  0  0  0  0  0  0  0  0
    7.9888   49.6488   33.5945 C   0  0  0  0  0  0  0  0  0  0  0  0
    7.3399   49.0555   34.6934 C   0  0  0  0  0  0  0  0  0  0  0  0
    9.4089   49.6558   33.5507 C   0  0  0  0  0  0  0  0  0  0  0  0
    8.0746   48.4681   35.7239 C   0  0  0  0  0  0  0  0  0  0  0  0
   10.1296   49.0378   34.5892 C   0  0  0  0  0  0  0  0  0  0  0  0
   10.1323   50.2763   32.4729 N   0  0  0  0  0  0  0  0  0  0  0  0
    9.4667   48.4573   35.6709 C   0  0  0  0  0  0  0  0  0  0  0  0
    9.7338   51.4934   31.9714 O   0  0  0  0  0  0  0  0  0  0  0  0
   11.2253   49.8024   32.0995 O   0  0  0  0  0  0  0  0  0  0  0  0
    8.5376   39.1388   34.0123 O   0  0  0  0  0  0  0  0  0  0  0  0
   10.9798   40.0878   33.6827 O   0  0  0  0  0  0  0  0  0  0  0  0
   10.8002   40.0907   32.2830 C   0  0  0  0  0  0  0  0  0  0  0  0
   11.5958   38.9271   31.6963 C   0  0  0  0  0  0  0  0  0  0  0  0
   12.9239   38.9409   32.1767 O   0  0  0  0  0  0  0  0  0  0  0  0
   11.0062   37.5719   32.0794 C   0  0  0  0  0  0  0  0  0  0  0  0
   13.3506   37.5905   32.2614 C   0  0  0  0  0  0  0  0  0  0  0  0
    9.9064   37.1793   31.2946 O   0  0  0  0  0  0  0  0  0  0  0  0
   12.1920   36.6672   31.9003 C   0  0  0  0  0  0  0  0  0  0  0  0
   13.8017   37.2948   33.6193 N   0  0  0  0  0  0  0  0  0  0  0  0
   12.3133   36.2788   30.5561 O   0  0  0  0  0  0  0  0  0  0  0  0
   14.7927   36.4717   33.9862 C   0  0  0  0  0  0  0  0  0  0  0  0
   13.2746   37.7284   34.7941 C   0  0  0  0  0  0  0  0  0  0  0  0
   15.6240   35.7576   33.1859 N   0  0  0  0  0  0  0  0  0  0  0  0
   14.8728   36.4406   35.3330 C   0  0  0  0  0  0  0  0  0  0  0  0
   13.9209   37.2258   35.8808 N   0  0  0  0  0  0  0  0  0  0  0  0
   16.5874   34.9920   33.7802 C   0  0  0  0  0  0  0  0  0  0  0  0
   15.8579   35.6716   35.9443 C   0  0  0  0  0  0  0  0  0  0  0  0
   16.7028   34.9584   35.1439 N   0  0  0  0  0  0  0  0  0  0  0  0
   16.0103   35.6383   37.3563 N   0  0  0  0  0  0  0  0  0  0  0  0
    7.6667   44.0642   34.0532 H   0  0  0  0  0  0  0  0  0  0  0  0
    8.6873   46.1633   34.0399 H   0  0  0  0  0  0  0  0  0  0  0  0
    9.2168   45.3331   35.3730 H   0  0  0  0  0  0  0  0  0  0  0  0
    9.9816   44.0906   31.9910 H   0  0  0  0  0  0  0  0  0  0  0  0
    8.5092   43.0838   31.8680 H   0  0  0  0  0  0  0  0  0  0  0  0
    8.5789   46.1525   31.7880 H   0  0  0  0  0  0  0  0  0  0  0  0
    8.5150   45.0740   30.3758 H   0  0  0  0  0  0  0  0  0  0  0  0
    6.3204   45.0861   32.5458 H   0  0  0  0  0  0  0  0  0  0  0  0
    6.3123   44.1797   30.9928 H   0  0  0  0  0  0  0  0  0  0  0  0
    4.9260   46.2683   30.9289 H   0  0  0  0  0  0  0  0  0  0  0  0
    6.2491   46.2899   29.7249 H   0  0  0  0  0  0  0  0  0  0  0  0
    6.2725   47.7319   32.4252 H   0  0  0  0  0  0  0  0  0  0  0  0
    6.0581   50.0788   32.6549 H   0  0  0  0  0  0  0  0  0  0  0  0
    7.2722   51.3687   32.5424 H   0  0  0  0  0  0  0  0  0  0  0  0
    6.2587   49.0458   34.7548 H   0  0  0  0  0  0  0  0  0  0  0  0
    7.5626   48.0136   36.5622 H   0  0  0  0  0  0  0  0  0  0  0  0
   11.2121   49.0265   34.5724 H   0  0  0  0  0  0  0  0  0  0  0  0
   10.0341   47.9948   36.4681 H   0  0  0  0  0  0  0  0  0  0  0  0
    9.7455   40.0168   31.9261 H   0  0  0  0  0  0  0  0  0  0  0  0
   11.2115   41.0421   31.8829 H   0  0  0  0  0  0  0  0  0  0  0  0
   11.6246   39.0449   30.5888 H   0  0  0  0  0  0  0  0  0  0  0  0
   10.7050   37.5581   33.1500 H   0  0  0  0  0  0  0  0  0  0  0  0
   14.1985   37.4426   31.5553 H   0  0  0  0  0  0  0  0  0  0  0  0
   10.0893   37.4057   30.3459 H   0  0  0  0  0  0  0  0  0  0  0  0
   12.1337   35.7754   32.5703 H   0  0  0  0  0  0  0  0  0  0  0  0
   11.7934   35.4394   30.4514 H   0  0  0  0  0  0  0  0  0  0  0  0
   12.4314   38.3973   34.8699 H   0  0  0  0  0  0  0  0  0  0  0  0
   17.2669   34.4142   33.1692 H   0  0  0  0  0  0  0  0  0  0  0  0
   15.3759   36.1865   37.9790 H   0  0  0  0  0  0  0  0  0  0  0  0
   16.7638   35.0599   37.7896 H   0  0  0  0  0  0  0  0  0  0  0  0
  1  2  2  0
  1  3  1  0
  3  4  1  0
  4  5  1  0
  6  1  1  0
  7  6  1  0
  6  8  1  0
  8  9  1  0
  9 10  1  0
 10 11  1  0
 11 12  1  0
 12 13  1  0
 13 14  1  0
 13 15  2  0
 14 16  1  0
 16 17  1  0
 17 18  2  0
 19 17  1  0
 18 20  1  0
 21 19  2  0
 19 22  1  0
 20 23  2  0
 23 21  1  0
 22 24  1  0
 22 25  2  0
  4 26  2  0
  4 27  1  0
 28 27  1  0
 28 29  1  0
 29 30  1  0
 29 31  1  0
 30 32  1  0
 31 33  1  0
 31 34  1  0
 34 32  1  0
 32 35  1  0
 34 36  1  0
 37 35  1  0
 38 35  1  0
 39 37  2  0
 37 40  1  0
 41 38  2  0
 42 39  1  0
 40 43  2  0
 40 41  1  0
 44 42  2  0
 44 43  1  0
 43 45  1  0
  6 46  1  6
  7 47  1  0
  7 48  1  0
  8 49  1  0
  8 50  1  0
  9 51  1  0
  9 52  1  0
 10 53  1  0
 10 54  1  0
 11 55  1  0
 11 56  1  0
 12 57  1  0
 16 58  1  0
 16 59  1  0
 18 60  1  0
 20 61  1  0
 21 62  1  0
 23 63  1  0
 28 64  1  0
 28 65  1  0
 29 66  1  0
 31 67  1  0
 32 68  1  0
 33 69  1  0
 34 70  1  0
 36 71  1  0
 38 72  1  0
 42 73  1  0
 45 74  1  0
 45 75  1  0
M  CHG  3   5  -1  22   1  24  -1
M  END
>  <EmbedRMS>  (436) 
0.0741446023854

$$$$

     RDKit          3D

 75 78  0  0  0  0  0  0  0  0999 V2000
    9.4332   42.9365   34.3464 C   0  0  0  0  0  0  0  0  0  0  0  0
   10.4907   43.0330   35.0319 O   0  0  0  0  0  0  0  0  0  0  0  0
    8.8559   41.7103   34.0304 O   0  0  0  0  0  0  0  0  0  0  0  0
    9.4931   40.2140   34.4703 P   0  0  0  0  0  0  0  0  0  0  0  0
    9.7293   40.1727   36.1313 O   0  0  0  0  0  0  0  0  0  0  0  0
    8.7506   44.1348   33.7741 C   0  0  1  0  0  0  0  0  0  0  0  0
    9.2963   45.3820   34.3133 N   0  0  0  0  0  0  0  0  0  0  0  0
    8.8893   44.0526   32.2358 C   0  0  0  0  0  0  0  0  0  0  0  0
    8.2029   45.1822   31.4614 C   0  0  0  0  0  0  0  0  0  0  0  0
    6.6654   45.1046   31.4854 C   0  0  0  0  0  0  0  0  0  0  0  0
    6.0272   46.3228   30.8107 C   0  0  0  0  0  0  0  0  0  0  0  0
    6.5072   47.5640   31.4182 N   0  0  0  0  0  0  0  0  0  0  0  0
    7.2417   48.5406   30.6828 C   0  0  0  0  0  0  0  0  0  0  0  0
    7.5886   49.7437   31.3067 O   0  0  0  0  0  0  0  0  0  0  0  0
    7.5941   48.3105   29.4945 O   0  0  0  0  0  0  0  0  0  0  0  0
    8.2799   50.8042   30.6491 C   0  0  0  0  0  0  0  0  0  0  0  0
    7.3698   51.5133   29.6739 C   0  0  0  0  0  0  0  0  0  0  0  0
    7.5298   51.2579   28.2993 C   0  0  0  0  0  0  0  0  0  0  0  0
    6.3949   52.4584   30.0950 C   0  0  0  0  0  0  0  0  0  0  0  0
    6.7420   51.9159   27.3547 C   0  0  0  0  0  0  0  0  0  0  0  0
    5.6211   53.1204   29.1231 C   0  0  0  0  0  0  0  0  0  0  0  0
    6.1960   52.7834   31.4839 N   0  0  0  0  0  0  0  0  0  0  0  0
    5.7904   52.8463   27.7656 C   0  0  0  0  0  0  0  0  0  0  0  0
    6.2438   51.8077   32.4516 O   0  0  0  0  0  0  0  0  0  0  0  0
    5.8230   53.9295   31.8097 O   0  0  0  0  0  0  0  0  0  0  0  0
    8.5366   39.1381   34.0136 O   0  0  0  0  0  0  0  0  0  0  0  0
   10.9788   40.0866   33.6873 O   0  0  0  0  0  0  0  0  0  0  0  0
   10.7993   40.0944   32.2886 C   0  0  0  0  0  0  0  0  0  0  0  0
   11.5957   38.9351   31.6994 C   0  0  0  0  0  0  0  0  0  0  0  0
   12.9257   38.9477   32.1798 O   0  0  0  0  0  0  0  0  0  0  0  0
   11.0070   37.5757   32.0732 C   0  0  0  0  0  0  0  0  0  0  0  0
   13.3571   37.5979   32.2612 C   0  0  0  0  0  0  0  0  0  0  0  0
    9.9093   37.1807   31.2875 O   0  0  0  0  0  0  0  0  0  0  0  0
   12.1968   36.6763   31.8894 C   0  0  0  0  0  0  0  0  0  0  0  0
   13.8018   37.2956   33.6197 N   0  0  0  0  0  0  0  0  0  0  0  0
   12.3049   36.2360   30.5555 O   0  0  0  0  0  0  0  0  0  0  0  0
   14.7922   36.4716   33.9864 C   0  0  0  0  0  0  0  0  0  0  0  0
   13.2747   37.7291   34.7944 C   0  0  0  0  0  0  0  0  0  0  0  0
   15.6240   35.7581   33.1861 N   0  0  0  0  0  0  0  0  0  0  0  0
   14.8721   36.4402   35.3331 C   0  0  0  0  0  0  0  0  0  0  0  0
   13.9206   37.2257   35.8810 N   0  0  0  0  0  0  0  0  0  0  0  0
   16.5873   34.9924   33.7802 C   0  0  0  0  0  0  0  0  0  0  0  0
   15.8576   35.6714   35.9444 C   0  0  0  0  0  0  0  0  0  0  0  0
   16.7026   34.9585   35.1439 N   0  0  0  0  0  0  0  0  0  0  0  0
   16.0102   35.6382   37.3564 N   0  0  0  0  0  0  0  0  0  0  0  0
    7.6770   44.0707   34.0504 H   0  0  0  0  0  0  0  0  0  0  0  0
    9.1827   45.3821   35.3534 H   0  0  0  0  0  0  0  0  0  0  0  0
   10.3192   45.4406   34.1000 H   0  0  0  0  0  0  0  0  0  0  0  0
    9.9711   44.0679   31.9739 H   0  0  0  0  0  0  0  0  0  0  0  0
    8.4816   43.0849   31.8669 H   0  0  0  0  0  0  0  0  0  0  0  0
    8.5554   46.1508   31.8740 H   0  0  0  0  0  0  0  0  0  0  0  0
    8.5385   45.1360   30.4021 H   0  0  0  0  0  0  0  0  0  0  0  0
    6.3296   44.1801   30.9674 H   0  0  0  0  0  0  0  0  0  0  0  0
    6.3020   45.0641   32.5332 H   0  0  0  0  0  0  0  0  0  0  0  0
    4.9238   46.2679   30.9271 H   0  0  0  0  0  0  0  0  0  0  0  0
    6.2462   46.2901   29.7217 H   0  0  0  0  0  0  0  0  0  0  0  0
    6.2827   47.7533   32.4209 H   0  0  0  0  0  0  0  0  0  0  0  0
    8.6498   51.5271   31.4061 H   0  0  0  0  0  0  0  0  0  0  0  0
    9.1821   50.3980   30.1404 H   0  0  0  0  0  0  0  0  0  0  0  0
    8.2718   50.5484   27.9542 H   0  0  0  0  0  0  0  0  0  0  0  0
    6.8742   51.7078   26.3007 H   0  0  0  0  0  0  0  0  0  0  0  0
    4.8735   53.8454   29.4193 H   0  0  0  0  0  0  0  0  0  0  0  0
    5.1830   53.3584   27.0305 H   0  0  0  0  0  0  0  0  0  0  0  0
   11.2094   41.0479   31.8921 H   0  0  0  0  0  0  0  0  0  0  0  0
    9.7448   40.0200   31.9304 H   0  0  0  0  0  0  0  0  0  0  0  0
   11.6206   39.0685   30.5942 H   0  0  0  0  0  0  0  0  0  0  0  0
   10.7059   37.5563   33.1438 H   0  0  0  0  0  0  0  0  0  0  0  0
   14.2095   37.4543   31.5601 H   0  0  0  0  0  0  0  0  0  0  0  0
   10.0865   37.4209   30.3413 H   0  0  0  0  0  0  0  0  0  0  0  0
   12.1276   35.7872   32.5549 H   0  0  0  0  0  0  0  0  0  0  0  0
   12.5031   37.0109   29.9672 H   0  0  0  0  0  0  0  0  0  0  0  0
   12.4328   38.3996   34.8703 H   0  0  0  0  0  0  0  0  0  0  0  0
   17.2670   34.4148   33.1690 H   0  0  0  0  0  0  0  0  0  0  0  0
   16.7640   35.0601   37.7896 H   0  0  0  0  0  0  0  0  0  0  0  0
   15.3758   36.1862   37.9792 H   0  0  0  0  0  0  0  0  0  0  0  0
  1  2  2  0
  1  3  1  0
  3  4  1  0
  4  5  1  0
  6  1  1  0
  7  6  1  0
  6  8  1  0
  8  9  1  0
  9 10  1  0
 10 11  1  0
 11 12  1  0
 12 13  1  0
 13 14  1  0
 13 15  2  0
 14 16  1  0
 16 17  1  0
 17 18  2  0
 19 17  1  0
 18 20  1  0
 21 19  2  0
 19 22  1  0
 20 23  2  0
 23 21  1  0
 22 24  1  0
 22 25  2  0
  4 26  2  0
  4 27  1  0
 28 27  1  0
 28 29  1  0
 29 30  1  0
 29 31  1  0
 30 32  1  0
 31 33  1  0
 31 34  1  0
 34 32  1  0
 32 35  1  0
 34 36  1  0
 37 35  1  0
 38 35  1  0
 39 37  2  0
 37 40  1  0
 41 38  2  0
 42 39  1  0
 40 43  2  0
 40 41  1  0
 44 42  2  0
 44 43  1  0
 43 45  1  0
  6 46  1  6
  7 47  1  0
  7 48  1  0
  8 49  1  0
  8 50  1  0
  9 51  1  0
  9 52  1  0
 10 53  1  0
 10 54  1  0
 11 55  1  0
 11 56  1  0
 12 57  1  0
 16 58  1  0
 16 59  1  0
 18 60  1  0
 20 61  1  0
 21 62  1  0
 23 63  1  0
 28 64  1  0
 28 65  1  0
 29 66  1  0
 31 67  1  0
 32 68  1  0
 33 69  1  0
 34 70  1  0
 36 71  1  0
 38 72  1  0
 42 73  1  0
 45 74  1  0
 45 75  1  0
M  CHG  3   5  -1  22   1  24  -1
M  END
>  <EmbedRMS>  (437) 
0.0761211347695

$$$$

     RDKit          3D

 75 78  0  0  0  0  0  0  0  0999 V2000
    9.4329   42.9367   34.3465 C   0  0  0  0  0  0  0  0  0  0  0  0
   10.4906   43.0332   35.0318 O   0  0  0  0  0  0  0  0  0  0  0  0
    8.8553   41.7105   34.0310 O   0  0  0  0  0  0  0  0  0  0  0  0
    9.4930   40.2143   34.4706 P   0  0  0  0  0  0  0  0  0  0  0  0
    9.7296   40.1727   36.1315 O   0  0  0  0  0  0  0  0  0  0  0  0
    8.7504   44.1349   33.7740 C   0  0  1  0  0  0  0  0  0  0  0  0
    9.2960   45.3822   34.3131 N   0  0  0  0  0  0  0  0  0  0  0  0
    8.8892   44.0525   32.2357 C   0  0  0  0  0  0  0  0  0  0  0  0
    8.2032   45.1822   31.4610 C   0  0  0  0  0  0  0  0  0  0  0  0
    6.6657   45.1033   31.4817 C   0  0  0  0  0  0  0  0  0  0  0  0
    6.0276   46.3245   30.8115 C   0  0  0  0  0  0  0  0  0  0  0  0
    6.5106   47.5625   31.4231 N   0  0  0  0  0  0  0  0  0  0  0  0
    7.2372   48.5474   30.6789 C   0  0  0  0  0  0  0  0  0  0  0  0
    7.5829   49.7857   31.2372 O   0  0  0  0  0  0  0  0  0  0  0  0
    7.5953   48.3039   29.4971 O   0  0  0  0  0  0  0  0  0  0  0  0
    7.1732   50.2450   32.5251 C   0  0  0  0  0  0  0  0  0  0  0  0
    5.6847   50.5117   32.5600 C   0  0  0  0  0  0  0  0  0  0  0  0
    4.9123   49.8856   33.5559 C   0  0  0  0  0  0  0  0  0  0  0  0
    5.0397   51.3445   31.6044 C   0  0  0  0  0  0  0  0  0  0  0  0
    3.5275   50.0504   33.5933 C   0  0  0  0  0  0  0  0  0  0  0  0
    3.6410   51.4831   31.6516 C   0  0  0  0  0  0  0  0  0  0  0  0
    5.7707   52.0400   30.5778 N   0  0  0  0  0  0  0  0  0  0  0  0
    2.8925   50.8423   32.6394 C   0  0  0  0  0  0  0  0  0  0  0  0
    5.1691   52.3105   29.3702 O   0  0  0  0  0  0  0  0  0  0  0  0
    6.8824   52.5519   30.8210 O   0  0  0  0  0  0  0  0  0  0  0  0
    8.5366   39.1382   34.0139 O   0  0  0  0  0  0  0  0  0  0  0  0
   10.9785   40.0883   33.6869 O   0  0  0  0  0  0  0  0  0  0  0  0
   10.7973   40.0895   32.2883 C   0  0  0  0  0  0  0  0  0  0  0  0
   11.5882   38.9234   31.7043 C   0  0  0  0  0  0  0  0  0  0  0  0
   12.9230   38.9440   32.1728 O   0  0  0  0  0  0  0  0  0  0  0  0
   11.0048   37.5703   32.0916 C   0  0  0  0  0  0  0  0  0  0  0  0
   13.3570   37.5960   32.2595 C   0  0  0  0  0  0  0  0  0  0  0  0
    9.9332   37.1986   31.2676 O   0  0  0  0  0  0  0  0  0  0  0  0
   12.1965   36.6751   31.8949 C   0  0  0  0  0  0  0  0  0  0  0  0
   13.8037   37.2979   33.6187 N   0  0  0  0  0  0  0  0  0  0  0  0
   12.2934   36.2389   30.5581 O   0  0  0  0  0  0  0  0  0  0  0  0
   14.7929   36.4726   33.9860 C   0  0  0  0  0  0  0  0  0  0  0  0
   13.2755   37.7304   34.7934 C   0  0  0  0  0  0  0  0  0  0  0  0
   15.6244   35.7585   33.1859 N   0  0  0  0  0  0  0  0  0  0  0  0
   14.8722   36.4406   35.3328 C   0  0  0  0  0  0  0  0  0  0  0  0
   13.9205   37.2262   35.8803 N   0  0  0  0  0  0  0  0  0  0  0  0
   16.5872   34.9923   33.7802 C   0  0  0  0  0  0  0  0  0  0  0  0
   15.8573   35.6715   35.9442 C   0  0  0  0  0  0  0  0  0  0  0  0
   16.7023   34.9584   35.1439 N   0  0  0  0  0  0  0  0  0  0  0  0
   16.0098   35.6384   37.3563 N   0  0  0  0  0  0  0  0  0  0  0  0
    7.6767   44.0710   34.0500 H   0  0  0  0  0  0  0  0  0  0  0  0
   10.3189   45.4407   34.1001 H   0  0  0  0  0  0  0  0  0  0  0  0
    9.1820   45.3826   35.3532 H   0  0  0  0  0  0  0  0  0  0  0  0
    8.4814   43.0848   31.8669 H   0  0  0  0  0  0  0  0  0  0  0  0
    9.9711   44.0675   31.9741 H   0  0  0  0  0  0  0  0  0  0  0  0
    8.5546   46.1506   31.8753 H   0  0  0  0  0  0  0  0  0  0  0  0
    8.5409   45.1375   30.4024 H   0  0  0  0  0  0  0  0  0  0  0  0
    6.3005   45.0573   32.5286 H   0  0  0  0  0  0  0  0  0  0  0  0
    6.3315   44.1809   30.9589 H   0  0  0  0  0  0  0  0  0  0  0  0
    6.2421   46.2949   29.7217 H   0  0  0  0  0  0  0  0  0  0  0  0
    4.9245   46.2706   30.9322 H   0  0  0  0  0  0  0  0  0  0  0  0
    6.3129   47.7067   32.4365 H   0  0  0  0  0  0  0  0  0  0  0  0
    7.7122   51.1860   32.7582 H   0  0  0  0  0  0  0  0  0  0  0  0
    7.4872   49.5119   33.2996 H   0  0  0  0  0  0  0  0  0  0  0  0
    5.3810   49.2551   34.3014 H   0  0  0  0  0  0  0  0  0  0  0  0
    2.9448   49.5574   34.3608 H   0  0  0  0  0  0  0  0  0  0  0  0
    3.1278   52.1059   30.9299 H   0  0  0  0  0  0  0  0  0  0  0  0
    1.8174   50.9652   32.6683 H   0  0  0  0  0  0  0  0  0  0  0  0
    9.7422   40.0186   31.9315 H   0  0  0  0  0  0  0  0  0  0  0  0
   11.2113   41.0390   31.8862 H   0  0  0  0  0  0  0  0  0  0  0  0
   11.5931   39.0396   30.5966 H   0  0  0  0  0  0  0  0  0  0  0  0
   10.6986   37.5585   33.1640 H   0  0  0  0  0  0  0  0  0  0  0  0
   14.2072   37.4492   31.5564 H   0  0  0  0  0  0  0  0  0  0  0  0
    9.5321   36.3881   31.6771 H   0  0  0  0  0  0  0  0  0  0  0  0
   12.1344   35.7838   32.5583 H   0  0  0  0  0  0  0  0  0  0  0  0
   12.4642   37.0179   29.9674 H   0  0  0  0  0  0  0  0  0  0  0  0
   12.4333   38.4005   34.8692 H   0  0  0  0  0  0  0  0  0  0  0  0
   17.2668   34.4144   33.1692 H   0  0  0  0  0  0  0  0  0  0  0  0
   15.3755   36.1866   37.9789 H   0  0  0  0  0  0  0  0  0  0  0  0
   16.7634   35.0600   37.7896 H   0  0  0  0  0  0  0  0  0  0  0  0
  1  2  2  0
  1  3  1  0
  3  4  1  0
  4  5  1  0
  6  1  1  0
  7  6  1  0
  6  8  1  0
  8  9  1  0
  9 10  1  0
 10 11  1  0
 11 12  1  0
 12 13  1  0
 13 14  1  0
 13 15  2  0
 14 16  1  0
 16 17  1  0
 17 18  2  0
 19 17  1  0
 18 20  1  0
 21 19  2  0
 19 22  1  0
 20 23  2  0
 23 21  1  0
 22 24  1  0
 22 25  2  0
  4 26  2  0
  4 27  1  0
 28 27  1  0
 28 29  1  0
 29 30  1  0
 29 31  1  0
 30 32  1  0
 31 33  1  0
 31 34  1  0
 34 32  1  0
 32 35  1  0
 34 36  1  0
 37 35  1  0
 38 35  1  0
 39 37  2  0
 37 40  1  0
 41 38  2  0
 42 39  1  0
 40 43  2  0
 40 41  1  0
 44 42  2  0
 44 43  1  0
 43 45  1  0
  6 46  1  6
  7 47  1  0
  7 48  1  0
  8 49  1  0
  8 50  1  0
  9 51  1  0
  9 52  1  0
 10 53  1  0
 10 54  1  0
 11 55  1  0
 11 56  1  0
 12 57  1  0
 16 58  1  0
 16 59  1  0
 18 60  1  0
 20 61  1  0
 21 62  1  0
 23 63  1  0
 28 64  1  0
 28 65  1  0
 29 66  1  0
 31 67  1  0
 32 68  1  0
 33 69  1  0
 34 70  1  0
 36 71  1  0
 38 72  1  0
 42 73  1  0
 45 74  1  0
 45 75  1  0
M  CHG  3   5  -1  22   1  24  -1
M  END
>  <EmbedRMS>  (438) 
0.0756365316646

$$$$

     RDKit          3D

 75 78  0  0  0  0  0  0  0  0999 V2000
    9.4310   42.9411   34.3440 C   0  0  0  0  0  0  0  0  0  0  0  0
   10.4886   43.0410   35.0293 O   0  0  0  0  0  0  0  0  0  0  0  0
    8.8553   41.7129   34.0302 O   0  0  0  0  0  0  0  0  0  0  0  0
    9.4932   40.2164   34.4705 P   0  0  0  0  0  0  0  0  0  0  0  0
    9.7298   40.1743   36.1314 O   0  0  0  0  0  0  0  0  0  0  0  0
    8.7483   44.1360   33.7722 C   0  0  1  0  0  0  0  0  0  0  0  0
    9.3039   45.3665   34.3388 N   0  0  0  0  0  0  0  0  0  0  0  0
    8.8892   44.0518   32.2309 C   0  0  0  0  0  0  0  0  0  0  0  0
    8.2015   45.1720   31.4435 C   0  0  0  0  0  0  0  0  0  0  0  0
    6.6643   45.1065   31.4887 C   0  0  0  0  0  0  0  0  0  0  0  0
    6.0268   46.3237   30.8123 C   0  0  0  0  0  0  0  0  0  0  0  0
    6.5084   47.5645   31.4190 N   0  0  0  0  0  0  0  0  0  0  0  0
    7.2421   48.5406   30.6825 C   0  0  0  0  0  0  0  0  0  0  0  0
    7.5842   49.7470   31.3026 O   0  0  0  0  0  0  0  0  0  0  0  0
    7.5941   48.3105   29.4938 O   0  0  0  0  0  0  0  0  0  0  0  0
    8.2906   50.7945   30.6401 C   0  0  0  0  0  0  0  0  0  0  0  0
    7.4264   51.4394   29.5806 C   0  0  0  0  0  0  0  0  0  0  0  0
    7.9010   51.4757   28.2563 C   0  0  0  0  0  0  0  0  0  0  0  0
    6.1372   51.9630   29.8698 C   0  0  0  0  0  0  0  0  0  0  0  0
    7.1165   52.0070   27.2321 C   0  0  0  0  0  0  0  0  0  0  0  0
    5.3574   52.4802   28.8187 C   0  0  0  0  0  0  0  0  0  0  0  0
    5.5970   51.9608   31.2042 N   0  0  0  0  0  0  0  0  0  0  0  0
    5.8459   52.5047   27.5120 C   0  0  0  0  0  0  0  0  0  0  0  0
    6.3927   52.2581   32.2858 O   0  0  0  0  0  0  0  0  0  0  0  0
    4.3662   51.8462   31.3801 O   0  0  0  0  0  0  0  0  0  0  0  0
    8.5368   39.1399   34.0142 O   0  0  0  0  0  0  0  0  0  0  0  0
   10.9786   40.0891   33.6868 O   0  0  0  0  0  0  0  0  0  0  0  0
   10.7973   40.0897   32.2881 C   0  0  0  0  0  0  0  0  0  0  0  0
   11.5882   38.9235   31.7043 C   0  0  0  0  0  0  0  0  0  0  0  0
   12.9230   38.9440   32.1728 O   0  0  0  0  0  0  0  0  0  0  0  0
   11.0048   37.5704   32.0917 C   0  0  0  0  0  0  0  0  0  0  0  0
   13.3570   37.5961   32.2595 C   0  0  0  0  0  0  0  0  0  0  0  0
    9.9331   37.1987   31.2677 O   0  0  0  0  0  0  0  0  0  0  0  0
   12.1965   36.6751   31.8950 C   0  0  0  0  0  0  0  0  0  0  0  0
   13.8037   37.2979   33.6187 N   0  0  0  0  0  0  0  0  0  0  0  0
   12.2934   36.2389   30.5582 O   0  0  0  0  0  0  0  0  0  0  0  0
   14.7929   36.4726   33.9860 C   0  0  0  0  0  0  0  0  0  0  0  0
   13.2755   37.7304   34.7934 C   0  0  0  0  0  0  0  0  0  0  0  0
   15.6244   35.7585   33.1859 N   0  0  0  0  0  0  0  0  0  0  0  0
   14.8722   36.4406   35.3328 C   0  0  0  0  0  0  0  0  0  0  0  0
   13.9205   37.2262   35.8803 N   0  0  0  0  0  0  0  0  0  0  0  0
   16.5872   34.9923   33.7802 C   0  0  0  0  0  0  0  0  0  0  0  0
   15.8573   35.6715   35.9442 C   0  0  0  0  0  0  0  0  0  0  0  0
   16.7023   34.9584   35.1439 N   0  0  0  0  0  0  0  0  0  0  0  0
   16.0098   35.6384   37.3563 N   0  0  0  0  0  0  0  0  0  0  0  0
    7.6763   44.0635   34.0547 H   0  0  0  0  0  0  0  0  0  0  0  0
   10.2152   45.5879   33.8747 H   0  0  0  0  0  0  0  0  0  0  0  0
    8.6469   46.1559   34.1430 H   0  0  0  0  0  0  0  0  0  0  0  0
    9.9708   44.0641   31.9680 H   0  0  0  0  0  0  0  0  0  0  0  0
    8.4830   43.0816   31.8668 H   0  0  0  0  0  0  0  0  0  0  0  0
    8.5198   45.0956   30.3807 H   0  0  0  0  0  0  0  0  0  0  0  0
    8.5715   46.1486   31.8172 H   0  0  0  0  0  0  0  0  0  0  0  0
    6.3147   44.1801   30.9836 H   0  0  0  0  0  0  0  0  0  0  0  0
    6.3142   45.0783   32.5414 H   0  0  0  0  0  0  0  0  0  0  0  0
    6.2448   46.2897   29.7232 H   0  0  0  0  0  0  0  0  0  0  0  0
    4.9234   46.2700   30.9301 H   0  0  0  0  0  0  0  0  0  0  0  0
    6.2848   47.7545   32.4218 H   0  0  0  0  0  0  0  0  0  0  0  0
    9.2321   50.3860   30.2111 H   0  0  0  0  0  0  0  0  0  0  0  0
    8.5935   51.5592   31.3837 H   0  0  0  0  0  0  0  0  0  0  0  0
    8.8793   51.0813   28.0105 H   0  0  0  0  0  0  0  0  0  0  0  0
    7.4927   52.0264   26.2173 H   0  0  0  0  0  0  0  0  0  0  0  0
    4.3707   52.8805   29.0150 H   0  0  0  0  0  0  0  0  0  0  0  0
    5.2377   52.9124   26.7148 H   0  0  0  0  0  0  0  0  0  0  0  0
   11.2112   41.0391   31.8857 H   0  0  0  0  0  0  0  0  0  0  0  0
    9.7422   40.0186   31.9315 H   0  0  0  0  0  0  0  0  0  0  0  0
   11.5932   39.0396   30.5966 H   0  0  0  0  0  0  0  0  0  0  0  0
   10.6985   37.5587   33.1640 H   0  0  0  0  0  0  0  0  0  0  0  0
   14.2072   37.4493   31.5564 H   0  0  0  0  0  0  0  0  0  0  0  0
    9.5321   36.3882   31.6772 H   0  0  0  0  0  0  0  0  0  0  0  0
   12.1344   35.7838   32.5583 H   0  0  0  0  0  0  0  0  0  0  0  0
   12.4641   37.0180   29.9675 H   0  0  0  0  0  0  0  0  0  0  0  0
   12.4333   38.4006   34.8692 H   0  0  0  0  0  0  0  0  0  0  0  0
   17.2668   34.4144   33.1692 H   0  0  0  0  0  0  0  0  0  0  0  0
   15.3755   36.1866   37.9789 H   0  0  0  0  0  0  0  0  0  0  0  0
   16.7634   35.0600   37.7896 H   0  0  0  0  0  0  0  0  0  0  0  0
  1  2  2  0
  1  3  1  0
  3  4  1  0
  4  5  1  0
  6  1  1  0
  7  6  1  0
  6  8  1  0
  8  9  1  0
  9 10  1  0
 10 11  1  0
 11 12  1  0
 12 13  1  0
 13 14  1  0
 13 15  2  0
 14 16  1  0
 16 17  1  0
 17 18  2  0
 19 17  1  0
 18 20  1  0
 21 19  2  0
 19 22  1  0
 20 23  2  0
 23 21  1  0
 22 24  1  0
 22 25  2  0
  4 26  2  0
  4 27  1  0
 28 27  1  0
 28 29  1  0
 29 30  1  0
 29 31  1  0
 30 32  1  0
 31 33  1  0
 31 34  1  0
 34 32  1  0
 32 35  1  0
 34 36  1  0
 37 35  1  0
 38 35  1  0
 39 37  2  0
 37 40  1  0
 41 38  2  0
 42 39  1  0
 40 43  2  0
 40 41  1  0
 44 42  2  0
 44 43  1  0
 43 45  1  0
  6 46  1  6
  7 47  1  0
  7 48  1  0
  8 49  1  0
  8 50  1  0
  9 51  1  0
  9 52  1  0
 10 53  1  0
 10 54  1  0
 11 55  1  0
 11 56  1  0
 12 57  1  0
 16 58  1  0
 16 59  1  0
 18 60  1  0
 20 61  1  0
 21 62  1  0
 23 63  1  0
 28 64  1  0
 28 65  1  0
 29 66  1  0
 31 67  1  0
 32 68  1  0
 33 69  1  0
 34 70  1  0
 36 71  1  0
 38 72  1  0
 42 73  1  0
 45 74  1  0
 45 75  1  0
M  CHG  3   5  -1  22   1  24  -1
M  END
>  <EmbedRMS>  (439) 
0.0750266084138

$$$$

     RDKit          3D

 75 78  0  0  0  0  0  0  0  0999 V2000
    9.4298   42.9396   34.3435 C   0  0  0  0  0  0  0  0  0  0  0  0
   10.4911   43.0383   35.0235 O   0  0  0  0  0  0  0  0  0  0  0  0
    8.8549   41.7116   34.0283 O   0  0  0  0  0  0  0  0  0  0  0  0
    9.4942   40.2154   34.4675 P   0  0  0  0  0  0  0  0  0  0  0  0
    9.7309   40.1738   36.1286 O   0  0  0  0  0  0  0  0  0  0  0  0
    8.7407   44.1378   33.7786 C   0  0  1  0  0  0  0  0  0  0  0  0
    9.3005   45.3723   34.3325 N   0  0  0  0  0  0  0  0  0  0  0  0
    8.8961   44.0591   32.2400 C   0  0  0  0  0  0  0  0  0  0  0  0
    8.2030   45.1686   31.4399 C   0  0  0  0  0  0  0  0  0  0  0  0
    6.6654   45.1047   31.4872 C   0  0  0  0  0  0  0  0  0  0  0  0
    6.0287   46.3235   30.8118 C   0  0  0  0  0  0  0  0  0  0  0  0
    6.5113   47.5616   31.4230 N   0  0  0  0  0  0  0  0  0  0  0  0
    7.2455   48.5436   30.6820 C   0  0  0  0  0  0  0  0  0  0  0  0
    7.6209   49.7677   31.2531 O   0  0  0  0  0  0  0  0  0  0  0  0
    7.5882   48.3078   29.4941 O   0  0  0  0  0  0  0  0  0  0  0  0
    7.3091   50.1726   32.5860 C   0  0  0  0  0  0  0  0  0  0  0  0
    5.8300   50.4545   32.7338 C   0  0  0  0  0  0  0  0  0  0  0  0
    5.2018   51.2570   31.7640 C   0  0  0  0  0  0  0  0  0  0  0  0
    5.0533   49.9132   33.7909 C   0  0  0  0  0  0  0  0  0  0  0  0
    3.8247   51.4797   31.8066 C   0  0  0  0  0  0  0  0  0  0  0  0
    3.6646   50.1319   33.8059 C   0  0  0  0  0  0  0  0  0  0  0  0
    5.6534   49.1686   34.8619 N   0  0  0  0  0  0  0  0  0  0  0  0
    3.0558   50.9092   32.8195 C   0  0  0  0  0  0  0  0  0  0  0  0
    6.7429   49.6801   35.5285 O   0  0  0  0  0  0  0  0  0  0  0  0
    5.0641   48.1774   35.3400 O   0  0  0  0  0  0  0  0  0  0  0  0
    8.5375   39.1390   34.0123 O   0  0  0  0  0  0  0  0  0  0  0  0
   10.9797   40.0879   33.6827 O   0  0  0  0  0  0  0  0  0  0  0  0
   10.8002   40.0907   32.2830 C   0  0  0  0  0  0  0  0  0  0  0  0
   11.5958   38.9271   31.6963 C   0  0  0  0  0  0  0  0  0  0  0  0
   12.9239   38.9409   32.1767 O   0  0  0  0  0  0  0  0  0  0  0  0
   11.0062   37.5719   32.0794 C   0  0  0  0  0  0  0  0  0  0  0  0
   13.3506   37.5906   32.2614 C   0  0  0  0  0  0  0  0  0  0  0  0
    9.9064   37.1793   31.2946 O   0  0  0  0  0  0  0  0  0  0  0  0
   12.1920   36.6672   31.9004 C   0  0  0  0  0  0  0  0  0  0  0  0
   13.8018   37.2948   33.6193 N   0  0  0  0  0  0  0  0  0  0  0  0
   12.3133   36.2788   30.5561 O   0  0  0  0  0  0  0  0  0  0  0  0
   14.7927   36.4716   33.9861 C   0  0  0  0  0  0  0  0  0  0  0  0
   13.2746   37.7284   34.7941 C   0  0  0  0  0  0  0  0  0  0  0  0
   15.6240   35.7576   33.1859 N   0  0  0  0  0  0  0  0  0  0  0  0
   14.8728   36.4406   35.3330 C   0  0  0  0  0  0  0  0  0  0  0  0
   13.9209   37.2258   35.8807 N   0  0  0  0  0  0  0  0  0  0  0  0
   16.5874   34.9920   33.7802 C   0  0  0  0  0  0  0  0  0  0  0  0
   15.8579   35.6716   35.9443 C   0  0  0  0  0  0  0  0  0  0  0  0
   16.7028   34.9584   35.1439 N   0  0  0  0  0  0  0  0  0  0  0  0
   16.0103   35.6383   37.3563 N   0  0  0  0  0  0  0  0  0  0  0  0
    7.6662   44.0652   34.0544 H   0  0  0  0  0  0  0  0  0  0  0  0
    8.6786   46.1669   34.0599 H   0  0  0  0  0  0  0  0  0  0  0  0
    9.2332   45.3274   35.3760 H   0  0  0  0  0  0  0  0  0  0  0  0
    8.5082   43.0838   31.8695 H   0  0  0  0  0  0  0  0  0  0  0  0
    9.9809   44.0904   31.9919 H   0  0  0  0  0  0  0  0  0  0  0  0
    8.5182   45.0768   30.3774 H   0  0  0  0  0  0  0  0  0  0  0  0
    8.5759   46.1510   31.7937 H   0  0  0  0  0  0  0  0  0  0  0  0
    6.3161   45.0775   32.5401 H   0  0  0  0  0  0  0  0  0  0  0  0
    6.3143   44.1784   30.9831 H   0  0  0  0  0  0  0  0  0  0  0  0
    6.2456   46.2915   29.7226 H   0  0  0  0  0  0  0  0  0  0  0  0
    4.9254   46.2703   30.9310 H   0  0  0  0  0  0  0  0  0  0  0  0
    6.3057   47.7080   32.4345 H   0  0  0  0  0  0  0  0  0  0  0  0
    7.8628   51.1101   32.8021 H   0  0  0  0  0  0  0  0  0  0  0  0
    7.6805   49.4013   33.2895 H   0  0  0  0  0  0  0  0  0  0  0  0
    5.7789   51.6956   30.9590 H   0  0  0  0  0  0  0  0  0  0  0  0
    3.3519   52.0896   31.0477 H   0  0  0  0  0  0  0  0  0  0  0  0
    3.0555   49.7196   34.6005 H   0  0  0  0  0  0  0  0  0  0  0  0
    1.9873   51.0795   32.8479 H   0  0  0  0  0  0  0  0  0  0  0  0
   11.2114   41.0420   31.8828 H   0  0  0  0  0  0  0  0  0  0  0  0
    9.7454   40.0168   31.9261 H   0  0  0  0  0  0  0  0  0  0  0  0
   11.6246   39.0449   30.5888 H   0  0  0  0  0  0  0  0  0  0  0  0
   10.7050   37.5581   33.1500 H   0  0  0  0  0  0  0  0  0  0  0  0
   14.1985   37.4426   31.5553 H   0  0  0  0  0  0  0  0  0  0  0  0
   10.0893   37.4057   30.3459 H   0  0  0  0  0  0  0  0  0  0  0  0
   12.1337   35.7754   32.5703 H   0  0  0  0  0  0  0  0  0  0  0  0
   11.7934   35.4394   30.4514 H   0  0  0  0  0  0  0  0  0  0  0  0
   12.4314   38.3973   34.8699 H   0  0  0  0  0  0  0  0  0  0  0  0
   17.2669   34.4142   33.1691 H   0  0  0  0  0  0  0  0  0  0  0  0
   15.3759   36.1864   37.9790 H   0  0  0  0  0  0  0  0  0  0  0  0
   16.7638   35.0599   37.7896 H   0  0  0  0  0  0  0  0  0  0  0  0
  1  2  2  0
  1  3  1  0
  3  4  1  0
  4  5  1  0
  6  1  1  0
  7  6  1  0
  6  8  1  0
  8  9  1  0
  9 10  1  0
 10 11  1  0
 11 12  1  0
 12 13  1  0
 13 14  1  0
 13 15  2  0
 14 16  1  0
 16 17  1  0
 17 18  2  0
 19 17  1  0
 18 20  1  0
 21 19  2  0
 19 22  1  0
 20 23  2  0
 23 21  1  0
 22 24  1  0
 22 25  2  0
  4 26  2  0
  4 27  1  0
 28 27  1  0
 28 29  1  0
 29 30  1  0
 29 31  1  0
 30 32  1  0
 31 33  1  0
 31 34  1  0
 34 32  1  0
 32 35  1  0
 34 36  1  0
 37 35  1  0
 38 35  1  0
 39 37  2  0
 37 40  1  0
 41 38  2  0
 42 39  1  0
 40 43  2  0
 40 41  1  0
 44 42  2  0
 44 43  1  0
 43 45  1  0
  6 46  1  6
  7 47  1  0
  7 48  1  0
  8 49  1  0
  8 50  1  0
  9 51  1  0
  9 52  1  0
 10 53  1  0
 10 54  1  0
 11 55  1  0
 11 56  1  0
 12 57  1  0
 16 58  1  0
 16 59  1  0
 18 60  1  0
 20 61  1  0
 21 62  1  0
 23 63  1  0
 28 64  1  0
 28 65  1  0
 29 66  1  0
 31 67  1  0
 32 68  1  0
 33 69  1  0
 34 70  1  0
 36 71  1  0
 38 72  1  0
 42 73  1  0
 45 74  1  0
 45 75  1  0
M  CHG  3   5  -1  22   1  24  -1
M  END
>  <EmbedRMS>  (440) 
0.0739592917328

$$$$

     RDKit          3D

 75 78  0  0  0  0  0  0  0  0999 V2000
    9.4304   42.9406   34.3421 C   0  0  0  0  0  0  0  0  0  0  0  0
   10.4912   43.0386   35.0229 O   0  0  0  0  0  0  0  0  0  0  0  0
    8.8550   41.7126   34.0272 O   0  0  0  0  0  0  0  0  0  0  0  0
    9.4939   40.2162   34.4671 P   0  0  0  0  0  0  0  0  0  0  0  0
    9.7307   40.1745   36.1282 O   0  0  0  0  0  0  0  0  0  0  0  0
    8.7423   44.1401   33.7777 C   0  0  1  0  0  0  0  0  0  0  0  0
    9.3039   45.3731   34.3327 N   0  0  0  0  0  0  0  0  0  0  0  0
    8.8976   44.0643   32.2388 C   0  0  0  0  0  0  0  0  0  0  0  0
    8.2014   45.1743   31.4406 C   0  0  0  0  0  0  0  0  0  0  0  0
    6.6637   45.1089   31.4907 C   0  0  0  0  0  0  0  0  0  0  0  0
    6.0201   46.3203   30.8062 C   0  0  0  0  0  0  0  0  0  0  0  0
    6.4855   47.5673   31.4122 N   0  0  0  0  0  0  0  0  0  0  0  0
    7.2794   48.5134   30.7004 C   0  0  0  0  0  0  0  0  0  0  0  0
    7.7996   49.6144   31.3873 O   0  0  0  0  0  0  0  0  0  0  0  0
    7.5854   48.3123   29.4937 O   0  0  0  0  0  0  0  0  0  0  0  0
    8.9501   50.3279   30.9383 C   0  0  0  0  0  0  0  0  0  0  0  0
   10.1703   49.4333   30.9973 C   0  0  0  0  0  0  0  0  0  0  0  0
   10.4005   48.6979   32.1754 C   0  0  0  0  0  0  0  0  0  0  0  0
   11.0357   49.2492   29.8886 C   0  0  0  0  0  0  0  0  0  0  0  0
   11.4306   47.7589   32.2402 C   0  0  0  0  0  0  0  0  0  0  0  0
   12.0601   48.2888   29.9682 C   0  0  0  0  0  0  0  0  0  0  0  0
   10.9094   50.0385   28.6957 N   0  0  0  0  0  0  0  0  0  0  0  0
   12.2525   47.5473   31.1350 C   0  0  0  0  0  0  0  0  0  0  0  0
   10.8020   51.4072   28.7859 O   0  0  0  0  0  0  0  0  0  0  0  0
   11.1259   49.5230   27.5795 O   0  0  0  0  0  0  0  0  0  0  0  0
    8.5373   39.1396   34.0121 O   0  0  0  0  0  0  0  0  0  0  0  0
   10.9795   40.0880   33.6826 O   0  0  0  0  0  0  0  0  0  0  0  0
   10.8002   40.0908   32.2829 C   0  0  0  0  0  0  0  0  0  0  0  0
   11.5958   38.9272   31.6963 C   0  0  0  0  0  0  0  0  0  0  0  0
   12.9239   38.9409   32.1767 O   0  0  0  0  0  0  0  0  0  0  0  0
   11.0062   37.5720   32.0794 C   0  0  0  0  0  0  0  0  0  0  0  0
   13.3506   37.5906   32.2614 C   0  0  0  0  0  0  0  0  0  0  0  0
    9.9064   37.1793   31.2946 O   0  0  0  0  0  0  0  0  0  0  0  0
   12.1919   36.6672   31.9004 C   0  0  0  0  0  0  0  0  0  0  0  0
   13.8017   37.2948   33.6193 N   0  0  0  0  0  0  0  0  0  0  0  0
   12.3133   36.2788   30.5561 O   0  0  0  0  0  0  0  0  0  0  0  0
   14.7927   36.4717   33.9862 C   0  0  0  0  0  0  0  0  0  0  0  0
   13.2746   37.7284   34.7941 C   0  0  0  0  0  0  0  0  0  0  0  0
   15.6240   35.7576   33.1859 N   0  0  0  0  0  0  0  0  0  0  0  0
   14.8728   36.4406   35.3330 C   0  0  0  0  0  0  0  0  0  0  0  0
   13.9209   37.2258   35.8808 N   0  0  0  0  0  0  0  0  0  0  0  0
   16.5874   34.9920   33.7802 C   0  0  0  0  0  0  0  0  0  0  0  0
   15.8579   35.6716   35.9443 C   0  0  0  0  0  0  0  0  0  0  0  0
   16.7028   34.9584   35.1439 N   0  0  0  0  0  0  0  0  0  0  0  0
   16.0103   35.6383   37.3563 N   0  0  0  0  0  0  0  0  0  0  0  0
    7.6678   44.0685   34.0533 H   0  0  0  0  0  0  0  0  0  0  0  0
    9.2311   45.3301   35.3758 H   0  0  0  0  0  0  0  0  0  0  0  0
    8.6887   46.1708   34.0548 H   0  0  0  0  0  0  0  0  0  0  0  0
    8.5126   43.0886   31.8667 H   0  0  0  0  0  0  0  0  0  0  0  0
    9.9824   44.0999   31.9911 H   0  0  0  0  0  0  0  0  0  0  0  0
    8.5723   46.1574   31.7941 H   0  0  0  0  0  0  0  0  0  0  0  0
    8.5157   45.0845   30.3776 H   0  0  0  0  0  0  0  0  0  0  0  0
    6.3140   44.1776   30.9947 H   0  0  0  0  0  0  0  0  0  0  0  0
    6.3165   45.0890   32.5443 H   0  0  0  0  0  0  0  0  0  0  0  0
    6.2463   46.2853   29.7189 H   0  0  0  0  0  0  0  0  0  0  0  0
    4.9164   46.2575   30.9157 H   0  0  0  0  0  0  0  0  0  0  0  0
    6.2678   47.7499   32.4177 H   0  0  0  0  0  0  0  0  0  0  0  0
    9.1128   51.1958   31.6109 H   0  0  0  0  0  0  0  0  0  0  0  0
    8.7498   50.7179   29.9204 H   0  0  0  0  0  0  0  0  0  0  0  0
    9.7567   48.8280   33.0369 H   0  0  0  0  0  0  0  0  0  0  0  0
   11.5838   47.1858   33.1457 H   0  0  0  0  0  0  0  0  0  0  0  0
   12.7261   48.1299   29.1294 H   0  0  0  0  0  0  0  0  0  0  0  0
   13.0478   46.8149   31.1856 H   0  0  0  0  0  0  0  0  0  0  0  0
    9.7455   40.0170   31.9258 H   0  0  0  0  0  0  0  0  0  0  0  0
   11.2116   41.0422   31.8828 H   0  0  0  0  0  0  0  0  0  0  0  0
   11.6247   39.0449   30.5888 H   0  0  0  0  0  0  0  0  0  0  0  0
   10.7050   37.5582   33.1500 H   0  0  0  0  0  0  0  0  0  0  0  0
   14.1984   37.4426   31.5553 H   0  0  0  0  0  0  0  0  0  0  0  0
   10.0893   37.4058   30.3459 H   0  0  0  0  0  0  0  0  0  0  0  0
   12.1336   35.7755   32.5704 H   0  0  0  0  0  0  0  0  0  0  0  0
   11.7933   35.4395   30.4514 H   0  0  0  0  0  0  0  0  0  0  0  0
   12.4314   38.3974   34.8699 H   0  0  0  0  0  0  0  0  0  0  0  0
   17.2669   34.4142   33.1692 H   0  0  0  0  0  0  0  0  0  0  0  0
   15.3759   36.1865   37.9790 H   0  0  0  0  0  0  0  0  0  0  0  0
   16.7638   35.0599   37.7896 H   0  0  0  0  0  0  0  0  0  0  0  0
  1  2  2  0
  1  3  1  0
  3  4  1  0
  4  5  1  0
  6  1  1  0
  7  6  1  0
  6  8  1  0
  8  9  1  0
  9 10  1  0
 10 11  1  0
 11 12  1  0
 12 13  1  0
 13 14  1  0
 13 15  2  0
 14 16  1  0
 16 17  1  0
 17 18  2  0
 19 17  1  0
 18 20  1  0
 21 19  2  0
 19 22  1  0
 20 23  2  0
 23 21  1  0
 22 24  1  0
 22 25  2  0
  4 26  2  0
  4 27  1  0
 28 27  1  0
 28 29  1  0
 29 30  1  0
 29 31  1  0
 30 32  1  0
 31 33  1  0
 31 34  1  0
 34 32  1  0
 32 35  1  0
 34 36  1  0
 37 35  1  0
 38 35  1  0
 39 37  2  0
 37 40  1  0
 41 38  2  0
 42 39  1  0
 40 43  2  0
 40 41  1  0
 44 42  2  0
 44 43  1  0
 43 45  1  0
  6 46  1  6
  7 47  1  0
  7 48  1  0
  8 49  1  0
  8 50  1  0
  9 51  1  0
  9 52  1  0
 10 53  1  0
 10 54  1  0
 11 55  1  0
 11 56  1  0
 12 57  1  0
 16 58  1  0
 16 59  1  0
 18 60  1  0
 20 61  1  0
 21 62  1  0
 23 63  1  0
 28 64  1  0
 28 65  1  0
 29 66  1  0
 31 67  1  0
 32 68  1  0
 33 69  1  0
 34 70  1  0
 36 71  1  0
 38 72  1  0
 42 73  1  0
 45 74  1  0
 45 75  1  0
M  CHG  3   5  -1  22   1  24  -1
M  END
>  <EmbedRMS>  (441) 
0.0756757902345

$$$$

     RDKit          3D

 75 78  0  0  0  0  0  0  0  0999 V2000
    9.4300   42.9391   34.3430 C   0  0  0  0  0  0  0  0  0  0  0  0
   10.4908   43.0383   35.0236 O   0  0  0  0  0  0  0  0  0  0  0  0
    8.8551   41.7112   34.0282 O   0  0  0  0  0  0  0  0  0  0  0  0
    9.4943   40.2152   34.4675 P   0  0  0  0  0  0  0  0  0  0  0  0
    9.7310   40.1738   36.1286 O   0  0  0  0  0  0  0  0  0  0  0  0
    8.7413   44.1366   33.7774 C   0  0  1  0  0  0  0  0  0  0  0  0
    9.3015   45.3699   34.3305 N   0  0  0  0  0  0  0  0  0  0  0  0
    8.8969   44.0589   32.2389 C   0  0  0  0  0  0  0  0  0  0  0  0
    8.2035   45.1689   31.4390 C   0  0  0  0  0  0  0  0  0  0  0  0
    6.6664   45.1078   31.4919 C   0  0  0  0  0  0  0  0  0  0  0  0
    6.0295   46.3241   30.8134 C   0  0  0  0  0  0  0  0  0  0  0  0
    6.5066   47.5661   31.4228 N   0  0  0  0  0  0  0  0  0  0  0  0
    7.2306   48.5504   30.6755 C   0  0  0  0  0  0  0  0  0  0  0  0
    7.5382   49.8072   31.2127 O   0  0  0  0  0  0  0  0  0  0  0  0
    7.6027   48.2976   29.5000 O   0  0  0  0  0  0  0  0  0  0  0  0
    7.1419   50.2692   32.5034 C   0  0  0  0  0  0  0  0  0  0  0  0
    7.9871   49.6526   33.5953 C   0  0  0  0  0  0  0  0  0  0  0  0
    7.3372   49.0468   34.6868 C   0  0  0  0  0  0  0  0  0  0  0  0
    9.4085   49.6747   33.5616 C   0  0  0  0  0  0  0  0  0  0  0  0
    8.0710   48.4600   35.7181 C   0  0  0  0  0  0  0  0  0  0  0  0
   10.1276   49.0559   34.5996 C   0  0  0  0  0  0  0  0  0  0  0  0
   10.1385   50.3075   32.4955 N   0  0  0  0  0  0  0  0  0  0  0  0
    9.4634   48.4619   35.6731 C   0  0  0  0  0  0  0  0  0  0  0  0
   11.3710   49.8207   32.1251 O   0  0  0  0  0  0  0  0  0  0  0  0
    9.7564   51.3963   32.0203 O   0  0  0  0  0  0  0  0  0  0  0  0
    8.5376   39.1388   34.0123 O   0  0  0  0  0  0  0  0  0  0  0  0
   10.9798   40.0878   33.6827 O   0  0  0  0  0  0  0  0  0  0  0  0
   10.8002   40.0907   32.2830 C   0  0  0  0  0  0  0  0  0  0  0  0
   11.5958   38.9271   31.6963 C   0  0  0  0  0  0  0  0  0  0  0  0
   12.9239   38.9409   32.1767 O   0  0  0  0  0  0  0  0  0  0  0  0
   11.0062   37.5719   32.0794 C   0  0  0  0  0  0  0  0  0  0  0  0
   13.3506   37.5905   32.2614 C   0  0  0  0  0  0  0  0  0  0  0  0
    9.9064   37.1793   31.2946 O   0  0  0  0  0  0  0  0  0  0  0  0
   12.1920   36.6672   31.9003 C   0  0  0  0  0  0  0  0  0  0  0  0
   13.8017   37.2948   33.6193 N   0  0  0  0  0  0  0  0  0  0  0  0
   12.3133   36.2788   30.5561 O   0  0  0  0  0  0  0  0  0  0  0  0
   14.7927   36.4717   33.9862 C   0  0  0  0  0  0  0  0  0  0  0  0
   13.2746   37.7284   34.7941 C   0  0  0  0  0  0  0  0  0  0  0  0
   15.6240   35.7576   33.1859 N   0  0  0  0  0  0  0  0  0  0  0  0
   14.8728   36.4406   35.3330 C   0  0  0  0  0  0  0  0  0  0  0  0
   13.9209   37.2258   35.8808 N   0  0  0  0  0  0  0  0  0  0  0  0
   16.5874   34.9920   33.7802 C   0  0  0  0  0  0  0  0  0  0  0  0
   15.8579   35.6716   35.9443 C   0  0  0  0  0  0  0  0  0  0  0  0
   16.7028   34.9584   35.1439 N   0  0  0  0  0  0  0  0  0  0  0  0
   16.0103   35.6383   37.3563 N   0  0  0  0  0  0  0  0  0  0  0  0
    7.6668   44.0644   34.0533 H   0  0  0  0  0  0  0  0  0  0  0  0
    9.2163   45.3334   35.3730 H   0  0  0  0  0  0  0  0  0  0  0  0
    8.6883   46.1635   34.0392 H   0  0  0  0  0  0  0  0  0  0  0  0
    9.9816   44.0906   31.9909 H   0  0  0  0  0  0  0  0  0  0  0  0
    8.5091   43.0837   31.8681 H   0  0  0  0  0  0  0  0  0  0  0  0
    8.5789   46.1525   31.7877 H   0  0  0  0  0  0  0  0  0  0  0  0
    8.5148   45.0738   30.3757 H   0  0  0  0  0  0  0  0  0  0  0  0
    6.3121   44.1797   30.9930 H   0  0  0  0  0  0  0  0  0  0  0  0
    6.3205   45.0863   32.5459 H   0  0  0  0  0  0  0  0  0  0  0  0
    4.9259   46.2681   30.9285 H   0  0  0  0  0  0  0  0  0  0  0  0
    6.2493   46.2898   29.7248 H   0  0  0  0  0  0  0  0  0  0  0  0
    6.2711   47.7323   32.4247 H   0  0  0  0  0  0  0  0  0  0  0  0
    7.2704   51.3706   32.5395 H   0  0  0  0  0  0  0  0  0  0  0  0
    6.0564   50.0801   32.6530 H   0  0  0  0  0  0  0  0  0  0  0  0
    6.2557   49.0266   34.7416 H   0  0  0  0  0  0  0  0  0  0  0  0
    7.5582   47.9955   36.5504 H   0  0  0  0  0  0  0  0  0  0  0  0
   11.2101   49.0548   34.5903 H   0  0  0  0  0  0  0  0  0  0  0  0
   10.0302   47.9993   36.4708 H   0  0  0  0  0  0  0  0  0  0  0  0
    9.7454   40.0168   31.9261 H   0  0  0  0  0  0  0  0  0  0  0  0
   11.2115   41.0421   31.8829 H   0  0  0  0  0  0  0  0  0  0  0  0
   11.6246   39.0449   30.5888 H   0  0  0  0  0  0  0  0  0  0  0  0
   10.7050   37.5581   33.1500 H   0  0  0  0  0  0  0  0  0  0  0  0
   14.1985   37.4426   31.5553 H   0  0  0  0  0  0  0  0  0  0  0  0
   10.0893   37.4057   30.3459 H   0  0  0  0  0  0  0  0  0  0  0  0
   12.1337   35.7754   32.5703 H   0  0  0  0  0  0  0  0  0  0  0  0
   11.7934   35.4394   30.4514 H   0  0  0  0  0  0  0  0  0  0  0  0
   12.4314   38.3973   34.8699 H   0  0  0  0  0  0  0  0  0  0  0  0
   17.2669   34.4142   33.1692 H   0  0  0  0  0  0  0  0  0  0  0  0
   16.7638   35.0599   37.7896 H   0  0  0  0  0  0  0  0  0  0  0  0
   15.3759   36.1865   37.9790 H   0  0  0  0  0  0  0  0  0  0  0  0
  1  2  2  0
  1  3  1  0
  3  4  1  0
  4  5  1  0
  6  1  1  0
  7  6  1  0
  6  8  1  0
  8  9  1  0
  9 10  1  0
 10 11  1  0
 11 12  1  0
 12 13  1  0
 13 14  1  0
 13 15  2  0
 14 16  1  0
 16 17  1  0
 17 18  2  0
 19 17  1  0
 18 20  1  0
 21 19  2  0
 19 22  1  0
 20 23  2  0
 23 21  1  0
 22 24  1  0
 22 25  2  0
  4 26  2  0
  4 27  1  0
 28 27  1  0
 28 29  1  0
 29 30  1  0
 29 31  1  0
 30 32  1  0
 31 33  1  0
 31 34  1  0
 34 32  1  0
 32 35  1  0
 34 36  1  0
 37 35  1  0
 38 35  1  0
 39 37  2  0
 37 40  1  0
 41 38  2  0
 42 39  1  0
 40 43  2  0
 40 41  1  0
 44 42  2  0
 44 43  1  0
 43 45  1  0
  6 46  1  6
  7 47  1  0
  7 48  1  0
  8 49  1  0
  8 50  1  0
  9 51  1  0
  9 52  1  0
 10 53  1  0
 10 54  1  0
 11 55  1  0
 11 56  1  0
 12 57  1  0
 16 58  1  0
 16 59  1  0
 18 60  1  0
 20 61  1  0
 21 62  1  0
 23 63  1  0
 28 64  1  0
 28 65  1  0
 29 66  1  0
 31 67  1  0
 32 68  1  0
 33 69  1  0
 34 70  1  0
 36 71  1  0
 38 72  1  0
 42 73  1  0
 45 74  1  0
 45 75  1  0
M  CHG  3   5  -1  22   1  24  -1
M  END
>  <EmbedRMS>  (442) 
0.074157801981

$$$$

     RDKit          3D

 75 78  0  0  0  0  0  0  0  0999 V2000
    9.4332   42.9366   34.3464 C   0  0  0  0  0  0  0  0  0  0  0  0
   10.4908   43.0331   35.0319 O   0  0  0  0  0  0  0  0  0  0  0  0
    8.8559   41.7104   34.0306 O   0  0  0  0  0  0  0  0  0  0  0  0
    9.4931   40.2143   34.4708 P   0  0  0  0  0  0  0  0  0  0  0  0
    9.7288   40.1729   36.1318 O   0  0  0  0  0  0  0  0  0  0  0  0
    8.7506   44.1348   33.7741 C   0  0  1  0  0  0  0  0  0  0  0  0
    9.2963   45.3821   34.3133 N   0  0  0  0  0  0  0  0  0  0  0  0
    8.8893   44.0526   32.2358 C   0  0  0  0  0  0  0  0  0  0  0  0
    8.2029   45.1821   31.4614 C   0  0  0  0  0  0  0  0  0  0  0  0
    6.6654   45.1046   31.4854 C   0  0  0  0  0  0  0  0  0  0  0  0
    6.0272   46.3228   30.8107 C   0  0  0  0  0  0  0  0  0  0  0  0
    6.5073   47.5640   31.4182 N   0  0  0  0  0  0  0  0  0  0  0  0
    7.2416   48.5406   30.6827 C   0  0  0  0  0  0  0  0  0  0  0  0
    7.5881   49.7439   31.3065 O   0  0  0  0  0  0  0  0  0  0  0  0
    7.5941   48.3104   29.4945 O   0  0  0  0  0  0  0  0  0  0  0  0
    8.2787   50.8047   30.6486 C   0  0  0  0  0  0  0  0  0  0  0  0
    7.3678   51.5134   29.6739 C   0  0  0  0  0  0  0  0  0  0  0  0
    7.5272   51.2580   28.2992 C   0  0  0  0  0  0  0  0  0  0  0  0
    6.3928   52.4582   30.0954 C   0  0  0  0  0  0  0  0  0  0  0  0
    6.7386   51.9157   27.3549 C   0  0  0  0  0  0  0  0  0  0  0  0
    5.6183   53.1199   29.1239 C   0  0  0  0  0  0  0  0  0  0  0  0
    6.1945   52.7831   31.4844 N   0  0  0  0  0  0  0  0  0  0  0  0
    5.7870   52.8457   27.7663 C   0  0  0  0  0  0  0  0  0  0  0  0
    6.2430   51.8075   32.4521 O   0  0  0  0  0  0  0  0  0  0  0  0
    5.8212   53.9291   31.8104 O   0  0  0  0  0  0  0  0  0  0  0  0
    8.5366   39.1385   34.0140 O   0  0  0  0  0  0  0  0  0  0  0  0
   10.9795   40.0875   33.6890 O   0  0  0  0  0  0  0  0  0  0  0  0
   10.8017   40.0947   32.2902 C   0  0  0  0  0  0  0  0  0  0  0  0
   11.5885   38.9266   31.7041 C   0  0  0  0  0  0  0  0  0  0  0  0
   12.9237   38.9445   32.1721 O   0  0  0  0  0  0  0  0  0  0  0  0
   11.0029   37.5726   32.0908 C   0  0  0  0  0  0  0  0  0  0  0  0
   13.3555   37.5960   32.2594 C   0  0  0  0  0  0  0  0  0  0  0  0
    9.9380   37.1846   31.2656 O   0  0  0  0  0  0  0  0  0  0  0  0
   12.1932   36.6769   31.8952 C   0  0  0  0  0  0  0  0  0  0  0  0
   13.8028   37.2977   33.6186 N   0  0  0  0  0  0  0  0  0  0  0  0
   12.2918   36.2396   30.5587 O   0  0  0  0  0  0  0  0  0  0  0  0
   14.7926   36.4727   33.9858 C   0  0  0  0  0  0  0  0  0  0  0  0
   13.2750   37.7302   34.7935 C   0  0  0  0  0  0  0  0  0  0  0  0
   15.6241   35.7586   33.1857 N   0  0  0  0  0  0  0  0  0  0  0  0
   14.8721   36.4408   35.3326 C   0  0  0  0  0  0  0  0  0  0  0  0
   13.9204   37.2263   35.8802 N   0  0  0  0  0  0  0  0  0  0  0  0
   16.5870   34.9924   33.7800 C   0  0  0  0  0  0  0  0  0  0  0  0
   15.8572   35.6717   35.9441 C   0  0  0  0  0  0  0  0  0  0  0  0
   16.7022   34.9585   35.1437 N   0  0  0  0  0  0  0  0  0  0  0  0
   16.0097   35.6384   37.3561 N   0  0  0  0  0  0  0  0  0  0  0  0
    7.6770   44.0707   34.0504 H   0  0  0  0  0  0  0  0  0  0  0  0
    9.1827   45.3821   35.3534 H   0  0  0  0  0  0  0  0  0  0  0  0
   10.3192   45.4406   34.0999 H   0  0  0  0  0  0  0  0  0  0  0  0
    9.9711   44.0678   31.9740 H   0  0  0  0  0  0  0  0  0  0  0  0
    8.4816   43.0849   31.8670 H   0  0  0  0  0  0  0  0  0  0  0  0
    8.5385   45.1360   30.4021 H   0  0  0  0  0  0  0  0  0  0  0  0
    8.5554   46.1508   31.8740 H   0  0  0  0  0  0  0  0  0  0  0  0
    6.3296   44.1801   30.9675 H   0  0  0  0  0  0  0  0  0  0  0  0
    6.3020   45.0641   32.5332 H   0  0  0  0  0  0  0  0  0  0  0  0
    6.2462   46.2901   29.7218 H   0  0  0  0  0  0  0  0  0  0  0  0
    4.9238   46.2680   30.9271 H   0  0  0  0  0  0  0  0  0  0  0  0
    6.2828   47.7533   32.4209 H   0  0  0  0  0  0  0  0  0  0  0  0
    8.6486   51.5278   31.4054 H   0  0  0  0  0  0  0  0  0  0  0  0
    9.1808   50.3989   30.1395 H   0  0  0  0  0  0  0  0  0  0  0  0
    8.2693   50.5487   27.9537 H   0  0  0  0  0  0  0  0  0  0  0  0
    6.8704   51.7075   26.3009 H   0  0  0  0  0  0  0  0  0  0  0  0
    4.8705   53.8446   29.4205 H   0  0  0  0  0  0  0  0  0  0  0  0
    5.1790   53.3576   27.0315 H   0  0  0  0  0  0  0  0  0  0  0  0
   11.2241   41.0427   31.8934 H   0  0  0  0  0  0  0  0  0  0  0  0
    9.7472   40.0378   31.9304 H   0  0  0  0  0  0  0  0  0  0  0  0
   11.5927   39.0434   30.5965 H   0  0  0  0  0  0  0  0  0  0  0  0
   10.7003   37.5442   33.1640 H   0  0  0  0  0  0  0  0  0  0  0  0
   14.2052   37.4477   31.5560 H   0  0  0  0  0  0  0  0  0  0  0  0
    9.1374   37.6722   31.5905 H   0  0  0  0  0  0  0  0  0  0  0  0
   12.1305   35.7855   32.5585 H   0  0  0  0  0  0  0  0  0  0  0  0
   12.4606   37.0186   29.9674 H   0  0  0  0  0  0  0  0  0  0  0  0
   12.4327   38.4001   34.8694 H   0  0  0  0  0  0  0  0  0  0  0  0
   17.2666   34.4146   33.1690 H   0  0  0  0  0  0  0  0  0  0  0  0
   15.3754   36.1866   37.9788 H   0  0  0  0  0  0  0  0  0  0  0  0
   16.7634   35.0601   37.7894 H   0  0  0  0  0  0  0  0  0  0  0  0
  1  2  2  0
  1  3  1  0
  3  4  1  0
  4  5  1  0
  6  1  1  0
  7  6  1  0
  6  8  1  0
  8  9  1  0
  9 10  1  0
 10 11  1  0
 11 12  1  0
 12 13  1  0
 13 14  1  0
 13 15  2  0
 14 16  1  0
 16 17  1  0
 17 18  2  0
 19 17  1  0
 18 20  1  0
 21 19  2  0
 19 22  1  0
 20 23  2  0
 23 21  1  0
 22 24  1  0
 22 25  2  0
  4 26  2  0
  4 27  1  0
 28 27  1  0
 28 29  1  0
 29 30  1  0
 29 31  1  0
 30 32  1  0
 31 33  1  0
 31 34  1  0
 34 32  1  0
 32 35  1  0
 34 36  1  0
 37 35  1  0
 38 35  1  0
 39 37  2  0
 37 40  1  0
 41 38  2  0
 42 39  1  0
 40 43  2  0
 40 41  1  0
 44 42  2  0
 44 43  1  0
 43 45  1  0
  6 46  1  6
  7 47  1  0
  7 48  1  0
  8 49  1  0
  8 50  1  0
  9 51  1  0
  9 52  1  0
 10 53  1  0
 10 54  1  0
 11 55  1  0
 11 56  1  0
 12 57  1  0
 16 58  1  0
 16 59  1  0
 18 60  1  0
 20 61  1  0
 21 62  1  0
 23 63  1  0
 28 64  1  0
 28 65  1  0
 29 66  1  0
 31 67  1  0
 32 68  1  0
 33 69  1  0
 34 70  1  0
 36 71  1  0
 38 72  1  0
 42 73  1  0
 45 74  1  0
 45 75  1  0
M  CHG  3   5  -1  22   1  24  -1
M  END
>  <EmbedRMS>  (443) 
0.0756490601495

$$$$

     RDKit          3D

 75 78  0  0  0  0  0  0  0  0999 V2000
    9.4330   42.9367   34.3463 C   0  0  0  0  0  0  0  0  0  0  0  0
   10.4906   43.0332   35.0318 O   0  0  0  0  0  0  0  0  0  0  0  0
    8.8558   41.7105   34.0299 O   0  0  0  0  0  0  0  0  0  0  0  0
    9.4944   40.2142   34.4677 P   0  0  0  0  0  0  0  0  0  0  0  0
    9.7316   40.1724   36.1287 O   0  0  0  0  0  0  0  0  0  0  0  0
    8.7504   44.1352   33.7742 C   0  0  1  0  0  0  0  0  0  0  0  0
    9.2960   45.3825   34.3134 N   0  0  0  0  0  0  0  0  0  0  0  0
    8.8891   44.0531   32.2360 C   0  0  0  0  0  0  0  0  0  0  0  0
    8.2029   45.1830   31.4619 C   0  0  0  0  0  0  0  0  0  0  0  0
    6.6654   45.1042   31.4831 C   0  0  0  0  0  0  0  0  0  0  0  0
    6.0282   46.3228   30.8076 C   0  0  0  0  0  0  0  0  0  0  0  0
    6.5038   47.5632   31.4205 N   0  0  0  0  0  0  0  0  0  0  0  0
    7.2535   48.5386   30.6858 C   0  0  0  0  0  0  0  0  0  0  0  0
    7.6602   49.7427   31.2727 O   0  0  0  0  0  0  0  0  0  0  0  0
    7.5856   48.3105   29.4933 O   0  0  0  0  0  0  0  0  0  0  0  0
    7.3994   50.0948   32.6287 C   0  0  0  0  0  0  0  0  0  0  0  0
    7.9635   51.4657   32.9135 C   0  0  0  0  0  0  0  0  0  0  0  0
    7.6164   52.5194   32.0481 C   0  0  0  0  0  0  0  0  0  0  0  0
    8.8493   51.7231   33.9937 C   0  0  0  0  0  0  0  0  0  0  0  0
    8.1684   53.7904   32.2146 C   0  0  0  0  0  0  0  0  0  0  0  0
    9.4110   53.0038   34.1319 C   0  0  0  0  0  0  0  0  0  0  0  0
    9.1686   50.7201   34.9700 N   0  0  0  0  0  0  0  0  0  0  0  0
    9.0723   54.0294   33.2481 C   0  0  0  0  0  0  0  0  0  0  0  0
   10.4424   50.6503   35.4849 O   0  0  0  0  0  0  0  0  0  0  0  0
    8.2542   50.0878   35.5379 O   0  0  0  0  0  0  0  0  0  0  0  0
    8.5372   39.1384   34.0122 O   0  0  0  0  0  0  0  0  0  0  0  0
   10.9795   40.0890   33.6815 O   0  0  0  0  0  0  0  0  0  0  0  0
   10.7982   40.0848   32.2819 C   0  0  0  0  0  0  0  0  0  0  0  0
   11.5886   38.9142   31.7009 C   0  0  0  0  0  0  0  0  0  0  0  0
   12.9213   38.9367   32.1698 O   0  0  0  0  0  0  0  0  0  0  0  0
   11.0047   37.5660   32.0990 C   0  0  0  0  0  0  0  0  0  0  0  0
   13.3511   37.5885   32.2601 C   0  0  0  0  0  0  0  0  0  0  0  0
    9.9296   37.1961   31.2780 O   0  0  0  0  0  0  0  0  0  0  0  0
   12.1923   36.6658   31.9047 C   0  0  0  0  0  0  0  0  0  0  0  0
   13.8033   37.2967   33.6188 N   0  0  0  0  0  0  0  0  0  0  0  0
   12.3007   36.2864   30.5561 O   0  0  0  0  0  0  0  0  0  0  0  0
   14.7933   36.4724   33.9860 C   0  0  0  0  0  0  0  0  0  0  0  0
   13.2753   37.7296   34.7935 C   0  0  0  0  0  0  0  0  0  0  0  0
   15.6243   35.7579   33.1860 N   0  0  0  0  0  0  0  0  0  0  0  0
   14.8728   36.4410   35.3328 C   0  0  0  0  0  0  0  0  0  0  0  0
   13.9209   37.2263   35.8804 N   0  0  0  0  0  0  0  0  0  0  0  0
   16.5873   34.9919   33.7803 C   0  0  0  0  0  0  0  0  0  0  0  0
   15.8577   35.6716   35.9443 C   0  0  0  0  0  0  0  0  0  0  0  0
   16.7025   34.9583   35.1440 N   0  0  0  0  0  0  0  0  0  0  0  0
   16.0100   35.6384   37.3563 N   0  0  0  0  0  0  0  0  0  0  0  0
    7.6767   44.0712   34.0502 H   0  0  0  0  0  0  0  0  0  0  0  0
    9.1819   45.3829   35.3535 H   0  0  0  0  0  0  0  0  0  0  0  0
   10.3189   45.4411   34.1004 H   0  0  0  0  0  0  0  0  0  0  0  0
    8.4814   43.0856   31.8668 H   0  0  0  0  0  0  0  0  0  0  0  0
    9.9710   44.0685   31.9743 H   0  0  0  0  0  0  0  0  0  0  0  0
    8.5537   46.1516   31.8765 H   0  0  0  0  0  0  0  0  0  0  0  0
    8.5404   45.1386   30.4032 H   0  0  0  0  0  0  0  0  0  0  0  0
    6.3002   45.0623   32.5302 H   0  0  0  0  0  0  0  0  0  0  0  0
    6.3313   44.1799   30.9636 H   0  0  0  0  0  0  0  0  0  0  0  0
    6.2512   46.2917   29.7196 H   0  0  0  0  0  0  0  0  0  0  0  0
    4.9243   46.2659   30.9193 H   0  0  0  0  0  0  0  0  0  0  0  0
    6.2678   47.7259   32.4241 H   0  0  0  0  0  0  0  0  0  0  0  0
    6.3018   50.1210   32.8014 H   0  0  0  0  0  0  0  0  0  0  0  0
    7.8479   49.3189   33.2798 H   0  0  0  0  0  0  0  0  0  0  0  0
    6.9283   52.3502   31.2286 H   0  0  0  0  0  0  0  0  0  0  0  0
    7.9005   54.5895   31.5355 H   0  0  0  0  0  0  0  0  0  0  0  0
   10.0935   53.2156   34.9454 H   0  0  0  0  0  0  0  0  0  0  0  0
    9.5028   55.0147   33.3725 H   0  0  0  0  0  0  0  0  0  0  0  0
    9.7427   40.0140   31.9266 H   0  0  0  0  0  0  0  0  0  0  0  0
   11.2131   41.0320   31.8756 H   0  0  0  0  0  0  0  0  0  0  0  0
   11.5980   39.0107   30.5904 H   0  0  0  0  0  0  0  0  0  0  0  0
   10.7009   37.5602   33.1721 H   0  0  0  0  0  0  0  0  0  0  0  0
   14.1977   37.4380   31.5532 H   0  0  0  0  0  0  0  0  0  0  0  0
    9.5181   36.3960   31.6978 H   0  0  0  0  0  0  0  0  0  0  0  0
   12.1419   35.7697   32.5692 H   0  0  0  0  0  0  0  0  0  0  0  0
   11.7730   35.4523   30.4489 H   0  0  0  0  0  0  0  0  0  0  0  0
   12.4321   38.3985   34.8692 H   0  0  0  0  0  0  0  0  0  0  0  0
   17.2667   34.4138   33.1694 H   0  0  0  0  0  0  0  0  0  0  0  0
   16.7634   35.0598   37.7897 H   0  0  0  0  0  0  0  0  0  0  0  0
   15.3757   36.1867   37.9790 H   0  0  0  0  0  0  0  0  0  0  0  0
  1  2  2  0
  1  3  1  0
  3  4  1  0
  4  5  1  0
  6  1  1  0
  7  6  1  0
  6  8  1  0
  8  9  1  0
  9 10  1  0
 10 11  1  0
 11 12  1  0
 12 13  1  0
 13 14  1  0
 13 15  2  0
 14 16  1  0
 16 17  1  0
 17 18  2  0
 19 17  1  0
 18 20  1  0
 21 19  2  0
 19 22  1  0
 20 23  2  0
 23 21  1  0
 22 24  1  0
 22 25  2  0
  4 26  2  0
  4 27  1  0
 28 27  1  0
 28 29  1  0
 29 30  1  0
 29 31  1  0
 30 32  1  0
 31 33  1  0
 31 34  1  0
 34 32  1  0
 32 35  1  0
 34 36  1  0
 37 35  1  0
 38 35  1  0
 39 37  2  0
 37 40  1  0
 41 38  2  0
 42 39  1  0
 40 43  2  0
 40 41  1  0
 44 42  2  0
 44 43  1  0
 43 45  1  0
  6 46  1  6
  7 47  1  0
  7 48  1  0
  8 49  1  0
  8 50  1  0
  9 51  1  0
  9 52  1  0
 10 53  1  0
 10 54  1  0
 11 55  1  0
 11 56  1  0
 12 57  1  0
 16 58  1  0
 16 59  1  0
 18 60  1  0
 20 61  1  0
 21 62  1  0
 23 63  1  0
 28 64  1  0
 28 65  1  0
 29 66  1  0
 31 67  1  0
 32 68  1  0
 33 69  1  0
 34 70  1  0
 36 71  1  0
 38 72  1  0
 42 73  1  0
 45 74  1  0
 45 75  1  0
M  CHG  3   5  -1  22   1  24  -1
M  END
>  <EmbedRMS>  (444) 
0.0745893947756

$$$$

     RDKit          3D

 75 78  0  0  0  0  0  0  0  0999 V2000
    9.4316   42.9406   34.3431 C   0  0  0  0  0  0  0  0  0  0  0  0
   10.4885   43.0410   35.0292 O   0  0  0  0  0  0  0  0  0  0  0  0
    8.8564   41.7123   34.0287 O   0  0  0  0  0  0  0  0  0  0  0  0
    9.4946   40.2158   34.4678 P   0  0  0  0  0  0  0  0  0  0  0  0
    9.7314   40.1739   36.1289 O   0  0  0  0  0  0  0  0  0  0  0  0
    8.7485   44.1344   33.7707 C   0  0  1  0  0  0  0  0  0  0  0  0
    9.3010   45.3655   34.3367 N   0  0  0  0  0  0  0  0  0  0  0  0
    8.8902   44.0519   32.2297 C   0  0  0  0  0  0  0  0  0  0  0  0
    8.2024   45.1728   31.4428 C   0  0  0  0  0  0  0  0  0  0  0  0
    6.6654   45.1084   31.4899 C   0  0  0  0  0  0  0  0  0  0  0  0
    6.0283   46.3258   30.8139 C   0  0  0  0  0  0  0  0  0  0  0  0
    6.5071   47.5672   31.4233 N   0  0  0  0  0  0  0  0  0  0  0  0
    7.2320   48.5502   30.6753 C   0  0  0  0  0  0  0  0  0  0  0  0
    7.5436   49.8061   31.2123 O   0  0  0  0  0  0  0  0  0  0  0  0
    7.6023   48.2970   29.4994 O   0  0  0  0  0  0  0  0  0  0  0  0
    7.1507   50.2696   32.5035 C   0  0  0  0  0  0  0  0  0  0  0  0
    7.9937   49.6494   33.5951 C   0  0  0  0  0  0  0  0  0  0  0  0
    7.3415   49.0572   34.6926 C   0  0  0  0  0  0  0  0  0  0  0  0
    9.4151   49.6569   33.5566 C   0  0  0  0  0  0  0  0  0  0  0  0
    8.0730   48.4700   35.7254 C   0  0  0  0  0  0  0  0  0  0  0  0
   10.1315   49.0362   34.5951 C   0  0  0  0  0  0  0  0  0  0  0  0
   10.1475   50.2780   32.4853 N   0  0  0  0  0  0  0  0  0  0  0  0
    9.4652   48.4560   35.6749 C   0  0  0  0  0  0  0  0  0  0  0  0
   11.3727   49.7758   32.1110 O   0  0  0  0  0  0  0  0  0  0  0  0
    9.7763   51.3702   32.0094 O   0  0  0  0  0  0  0  0  0  0  0  0
    8.5374   39.1398   34.0126 O   0  0  0  0  0  0  0  0  0  0  0  0
   10.9797   40.0876   33.6826 O   0  0  0  0  0  0  0  0  0  0  0  0
   10.7997   40.0900   32.2830 C   0  0  0  0  0  0  0  0  0  0  0  0
   11.5968   38.9274   31.6963 C   0  0  0  0  0  0  0  0  0  0  0  0
   12.9242   38.9426   32.1784 O   0  0  0  0  0  0  0  0  0  0  0  0
   11.0086   37.5714   32.0780 C   0  0  0  0  0  0  0  0  0  0  0  0
   13.3528   37.5929   32.2623 C   0  0  0  0  0  0  0  0  0  0  0  0
    9.9098   37.1771   31.2926 O   0  0  0  0  0  0  0  0  0  0  0  0
   12.1943   36.6683   31.8995 C   0  0  0  0  0  0  0  0  0  0  0  0
   13.8019   37.2950   33.6199 N   0  0  0  0  0  0  0  0  0  0  0  0
   12.3026   36.2773   30.5559 O   0  0  0  0  0  0  0  0  0  0  0  0
   14.7926   36.4715   33.9865 C   0  0  0  0  0  0  0  0  0  0  0  0
   13.2749   37.7286   34.7946 C   0  0  0  0  0  0  0  0  0  0  0  0
   15.6239   35.7577   33.1860 N   0  0  0  0  0  0  0  0  0  0  0  0
   14.8727   36.4403   35.3332 C   0  0  0  0  0  0  0  0  0  0  0  0
   13.9210   37.2257   35.8812 N   0  0  0  0  0  0  0  0  0  0  0  0
   16.5873   34.9921   33.7802 C   0  0  0  0  0  0  0  0  0  0  0  0
   15.8579   35.6714   35.9444 C   0  0  0  0  0  0  0  0  0  0  0  0
   16.7028   34.9583   35.1439 N   0  0  0  0  0  0  0  0  0  0  0  0
   16.0104   35.6381   37.3564 N   0  0  0  0  0  0  0  0  0  0  0  0
    7.6763   44.0608   34.0526 H   0  0  0  0  0  0  0  0  0  0  0  0
    8.6477   46.1512   34.1193 H   0  0  0  0  0  0  0  0  0  0  0  0
   10.2183   45.5821   33.8823 H   0  0  0  0  0  0  0  0  0  0  0  0
    8.4847   43.0819   31.8646 H   0  0  0  0  0  0  0  0  0  0  0  0
    9.9719   44.0653   31.9676 H   0  0  0  0  0  0  0  0  0  0  0  0
    8.5190   45.0951   30.3796 H   0  0  0  0  0  0  0  0  0  0  0  0
    8.5736   46.1503   31.8138 H   0  0  0  0  0  0  0  0  0  0  0  0
    6.3167   45.0813   32.5431 H   0  0  0  0  0  0  0  0  0  0  0  0
    6.3145   44.1819   30.9858 H   0  0  0  0  0  0  0  0  0  0  0  0
    6.2462   46.2921   29.7250 H   0  0  0  0  0  0  0  0  0  0  0  0
    4.9249   46.2703   30.9307 H   0  0  0  0  0  0  0  0  0  0  0  0
    6.2734   47.7336   32.4257 H   0  0  0  0  0  0  0  0  0  0  0  0
    7.2854   51.3702   32.5394 H   0  0  0  0  0  0  0  0  0  0  0  0
    6.0645   50.0856   32.6540 H   0  0  0  0  0  0  0  0  0  0  0  0
    6.2601   49.0487   34.7514 H   0  0  0  0  0  0  0  0  0  0  0  0
    7.5584   48.0169   36.5629 H   0  0  0  0  0  0  0  0  0  0  0  0
   11.2140   49.0234   34.5817 H   0  0  0  0  0  0  0  0  0  0  0  0
   10.0301   47.9924   36.4733 H   0  0  0  0  0  0  0  0  0  0  0  0
    9.7449   40.0145   31.9264 H   0  0  0  0  0  0  0  0  0  0  0  0
   11.2095   41.0419   31.8825 H   0  0  0  0  0  0  0  0  0  0  0  0
   11.6265   39.0456   30.5888 H   0  0  0  0  0  0  0  0  0  0  0  0
   10.7064   37.5575   33.1485 H   0  0  0  0  0  0  0  0  0  0  0  0
   14.2021   37.4484   31.5574 H   0  0  0  0  0  0  0  0  0  0  0  0
   10.0952   37.3991   30.3433 H   0  0  0  0  0  0  0  0  0  0  0  0
   12.1163   35.7745   32.5634 H   0  0  0  0  0  0  0  0  0  0  0  0
   12.9614   35.5349   30.5312 H   0  0  0  0  0  0  0  0  0  0  0  0
   12.4321   38.3982   34.8705 H   0  0  0  0  0  0  0  0  0  0  0  0
   17.2669   34.4143   33.1690 H   0  0  0  0  0  0  0  0  0  0  0  0
   16.7641   35.0599   37.7896 H   0  0  0  0  0  0  0  0  0  0  0  0
   15.3761   36.1862   37.9792 H   0  0  0  0  0  0  0  0  0  0  0  0
  1  2  2  0
  1  3  1  0
  3  4  1  0
  4  5  1  0
  6  1  1  0
  7  6  1  0
  6  8  1  0
  8  9  1  0
  9 10  1  0
 10 11  1  0
 11 12  1  0
 12 13  1  0
 13 14  1  0
 13 15  2  0
 14 16  1  0
 16 17  1  0
 17 18  2  0
 19 17  1  0
 18 20  1  0
 21 19  2  0
 19 22  1  0
 20 23  2  0
 23 21  1  0
 22 24  1  0
 22 25  2  0
  4 26  2  0
  4 27  1  0
 28 27  1  0
 28 29  1  0
 29 30  1  0
 29 31  1  0
 30 32  1  0
 31 33  1  0
 31 34  1  0
 34 32  1  0
 32 35  1  0
 34 36  1  0
 37 35  1  0
 38 35  1  0
 39 37  2  0
 37 40  1  0
 41 38  2  0
 42 39  1  0
 40 43  2  0
 40 41  1  0
 44 42  2  0
 44 43  1  0
 43 45  1  0
  6 46  1  6
  7 47  1  0
  7 48  1  0
  8 49  1  0
  8 50  1  0
  9 51  1  0
  9 52  1  0
 10 53  1  0
 10 54  1  0
 11 55  1  0
 11 56  1  0
 12 57  1  0
 16 58  1  0
 16 59  1  0
 18 60  1  0
 20 61  1  0
 21 62  1  0
 23 63  1  0
 28 64  1  0
 28 65  1  0
 29 66  1  0
 31 67  1  0
 32 68  1  0
 33 69  1  0
 34 70  1  0
 36 71  1  0
 38 72  1  0
 42 73  1  0
 45 74  1  0
 45 75  1  0
M  CHG  3   5  -1  22   1  24  -1
M  END
>  <EmbedRMS>  (445) 
0.0737852125683

$$$$

     RDKit          3D

 75 78  0  0  0  0  0  0  0  0999 V2000
    9.4312   42.9412   34.3440 C   0  0  0  0  0  0  0  0  0  0  0  0
   10.4886   43.0411   35.0294 O   0  0  0  0  0  0  0  0  0  0  0  0
    8.8558   41.7129   34.0298 O   0  0  0  0  0  0  0  0  0  0  0  0
    9.4933   40.2164   34.4707 P   0  0  0  0  0  0  0  0  0  0  0  0
    9.7290   40.1745   36.1317 O   0  0  0  0  0  0  0  0  0  0  0  0
    8.7484   44.1360   33.7722 C   0  0  1  0  0  0  0  0  0  0  0  0
    9.3039   45.3666   34.3388 N   0  0  0  0  0  0  0  0  0  0  0  0
    8.8892   44.0519   32.2309 C   0  0  0  0  0  0  0  0  0  0  0  0
    8.2014   45.1721   31.4436 C   0  0  0  0  0  0  0  0  0  0  0  0
    6.6642   45.1065   31.4888 C   0  0  0  0  0  0  0  0  0  0  0  0
    6.0265   46.3234   30.8120 C   0  0  0  0  0  0  0  0  0  0  0  0
    6.5073   47.5645   31.4186 N   0  0  0  0  0  0  0  0  0  0  0  0
    7.2445   48.5393   30.6834 C   0  0  0  0  0  0  0  0  0  0  0  0
    7.5967   49.7395   31.3063 O   0  0  0  0  0  0  0  0  0  0  0  0
    7.5931   48.3115   29.4933 O   0  0  0  0  0  0  0  0  0  0  0  0
    8.3496   50.7562   30.6504 C   0  0  0  0  0  0  0  0  0  0  0  0
    8.5260   51.9342   31.5774 C   0  0  0  0  0  0  0  0  0  0  0  0
    7.3817   52.4728   32.1939 C   0  0  0  0  0  0  0  0  0  0  0  0
    9.7970   52.4922   31.8735 C   0  0  0  0  0  0  0  0  0  0  0  0
    7.4925   53.5110   33.1201 C   0  0  0  0  0  0  0  0  0  0  0  0
    9.8906   53.5245   32.8237 C   0  0  0  0  0  0  0  0  0  0  0  0
   10.9878   52.0555   31.2007 N   0  0  0  0  0  0  0  0  0  0  0  0
    8.7457   54.0287   33.4424 C   0  0  0  0  0  0  0  0  0  0  0  0
   11.0158   51.9953   29.8264 O   0  0  0  0  0  0  0  0  0  0  0  0
   12.0621   51.9649   31.8300 O   0  0  0  0  0  0  0  0  0  0  0  0
    8.5369   39.1403   34.0143 O   0  0  0  0  0  0  0  0  0  0  0  0
   10.9796   40.0883   33.6889 O   0  0  0  0  0  0  0  0  0  0  0  0
   10.8017   40.0949   32.2901 C   0  0  0  0  0  0  0  0  0  0  0  0
   11.5885   38.9267   31.7041 C   0  0  0  0  0  0  0  0  0  0  0  0
   12.9237   38.9445   32.1722 O   0  0  0  0  0  0  0  0  0  0  0  0
   11.0029   37.5726   32.0908 C   0  0  0  0  0  0  0  0  0  0  0  0
   13.3555   37.5960   32.2595 C   0  0  0  0  0  0  0  0  0  0  0  0
    9.9379   37.1847   31.2657 O   0  0  0  0  0  0  0  0  0  0  0  0
   12.1931   36.6769   31.8952 C   0  0  0  0  0  0  0  0  0  0  0  0
   13.8028   37.2977   33.6186 N   0  0  0  0  0  0  0  0  0  0  0  0
   12.2918   36.2396   30.5587 O   0  0  0  0  0  0  0  0  0  0  0  0
   14.7926   36.4727   33.9858 C   0  0  0  0  0  0  0  0  0  0  0  0
   13.2750   37.7302   34.7935 C   0  0  0  0  0  0  0  0  0  0  0  0
   15.6241   35.7586   33.1857 N   0  0  0  0  0  0  0  0  0  0  0  0
   14.8721   36.4408   35.3326 C   0  0  0  0  0  0  0  0  0  0  0  0
   13.9204   37.2263   35.8802 N   0  0  0  0  0  0  0  0  0  0  0  0
   16.5870   34.9925   33.7800 C   0  0  0  0  0  0  0  0  0  0  0  0
   15.8572   35.6717   35.9441 C   0  0  0  0  0  0  0  0  0  0  0  0
   16.7022   34.9586   35.1437 N   0  0  0  0  0  0  0  0  0  0  0  0
   16.0097   35.6384   37.3561 N   0  0  0  0  0  0  0  0  0  0  0  0
    7.6764   44.0635   34.0548 H   0  0  0  0  0  0  0  0  0  0  0  0
    8.6468   46.1560   34.1431 H   0  0  0  0  0  0  0  0  0  0  0  0
   10.2152   45.5880   33.8747 H   0  0  0  0  0  0  0  0  0  0  0  0
    9.9708   44.0643   31.9680 H   0  0  0  0  0  0  0  0  0  0  0  0
    8.4831   43.0818   31.8668 H   0  0  0  0  0  0  0  0  0  0  0  0
    8.5198   45.0959   30.3808 H   0  0  0  0  0  0  0  0  0  0  0  0
    8.5713   46.1488   31.8175 H   0  0  0  0  0  0  0  0  0  0  0  0
    6.3141   45.0785   32.5414 H   0  0  0  0  0  0  0  0  0  0  0  0
    6.3148   44.1799   30.9839 H   0  0  0  0  0  0  0  0  0  0  0  0
    4.9231   46.2692   30.9293 H   0  0  0  0  0  0  0  0  0  0  0  0
    6.2450   46.2893   29.7230 H   0  0  0  0  0  0  0  0  0  0  0  0
    6.2851   47.7536   32.4219 H   0  0  0  0  0  0  0  0  0  0  0  0
    9.3198   50.3214   30.3386 H   0  0  0  0  0  0  0  0  0  0  0  0
    7.8039   51.0942   29.7430 H   0  0  0  0  0  0  0  0  0  0  0  0
    6.3999   52.0736   31.9691 H   0  0  0  0  0  0  0  0  0  0  0  0
    6.6050   53.9093   33.5947 H   0  0  0  0  0  0  0  0  0  0  0  0
   10.8528   53.9585   33.0654 H   0  0  0  0  0  0  0  0  0  0  0  0
    8.8297   54.8310   34.1640 H   0  0  0  0  0  0  0  0  0  0  0  0
    9.7472   40.0379   31.9304 H   0  0  0  0  0  0  0  0  0  0  0  0
   11.2240   41.0428   31.8929 H   0  0  0  0  0  0  0  0  0  0  0  0
   11.5927   39.0434   30.5966 H   0  0  0  0  0  0  0  0  0  0  0  0
   10.7003   37.5444   33.1641 H   0  0  0  0  0  0  0  0  0  0  0  0
   14.2051   37.4477   31.5560 H   0  0  0  0  0  0  0  0  0  0  0  0
    9.1373   37.6722   31.5906 H   0  0  0  0  0  0  0  0  0  0  0  0
   12.1305   35.7856   32.5586 H   0  0  0  0  0  0  0  0  0  0  0  0
   12.4606   37.0186   29.9674 H   0  0  0  0  0  0  0  0  0  0  0  0
   12.4327   38.4001   34.8694 H   0  0  0  0  0  0  0  0  0  0  0  0
   17.2666   34.4146   33.1690 H   0  0  0  0  0  0  0  0  0  0  0  0
   15.3754   36.1866   37.9788 H   0  0  0  0  0  0  0  0  0  0  0  0
   16.7634   35.0601   37.7894 H   0  0  0  0  0  0  0  0  0  0  0  0
  1  2  2  0
  1  3  1  0
  3  4  1  0
  4  5  1  0
  6  1  1  0
  7  6  1  0
  6  8  1  0
  8  9  1  0
  9 10  1  0
 10 11  1  0
 11 12  1  0
 12 13  1  0
 13 14  1  0
 13 15  2  0
 14 16  1  0
 16 17  1  0
 17 18  2  0
 19 17  1  0
 18 20  1  0
 21 19  2  0
 19 22  1  0
 20 23  2  0
 23 21  1  0
 22 24  1  0
 22 25  2  0
  4 26  2  0
  4 27  1  0
 28 27  1  0
 28 29  1  0
 29 30  1  0
 29 31  1  0
 30 32  1  0
 31 33  1  0
 31 34  1  0
 34 32  1  0
 32 35  1  0
 34 36  1  0
 37 35  1  0
 38 35  1  0
 39 37  2  0
 37 40  1  0
 41 38  2  0
 42 39  1  0
 40 43  2  0
 40 41  1  0
 44 42  2  0
 44 43  1  0
 43 45  1  0
  6 46  1  6
  7 47  1  0
  7 48  1  0
  8 49  1  0
  8 50  1  0
  9 51  1  0
  9 52  1  0
 10 53  1  0
 10 54  1  0
 11 55  1  0
 11 56  1  0
 12 57  1  0
 16 58  1  0
 16 59  1  0
 18 60  1  0
 20 61  1  0
 21 62  1  0
 23 63  1  0
 28 64  1  0
 28 65  1  0
 29 66  1  0
 31 67  1  0
 32 68  1  0
 33 69  1  0
 34 70  1  0
 36 71  1  0
 38 72  1  0
 42 73  1  0
 45 74  1  0
 45 75  1  0
M  CHG  3   5  -1  22   1  24  -1
M  END
>  <EmbedRMS>  (446) 
0.0749116537591

$$$$

     RDKit          3D

 75 78  0  0  0  0  0  0  0  0999 V2000
    9.4330   42.9366   34.3463 C   0  0  0  0  0  0  0  0  0  0  0  0
   10.4906   43.0331   35.0318 O   0  0  0  0  0  0  0  0  0  0  0  0
    8.8558   41.7104   34.0299 O   0  0  0  0  0  0  0  0  0  0  0  0
    9.4944   40.2142   34.4677 P   0  0  0  0  0  0  0  0  0  0  0  0
    9.7317   40.1723   36.1287 O   0  0  0  0  0  0  0  0  0  0  0  0
    8.7504   44.1350   33.7742 C   0  0  1  0  0  0  0  0  0  0  0  0
    9.2959   45.3823   34.3134 N   0  0  0  0  0  0  0  0  0  0  0  0
    8.8892   44.0529   32.2360 C   0  0  0  0  0  0  0  0  0  0  0  0
    8.2030   45.1828   31.4618 C   0  0  0  0  0  0  0  0  0  0  0  0
    6.6656   45.1042   31.4834 C   0  0  0  0  0  0  0  0  0  0  0  0
    6.0282   46.3233   30.8088 C   0  0  0  0  0  0  0  0  0  0  0  0
    6.5051   47.5635   31.4211 N   0  0  0  0  0  0  0  0  0  0  0  0
    7.2494   48.5409   30.6836 C   0  0  0  0  0  0  0  0  0  0  0  0
    7.6390   49.7541   31.2630 O   0  0  0  0  0  0  0  0  0  0  0  0
    7.5880   48.3087   29.4938 O   0  0  0  0  0  0  0  0  0  0  0  0
    7.3569   50.1187   32.6123 C   0  0  0  0  0  0  0  0  0  0  0  0
    7.9143   51.4847   32.9500 C   0  0  0  0  0  0  0  0  0  0  0  0
    8.9068   52.0656   32.1331 C   0  0  0  0  0  0  0  0  0  0  0  0
    7.4475   52.2056   34.0826 C   0  0  0  0  0  0  0  0  0  0  0  0
    9.3977   53.3431   32.4052 C   0  0  0  0  0  0  0  0  0  0  0  0
    7.9451   53.4989   34.3275 C   0  0  0  0  0  0  0  0  0  0  0  0
    6.4734   51.6498   34.9856 N   0  0  0  0  0  0  0  0  0  0  0  0
    8.9124   54.0613   33.4950 C   0  0  0  0  0  0  0  0  0  0  0  0
    6.5257   50.3225   35.3435 O   0  0  0  0  0  0  0  0  0  0  0  0
    5.6733   52.4000   35.5823 O   0  0  0  0  0  0  0  0  0  0  0  0
    8.5373   39.1383   34.0122 O   0  0  0  0  0  0  0  0  0  0  0  0
   10.9795   40.0890   33.6815 O   0  0  0  0  0  0  0  0  0  0  0  0
   10.7982   40.0848   32.2819 C   0  0  0  0  0  0  0  0  0  0  0  0
   11.5886   38.9142   31.7009 C   0  0  0  0  0  0  0  0  0  0  0  0
   12.9214   38.9368   32.1698 O   0  0  0  0  0  0  0  0  0  0  0  0
   11.0048   37.5660   32.0990 C   0  0  0  0  0  0  0  0  0  0  0  0
   13.3511   37.5885   32.2601 C   0  0  0  0  0  0  0  0  0  0  0  0
    9.9296   37.1961   31.2780 O   0  0  0  0  0  0  0  0  0  0  0  0
   12.1923   36.6659   31.9046 C   0  0  0  0  0  0  0  0  0  0  0  0
   13.8033   37.2966   33.6188 N   0  0  0  0  0  0  0  0  0  0  0  0
   12.3007   36.2865   30.5561 O   0  0  0  0  0  0  0  0  0  0  0  0
   14.7933   36.4724   33.9860 C   0  0  0  0  0  0  0  0  0  0  0  0
   13.2753   37.7295   34.7935 C   0  0  0  0  0  0  0  0  0  0  0  0
   15.6243   35.7579   33.1860 N   0  0  0  0  0  0  0  0  0  0  0  0
   14.8728   36.4410   35.3328 C   0  0  0  0  0  0  0  0  0  0  0  0
   13.9209   37.2263   35.8804 N   0  0  0  0  0  0  0  0  0  0  0  0
   16.5873   34.9919   33.7803 C   0  0  0  0  0  0  0  0  0  0  0  0
   15.8577   35.6716   35.9443 C   0  0  0  0  0  0  0  0  0  0  0  0
   16.7025   34.9583   35.1440 N   0  0  0  0  0  0  0  0  0  0  0  0
   16.0100   35.6383   37.3564 N   0  0  0  0  0  0  0  0  0  0  0  0
    7.6767   44.0709   34.0502 H   0  0  0  0  0  0  0  0  0  0  0  0
    9.1820   45.3825   35.3535 H   0  0  0  0  0  0  0  0  0  0  0  0
   10.3189   45.4410   34.1003 H   0  0  0  0  0  0  0  0  0  0  0  0
    9.9710   44.0683   31.9742 H   0  0  0  0  0  0  0  0  0  0  0  0
    8.4814   43.0854   31.8668 H   0  0  0  0  0  0  0  0  0  0  0  0
    8.5541   46.1514   31.8761 H   0  0  0  0  0  0  0  0  0  0  0  0
    8.5403   45.1381   30.4031 H   0  0  0  0  0  0  0  0  0  0  0  0
    6.3005   45.0621   32.5306 H   0  0  0  0  0  0  0  0  0  0  0  0
    6.3311   44.1803   30.9637 H   0  0  0  0  0  0  0  0  0  0  0  0
    4.9245   46.2668   30.9219 H   0  0  0  0  0  0  0  0  0  0  0  0
    6.2498   46.2920   29.7205 H   0  0  0  0  0  0  0  0  0  0  0  0
    6.2724   47.7261   32.4255 H   0  0  0  0  0  0  0  0  0  0  0  0
    7.8068   49.3697   33.2987 H   0  0  0  0  0  0  0  0  0  0  0  0
    6.2531   50.1345   32.7430 H   0  0  0  0  0  0  0  0  0  0  0  0
    9.3069   51.5363   31.2780 H   0  0  0  0  0  0  0  0  0  0  0  0
   10.1554   53.7784   31.7663 H   0  0  0  0  0  0  0  0  0  0  0  0
    7.5964   54.0674   35.1806 H   0  0  0  0  0  0  0  0  0  0  0  0
    9.2930   55.0534   33.7012 H   0  0  0  0  0  0  0  0  0  0  0  0
   11.2131   41.0320   31.8756 H   0  0  0  0  0  0  0  0  0  0  0  0
    9.7427   40.0140   31.9266 H   0  0  0  0  0  0  0  0  0  0  0  0
   11.5980   39.0108   30.5904 H   0  0  0  0  0  0  0  0  0  0  0  0
   10.7009   37.5602   33.1721 H   0  0  0  0  0  0  0  0  0  0  0  0
   14.1977   37.4380   31.5532 H   0  0  0  0  0  0  0  0  0  0  0  0
    9.5181   36.3960   31.6978 H   0  0  0  0  0  0  0  0  0  0  0  0
   12.1419   35.7697   32.5691 H   0  0  0  0  0  0  0  0  0  0  0  0
   11.7730   35.4524   30.4488 H   0  0  0  0  0  0  0  0  0  0  0  0
   12.4320   38.3984   34.8692 H   0  0  0  0  0  0  0  0  0  0  0  0
   17.2667   34.4137   33.1694 H   0  0  0  0  0  0  0  0  0  0  0  0
   15.3757   36.1866   37.9791 H   0  0  0  0  0  0  0  0  0  0  0  0
   16.7634   35.0598   37.7897 H   0  0  0  0  0  0  0  0  0  0  0  0
  1  2  2  0
  1  3  1  0
  3  4  1  0
  4  5  1  0
  6  1  1  0
  7  6  1  0
  6  8  1  0
  8  9  1  0
  9 10  1  0
 10 11  1  0
 11 12  1  0
 12 13  1  0
 13 14  1  0
 13 15  2  0
 14 16  1  0
 16 17  1  0
 17 18  2  0
 19 17  1  0
 18 20  1  0
 21 19  2  0
 19 22  1  0
 20 23  2  0
 23 21  1  0
 22 24  1  0
 22 25  2  0
  4 26  2  0
  4 27  1  0
 28 27  1  0
 28 29  1  0
 29 30  1  0
 29 31  1  0
 30 32  1  0
 31 33  1  0
 31 34  1  0
 34 32  1  0
 32 35  1  0
 34 36  1  0
 37 35  1  0
 38 35  1  0
 39 37  2  0
 37 40  1  0
 41 38  2  0
 42 39  1  0
 40 43  2  0
 40 41  1  0
 44 42  2  0
 44 43  1  0
 43 45  1  0
  6 46  1  6
  7 47  1  0
  7 48  1  0
  8 49  1  0
  8 50  1  0
  9 51  1  0
  9 52  1  0
 10 53  1  0
 10 54  1  0
 11 55  1  0
 11 56  1  0
 12 57  1  0
 16 58  1  0
 16 59  1  0
 18 60  1  0
 20 61  1  0
 21 62  1  0
 23 63  1  0
 28 64  1  0
 28 65  1  0
 29 66  1  0
 31 67  1  0
 32 68  1  0
 33 69  1  0
 34 70  1  0
 36 71  1  0
 38 72  1  0
 42 73  1  0
 45 74  1  0
 45 75  1  0
M  CHG  3   5  -1  22   1  24  -1
M  END
>  <EmbedRMS>  (447) 
0.0744857531727

$$$$

     RDKit          3D

 75 78  0  0  0  0  0  0  0  0999 V2000
    9.4314   42.9407   34.3435 C   0  0  0  0  0  0  0  0  0  0  0  0
   10.4886   43.0415   35.0292 O   0  0  0  0  0  0  0  0  0  0  0  0
    8.8561   41.7123   34.0299 O   0  0  0  0  0  0  0  0  0  0  0  0
    9.4936   40.2161   34.4709 P   0  0  0  0  0  0  0  0  0  0  0  0
    9.7292   40.1744   36.1319 O   0  0  0  0  0  0  0  0  0  0  0  0
    8.7479   44.1340   33.7708 C   0  0  1  0  0  0  0  0  0  0  0  0
    9.2991   45.3653   34.3373 N   0  0  0  0  0  0  0  0  0  0  0  0
    8.8902   44.0515   32.2299 C   0  0  0  0  0  0  0  0  0  0  0  0
    8.2028   45.1726   31.4432 C   0  0  0  0  0  0  0  0  0  0  0  0
    6.6658   45.1075   31.4891 C   0  0  0  0  0  0  0  0  0  0  0  0
    6.0286   46.3263   30.8158 C   0  0  0  0  0  0  0  0  0  0  0  0
    6.5119   47.5660   31.4248 N   0  0  0  0  0  0  0  0  0  0  0  0
    7.2299   48.5520   30.6732 C   0  0  0  0  0  0  0  0  0  0  0  0
    7.5315   49.8117   31.2077 O   0  0  0  0  0  0  0  0  0  0  0  0
    7.6006   48.2985   29.4976 O   0  0  0  0  0  0  0  0  0  0  0  0
    7.1543   50.2557   32.5103 C   0  0  0  0  0  0  0  0  0  0  0  0
    8.0380   49.6422   33.5739 C   0  0  0  0  0  0  0  0  0  0  0  0
    9.4264   49.5927   33.3497 C   0  0  0  0  0  0  0  0  0  0  0  0
    7.5173   49.1294   34.7902 C   0  0  0  0  0  0  0  0  0  0  0  0
   10.2804   49.0129   34.2891 C   0  0  0  0  0  0  0  0  0  0  0  0
    8.3918   48.5390   35.7194 C   0  0  0  0  0  0  0  0  0  0  0  0
    6.1223   49.2299   35.1140 N   0  0  0  0  0  0  0  0  0  0  0  0
    9.7638   48.4842   35.4703 C   0  0  0  0  0  0  0  0  0  0  0  0
    5.4777   50.4409   35.0100 O   0  0  0  0  0  0  0  0  0  0  0  0
    5.5500   48.2905   35.7044 O   0  0  0  0  0  0  0  0  0  0  0  0
    8.5371   39.1400   34.0144 O   0  0  0  0  0  0  0  0  0  0  0  0
   10.9797   40.0881   33.6889 O   0  0  0  0  0  0  0  0  0  0  0  0
   10.8018   40.0949   32.2901 C   0  0  0  0  0  0  0  0  0  0  0  0
   11.5885   38.9267   31.7041 C   0  0  0  0  0  0  0  0  0  0  0  0
   12.9237   38.9445   32.1722 O   0  0  0  0  0  0  0  0  0  0  0  0
   11.0029   37.5726   32.0908 C   0  0  0  0  0  0  0  0  0  0  0  0
   13.3555   37.5960   32.2595 C   0  0  0  0  0  0  0  0  0  0  0  0
    9.9379   37.1847   31.2657 O   0  0  0  0  0  0  0  0  0  0  0  0
   12.1931   36.6769   31.8952 C   0  0  0  0  0  0  0  0  0  0  0  0
   13.8028   37.2977   33.6186 N   0  0  0  0  0  0  0  0  0  0  0  0
   12.2918   36.2396   30.5587 O   0  0  0  0  0  0  0  0  0  0  0  0
   14.7926   36.4727   33.9858 C   0  0  0  0  0  0  0  0  0  0  0  0
   13.2750   37.7302   34.7935 C   0  0  0  0  0  0  0  0  0  0  0  0
   15.6241   35.7586   33.1857 N   0  0  0  0  0  0  0  0  0  0  0  0
   14.8721   36.4408   35.3326 C   0  0  0  0  0  0  0  0  0  0  0  0
   13.9204   37.2263   35.8802 N   0  0  0  0  0  0  0  0  0  0  0  0
   16.5870   34.9925   33.7800 C   0  0  0  0  0  0  0  0  0  0  0  0
   15.8572   35.6717   35.9441 C   0  0  0  0  0  0  0  0  0  0  0  0
   16.7022   34.9585   35.1437 N   0  0  0  0  0  0  0  0  0  0  0  0
   16.0097   35.6384   37.3561 N   0  0  0  0  0  0  0  0  0  0  0  0
    7.6757   44.0593   34.0522 H   0  0  0  0  0  0  0  0  0  0  0  0
    8.6408   46.1492   34.1274 H   0  0  0  0  0  0  0  0  0  0  0  0
   10.2129   45.5871   33.8783 H   0  0  0  0  0  0  0  0  0  0  0  0
    8.4848   43.0815   31.8645 H   0  0  0  0  0  0  0  0  0  0  0  0
    9.9721   44.0649   31.9681 H   0  0  0  0  0  0  0  0  0  0  0  0
    8.5736   46.1495   31.8159 H   0  0  0  0  0  0  0  0  0  0  0  0
    8.5203   45.0960   30.3802 H   0  0  0  0  0  0  0  0  0  0  0  0
    6.3164   45.0779   32.5421 H   0  0  0  0  0  0  0  0  0  0  0  0
    6.3153   44.1820   30.9827 H   0  0  0  0  0  0  0  0  0  0  0  0
    4.9256   46.2728   30.9366 H   0  0  0  0  0  0  0  0  0  0  0  0
    6.2429   46.2933   29.7261 H   0  0  0  0  0  0  0  0  0  0  0  0
    6.2944   47.7260   32.4325 H   0  0  0  0  0  0  0  0  0  0  0  0
    7.2880   51.3568   32.5502 H   0  0  0  0  0  0  0  0  0  0  0  0
    6.0764   50.0490   32.6652 H   0  0  0  0  0  0  0  0  0  0  0  0
    9.8496   49.9970   32.4384 H   0  0  0  0  0  0  0  0  0  0  0  0
   11.3453   48.9726   34.0996 H   0  0  0  0  0  0  0  0  0  0  0  0
    8.0105   48.1401   36.6510 H   0  0  0  0  0  0  0  0  0  0  0  0
   10.4278   48.0333   36.1965 H   0  0  0  0  0  0  0  0  0  0  0  0
   11.2241   41.0428   31.8930 H   0  0  0  0  0  0  0  0  0  0  0  0
    9.7472   40.0379   31.9306 H   0  0  0  0  0  0  0  0  0  0  0  0
   11.5927   39.0434   30.5966 H   0  0  0  0  0  0  0  0  0  0  0  0
   10.7003   37.5443   33.1640 H   0  0  0  0  0  0  0  0  0  0  0  0
   14.2051   37.4477   31.5560 H   0  0  0  0  0  0  0  0  0  0  0  0
    9.1374   37.6723   31.5905 H   0  0  0  0  0  0  0  0  0  0  0  0
   12.1305   35.7856   32.5586 H   0  0  0  0  0  0  0  0  0  0  0  0
   12.4606   37.0186   29.9674 H   0  0  0  0  0  0  0  0  0  0  0  0
   12.4327   38.4001   34.8694 H   0  0  0  0  0  0  0  0  0  0  0  0
   17.2666   34.4146   33.1690 H   0  0  0  0  0  0  0  0  0  0  0  0
   15.3754   36.1866   37.9788 H   0  0  0  0  0  0  0  0  0  0  0  0
   16.7634   35.0601   37.7894 H   0  0  0  0  0  0  0  0  0  0  0  0
  1  2  2  0
  1  3  1  0
  3  4  1  0
  4  5  1  0
  6  1  1  0
  7  6  1  0
  6  8  1  0
  8  9  1  0
  9 10  1  0
 10 11  1  0
 11 12  1  0
 12 13  1  0
 13 14  1  0
 13 15  2  0
 14 16  1  0
 16 17  1  0
 17 18  2  0
 19 17  1  0
 18 20  1  0
 21 19  2  0
 19 22  1  0
 20 23  2  0
 23 21  1  0
 22 24  1  0
 22 25  2  0
  4 26  2  0
  4 27  1  0
 28 27  1  0
 28 29  1  0
 29 30  1  0
 29 31  1  0
 30 32  1  0
 31 33  1  0
 31 34  1  0
 34 32  1  0
 32 35  1  0
 34 36  1  0
 37 35  1  0
 38 35  1  0
 39 37  2  0
 37 40  1  0
 41 38  2  0
 42 39  1  0
 40 43  2  0
 40 41  1  0
 44 42  2  0
 44 43  1  0
 43 45  1  0
  6 46  1  6
  7 47  1  0
  7 48  1  0
  8 49  1  0
  8 50  1  0
  9 51  1  0
  9 52  1  0
 10 53  1  0
 10 54  1  0
 11 55  1  0
 11 56  1  0
 12 57  1  0
 16 58  1  0
 16 59  1  0
 18 60  1  0
 20 61  1  0
 21 62  1  0
 23 63  1  0
 28 64  1  0
 28 65  1  0
 29 66  1  0
 31 67  1  0
 32 68  1  0
 33 69  1  0
 34 70  1  0
 36 71  1  0
 38 72  1  0
 42 73  1  0
 45 74  1  0
 45 75  1  0
M  CHG  3   5  -1  22   1  24  -1
M  END
>  <EmbedRMS>  (448) 
0.0747135627089

$$$$

     RDKit          3D

 75 78  0  0  0  0  0  0  0  0999 V2000
    9.4332   42.9365   34.3464 C   0  0  0  0  0  0  0  0  0  0  0  0
   10.4908   43.0330   35.0319 O   0  0  0  0  0  0  0  0  0  0  0  0
    8.8559   41.7104   34.0304 O   0  0  0  0  0  0  0  0  0  0  0  0
    9.4931   40.2141   34.4703 P   0  0  0  0  0  0  0  0  0  0  0  0
    9.7293   40.1727   36.1313 O   0  0  0  0  0  0  0  0  0  0  0  0
    8.7506   44.1348   33.7741 C   0  0  1  0  0  0  0  0  0  0  0  0
    9.2963   45.3820   34.3133 N   0  0  0  0  0  0  0  0  0  0  0  0
    8.8893   44.0527   32.2359 C   0  0  0  0  0  0  0  0  0  0  0  0
    8.2028   45.1823   31.4615 C   0  0  0  0  0  0  0  0  0  0  0  0
    6.6654   45.1046   31.4855 C   0  0  0  0  0  0  0  0  0  0  0  0
    6.0270   46.3225   30.8105 C   0  0  0  0  0  0  0  0  0  0  0  0
    6.5061   47.5640   31.4180 N   0  0  0  0  0  0  0  0  0  0  0  0
    7.2437   48.5392   30.6836 C   0  0  0  0  0  0  0  0  0  0  0  0
    7.5943   49.7397   31.3067 O   0  0  0  0  0  0  0  0  0  0  0  0
    7.5934   48.3117   29.4937 O   0  0  0  0  0  0  0  0  0  0  0  0
    8.3464   50.7574   30.6514 C   0  0  0  0  0  0  0  0  0  0  0  0
    8.5187   51.9367   31.5781 C   0  0  0  0  0  0  0  0  0  0  0  0
    7.3708   52.4735   32.1896 C   0  0  0  0  0  0  0  0  0  0  0  0
    9.7879   52.4989   31.8790 C   0  0  0  0  0  0  0  0  0  0  0  0
    7.4757   53.5120   33.1160 C   0  0  0  0  0  0  0  0  0  0  0  0
    9.8751   53.5296   32.8303 C   0  0  0  0  0  0  0  0  0  0  0  0
   10.9865   52.0656   31.2184 N   0  0  0  0  0  0  0  0  0  0  0  0
    8.7266   54.0318   33.4439 C   0  0  0  0  0  0  0  0  0  0  0  0
   12.1663   51.9951   31.9226 O   0  0  0  0  0  0  0  0  0  0  0  0
   11.0246   52.0020   29.9723 O   0  0  0  0  0  0  0  0  0  0  0  0
    8.5366   39.1382   34.0136 O   0  0  0  0  0  0  0  0  0  0  0  0
   10.9788   40.0866   33.6873 O   0  0  0  0  0  0  0  0  0  0  0  0
   10.7993   40.0944   32.2886 C   0  0  0  0  0  0  0  0  0  0  0  0
   11.5957   38.9351   31.6994 C   0  0  0  0  0  0  0  0  0  0  0  0
   12.9257   38.9477   32.1798 O   0  0  0  0  0  0  0  0  0  0  0  0
   11.0070   37.5757   32.0732 C   0  0  0  0  0  0  0  0  0  0  0  0
   13.3571   37.5979   32.2612 C   0  0  0  0  0  0  0  0  0  0  0  0
    9.9093   37.1807   31.2875 O   0  0  0  0  0  0  0  0  0  0  0  0
   12.1967   36.6763   31.8894 C   0  0  0  0  0  0  0  0  0  0  0  0
   13.8018   37.2956   33.6197 N   0  0  0  0  0  0  0  0  0  0  0  0
   12.3049   36.2360   30.5555 O   0  0  0  0  0  0  0  0  0  0  0  0
   14.7922   36.4716   33.9864 C   0  0  0  0  0  0  0  0  0  0  0  0
   13.2747   37.7291   34.7944 C   0  0  0  0  0  0  0  0  0  0  0  0
   15.6240   35.7581   33.1861 N   0  0  0  0  0  0  0  0  0  0  0  0
   14.8721   36.4401   35.3331 C   0  0  0  0  0  0  0  0  0  0  0  0
   13.9206   37.2257   35.8810 N   0  0  0  0  0  0  0  0  0  0  0  0
   16.5873   34.9924   33.7802 C   0  0  0  0  0  0  0  0  0  0  0  0
   15.8576   35.6714   35.9444 C   0  0  0  0  0  0  0  0  0  0  0  0
   16.7026   34.9585   35.1439 N   0  0  0  0  0  0  0  0  0  0  0  0
   16.0102   35.6382   37.3564 N   0  0  0  0  0  0  0  0  0  0  0  0
    7.6770   44.0707   34.0504 H   0  0  0  0  0  0  0  0  0  0  0  0
    9.1827   45.3821   35.3535 H   0  0  0  0  0  0  0  0  0  0  0  0
   10.3192   45.4407   34.1000 H   0  0  0  0  0  0  0  0  0  0  0  0
    9.9711   44.0681   31.9740 H   0  0  0  0  0  0  0  0  0  0  0  0
    8.4817   43.0850   31.8669 H   0  0  0  0  0  0  0  0  0  0  0  0
    8.5385   45.1362   30.4022 H   0  0  0  0  0  0  0  0  0  0  0  0
    8.5552   46.1510   31.8742 H   0  0  0  0  0  0  0  0  0  0  0  0
    6.3297   44.1799   30.9679 H   0  0  0  0  0  0  0  0  0  0  0  0
    6.3020   45.0643   32.5334 H   0  0  0  0  0  0  0  0  0  0  0  0
    4.9235   46.2672   30.9264 H   0  0  0  0  0  0  0  0  0  0  0  0
    6.2465   46.2897   29.7217 H   0  0  0  0  0  0  0  0  0  0  0  0
    6.2819   47.7530   32.4208 H   0  0  0  0  0  0  0  0  0  0  0  0
    7.8014   51.0939   29.7430 H   0  0  0  0  0  0  0  0  0  0  0  0
    9.3171   50.3234   30.3403 H   0  0  0  0  0  0  0  0  0  0  0  0
    6.3908   52.0724   31.9610 H   0  0  0  0  0  0  0  0  0  0  0  0
    6.5855   53.9088   33.5867 H   0  0  0  0  0  0  0  0  0  0  0  0
   10.8353   53.9651   33.0768 H   0  0  0  0  0  0  0  0  0  0  0  0
    8.8060   54.8340   34.1662 H   0  0  0  0  0  0  0  0  0  0  0  0
   11.2094   41.0479   31.8921 H   0  0  0  0  0  0  0  0  0  0  0  0
    9.7448   40.0200   31.9304 H   0  0  0  0  0  0  0  0  0  0  0  0
   11.6206   39.0685   30.5942 H   0  0  0  0  0  0  0  0  0  0  0  0
   10.7059   37.5563   33.1438 H   0  0  0  0  0  0  0  0  0  0  0  0
   14.2095   37.4543   31.5601 H   0  0  0  0  0  0  0  0  0  0  0  0
   10.0865   37.4209   30.3413 H   0  0  0  0  0  0  0  0  0  0  0  0
   12.1276   35.7872   32.5549 H   0  0  0  0  0  0  0  0  0  0  0  0
   12.5031   37.0109   29.9672 H   0  0  0  0  0  0  0  0  0  0  0  0
   12.4328   38.3996   34.8703 H   0  0  0  0  0  0  0  0  0  0  0  0
   17.2670   34.4149   33.1691 H   0  0  0  0  0  0  0  0  0  0  0  0
   15.3758   36.1862   37.9792 H   0  0  0  0  0  0  0  0  0  0  0  0
   16.7640   35.0601   37.7896 H   0  0  0  0  0  0  0  0  0  0  0  0
  1  2  2  0
  1  3  1  0
  3  4  1  0
  4  5  1  0
  6  1  1  0
  7  6  1  0
  6  8  1  0
  8  9  1  0
  9 10  1  0
 10 11  1  0
 11 12  1  0
 12 13  1  0
 13 14  1  0
 13 15  2  0
 14 16  1  0
 16 17  1  0
 17 18  2  0
 19 17  1  0
 18 20  1  0
 21 19  2  0
 19 22  1  0
 20 23  2  0
 23 21  1  0
 22 24  1  0
 22 25  2  0
  4 26  2  0
  4 27  1  0
 28 27  1  0
 28 29  1  0
 29 30  1  0
 29 31  1  0
 30 32  1  0
 31 33  1  0
 31 34  1  0
 34 32  1  0
 32 35  1  0
 34 36  1  0
 37 35  1  0
 38 35  1  0
 39 37  2  0
 37 40  1  0
 41 38  2  0
 42 39  1  0
 40 43  2  0
 40 41  1  0
 44 42  2  0
 44 43  1  0
 43 45  1  0
  6 46  1  6
  7 47  1  0
  7 48  1  0
  8 49  1  0
  8 50  1  0
  9 51  1  0
  9 52  1  0
 10 53  1  0
 10 54  1  0
 11 55  1  0
 11 56  1  0
 12 57  1  0
 16 58  1  0
 16 59  1  0
 18 60  1  0
 20 61  1  0
 21 62  1  0
 23 63  1  0
 28 64  1  0
 28 65  1  0
 29 66  1  0
 31 67  1  0
 32 68  1  0
 33 69  1  0
 34 70  1  0
 36 71  1  0
 38 72  1  0
 42 73  1  0
 45 74  1  0
 45 75  1  0
M  CHG  3   5  -1  22   1  24  -1
M  END
>  <EmbedRMS>  (449) 
0.0761815660016

$$$$

     RDKit          3D

 75 78  0  0  0  0  0  0  0  0999 V2000
    9.4331   42.9366   34.3462 C   0  0  0  0  0  0  0  0  0  0  0  0
   10.4905   43.0332   35.0319 O   0  0  0  0  0  0  0  0  0  0  0  0
    8.8562   41.7104   34.0296 O   0  0  0  0  0  0  0  0  0  0  0  0
    9.4944   40.2142   34.4680 P   0  0  0  0  0  0  0  0  0  0  0  0
    9.7309   40.1726   36.1291 O   0  0  0  0  0  0  0  0  0  0  0  0
    8.7504   44.1349   33.7739 C   0  0  1  0  0  0  0  0  0  0  0  0
    9.2960   45.3822   34.3131 N   0  0  0  0  0  0  0  0  0  0  0  0
    8.8892   44.0526   32.2357 C   0  0  0  0  0  0  0  0  0  0  0  0
    8.2033   45.1822   31.4610 C   0  0  0  0  0  0  0  0  0  0  0  0
    6.6657   45.1033   31.4817 C   0  0  0  0  0  0  0  0  0  0  0  0
    6.0276   46.3245   30.8115 C   0  0  0  0  0  0  0  0  0  0  0  0
    6.5106   47.5625   31.4231 N   0  0  0  0  0  0  0  0  0  0  0  0
    7.2365   48.5478   30.6787 C   0  0  0  0  0  0  0  0  0  0  0  0
    7.5794   49.7872   31.2359 O   0  0  0  0  0  0  0  0  0  0  0  0
    7.5958   48.3037   29.4973 O   0  0  0  0  0  0  0  0  0  0  0  0
    7.1651   50.2482   32.5217 C   0  0  0  0  0  0  0  0  0  0  0  0
    5.6757   50.5110   32.5521 C   0  0  0  0  0  0  0  0  0  0  0  0
    4.9023   49.8846   33.5470 C   0  0  0  0  0  0  0  0  0  0  0  0
    5.0310   51.3399   31.5929 C   0  0  0  0  0  0  0  0  0  0  0  0
    3.5169   50.0453   33.5800 C   0  0  0  0  0  0  0  0  0  0  0  0
    3.6318   51.4745   31.6358 C   0  0  0  0  0  0  0  0  0  0  0  0
    5.7629   52.0354   30.5669 N   0  0  0  0  0  0  0  0  0  0  0  0
    2.8823   50.8335   32.6228 C   0  0  0  0  0  0  0  0  0  0  0  0
    5.1639   52.3016   29.3570 O   0  0  0  0  0  0  0  0  0  0  0  0
    6.8725   52.5509   30.8122 O   0  0  0  0  0  0  0  0  0  0  0  0
    8.5371   39.1386   34.0125 O   0  0  0  0  0  0  0  0  0  0  0  0
   10.9802   40.0879   33.6835 O   0  0  0  0  0  0  0  0  0  0  0  0
   10.8020   40.0894   32.2837 C   0  0  0  0  0  0  0  0  0  0  0  0
   11.5900   38.9178   31.7006 C   0  0  0  0  0  0  0  0  0  0  0  0
   12.9224   38.9390   32.1711 O   0  0  0  0  0  0  0  0  0  0  0  0
   11.0052   37.5676   32.0966 C   0  0  0  0  0  0  0  0  0  0  0  0
   13.3518   37.5909   32.2610 C   0  0  0  0  0  0  0  0  0  0  0  0
    9.9381   37.1795   31.2732 O   0  0  0  0  0  0  0  0  0  0  0  0
   12.1912   36.6689   31.9042 C   0  0  0  0  0  0  0  0  0  0  0  0
   13.8027   37.2968   33.6192 N   0  0  0  0  0  0  0  0  0  0  0  0
   12.2877   36.2853   30.5567 O   0  0  0  0  0  0  0  0  0  0  0  0
   14.7928   36.4724   33.9861 C   0  0  0  0  0  0  0  0  0  0  0  0
   13.2751   37.7297   34.7941 C   0  0  0  0  0  0  0  0  0  0  0  0
   15.6239   35.7581   33.1859 N   0  0  0  0  0  0  0  0  0  0  0  0
   14.8726   36.4408   35.3329 C   0  0  0  0  0  0  0  0  0  0  0  0
   13.9209   37.2262   35.8807 N   0  0  0  0  0  0  0  0  0  0  0  0
   16.5870   34.9921   33.7801 C   0  0  0  0  0  0  0  0  0  0  0  0
   15.8576   35.6716   35.9442 C   0  0  0  0  0  0  0  0  0  0  0  0
   16.7024   34.9584   35.1438 N   0  0  0  0  0  0  0  0  0  0  0  0
   16.0101   35.6383   37.3562 N   0  0  0  0  0  0  0  0  0  0  0  0
    7.6768   44.0709   34.0500 H   0  0  0  0  0  0  0  0  0  0  0  0
   10.3189   45.4408   34.1001 H   0  0  0  0  0  0  0  0  0  0  0  0
    9.1820   45.3825   35.3532 H   0  0  0  0  0  0  0  0  0  0  0  0
    9.9711   44.0677   31.9740 H   0  0  0  0  0  0  0  0  0  0  0  0
    8.4814   43.0850   31.8667 H   0  0  0  0  0  0  0  0  0  0  0  0
    8.5545   46.1506   31.8753 H   0  0  0  0  0  0  0  0  0  0  0  0
    8.5409   45.1376   30.4024 H   0  0  0  0  0  0  0  0  0  0  0  0
    6.3316   44.1810   30.9589 H   0  0  0  0  0  0  0  0  0  0  0  0
    6.3005   45.0573   32.5286 H   0  0  0  0  0  0  0  0  0  0  0  0
    4.9245   46.2706   30.9323 H   0  0  0  0  0  0  0  0  0  0  0  0
    6.2420   46.2949   29.7217 H   0  0  0  0  0  0  0  0  0  0  0  0
    6.3133   47.7067   32.4366 H   0  0  0  0  0  0  0  0  0  0  0  0
    7.4790   49.5177   33.2986 H   0  0  0  0  0  0  0  0  0  0  0  0
    7.7009   51.1912   32.7542 H   0  0  0  0  0  0  0  0  0  0  0  0
    5.3707   49.2569   34.2951 H   0  0  0  0  0  0  0  0  0  0  0  0
    2.9335   49.5521   34.3468 H   0  0  0  0  0  0  0  0  0  0  0  0
    3.1189   52.0943   30.9114 H   0  0  0  0  0  0  0  0  0  0  0  0
    1.8068   50.9532   32.6483 H   0  0  0  0  0  0  0  0  0  0  0  0
    9.7472   40.0309   31.9256 H   0  0  0  0  0  0  0  0  0  0  0  0
   11.2239   41.0357   31.8826 H   0  0  0  0  0  0  0  0  0  0  0  0
   11.5999   39.0159   30.5904 H   0  0  0  0  0  0  0  0  0  0  0  0
   10.7034   37.5449   33.1702 H   0  0  0  0  0  0  0  0  0  0  0  0
   14.1993   37.4424   31.5548 H   0  0  0  0  0  0  0  0  0  0  0  0
    9.1370   37.6634   31.6024 H   0  0  0  0  0  0  0  0  0  0  0  0
   12.1204   35.7712   32.5636 H   0  0  0  0  0  0  0  0  0  0  0  0
   12.9457   35.5426   30.5221 H   0  0  0  0  0  0  0  0  0  0  0  0
   12.4322   38.3989   34.8700 H   0  0  0  0  0  0  0  0  0  0  0  0
   17.2664   34.4142   33.1690 H   0  0  0  0  0  0  0  0  0  0  0  0
   16.7636   35.0598   37.7895 H   0  0  0  0  0  0  0  0  0  0  0  0
   15.3759   36.1865   37.9790 H   0  0  0  0  0  0  0  0  0  0  0  0
  1  2  2  0
  1  3  1  0
  3  4  1  0
  4  5  1  0
  6  1  1  0
  7  6  1  0
  6  8  1  0
  8  9  1  0
  9 10  1  0
 10 11  1  0
 11 12  1  0
 12 13  1  0
 13 14  1  0
 13 15  2  0
 14 16  1  0
 16 17  1  0
 17 18  2  0
 19 17  1  0
 18 20  1  0
 21 19  2  0
 19 22  1  0
 20 23  2  0
 23 21  1  0
 22 24  1  0
 22 25  2  0
  4 26  2  0
  4 27  1  0
 28 27  1  0
 28 29  1  0
 29 30  1  0
 29 31  1  0
 30 32  1  0
 31 33  1  0
 31 34  1  0
 34 32  1  0
 32 35  1  0
 34 36  1  0
 37 35  1  0
 38 35  1  0
 39 37  2  0
 37 40  1  0
 41 38  2  0
 42 39  1  0
 40 43  2  0
 40 41  1  0
 44 42  2  0
 44 43  1  0
 43 45  1  0
  6 46  1  6
  7 47  1  0
  7 48  1  0
  8 49  1  0
  8 50  1  0
  9 51  1  0
  9 52  1  0
 10 53  1  0
 10 54  1  0
 11 55  1  0
 11 56  1  0
 12 57  1  0
 16 58  1  0
 16 59  1  0
 18 60  1  0
 20 61  1  0
 21 62  1  0
 23 63  1  0
 28 64  1  0
 28 65  1  0
 29 66  1  0
 31 67  1  0
 32 68  1  0
 33 69  1  0
 34 70  1  0
 36 71  1  0
 38 72  1  0
 42 73  1  0
 45 74  1  0
 45 75  1  0
M  CHG  3   5  -1  22   1  24  -1
M  END
>  <EmbedRMS>  (450) 
0.0738306949892

$$$$

     RDKit          3D

 75 78  0  0  0  0  0  0  0  0999 V2000
    9.4330   42.9367   34.3463 C   0  0  0  0  0  0  0  0  0  0  0  0
   10.4905   43.0333   35.0319 O   0  0  0  0  0  0  0  0  0  0  0  0
    8.8562   41.7105   34.0297 O   0  0  0  0  0  0  0  0  0  0  0  0
    9.4945   40.2143   34.4680 P   0  0  0  0  0  0  0  0  0  0  0  0
    9.7309   40.1726   36.1291 O   0  0  0  0  0  0  0  0  0  0  0  0
    8.7502   44.1350   33.7741 C   0  0  1  0  0  0  0  0  0  0  0  0
    9.2956   45.3824   34.3132 N   0  0  0  0  0  0  0  0  0  0  0  0
    8.8891   44.0526   32.2359 C   0  0  0  0  0  0  0  0  0  0  0  0
    8.2031   45.1823   31.4613 C   0  0  0  0  0  0  0  0  0  0  0  0
    6.6656   45.1033   31.4819 C   0  0  0  0  0  0  0  0  0  0  0  0
    6.0281   46.3239   30.8102 C   0  0  0  0  0  0  0  0  0  0  0  0
    6.5100   47.5618   31.4225 N   0  0  0  0  0  0  0  0  0  0  0  0
    7.2431   48.5448   30.6814 C   0  0  0  0  0  0  0  0  0  0  0  0
    7.6094   49.7729   31.2496 O   0  0  0  0  0  0  0  0  0  0  0  0
    7.5904   48.3072   29.4952 O   0  0  0  0  0  0  0  0  0  0  0  0
    7.2781   50.1866   32.5751 C   0  0  0  0  0  0  0  0  0  0  0  0
    5.7954   50.4604   32.7015 C   0  0  0  0  0  0  0  0  0  0  0  0
    5.1746   51.2500   31.7165 C   0  0  0  0  0  0  0  0  0  0  0  0
    5.0086   49.9237   33.7535 C   0  0  0  0  0  0  0  0  0  0  0  0
    3.7957   51.4640   31.7394 C   0  0  0  0  0  0  0  0  0  0  0  0
    3.6184   50.1334   33.7486 C   0  0  0  0  0  0  0  0  0  0  0  0
    5.5998   49.1937   34.8394 N   0  0  0  0  0  0  0  0  0  0  0  0
    3.0174   50.8976   32.7474 C   0  0  0  0  0  0  0  0  0  0  0  0
    6.6776   49.7187   35.5143 O   0  0  0  0  0  0  0  0  0  0  0  0
    5.0102   48.2042   35.3207 O   0  0  0  0  0  0  0  0  0  0  0  0
    8.5372   39.1387   34.0125 O   0  0  0  0  0  0  0  0  0  0  0  0
   10.9804   40.0881   33.6837 O   0  0  0  0  0  0  0  0  0  0  0  0
   10.8025   40.0900   32.2839 C   0  0  0  0  0  0  0  0  0  0  0  0
   11.5888   38.9174   31.7007 C   0  0  0  0  0  0  0  0  0  0  0  0
   12.9219   38.9373   32.1692 O   0  0  0  0  0  0  0  0  0  0  0  0
   11.0028   37.5682   32.0980 C   0  0  0  0  0  0  0  0  0  0  0  0
   13.3496   37.5885   32.2601 C   0  0  0  0  0  0  0  0  0  0  0  0
    9.9343   37.1822   31.2756 O   0  0  0  0  0  0  0  0  0  0  0  0
   12.1891   36.6677   31.9049 C   0  0  0  0  0  0  0  0  0  0  0  0
   13.8025   37.2965   33.6186 N   0  0  0  0  0  0  0  0  0  0  0  0
   12.2991   36.2867   30.5567 O   0  0  0  0  0  0  0  0  0  0  0  0
   14.7929   36.4725   33.9858 C   0  0  0  0  0  0  0  0  0  0  0  0
   13.2749   37.7294   34.7935 C   0  0  0  0  0  0  0  0  0  0  0  0
   15.6240   35.7580   33.1858 N   0  0  0  0  0  0  0  0  0  0  0  0
   14.8727   36.4411   35.3327 C   0  0  0  0  0  0  0  0  0  0  0  0
   13.9208   37.2263   35.8803 N   0  0  0  0  0  0  0  0  0  0  0  0
   16.5871   34.9921   33.7801 C   0  0  0  0  0  0  0  0  0  0  0  0
   15.8576   35.6718   35.9441 C   0  0  0  0  0  0  0  0  0  0  0  0
   16.7024   34.9584   35.1438 N   0  0  0  0  0  0  0  0  0  0  0  0
   16.0099   35.6384   37.3562 N   0  0  0  0  0  0  0  0  0  0  0  0
    7.6765   44.0709   34.0501 H   0  0  0  0  0  0  0  0  0  0  0  0
    9.1809   45.3831   35.3533 H   0  0  0  0  0  0  0  0  0  0  0  0
   10.3187   45.4409   34.1008 H   0  0  0  0  0  0  0  0  0  0  0  0
    8.4814   43.0850   31.8669 H   0  0  0  0  0  0  0  0  0  0  0  0
    9.9710   44.0678   31.9742 H   0  0  0  0  0  0  0  0  0  0  0  0
    8.5409   45.1377   30.4027 H   0  0  0  0  0  0  0  0  0  0  0  0
    8.5543   46.1506   31.8759 H   0  0  0  0  0  0  0  0  0  0  0  0
    6.3002   45.0586   32.5289 H   0  0  0  0  0  0  0  0  0  0  0  0
    6.3314   44.1805   30.9600 H   0  0  0  0  0  0  0  0  0  0  0  0
    4.9248   46.2698   30.9289 H   0  0  0  0  0  0  0  0  0  0  0  0
    6.2449   46.2939   29.7210 H   0  0  0  0  0  0  0  0  0  0  0  0
    6.3026   47.7087   32.4337 H   0  0  0  0  0  0  0  0  0  0  0  0
    7.6450   49.4233   33.2896 H   0  0  0  0  0  0  0  0  0  0  0  0
    7.8232   51.1292   32.7906 H   0  0  0  0  0  0  0  0  0  0  0  0
    5.7591   51.6851   30.9151 H   0  0  0  0  0  0  0  0  0  0  0  0
    3.3287   52.0639   30.9689 H   0  0  0  0  0  0  0  0  0  0  0  0
    3.0018   49.7245   34.5392 H   0  0  0  0  0  0  0  0  0  0  0  0
    1.9476   51.0611   32.7605 H   0  0  0  0  0  0  0  0  0  0  0  0
    9.7476   40.0331   31.9256 H   0  0  0  0  0  0  0  0  0  0  0  0
   11.2258   41.0357   31.8829 H   0  0  0  0  0  0  0  0  0  0  0  0
   11.5974   39.0148   30.5905 H   0  0  0  0  0  0  0  0  0  0  0  0
   10.7023   37.5455   33.1719 H   0  0  0  0  0  0  0  0  0  0  0  0
   14.1957   37.4366   31.5528 H   0  0  0  0  0  0  0  0  0  0  0  0
    9.1339   37.6658   31.6069 H   0  0  0  0  0  0  0  0  0  0  0  0
   12.1381   35.7717   32.5697 H   0  0  0  0  0  0  0  0  0  0  0  0
   11.7707   35.4530   30.4496 H   0  0  0  0  0  0  0  0  0  0  0  0
   12.4314   38.3980   34.8694 H   0  0  0  0  0  0  0  0  0  0  0  0
   17.2665   34.4140   33.1691 H   0  0  0  0  0  0  0  0  0  0  0  0
   15.3757   36.1868   37.9789 H   0  0  0  0  0  0  0  0  0  0  0  0
   16.7633   35.0598   37.7895 H   0  0  0  0  0  0  0  0  0  0  0  0
  1  2  2  0
  1  3  1  0
  3  4  1  0
  4  5  1  0
  6  1  1  0
  7  6  1  0
  6  8  1  0
  8  9  1  0
  9 10  1  0
 10 11  1  0
 11 12  1  0
 12 13  1  0
 13 14  1  0
 13 15  2  0
 14 16  1  0
 16 17  1  0
 17 18  2  0
 19 17  1  0
 18 20  1  0
 21 19  2  0
 19 22  1  0
 20 23  2  0
 23 21  1  0
 22 24  1  0
 22 25  2  0
  4 26  2  0
  4 27  1  0
 28 27  1  0
 28 29  1  0
 29 30  1  0
 29 31  1  0
 30 32  1  0
 31 33  1  0
 31 34  1  0
 34 32  1  0
 32 35  1  0
 34 36  1  0
 37 35  1  0
 38 35  1  0
 39 37  2  0
 37 40  1  0
 41 38  2  0
 42 39  1  0
 40 43  2  0
 40 41  1  0
 44 42  2  0
 44 43  1  0
 43 45  1  0
  6 46  1  6
  7 47  1  0
  7 48  1  0
  8 49  1  0
  8 50  1  0
  9 51  1  0
  9 52  1  0
 10 53  1  0
 10 54  1  0
 11 55  1  0
 11 56  1  0
 12 57  1  0
 16 58  1  0
 16 59  1  0
 18 60  1  0
 20 61  1  0
 21 62  1  0
 23 63  1  0
 28 64  1  0
 28 65  1  0
 29 66  1  0
 31 67  1  0
 32 68  1  0
 33 69  1  0
 34 70  1  0
 36 71  1  0
 38 72  1  0
 42 73  1  0
 45 74  1  0
 45 75  1  0
M  CHG  3   5  -1  22   1  24  -1
M  END
>  <EmbedRMS>  (451) 
0.0740440306099

$$$$

     RDKit          3D

 75 78  0  0  0  0  0  0  0  0999 V2000
    9.4309   42.9413   34.3439 C   0  0  0  0  0  0  0  0  0  0  0  0
   10.4883   43.0412   35.0294 O   0  0  0  0  0  0  0  0  0  0  0  0
    8.8561   41.7129   34.0288 O   0  0  0  0  0  0  0  0  0  0  0  0
    9.4944   40.2162   34.4677 P   0  0  0  0  0  0  0  0  0  0  0  0
    9.7313   40.1740   36.1288 O   0  0  0  0  0  0  0  0  0  0  0  0
    8.7479   44.1363   33.7723 C   0  0  1  0  0  0  0  0  0  0  0  0
    9.3031   45.3670   34.3390 N   0  0  0  0  0  0  0  0  0  0  0  0
    8.8889   44.0520   32.2311 C   0  0  0  0  0  0  0  0  0  0  0  0
    8.2016   45.1724   31.4439 C   0  0  0  0  0  0  0  0  0  0  0  0
    6.6643   45.1057   31.4858 C   0  0  0  0  0  0  0  0  0  0  0  0
    6.0283   46.3240   30.8096 C   0  0  0  0  0  0  0  0  0  0  0  0
    6.5091   47.5624   31.4214 N   0  0  0  0  0  0  0  0  0  0  0  0
    7.2518   48.5404   30.6851 C   0  0  0  0  0  0  0  0  0  0  0  0
    7.6490   49.7534   31.2642 O   0  0  0  0  0  0  0  0  0  0  0  0
    7.5841   48.3103   29.4931 O   0  0  0  0  0  0  0  0  0  0  0  0
    7.4206   50.1281   32.6236 C   0  0  0  0  0  0  0  0  0  0  0  0
    5.9538   50.3915   32.8918 C   0  0  0  0  0  0  0  0  0  0  0  0
    5.2161   51.1137   31.9345 C   0  0  0  0  0  0  0  0  0  0  0  0
    5.3285   50.0370   34.1175 C   0  0  0  0  0  0  0  0  0  0  0  0
    3.8812   51.4490   32.1655 C   0  0  0  0  0  0  0  0  0  0  0  0
    3.9897   50.4000   34.3384 C   0  0  0  0  0  0  0  0  0  0  0  0
    6.0343   49.3515   35.1622 N   0  0  0  0  0  0  0  0  0  0  0  0
    3.2688   51.0922   33.3650 C   0  0  0  0  0  0  0  0  0  0  0  0
    5.8933   49.7752   36.4634 O   0  0  0  0  0  0  0  0  0  0  0  0
    6.5370   48.2299   34.9475 O   0  0  0  0  0  0  0  0  0  0  0  0
    8.5373   39.1401   34.0125 O   0  0  0  0  0  0  0  0  0  0  0  0
   10.9796   40.0878   33.6826 O   0  0  0  0  0  0  0  0  0  0  0  0
   10.7996   40.0901   32.2829 C   0  0  0  0  0  0  0  0  0  0  0  0
   11.5968   38.9274   31.6963 C   0  0  0  0  0  0  0  0  0  0  0  0
   12.9242   38.9426   32.1785 O   0  0  0  0  0  0  0  0  0  0  0  0
   11.0085   37.5714   32.0780 C   0  0  0  0  0  0  0  0  0  0  0  0
   13.3528   37.5929   32.2623 C   0  0  0  0  0  0  0  0  0  0  0  0
    9.9098   37.1771   31.2926 O   0  0  0  0  0  0  0  0  0  0  0  0
   12.1942   36.6683   31.8995 C   0  0  0  0  0  0  0  0  0  0  0  0
   13.8019   37.2950   33.6199 N   0  0  0  0  0  0  0  0  0  0  0  0
   12.3026   36.2773   30.5559 O   0  0  0  0  0  0  0  0  0  0  0  0
   14.7926   36.4715   33.9865 C   0  0  0  0  0  0  0  0  0  0  0  0
   13.2749   37.7286   34.7946 C   0  0  0  0  0  0  0  0  0  0  0  0
   15.6239   35.7577   33.1860 N   0  0  0  0  0  0  0  0  0  0  0  0
   14.8727   36.4403   35.3332 C   0  0  0  0  0  0  0  0  0  0  0  0
   13.9210   37.2257   35.8812 N   0  0  0  0  0  0  0  0  0  0  0  0
   16.5873   34.9921   33.7802 C   0  0  0  0  0  0  0  0  0  0  0  0
   15.8579   35.6714   35.9444 C   0  0  0  0  0  0  0  0  0  0  0  0
   16.7028   34.9583   35.1439 N   0  0  0  0  0  0  0  0  0  0  0  0
   16.0104   35.6381   37.3564 N   0  0  0  0  0  0  0  0  0  0  0  0
    7.6758   44.0638   34.0547 H   0  0  0  0  0  0  0  0  0  0  0  0
   10.2141   45.5891   33.8745 H   0  0  0  0  0  0  0  0  0  0  0  0
    8.6457   46.1562   34.1438 H   0  0  0  0  0  0  0  0  0  0  0  0
    8.4826   43.0820   31.8668 H   0  0  0  0  0  0  0  0  0  0  0  0
    9.9706   44.0643   31.9684 H   0  0  0  0  0  0  0  0  0  0  0  0
    8.5220   45.0976   30.3816 H   0  0  0  0  0  0  0  0  0  0  0  0
    8.5701   46.1488   31.8196 H   0  0  0  0  0  0  0  0  0  0  0  0
    6.3162   44.1799   30.9784 H   0  0  0  0  0  0  0  0  0  0  0  0
    6.3122   45.0757   32.5378 H   0  0  0  0  0  0  0  0  0  0  0  0
    6.2480   46.2917   29.7210 H   0  0  0  0  0  0  0  0  0  0  0  0
    4.9247   46.2704   30.9256 H   0  0  0  0  0  0  0  0  0  0  0  0
    6.2854   47.7184   32.4265 H   0  0  0  0  0  0  0  0  0  0  0  0
    7.9716   51.0729   32.8128 H   0  0  0  0  0  0  0  0  0  0  0  0
    7.8627   49.3648   33.2914 H   0  0  0  0  0  0  0  0  0  0  0  0
    5.6778   51.4259   31.0059 H   0  0  0  0  0  0  0  0  0  0  0  0
    3.3242   51.9975   31.4168 H   0  0  0  0  0  0  0  0  0  0  0  0
    3.5010   50.1372   35.2683 H   0  0  0  0  0  0  0  0  0  0  0  0
    2.2356   51.3598   33.5450 H   0  0  0  0  0  0  0  0  0  0  0  0
   11.2094   41.0420   31.8824 H   0  0  0  0  0  0  0  0  0  0  0  0
    9.7449   40.0145   31.9263 H   0  0  0  0  0  0  0  0  0  0  0  0
   11.6265   39.0456   30.5889 H   0  0  0  0  0  0  0  0  0  0  0  0
   10.7064   37.5575   33.1485 H   0  0  0  0  0  0  0  0  0  0  0  0
   14.2020   37.4484   31.5574 H   0  0  0  0  0  0  0  0  0  0  0  0
   10.0952   37.3991   30.3433 H   0  0  0  0  0  0  0  0  0  0  0  0
   12.1163   35.7745   32.5634 H   0  0  0  0  0  0  0  0  0  0  0  0
   12.9614   35.5349   30.5312 H   0  0  0  0  0  0  0  0  0  0  0  0
   12.4321   38.3982   34.8705 H   0  0  0  0  0  0  0  0  0  0  0  0
   17.2669   34.4144   33.1690 H   0  0  0  0  0  0  0  0  0  0  0  0
   15.3761   36.1862   37.9792 H   0  0  0  0  0  0  0  0  0  0  0  0
   16.7641   35.0599   37.7896 H   0  0  0  0  0  0  0  0  0  0  0  0
  1  2  2  0
  1  3  1  0
  3  4  1  0
  4  5  1  0
  6  1  1  0
  7  6  1  0
  6  8  1  0
  8  9  1  0
  9 10  1  0
 10 11  1  0
 11 12  1  0
 12 13  1  0
 13 14  1  0
 13 15  2  0
 14 16  1  0
 16 17  1  0
 17 18  2  0
 19 17  1  0
 18 20  1  0
 21 19  2  0
 19 22  1  0
 20 23  2  0
 23 21  1  0
 22 24  1  0
 22 25  2  0
  4 26  2  0
  4 27  1  0
 28 27  1  0
 28 29  1  0
 29 30  1  0
 29 31  1  0
 30 32  1  0
 31 33  1  0
 31 34  1  0
 34 32  1  0
 32 35  1  0
 34 36  1  0
 37 35  1  0
 38 35  1  0
 39 37  2  0
 37 40  1  0
 41 38  2  0
 42 39  1  0
 40 43  2  0
 40 41  1  0
 44 42  2  0
 44 43  1  0
 43 45  1  0
  6 46  1  6
  7 47  1  0
  7 48  1  0
  8 49  1  0
  8 50  1  0
  9 51  1  0
  9 52  1  0
 10 53  1  0
 10 54  1  0
 11 55  1  0
 11 56  1  0
 12 57  1  0
 16 58  1  0
 16 59  1  0
 18 60  1  0
 20 61  1  0
 21 62  1  0
 23 63  1  0
 28 64  1  0
 28 65  1  0
 29 66  1  0
 31 67  1  0
 32 68  1  0
 33 69  1  0
 34 70  1  0
 36 71  1  0
 38 72  1  0
 42 73  1  0
 45 74  1  0
 45 75  1  0
M  CHG  3   5  -1  22   1  24  -1
M  END
>  <EmbedRMS>  (452) 
0.0738014782621

$$$$

     RDKit          3D

 75 78  0  0  0  0  0  0  0  0999 V2000
    9.4333   42.9364   34.3461 C   0  0  0  0  0  0  0  0  0  0  0  0
   10.4907   43.0329   35.0319 O   0  0  0  0  0  0  0  0  0  0  0  0
    8.8563   41.7103   34.0295 O   0  0  0  0  0  0  0  0  0  0  0  0
    9.4943   40.2139   34.4679 P   0  0  0  0  0  0  0  0  0  0  0  0
    9.7310   40.1724   36.1290 O   0  0  0  0  0  0  0  0  0  0  0  0
    8.7506   44.1348   33.7741 C   0  0  1  0  0  0  0  0  0  0  0  0
    9.2963   45.3820   34.3134 N   0  0  0  0  0  0  0  0  0  0  0  0
    8.8893   44.0528   32.2358 C   0  0  0  0  0  0  0  0  0  0  0  0
    8.2028   45.1824   31.4615 C   0  0  0  0  0  0  0  0  0  0  0  0
    6.6653   45.1046   31.4855 C   0  0  0  0  0  0  0  0  0  0  0  0
    6.0269   46.3225   30.8105 C   0  0  0  0  0  0  0  0  0  0  0  0
    6.5062   47.5640   31.4180 N   0  0  0  0  0  0  0  0  0  0  0  0
    7.2439   48.5391   30.6836 C   0  0  0  0  0  0  0  0  0  0  0  0
    7.5954   49.7391   31.3071 O   0  0  0  0  0  0  0  0  0  0  0  0
    7.5933   48.3118   29.4936 O   0  0  0  0  0  0  0  0  0  0  0  0
    8.3466   50.7578   30.6505 C   0  0  0  0  0  0  0  0  0  0  0  0
    8.5855   51.9471   31.5557 C   0  0  0  0  0  0  0  0  0  0  0  0
    7.7939   52.1276   32.7092 C   0  0  0  0  0  0  0  0  0  0  0  0
    9.6083   52.8914   31.2692 C   0  0  0  0  0  0  0  0  0  0  0  0
    8.0321   53.1923   33.5791 C   0  0  0  0  0  0  0  0  0  0  0  0
    9.8411   53.9476   32.1695 C   0  0  0  0  0  0  0  0  0  0  0  0
   10.4179   52.7943   30.0826 N   0  0  0  0  0  0  0  0  0  0  0  0
    9.0583   54.0955   33.3142 C   0  0  0  0  0  0  0  0  0  0  0  0
    9.8588   52.4270   28.8805 O   0  0  0  0  0  0  0  0  0  0  0  0
   11.5976   53.2031   30.0945 O   0  0  0  0  0  0  0  0  0  0  0  0
    8.5372   39.1382   34.0121 O   0  0  0  0  0  0  0  0  0  0  0  0
   10.9798   40.0870   33.6829 O   0  0  0  0  0  0  0  0  0  0  0  0
   10.8002   40.0905   32.2833 C   0  0  0  0  0  0  0  0  0  0  0  0
   11.5958   38.9271   31.6963 C   0  0  0  0  0  0  0  0  0  0  0  0
   12.9239   38.9409   32.1766 O   0  0  0  0  0  0  0  0  0  0  0  0
   11.0062   37.5719   32.0793 C   0  0  0  0  0  0  0  0  0  0  0  0
   13.3507   37.5905   32.2614 C   0  0  0  0  0  0  0  0  0  0  0  0
    9.9064   37.1792   31.2946 O   0  0  0  0  0  0  0  0  0  0  0  0
   12.1920   36.6671   31.9003 C   0  0  0  0  0  0  0  0  0  0  0  0
   13.8017   37.2948   33.6193 N   0  0  0  0  0  0  0  0  0  0  0  0
   12.3133   36.2787   30.5560 O   0  0  0  0  0  0  0  0  0  0  0  0
   14.7927   36.4716   33.9861 C   0  0  0  0  0  0  0  0  0  0  0  0
   13.2746   37.7284   34.7941 C   0  0  0  0  0  0  0  0  0  0  0  0
   15.6240   35.7576   33.1859 N   0  0  0  0  0  0  0  0  0  0  0  0
   14.8728   36.4406   35.3330 C   0  0  0  0  0  0  0  0  0  0  0  0
   13.9209   37.2258   35.8807 N   0  0  0  0  0  0  0  0  0  0  0  0
   16.5874   34.9920   33.7802 C   0  0  0  0  0  0  0  0  0  0  0  0
   15.8579   35.6716   35.9443 C   0  0  0  0  0  0  0  0  0  0  0  0
   16.7028   34.9584   35.1439 N   0  0  0  0  0  0  0  0  0  0  0  0
   16.0103   35.6383   37.3563 N   0  0  0  0  0  0  0  0  0  0  0  0
    7.6770   44.0706   34.0504 H   0  0  0  0  0  0  0  0  0  0  0  0
   10.3192   45.4406   34.1000 H   0  0  0  0  0  0  0  0  0  0  0  0
    9.1827   45.3819   35.3535 H   0  0  0  0  0  0  0  0  0  0  0  0
    8.4817   43.0851   31.8668 H   0  0  0  0  0  0  0  0  0  0  0  0
    9.9711   44.0682   31.9739 H   0  0  0  0  0  0  0  0  0  0  0  0
    8.5384   45.1364   30.4023 H   0  0  0  0  0  0  0  0  0  0  0  0
    8.5552   46.1510   31.8743 H   0  0  0  0  0  0  0  0  0  0  0  0
    6.3020   45.0643   32.5334 H   0  0  0  0  0  0  0  0  0  0  0  0
    6.3297   44.1799   30.9678 H   0  0  0  0  0  0  0  0  0  0  0  0
    4.9235   46.2672   30.9265 H   0  0  0  0  0  0  0  0  0  0  0  0
    6.2464   46.2897   29.7217 H   0  0  0  0  0  0  0  0  0  0  0  0
    6.2822   47.7530   32.4209 H   0  0  0  0  0  0  0  0  0  0  0  0
    9.3249   50.3246   30.3484 H   0  0  0  0  0  0  0  0  0  0  0  0
    7.7975   51.0957   29.7455 H   0  0  0  0  0  0  0  0  0  0  0  0
    6.9882   51.4448   32.9463 H   0  0  0  0  0  0  0  0  0  0  0  0
    7.4202   53.3151   34.4635 H   0  0  0  0  0  0  0  0  0  0  0  0
   10.6207   54.6728   31.9729 H   0  0  0  0  0  0  0  0  0  0  0  0
    9.2424   54.9184   33.9929 H   0  0  0  0  0  0  0  0  0  0  0  0
   11.2116   41.0420   31.8834 H   0  0  0  0  0  0  0  0  0  0  0  0
    9.7455   40.0168   31.9263 H   0  0  0  0  0  0  0  0  0  0  0  0
   11.6245   39.0449   30.5888 H   0  0  0  0  0  0  0  0  0  0  0  0
   10.7051   37.5579   33.1500 H   0  0  0  0  0  0  0  0  0  0  0  0
   14.1985   37.4426   31.5553 H   0  0  0  0  0  0  0  0  0  0  0  0
   10.0893   37.4056   30.3459 H   0  0  0  0  0  0  0  0  0  0  0  0
   12.1337   35.7754   32.5703 H   0  0  0  0  0  0  0  0  0  0  0  0
   11.7934   35.4394   30.4513 H   0  0  0  0  0  0  0  0  0  0  0  0
   12.4314   38.3973   34.8700 H   0  0  0  0  0  0  0  0  0  0  0  0
   17.2669   34.4142   33.1691 H   0  0  0  0  0  0  0  0  0  0  0  0
   16.7638   35.0599   37.7896 H   0  0  0  0  0  0  0  0  0  0  0  0
   15.3759   36.1865   37.9790 H   0  0  0  0  0  0  0  0  0  0  0  0
  1  2  2  0
  1  3  1  0
  3  4  1  0
  4  5  1  0
  6  1  1  0
  7  6  1  0
  6  8  1  0
  8  9  1  0
  9 10  1  0
 10 11  1  0
 11 12  1  0
 12 13  1  0
 13 14  1  0
 13 15  2  0
 14 16  1  0
 16 17  1  0
 17 18  2  0
 19 17  1  0
 18 20  1  0
 21 19  2  0
 19 22  1  0
 20 23  2  0
 23 21  1  0
 22 24  1  0
 22 25  2  0
  4 26  2  0
  4 27  1  0
 28 27  1  0
 28 29  1  0
 29 30  1  0
 29 31  1  0
 30 32  1  0
 31 33  1  0
 31 34  1  0
 34 32  1  0
 32 35  1  0
 34 36  1  0
 37 35  1  0
 38 35  1  0
 39 37  2  0
 37 40  1  0
 41 38  2  0
 42 39  1  0
 40 43  2  0
 40 41  1  0
 44 42  2  0
 44 43  1  0
 43 45  1  0
  6 46  1  6
  7 47  1  0
  7 48  1  0
  8 49  1  0
  8 50  1  0
  9 51  1  0
  9 52  1  0
 10 53  1  0
 10 54  1  0
 11 55  1  0
 11 56  1  0
 12 57  1  0
 16 58  1  0
 16 59  1  0
 18 60  1  0
 20 61  1  0
 21 62  1  0
 23 63  1  0
 28 64  1  0
 28 65  1  0
 29 66  1  0
 31 67  1  0
 32 68  1  0
 33 69  1  0
 34 70  1  0
 36 71  1  0
 38 72  1  0
 42 73  1  0
 45 74  1  0
 45 75  1  0
M  CHG  3   5  -1  22   1  24  -1
M  END
>  <EmbedRMS>  (453) 
0.0747972860633

$$$$

     RDKit          3D

 75 78  0  0  0  0  0  0  0  0999 V2000
    9.4332   42.9368   34.3461 C   0  0  0  0  0  0  0  0  0  0  0  0
   10.4907   43.0332   35.0317 O   0  0  0  0  0  0  0  0  0  0  0  0
    8.8559   41.7107   34.0298 O   0  0  0  0  0  0  0  0  0  0  0  0
    9.4943   40.2143   34.4677 P   0  0  0  0  0  0  0  0  0  0  0  0
    9.7317   40.1725   36.1287 O   0  0  0  0  0  0  0  0  0  0  0  0
    8.7507   44.1354   33.7741 C   0  0  1  0  0  0  0  0  0  0  0  0
    9.2964   45.3827   34.3133 N   0  0  0  0  0  0  0  0  0  0  0  0
    8.8892   44.0536   32.2358 C   0  0  0  0  0  0  0  0  0  0  0  0
    8.2024   45.1835   31.4619 C   0  0  0  0  0  0  0  0  0  0  0  0
    6.6649   45.1047   31.4849 C   0  0  0  0  0  0  0  0  0  0  0  0
    6.0255   46.3219   30.8087 C   0  0  0  0  0  0  0  0  0  0  0  0
    6.5024   47.5638   31.4166 N   0  0  0  0  0  0  0  0  0  0  0  0
    7.2543   48.5325   30.6886 C   0  0  0  0  0  0  0  0  0  0  0  0
    7.6540   49.7057   31.3324 O   0  0  0  0  0  0  0  0  0  0  0  0
    7.5888   48.3144   29.4926 O   0  0  0  0  0  0  0  0  0  0  0  0
    8.4688   50.6911   30.7053 C   0  0  0  0  0  0  0  0  0  0  0  0
    8.8435   51.7524   31.7089 C   0  0  0  0  0  0  0  0  0  0  0  0
    8.5067   53.0909   31.4338 C   0  0  0  0  0  0  0  0  0  0  0  0
    9.4871   51.4373   32.9371 C   0  0  0  0  0  0  0  0  0  0  0  0
    8.7884   54.1007   32.3545 C   0  0  0  0  0  0  0  0  0  0  0  0
    9.7476   52.4701   33.8569 C   0  0  0  0  0  0  0  0  0  0  0  0
    9.8603   50.0887   33.2779 N   0  0  0  0  0  0  0  0  0  0  0  0
    9.4042   53.7905   33.5650 C   0  0  0  0  0  0  0  0  0  0  0  0
   10.3886   49.2428   32.3308 O   0  0  0  0  0  0  0  0  0  0  0  0
    9.8545   49.7212   34.4711 O   0  0  0  0  0  0  0  0  0  0  0  0
    8.5370   39.1384   34.0123 O   0  0  0  0  0  0  0  0  0  0  0  0
   10.9792   40.0888   33.6814 O   0  0  0  0  0  0  0  0  0  0  0  0
   10.7977   40.0842   32.2817 C   0  0  0  0  0  0  0  0  0  0  0  0
   11.5897   38.9146   31.7008 C   0  0  0  0  0  0  0  0  0  0  0  0
   12.9218   38.9385   32.1717 O   0  0  0  0  0  0  0  0  0  0  0  0
   11.0070   37.5654   32.0975 C   0  0  0  0  0  0  0  0  0  0  0  0
   13.3533   37.5909   32.2610 C   0  0  0  0  0  0  0  0  0  0  0  0
    9.9333   37.1934   31.2754 O   0  0  0  0  0  0  0  0  0  0  0  0
   12.1945   36.6671   31.9040 C   0  0  0  0  0  0  0  0  0  0  0  0
   13.8036   37.2970   33.6193 N   0  0  0  0  0  0  0  0  0  0  0  0
   12.2893   36.2849   30.5562 O   0  0  0  0  0  0  0  0  0  0  0  0
   14.7931   36.4723   33.9863 C   0  0  0  0  0  0  0  0  0  0  0  0
   13.2756   37.7298   34.7940 C   0  0  0  0  0  0  0  0  0  0  0  0
   15.6242   35.7580   33.1861 N   0  0  0  0  0  0  0  0  0  0  0  0
   14.8727   36.4407   35.3331 C   0  0  0  0  0  0  0  0  0  0  0  0
   13.9210   37.2262   35.8807 N   0  0  0  0  0  0  0  0  0  0  0  0
   16.5872   34.9920   33.7803 C   0  0  0  0  0  0  0  0  0  0  0  0
   15.8577   35.6715   35.9444 C   0  0  0  0  0  0  0  0  0  0  0  0
   16.7025   34.9582   35.1440 N   0  0  0  0  0  0  0  0  0  0  0  0
   16.0101   35.6382   37.3564 N   0  0  0  0  0  0  0  0  0  0  0  0
    7.6770   44.0714   34.0503 H   0  0  0  0  0  0  0  0  0  0  0  0
   10.3190   45.4420   34.0990 H   0  0  0  0  0  0  0  0  0  0  0  0
    9.1835   45.3826   35.3535 H   0  0  0  0  0  0  0  0  0  0  0  0
    9.9710   44.0693   31.9738 H   0  0  0  0  0  0  0  0  0  0  0  0
    8.4817   43.0860   31.8666 H   0  0  0  0  0  0  0  0  0  0  0  0
    8.5539   46.1522   31.8756 H   0  0  0  0  0  0  0  0  0  0  0  0
    8.5387   45.1385   30.4028 H   0  0  0  0  0  0  0  0  0  0  0  0
    6.3302   44.1796   30.9675 H   0  0  0  0  0  0  0  0  0  0  0  0
    6.3010   45.0646   32.5326 H   0  0  0  0  0  0  0  0  0  0  0  0
    4.9220   46.2653   30.9232 H   0  0  0  0  0  0  0  0  0  0  0  0
    6.2466   46.2893   29.7203 H   0  0  0  0  0  0  0  0  0  0  0  0
    6.2820   47.7496   32.4210 H   0  0  0  0  0  0  0  0  0  0  0  0
    9.3907   50.2278   30.2952 H   0  0  0  0  0  0  0  0  0  0  0  0
    7.9100   51.1262   29.8479 H   0  0  0  0  0  0  0  0  0  0  0  0
    8.0161   53.3566   30.5054 H   0  0  0  0  0  0  0  0  0  0  0  0
    8.5228   55.1259   32.1309 H   0  0  0  0  0  0  0  0  0  0  0  0
   10.2331   52.2532   34.8001 H   0  0  0  0  0  0  0  0  0  0  0  0
    9.6179   54.5754   34.2791 H   0  0  0  0  0  0  0  0  0  0  0  0
    9.7422   40.0118   31.9266 H   0  0  0  0  0  0  0  0  0  0  0  0
   11.2111   41.0320   31.8753 H   0  0  0  0  0  0  0  0  0  0  0  0
   11.6005   39.0119   30.5904 H   0  0  0  0  0  0  0  0  0  0  0  0
   10.7015   37.5593   33.1701 H   0  0  0  0  0  0  0  0  0  0  0  0
   14.2012   37.4438   31.5552 H   0  0  0  0  0  0  0  0  0  0  0  0
    9.5289   36.3869   31.6895 H   0  0  0  0  0  0  0  0  0  0  0  0
   12.1244   35.7693   32.5633 H   0  0  0  0  0  0  0  0  0  0  0  0
   12.9478   35.5427   30.5201 H   0  0  0  0  0  0  0  0  0  0  0  0
   12.4328   38.3993   34.8697 H   0  0  0  0  0  0  0  0  0  0  0  0
   17.2666   34.4140   33.1692 H   0  0  0  0  0  0  0  0  0  0  0  0
   15.3759   36.1865   37.9791 H   0  0  0  0  0  0  0  0  0  0  0  0
   16.7636   35.0598   37.7897 H   0  0  0  0  0  0  0  0  0  0  0  0
  1  2  2  0
  1  3  1  0
  3  4  1  0
  4  5  1  0
  6  1  1  0
  7  6  1  0
  6  8  1  0
  8  9  1  0
  9 10  1  0
 10 11  1  0
 11 12  1  0
 12 13  1  0
 13 14  1  0
 13 15  2  0
 14 16  1  0
 16 17  1  0
 17 18  2  0
 19 17  1  0
 18 20  1  0
 21 19  2  0
 19 22  1  0
 20 23  2  0
 23 21  1  0
 22 24  1  0
 22 25  2  0
  4 26  2  0
  4 27  1  0
 28 27  1  0
 28 29  1  0
 29 30  1  0
 29 31  1  0
 30 32  1  0
 31 33  1  0
 31 34  1  0
 34 32  1  0
 32 35  1  0
 34 36  1  0
 37 35  1  0
 38 35  1  0
 39 37  2  0
 37 40  1  0
 41 38  2  0
 42 39  1  0
 40 43  2  0
 40 41  1  0
 44 42  2  0
 44 43  1  0
 43 45  1  0
  6 46  1  6
  7 47  1  0
  7 48  1  0
  8 49  1  0
  8 50  1  0
  9 51  1  0
  9 52  1  0
 10 53  1  0
 10 54  1  0
 11 55  1  0
 11 56  1  0
 12 57  1  0
 16 58  1  0
 16 59  1  0
 18 60  1  0
 20 61  1  0
 21 62  1  0
 23 63  1  0
 28 64  1  0
 28 65  1  0
 29 66  1  0
 31 67  1  0
 32 68  1  0
 33 69  1  0
 34 70  1  0
 36 71  1  0
 38 72  1  0
 42 73  1  0
 45 74  1  0
 45 75  1  0
M  CHG  3   5  -1  22   1  24  -1
M  END
>  <EmbedRMS>  (454) 
0.074531308667

$$$$

     RDKit          3D

 75 78  0  0  0  0  0  0  0  0999 V2000
    9.4330   42.9366   34.3463 C   0  0  0  0  0  0  0  0  0  0  0  0
   10.4906   43.0332   35.0318 O   0  0  0  0  0  0  0  0  0  0  0  0
    8.8558   41.7104   34.0304 O   0  0  0  0  0  0  0  0  0  0  0  0
    9.4931   40.2141   34.4703 P   0  0  0  0  0  0  0  0  0  0  0  0
    9.7293   40.1727   36.1313 O   0  0  0  0  0  0  0  0  0  0  0  0
    8.7505   44.1348   33.7738 C   0  0  1  0  0  0  0  0  0  0  0  0
    9.2961   45.3821   34.3129 N   0  0  0  0  0  0  0  0  0  0  0  0
    8.8893   44.0523   32.2354 C   0  0  0  0  0  0  0  0  0  0  0  0
    8.2034   45.1819   31.4603 C   0  0  0  0  0  0  0  0  0  0  0  0
    6.6659   45.1026   31.4804 C   0  0  0  0  0  0  0  0  0  0  0  0
    6.0263   46.3256   30.8141 C   0  0  0  0  0  0  0  0  0  0  0  0
    6.5138   47.5626   31.4242 N   0  0  0  0  0  0  0  0  0  0  0  0
    7.2285   48.5515   30.6753 C   0  0  0  0  0  0  0  0  0  0  0  0
    7.5504   49.8012   31.2215 O   0  0  0  0  0  0  0  0  0  0  0  0
    7.6016   48.2999   29.4999 O   0  0  0  0  0  0  0  0  0  0  0  0
    7.0049   50.3429   32.4247 C   0  0  0  0  0  0  0  0  0  0  0  0
    5.5446   50.6962   32.2477 C   0  0  0  0  0  0  0  0  0  0  0  0
    4.5817   49.9321   32.9346 C   0  0  0  0  0  0  0  0  0  0  0  0
    5.1159   51.8049   31.4621 C   0  0  0  0  0  0  0  0  0  0  0  0
    3.2233   50.2283   32.8265 C   0  0  0  0  0  0  0  0  0  0  0  0
    3.7403   52.0897   31.3787 C   0  0  0  0  0  0  0  0  0  0  0  0
    6.0409   52.6816   30.7888 N   0  0  0  0  0  0  0  0  0  0  0  0
    2.8031   51.3025   32.0473 C   0  0  0  0  0  0  0  0  0  0  0  0
    5.6979   53.9948   30.5614 O   0  0  0  0  0  0  0  0  0  0  0  0
    7.0921   52.2447   30.2796 O   0  0  0  0  0  0  0  0  0  0  0  0
    8.5366   39.1382   34.0136 O   0  0  0  0  0  0  0  0  0  0  0  0
   10.9788   40.0866   33.6873 O   0  0  0  0  0  0  0  0  0  0  0  0
   10.7993   40.0944   32.2886 C   0  0  0  0  0  0  0  0  0  0  0  0
   11.5957   38.9351   31.6994 C   0  0  0  0  0  0  0  0  0  0  0  0
   12.9257   38.9478   32.1798 O   0  0  0  0  0  0  0  0  0  0  0  0
   11.0070   37.5757   32.0732 C   0  0  0  0  0  0  0  0  0  0  0  0
   13.3571   37.5979   32.2612 C   0  0  0  0  0  0  0  0  0  0  0  0
    9.9093   37.1807   31.2875 O   0  0  0  0  0  0  0  0  0  0  0  0
   12.1967   36.6763   31.8894 C   0  0  0  0  0  0  0  0  0  0  0  0
   13.8018   37.2956   33.6197 N   0  0  0  0  0  0  0  0  0  0  0  0
   12.3049   36.2360   30.5555 O   0  0  0  0  0  0  0  0  0  0  0  0
   14.7922   36.4716   33.9864 C   0  0  0  0  0  0  0  0  0  0  0  0
   13.2747   37.7291   34.7944 C   0  0  0  0  0  0  0  0  0  0  0  0
   15.6240   35.7581   33.1861 N   0  0  0  0  0  0  0  0  0  0  0  0
   14.8721   36.4402   35.3331 C   0  0  0  0  0  0  0  0  0  0  0  0
   13.9206   37.2257   35.8810 N   0  0  0  0  0  0  0  0  0  0  0  0
   16.5873   34.9924   33.7802 C   0  0  0  0  0  0  0  0  0  0  0  0
   15.8576   35.6714   35.9444 C   0  0  0  0  0  0  0  0  0  0  0  0
   16.7026   34.9585   35.1439 N   0  0  0  0  0  0  0  0  0  0  0  0
   16.0102   35.6382   37.3564 N   0  0  0  0  0  0  0  0  0  0  0  0
    7.6768   44.0709   34.0499 H   0  0  0  0  0  0  0  0  0  0  0  0
    9.1821   45.3824   35.3530 H   0  0  0  0  0  0  0  0  0  0  0  0
   10.3190   45.4407   34.0998 H   0  0  0  0  0  0  0  0  0  0  0  0
    9.9712   44.0673   31.9738 H   0  0  0  0  0  0  0  0  0  0  0  0
    8.4815   43.0847   31.8666 H   0  0  0  0  0  0  0  0  0  0  0  0
    8.5548   46.1502   31.8747 H   0  0  0  0  0  0  0  0  0  0  0  0
    8.5413   45.1374   30.4018 H   0  0  0  0  0  0  0  0  0  0  0  0
    6.3321   44.1816   30.9550 H   0  0  0  0  0  0  0  0  0  0  0  0
    6.3007   45.0532   32.5272 H   0  0  0  0  0  0  0  0  0  0  0  0
    4.9239   46.2729   30.9416 H   0  0  0  0  0  0  0  0  0  0  0  0
    6.2342   46.2972   29.7230 H   0  0  0  0  0  0  0  0  0  0  0  0
    6.3525   47.6918   32.4454 H   0  0  0  0  0  0  0  0  0  0  0  0
    7.1653   49.6340   33.2648 H   0  0  0  0  0  0  0  0  0  0  0  0
    7.5675   51.2612   32.6941 H   0  0  0  0  0  0  0  0  0  0  0  0
    4.8795   49.1075   33.5689 H   0  0  0  0  0  0  0  0  0  0  0  0
    2.4950   49.6275   33.3559 H   0  0  0  0  0  0  0  0  0  0  0  0
    3.3887   52.9245   30.7858 H   0  0  0  0  0  0  0  0  0  0  0  0
    1.7484   51.5326   31.9683 H   0  0  0  0  0  0  0  0  0  0  0  0
   11.2094   41.0479   31.8921 H   0  0  0  0  0  0  0  0  0  0  0  0
    9.7448   40.0200   31.9304 H   0  0  0  0  0  0  0  0  0  0  0  0
   11.6206   39.0685   30.5942 H   0  0  0  0  0  0  0  0  0  0  0  0
   10.7059   37.5563   33.1438 H   0  0  0  0  0  0  0  0  0  0  0  0
   14.2095   37.4543   31.5601 H   0  0  0  0  0  0  0  0  0  0  0  0
   10.0865   37.4209   30.3413 H   0  0  0  0  0  0  0  0  0  0  0  0
   12.1276   35.7872   32.5549 H   0  0  0  0  0  0  0  0  0  0  0  0
   12.5031   37.0109   29.9673 H   0  0  0  0  0  0  0  0  0  0  0  0
   12.4328   38.3996   34.8703 H   0  0  0  0  0  0  0  0  0  0  0  0
   17.2670   34.4149   33.1691 H   0  0  0  0  0  0  0  0  0  0  0  0
   16.7640   35.0601   37.7896 H   0  0  0  0  0  0  0  0  0  0  0  0
   15.3758   36.1862   37.9791 H   0  0  0  0  0  0  0  0  0  0  0  0
  1  2  2  0
  1  3  1  0
  3  4  1  0
  4  5  1  0
  6  1  1  0
  7  6  1  0
  6  8  1  0
  8  9  1  0
  9 10  1  0
 10 11  1  0
 11 12  1  0
 12 13  1  0
 13 14  1  0
 13 15  2  0
 14 16  1  0
 16 17  1  0
 17 18  2  0
 19 17  1  0
 18 20  1  0
 21 19  2  0
 19 22  1  0
 20 23  2  0
 23 21  1  0
 22 24  1  0
 22 25  2  0
  4 26  2  0
  4 27  1  0
 28 27  1  0
 28 29  1  0
 29 30  1  0
 29 31  1  0
 30 32  1  0
 31 33  1  0
 31 34  1  0
 34 32  1  0
 32 35  1  0
 34 36  1  0
 37 35  1  0
 38 35  1  0
 39 37  2  0
 37 40  1  0
 41 38  2  0
 42 39  1  0
 40 43  2  0
 40 41  1  0
 44 42  2  0
 44 43  1  0
 43 45  1  0
  6 46  1  6
  7 47  1  0
  7 48  1  0
  8 49  1  0
  8 50  1  0
  9 51  1  0
  9 52  1  0
 10 53  1  0
 10 54  1  0
 11 55  1  0
 11 56  1  0
 12 57  1  0
 16 58  1  0
 16 59  1  0
 18 60  1  0
 20 61  1  0
 21 62  1  0
 23 63  1  0
 28 64  1  0
 28 65  1  0
 29 66  1  0
 31 67  1  0
 32 68  1  0
 33 69  1  0
 34 70  1  0
 36 71  1  0
 38 72  1  0
 42 73  1  0
 45 74  1  0
 45 75  1  0
M  CHG  3   5  -1  22   1  24  -1
M  END
>  <EmbedRMS>  (455) 
0.0757762943004

$$$$

     RDKit          3D

 75 78  0  0  0  0  0  0  0  0999 V2000
    9.4310   42.9412   34.3437 C   0  0  0  0  0  0  0  0  0  0  0  0
   10.4884   43.0411   35.0293 O   0  0  0  0  0  0  0  0  0  0  0  0
    8.8561   41.7128   34.0287 O   0  0  0  0  0  0  0  0  0  0  0  0
    9.4945   40.2161   34.4677 P   0  0  0  0  0  0  0  0  0  0  0  0
    9.7312   40.1740   36.1288 O   0  0  0  0  0  0  0  0  0  0  0  0
    8.7481   44.1361   33.7720 C   0  0  1  0  0  0  0  0  0  0  0  0
    9.3034   45.3667   34.3386 N   0  0  0  0  0  0  0  0  0  0  0  0
    8.8891   44.0518   32.2307 C   0  0  0  0  0  0  0  0  0  0  0  0
    8.2018   45.1721   31.4431 C   0  0  0  0  0  0  0  0  0  0  0  0
    6.6645   45.1051   31.4847 C   0  0  0  0  0  0  0  0  0  0  0  0
    6.0271   46.3254   30.8129 C   0  0  0  0  0  0  0  0  0  0  0  0
    6.5119   47.5629   31.4238 N   0  0  0  0  0  0  0  0  0  0  0  0
    7.2390   48.5471   30.6792 C   0  0  0  0  0  0  0  0  0  0  0  0
    7.5899   49.7833   31.2387 O   0  0  0  0  0  0  0  0  0  0  0  0
    7.5941   48.3041   29.4965 O   0  0  0  0  0  0  0  0  0  0  0  0
    7.1901   50.2392   32.5309 C   0  0  0  0  0  0  0  0  0  0  0  0
    5.7027   50.5104   32.5767 C   0  0  0  0  0  0  0  0  0  0  0  0
    4.9351   49.8840   33.5761 C   0  0  0  0  0  0  0  0  0  0  0  0
    5.0538   51.3481   31.6279 C   0  0  0  0  0  0  0  0  0  0  0  0
    3.5511   50.0529   33.6234 C   0  0  0  0  0  0  0  0  0  0  0  0
    3.6559   51.4909   31.6850 C   0  0  0  0  0  0  0  0  0  0  0  0
    5.7800   52.0444   30.5986 N   0  0  0  0  0  0  0  0  0  0  0  0
    2.9121   50.8496   32.6761 C   0  0  0  0  0  0  0  0  0  0  0  0
    5.1712   52.3203   29.3958 O   0  0  0  0  0  0  0  0  0  0  0  0
    6.8948   52.5523   30.8360 O   0  0  0  0  0  0  0  0  0  0  0  0
    8.5374   39.1400   34.0124 O   0  0  0  0  0  0  0  0  0  0  0  0
   10.9799   40.0879   33.6828 O   0  0  0  0  0  0  0  0  0  0  0  0
   10.8002   40.0907   32.2831 C   0  0  0  0  0  0  0  0  0  0  0  0
   11.5958   38.9271   31.6964 C   0  0  0  0  0  0  0  0  0  0  0  0
   12.9239   38.9409   32.1767 O   0  0  0  0  0  0  0  0  0  0  0  0
   11.0062   37.5720   32.0794 C   0  0  0  0  0  0  0  0  0  0  0  0
   13.3506   37.5906   32.2614 C   0  0  0  0  0  0  0  0  0  0  0  0
    9.9064   37.1793   31.2946 O   0  0  0  0  0  0  0  0  0  0  0  0
   12.1920   36.6672   31.9004 C   0  0  0  0  0  0  0  0  0  0  0  0
   13.8017   37.2948   33.6193 N   0  0  0  0  0  0  0  0  0  0  0  0
   12.3133   36.2788   30.5561 O   0  0  0  0  0  0  0  0  0  0  0  0
   14.7927   36.4717   33.9862 C   0  0  0  0  0  0  0  0  0  0  0  0
   13.2746   37.7284   34.7941 C   0  0  0  0  0  0  0  0  0  0  0  0
   15.6240   35.7576   33.1859 N   0  0  0  0  0  0  0  0  0  0  0  0
   14.8728   36.4406   35.3330 C   0  0  0  0  0  0  0  0  0  0  0  0
   13.9209   37.2258   35.8808 N   0  0  0  0  0  0  0  0  0  0  0  0
   16.5874   34.9920   33.7802 C   0  0  0  0  0  0  0  0  0  0  0  0
   15.8579   35.6716   35.9443 C   0  0  0  0  0  0  0  0  0  0  0  0
   16.7028   34.9584   35.1439 N   0  0  0  0  0  0  0  0  0  0  0  0
   16.0103   35.6383   37.3563 N   0  0  0  0  0  0  0  0  0  0  0  0
    7.6760   44.0635   34.0544 H   0  0  0  0  0  0  0  0  0  0  0  0
    8.6458   46.1559   34.1436 H   0  0  0  0  0  0  0  0  0  0  0  0
   10.2143   45.5887   33.8741 H   0  0  0  0  0  0  0  0  0  0  0  0
    9.9707   44.0639   31.9680 H   0  0  0  0  0  0  0  0  0  0  0  0
    8.4828   43.0817   31.8665 H   0  0  0  0  0  0  0  0  0  0  0  0
    8.5223   45.0973   30.3808 H   0  0  0  0  0  0  0  0  0  0  0  0
    8.5705   46.1485   31.8186 H   0  0  0  0  0  0  0  0  0  0  0  0
    6.3124   45.0712   32.5366 H   0  0  0  0  0  0  0  0  0  0  0  0
    6.3166   44.1808   30.9746 H   0  0  0  0  0  0  0  0  0  0  0  0
    6.2406   46.2946   29.7230 H   0  0  0  0  0  0  0  0  0  0  0  0
    4.9241   46.2727   30.9351 H   0  0  0  0  0  0  0  0  0  0  0  0
    6.3165   47.7066   32.4377 H   0  0  0  0  0  0  0  0  0  0  0  0
    7.7334   51.1778   32.7637 H   0  0  0  0  0  0  0  0  0  0  0  0
    7.5069   49.5023   33.3006 H   0  0  0  0  0  0  0  0  0  0  0  0
    5.4069   49.2498   34.3166 H   0  0  0  0  0  0  0  0  0  0  0  0
    2.9721   49.5596   34.3934 H   0  0  0  0  0  0  0  0  0  0  0  0
    3.1399   52.1175   30.9687 H   0  0  0  0  0  0  0  0  0  0  0  0
    1.8377   50.9758   32.7127 H   0  0  0  0  0  0  0  0  0  0  0  0
    9.7454   40.0168   31.9263 H   0  0  0  0  0  0  0  0  0  0  0  0
   11.2114   41.0421   31.8829 H   0  0  0  0  0  0  0  0  0  0  0  0
   11.6246   39.0449   30.5889 H   0  0  0  0  0  0  0  0  0  0  0  0
   10.7050   37.5581   33.1500 H   0  0  0  0  0  0  0  0  0  0  0  0
   14.1984   37.4426   31.5553 H   0  0  0  0  0  0  0  0  0  0  0  0
   10.0893   37.4058   30.3459 H   0  0  0  0  0  0  0  0  0  0  0  0
   12.1337   35.7754   32.5703 H   0  0  0  0  0  0  0  0  0  0  0  0
   11.7933   35.4394   30.4514 H   0  0  0  0  0  0  0  0  0  0  0  0
   12.4314   38.3973   34.8700 H   0  0  0  0  0  0  0  0  0  0  0  0
   17.2669   34.4142   33.1691 H   0  0  0  0  0  0  0  0  0  0  0  0
   15.3759   36.1864   37.9790 H   0  0  0  0  0  0  0  0  0  0  0  0
   16.7638   35.0599   37.7896 H   0  0  0  0  0  0  0  0  0  0  0  0
  1  2  2  0
  1  3  1  0
  3  4  1  0
  4  5  1  0
  6  1  1  0
  7  6  1  0
  6  8  1  0
  8  9  1  0
  9 10  1  0
 10 11  1  0
 11 12  1  0
 12 13  1  0
 13 14  1  0
 13 15  2  0
 14 16  1  0
 16 17  1  0
 17 18  2  0
 19 17  1  0
 18 20  1  0
 21 19  2  0
 19 22  1  0
 20 23  2  0
 23 21  1  0
 22 24  1  0
 22 25  2  0
  4 26  2  0
  4 27  1  0
 28 27  1  0
 28 29  1  0
 29 30  1  0
 29 31  1  0
 30 32  1  0
 31 33  1  0
 31 34  1  0
 34 32  1  0
 32 35  1  0
 34 36  1  0
 37 35  1  0
 38 35  1  0
 39 37  2  0
 37 40  1  0
 41 38  2  0
 42 39  1  0
 40 43  2  0
 40 41  1  0
 44 42  2  0
 44 43  1  0
 43 45  1  0
  6 46  1  6
  7 47  1  0
  7 48  1  0
  8 49  1  0
  8 50  1  0
  9 51  1  0
  9 52  1  0
 10 53  1  0
 10 54  1  0
 11 55  1  0
 11 56  1  0
 12 57  1  0
 16 58  1  0
 16 59  1  0
 18 60  1  0
 20 61  1  0
 21 62  1  0
 23 63  1  0
 28 64  1  0
 28 65  1  0
 29 66  1  0
 31 67  1  0
 32 68  1  0
 33 69  1  0
 34 70  1  0
 36 71  1  0
 38 72  1  0
 42 73  1  0
 45 74  1  0
 45 75  1  0
M  CHG  3   5  -1  22   1  24  -1
M  END
>  <EmbedRMS>  (456) 
0.0737169745746

$$$$

     RDKit          3D

 75 78  0  0  0  0  0  0  0  0999 V2000
    9.4300   42.9390   34.3431 C   0  0  0  0  0  0  0  0  0  0  0  0
   10.4909   43.0384   35.0235 O   0  0  0  0  0  0  0  0  0  0  0  0
    8.8551   41.7111   34.0283 O   0  0  0  0  0  0  0  0  0  0  0  0
    9.4944   40.2151   34.4676 P   0  0  0  0  0  0  0  0  0  0  0  0
    9.7310   40.1737   36.1287 O   0  0  0  0  0  0  0  0  0  0  0  0
    8.7408   44.1361   33.7774 C   0  0  1  0  0  0  0  0  0  0  0  0
    9.2995   45.3700   34.3306 N   0  0  0  0  0  0  0  0  0  0  0  0
    8.8969   44.0586   32.2390 C   0  0  0  0  0  0  0  0  0  0  0  0
    8.2038   45.1687   31.4393 C   0  0  0  0  0  0  0  0  0  0  0  0
    6.6666   45.1070   31.4912 C   0  0  0  0  0  0  0  0  0  0  0  0
    6.0298   46.3246   30.8151 C   0  0  0  0  0  0  0  0  0  0  0  0
    6.5109   47.5651   31.4241 N   0  0  0  0  0  0  0  0  0  0  0  0
    7.2287   48.5519   30.6737 C   0  0  0  0  0  0  0  0  0  0  0  0
    7.5274   49.8121   31.2089 O   0  0  0  0  0  0  0  0  0  0  0  0
    7.6014   48.2990   29.4985 O   0  0  0  0  0  0  0  0  0  0  0  0
    7.1405   50.2576   32.5083 C   0  0  0  0  0  0  0  0  0  0  0  0
    8.0194   49.6473   33.5775 C   0  0  0  0  0  0  0  0  0  0  0  0
    9.4115   49.6303   33.3735 C   0  0  0  0  0  0  0  0  0  0  0  0
    7.4913   49.1027   34.7767 C   0  0  0  0  0  0  0  0  0  0  0  0
   10.2635   49.0530   34.3164 C   0  0  0  0  0  0  0  0  0  0  0  0
    8.3639   48.5144   35.7089 C   0  0  0  0  0  0  0  0  0  0  0  0
    6.0898   49.1675   35.0803 N   0  0  0  0  0  0  0  0  0  0  0  0
    9.7404   48.4931   35.4803 C   0  0  0  0  0  0  0  0  0  0  0  0
    5.4236   50.3684   34.9979 O   0  0  0  0  0  0  0  0  0  0  0  0
    5.5277   48.2026   35.6383 O   0  0  0  0  0  0  0  0  0  0  0  0
    8.5376   39.1388   34.0124 O   0  0  0  0  0  0  0  0  0  0  0  0
   10.9798   40.0878   33.6827 O   0  0  0  0  0  0  0  0  0  0  0  0
   10.8002   40.0907   32.2831 C   0  0  0  0  0  0  0  0  0  0  0  0
   11.5958   38.9271   31.6963 C   0  0  0  0  0  0  0  0  0  0  0  0
   12.9239   38.9409   32.1767 O   0  0  0  0  0  0  0  0  0  0  0  0
   11.0062   37.5719   32.0794 C   0  0  0  0  0  0  0  0  0  0  0  0
   13.3506   37.5905   32.2614 C   0  0  0  0  0  0  0  0  0  0  0  0
    9.9064   37.1793   31.2946 O   0  0  0  0  0  0  0  0  0  0  0  0
   12.1920   36.6672   31.9003 C   0  0  0  0  0  0  0  0  0  0  0  0
   13.8017   37.2948   33.6193 N   0  0  0  0  0  0  0  0  0  0  0  0
   12.3133   36.2788   30.5561 O   0  0  0  0  0  0  0  0  0  0  0  0
   14.7927   36.4717   33.9862 C   0  0  0  0  0  0  0  0  0  0  0  0
   13.2746   37.7284   34.7941 C   0  0  0  0  0  0  0  0  0  0  0  0
   15.6240   35.7576   33.1859 N   0  0  0  0  0  0  0  0  0  0  0  0
   14.8728   36.4406   35.3330 C   0  0  0  0  0  0  0  0  0  0  0  0
   13.9209   37.2258   35.8808 N   0  0  0  0  0  0  0  0  0  0  0  0
   16.5874   34.9920   33.7802 C   0  0  0  0  0  0  0  0  0  0  0  0
   15.8579   35.6716   35.9443 C   0  0  0  0  0  0  0  0  0  0  0  0
   16.7028   34.9584   35.1439 N   0  0  0  0  0  0  0  0  0  0  0  0
   16.0103   35.6383   37.3563 N   0  0  0  0  0  0  0  0  0  0  0  0
    7.6663   44.0629   34.0530 H   0  0  0  0  0  0  0  0  0  0  0  0
    8.6816   46.1617   34.0435 H   0  0  0  0  0  0  0  0  0  0  0  0
    9.2186   45.3319   35.3734 H   0  0  0  0  0  0  0  0  0  0  0  0
    9.9817   44.0903   31.9914 H   0  0  0  0  0  0  0  0  0  0  0  0
    8.5093   43.0834   31.8679 H   0  0  0  0  0  0  0  0  0  0  0  0
    8.5158   45.0743   30.3760 H   0  0  0  0  0  0  0  0  0  0  0  0
    8.5791   46.1518   31.7891 H   0  0  0  0  0  0  0  0  0  0  0  0
    6.3203   45.0835   32.5451 H   0  0  0  0  0  0  0  0  0  0  0  0
    6.3127   44.1798   30.9905 H   0  0  0  0  0  0  0  0  0  0  0  0
    4.9265   46.2703   30.9339 H   0  0  0  0  0  0  0  0  0  0  0  0
    6.2463   46.2908   29.7258 H   0  0  0  0  0  0  0  0  0  0  0  0
    6.2903   47.7253   32.4310 H   0  0  0  0  0  0  0  0  0  0  0  0
    6.0619   50.0502   32.6560 H   0  0  0  0  0  0  0  0  0  0  0  0
    7.2718   51.3591   32.5473 H   0  0  0  0  0  0  0  0  0  0  0  0
    9.8392   50.0581   32.4751 H   0  0  0  0  0  0  0  0  0  0  0  0
   11.3317   49.0386   34.1428 H   0  0  0  0  0  0  0  0  0  0  0  0
    7.9770   48.0908   36.6271 H   0  0  0  0  0  0  0  0  0  0  0  0
   10.4027   48.0436   36.2089 H   0  0  0  0  0  0  0  0  0  0  0  0
    9.7455   40.0168   31.9262 H   0  0  0  0  0  0  0  0  0  0  0  0
   11.2115   41.0420   31.8829 H   0  0  0  0  0  0  0  0  0  0  0  0
   11.6246   39.0449   30.5888 H   0  0  0  0  0  0  0  0  0  0  0  0
   10.7050   37.5581   33.1500 H   0  0  0  0  0  0  0  0  0  0  0  0
   14.1985   37.4426   31.5553 H   0  0  0  0  0  0  0  0  0  0  0  0
   10.0893   37.4057   30.3459 H   0  0  0  0  0  0  0  0  0  0  0  0
   12.1337   35.7754   32.5703 H   0  0  0  0  0  0  0  0  0  0  0  0
   11.7934   35.4394   30.4514 H   0  0  0  0  0  0  0  0  0  0  0  0
   12.4314   38.3973   34.8699 H   0  0  0  0  0  0  0  0  0  0  0  0
   17.2669   34.4142   33.1692 H   0  0  0  0  0  0  0  0  0  0  0  0
   16.7638   35.0599   37.7896 H   0  0  0  0  0  0  0  0  0  0  0  0
   15.3759   36.1865   37.9790 H   0  0  0  0  0  0  0  0  0  0  0  0
  1  2  2  0
  1  3  1  0
  3  4  1  0
  4  5  1  0
  6  1  1  0
  7  6  1  0
  6  8  1  0
  8  9  1  0
  9 10  1  0
 10 11  1  0
 11 12  1  0
 12 13  1  0
 13 14  1  0
 13 15  2  0
 14 16  1  0
 16 17  1  0
 17 18  2  0
 19 17  1  0
 18 20  1  0
 21 19  2  0
 19 22  1  0
 20 23  2  0
 23 21  1  0
 22 24  1  0
 22 25  2  0
  4 26  2  0
  4 27  1  0
 28 27  1  0
 28 29  1  0
 29 30  1  0
 29 31  1  0
 30 32  1  0
 31 33  1  0
 31 34  1  0
 34 32  1  0
 32 35  1  0
 34 36  1  0
 37 35  1  0
 38 35  1  0
 39 37  2  0
 37 40  1  0
 41 38  2  0
 42 39  1  0
 40 43  2  0
 40 41  1  0
 44 42  2  0
 44 43  1  0
 43 45  1  0
  6 46  1  6
  7 47  1  0
  7 48  1  0
  8 49  1  0
  8 50  1  0
  9 51  1  0
  9 52  1  0
 10 53  1  0
 10 54  1  0
 11 55  1  0
 11 56  1  0
 12 57  1  0
 16 58  1  0
 16 59  1  0
 18 60  1  0
 20 61  1  0
 21 62  1  0
 23 63  1  0
 28 64  1  0
 28 65  1  0
 29 66  1  0
 31 67  1  0
 32 68  1  0
 33 69  1  0
 34 70  1  0
 36 71  1  0
 38 72  1  0
 42 73  1  0
 45 74  1  0
 45 75  1  0
M  CHG  3   5  -1  22   1  24  -1
M  END
>  <EmbedRMS>  (457) 
0.0739917547424

$$$$

     RDKit          3D

 75 78  0  0  0  0  0  0  0  0999 V2000
    9.4332   42.9366   34.3462 C   0  0  0  0  0  0  0  0  0  0  0  0
   10.4906   43.0331   35.0318 O   0  0  0  0  0  0  0  0  0  0  0  0
    8.8563   41.7104   34.0295 O   0  0  0  0  0  0  0  0  0  0  0  0
    9.4943   40.2140   34.4678 P   0  0  0  0  0  0  0  0  0  0  0  0
    9.7310   40.1724   36.1290 O   0  0  0  0  0  0  0  0  0  0  0  0
    8.7505   44.1349   33.7741 C   0  0  1  0  0  0  0  0  0  0  0  0
    9.2960   45.3822   34.3134 N   0  0  0  0  0  0  0  0  0  0  0  0
    8.8892   44.0529   32.2359 C   0  0  0  0  0  0  0  0  0  0  0  0
    8.2031   45.1828   31.4617 C   0  0  0  0  0  0  0  0  0  0  0  0
    6.6656   45.1041   31.4832 C   0  0  0  0  0  0  0  0  0  0  0  0
    6.0283   46.3233   30.8087 C   0  0  0  0  0  0  0  0  0  0  0  0
    6.5052   47.5634   31.4212 N   0  0  0  0  0  0  0  0  0  0  0  0
    7.2479   48.5416   30.6833 C   0  0  0  0  0  0  0  0  0  0  0  0
    7.6312   49.7580   31.2602 O   0  0  0  0  0  0  0  0  0  0  0  0
    7.5891   48.3082   29.4945 O   0  0  0  0  0  0  0  0  0  0  0  0
    7.3311   50.1327   32.6013 C   0  0  0  0  0  0  0  0  0  0  0  0
    7.8616   51.5191   32.8714 C   0  0  0  0  0  0  0  0  0  0  0  0
    8.8002   51.6914   33.9063 C   0  0  0  0  0  0  0  0  0  0  0  0
    7.4764   52.6447   32.0905 C   0  0  0  0  0  0  0  0  0  0  0  0
    9.3582   52.9442   34.1621 C   0  0  0  0  0  0  0  0  0  0  0  0
    8.0642   53.8945   32.3572 C   0  0  0  0  0  0  0  0  0  0  0  0
    6.5202   52.5446   31.0183 N   0  0  0  0  0  0  0  0  0  0  0  0
    8.9938   54.0425   33.3869 C   0  0  0  0  0  0  0  0  0  0  0  0
    6.5980   53.4049   29.9471 O   0  0  0  0  0  0  0  0  0  0  0  0
    5.5240   51.7996   31.1153 O   0  0  0  0  0  0  0  0  0  0  0  0
    8.5372   39.1383   34.0121 O   0  0  0  0  0  0  0  0  0  0  0  0
   10.9798   40.0871   33.6829 O   0  0  0  0  0  0  0  0  0  0  0  0
   10.8002   40.0905   32.2832 C   0  0  0  0  0  0  0  0  0  0  0  0
   11.5958   38.9271   31.6963 C   0  0  0  0  0  0  0  0  0  0  0  0
   12.9239   38.9408   32.1766 O   0  0  0  0  0  0  0  0  0  0  0  0
   11.0062   37.5719   32.0793 C   0  0  0  0  0  0  0  0  0  0  0  0
   13.3507   37.5905   32.2614 C   0  0  0  0  0  0  0  0  0  0  0  0
    9.9064   37.1792   31.2946 O   0  0  0  0  0  0  0  0  0  0  0  0
   12.1920   36.6671   31.9003 C   0  0  0  0  0  0  0  0  0  0  0  0
   13.8017   37.2947   33.6193 N   0  0  0  0  0  0  0  0  0  0  0  0
   12.3134   36.2788   30.5560 O   0  0  0  0  0  0  0  0  0  0  0  0
   14.7927   36.4716   33.9862 C   0  0  0  0  0  0  0  0  0  0  0  0
   13.2746   37.7284   34.7941 C   0  0  0  0  0  0  0  0  0  0  0  0
   15.6240   35.7576   33.1859 N   0  0  0  0  0  0  0  0  0  0  0  0
   14.8728   36.4406   35.3330 C   0  0  0  0  0  0  0  0  0  0  0  0
   13.9209   37.2258   35.8808 N   0  0  0  0  0  0  0  0  0  0  0  0
   16.5874   34.9920   33.7802 C   0  0  0  0  0  0  0  0  0  0  0  0
   15.8579   35.6716   35.9443 C   0  0  0  0  0  0  0  0  0  0  0  0
   16.7028   34.9584   35.1439 N   0  0  0  0  0  0  0  0  0  0  0  0
   16.0103   35.6383   37.3563 N   0  0  0  0  0  0  0  0  0  0  0  0
    7.6768   44.0708   34.0502 H   0  0  0  0  0  0  0  0  0  0  0  0
   10.3189   45.4409   34.1002 H   0  0  0  0  0  0  0  0  0  0  0  0
    9.1822   45.3824   35.3535 H   0  0  0  0  0  0  0  0  0  0  0  0
    9.9711   44.0682   31.9742 H   0  0  0  0  0  0  0  0  0  0  0  0
    8.4815   43.0854   31.8667 H   0  0  0  0  0  0  0  0  0  0  0  0
    8.5403   45.1381   30.4030 H   0  0  0  0  0  0  0  0  0  0  0  0
    8.5541   46.1514   31.8760 H   0  0  0  0  0  0  0  0  0  0  0  0
    6.3313   44.1803   30.9632 H   0  0  0  0  0  0  0  0  0  0  0  0
    6.3005   45.0617   32.5304 H   0  0  0  0  0  0  0  0  0  0  0  0
    4.9245   46.2668   30.9220 H   0  0  0  0  0  0  0  0  0  0  0  0
    6.2496   46.2922   29.7204 H   0  0  0  0  0  0  0  0  0  0  0  0
    6.2745   47.7247   32.4262 H   0  0  0  0  0  0  0  0  0  0  0  0
    7.7897   49.3918   33.2926 H   0  0  0  0  0  0  0  0  0  0  0  0
    6.2346   50.1149   32.7735 H   0  0  0  0  0  0  0  0  0  0  0  0
    9.1106   50.8513   34.5155 H   0  0  0  0  0  0  0  0  0  0  0  0
   10.0800   53.0620   34.9601 H   0  0  0  0  0  0  0  0  0  0  0  0
    7.7898   54.7643   31.7740 H   0  0  0  0  0  0  0  0  0  0  0  0
    9.4314   55.0125   33.5851 H   0  0  0  0  0  0  0  0  0  0  0  0
    9.7455   40.0167   31.9263 H   0  0  0  0  0  0  0  0  0  0  0  0
   11.2116   41.0420   31.8834 H   0  0  0  0  0  0  0  0  0  0  0  0
   11.6245   39.0449   30.5888 H   0  0  0  0  0  0  0  0  0  0  0  0
   10.7051   37.5579   33.1499 H   0  0  0  0  0  0  0  0  0  0  0  0
   14.1985   37.4426   31.5553 H   0  0  0  0  0  0  0  0  0  0  0  0
   10.0893   37.4057   30.3459 H   0  0  0  0  0  0  0  0  0  0  0  0
   12.1337   35.7754   32.5703 H   0  0  0  0  0  0  0  0  0  0  0  0
   11.7934   35.4394   30.4513 H   0  0  0  0  0  0  0  0  0  0  0  0
   12.4314   38.3972   34.8700 H   0  0  0  0  0  0  0  0  0  0  0  0
   17.2669   34.4142   33.1691 H   0  0  0  0  0  0  0  0  0  0  0  0
   16.7638   35.0599   37.7896 H   0  0  0  0  0  0  0  0  0  0  0  0
   15.3759   36.1864   37.9790 H   0  0  0  0  0  0  0  0  0  0  0  0
  1  2  2  0
  1  3  1  0
  3  4  1  0
  4  5  1  0
  6  1  1  0
  7  6  1  0
  6  8  1  0
  8  9  1  0
  9 10  1  0
 10 11  1  0
 11 12  1  0
 12 13  1  0
 13 14  1  0
 13 15  2  0
 14 16  1  0
 16 17  1  0
 17 18  2  0
 19 17  1  0
 18 20  1  0
 21 19  2  0
 19 22  1  0
 20 23  2  0
 23 21  1  0
 22 24  1  0
 22 25  2  0
  4 26  2  0
  4 27  1  0
 28 27  1  0
 28 29  1  0
 29 30  1  0
 29 31  1  0
 30 32  1  0
 31 33  1  0
 31 34  1  0
 34 32  1  0
 32 35  1  0
 34 36  1  0
 37 35  1  0
 38 35  1  0
 39 37  2  0
 37 40  1  0
 41 38  2  0
 42 39  1  0
 40 43  2  0
 40 41  1  0
 44 42  2  0
 44 43  1  0
 43 45  1  0
  6 46  1  6
  7 47  1  0
  7 48  1  0
  8 49  1  0
  8 50  1  0
  9 51  1  0
  9 52  1  0
 10 53  1  0
 10 54  1  0
 11 55  1  0
 11 56  1  0
 12 57  1  0
 16 58  1  0
 16 59  1  0
 18 60  1  0
 20 61  1  0
 21 62  1  0
 23 63  1  0
 28 64  1  0
 28 65  1  0
 29 66  1  0
 31 67  1  0
 32 68  1  0
 33 69  1  0
 34 70  1  0
 36 71  1  0
 38 72  1  0
 42 73  1  0
 45 74  1  0
 45 75  1  0
M  CHG  3   5  -1  22   1  24  -1
M  END
>  <EmbedRMS>  (458) 
0.0748453440215

$$$$

     RDKit          3D

 75 78  0  0  0  0  0  0  0  0999 V2000
    9.4332   42.9368   34.3461 C   0  0  0  0  0  0  0  0  0  0  0  0
   10.4907   43.0333   35.0318 O   0  0  0  0  0  0  0  0  0  0  0  0
    8.8563   41.7106   34.0294 O   0  0  0  0  0  0  0  0  0  0  0  0
    9.4943   40.2141   34.4678 P   0  0  0  0  0  0  0  0  0  0  0  0
    9.7310   40.1725   36.1289 O   0  0  0  0  0  0  0  0  0  0  0  0
    8.7505   44.1353   33.7741 C   0  0  1  0  0  0  0  0  0  0  0  0
    9.2962   45.3827   34.3134 N   0  0  0  0  0  0  0  0  0  0  0  0
    8.8891   44.0536   32.2359 C   0  0  0  0  0  0  0  0  0  0  0  0
    8.2027   45.1838   31.4623 C   0  0  0  0  0  0  0  0  0  0  0  0
    6.6652   45.1046   31.4833 C   0  0  0  0  0  0  0  0  0  0  0  0
    6.0277   46.3224   30.8064 C   0  0  0  0  0  0  0  0  0  0  0  0
    6.5010   47.5635   31.4196 N   0  0  0  0  0  0  0  0  0  0  0  0
    7.2585   48.5352   30.6882 C   0  0  0  0  0  0  0  0  0  0  0  0
    7.6881   49.7269   31.2836 O   0  0  0  0  0  0  0  0  0  0  0  0
    7.5839   48.3111   29.4931 O   0  0  0  0  0  0  0  0  0  0  0  0
    7.4344   50.0741   32.6410 C   0  0  0  0  0  0  0  0  0  0  0  0
    8.1105   51.3823   32.9564 C   0  0  0  0  0  0  0  0  0  0  0  0
    7.3503   52.5640   32.8908 C   0  0  0  0  0  0  0  0  0  0  0  0
    9.4762   51.4545   33.3411 C   0  0  0  0  0  0  0  0  0  0  0  0
    7.9185   53.7954   33.2190 C   0  0  0  0  0  0  0  0  0  0  0  0
   10.0243   52.7049   33.6829 C   0  0  0  0  0  0  0  0  0  0  0  0
   10.3119   50.2835   33.4028 N   0  0  0  0  0  0  0  0  0  0  0  0
    9.2513   53.8650   33.6193 C   0  0  0  0  0  0  0  0  0  0  0  0
   10.2168   49.3004   32.4455 O   0  0  0  0  0  0  0  0  0  0  0  0
   11.2442   50.2237   34.2312 O   0  0  0  0  0  0  0  0  0  0  0  0
    8.5371   39.1384   34.0121 O   0  0  0  0  0  0  0  0  0  0  0  0
   10.9798   40.0871   33.6829 O   0  0  0  0  0  0  0  0  0  0  0  0
   10.8002   40.0905   32.2832 C   0  0  0  0  0  0  0  0  0  0  0  0
   11.5958   38.9271   31.6963 C   0  0  0  0  0  0  0  0  0  0  0  0
   12.9239   38.9409   32.1766 O   0  0  0  0  0  0  0  0  0  0  0  0
   11.0062   37.5719   32.0793 C   0  0  0  0  0  0  0  0  0  0  0  0
   13.3507   37.5905   32.2614 C   0  0  0  0  0  0  0  0  0  0  0  0
    9.9064   37.1793   31.2946 O   0  0  0  0  0  0  0  0  0  0  0  0
   12.1920   36.6671   31.9003 C   0  0  0  0  0  0  0  0  0  0  0  0
   13.8017   37.2948   33.6193 N   0  0  0  0  0  0  0  0  0  0  0  0
   12.3133   36.2787   30.5560 O   0  0  0  0  0  0  0  0  0  0  0  0
   14.7927   36.4716   33.9862 C   0  0  0  0  0  0  0  0  0  0  0  0
   13.2746   37.7284   34.7941 C   0  0  0  0  0  0  0  0  0  0  0  0
   15.6240   35.7576   33.1859 N   0  0  0  0  0  0  0  0  0  0  0  0
   14.8728   36.4406   35.3330 C   0  0  0  0  0  0  0  0  0  0  0  0
   13.9209   37.2258   35.8808 N   0  0  0  0  0  0  0  0  0  0  0  0
   16.5874   34.9920   33.7802 C   0  0  0  0  0  0  0  0  0  0  0  0
   15.8579   35.6716   35.9443 C   0  0  0  0  0  0  0  0  0  0  0  0
   16.7028   34.9584   35.1439 N   0  0  0  0  0  0  0  0  0  0  0  0
   16.0103   35.6383   37.3563 N   0  0  0  0  0  0  0  0  0  0  0  0
    7.6769   44.0713   34.0502 H   0  0  0  0  0  0  0  0  0  0  0  0
    9.1831   45.3826   35.3536 H   0  0  0  0  0  0  0  0  0  0  0  0
   10.3189   45.4420   34.0993 H   0  0  0  0  0  0  0  0  0  0  0  0
    9.9709   44.0691   31.9741 H   0  0  0  0  0  0  0  0  0  0  0  0
    8.4814   43.0861   31.8666 H   0  0  0  0  0  0  0  0  0  0  0  0
    8.5532   46.1524   31.8772 H   0  0  0  0  0  0  0  0  0  0  0  0
    8.5404   45.1398   30.4036 H   0  0  0  0  0  0  0  0  0  0  0  0
    6.3315   44.1798   30.9646 H   0  0  0  0  0  0  0  0  0  0  0  0
    6.2999   45.0637   32.5305 H   0  0  0  0  0  0  0  0  0  0  0  0
    6.2527   46.2910   29.7189 H   0  0  0  0  0  0  0  0  0  0  0  0
    4.9237   46.2644   30.9160 H   0  0  0  0  0  0  0  0  0  0  0  0
    6.2577   47.7290   32.4209 H   0  0  0  0  0  0  0  0  0  0  0  0
    6.3363   50.1580   32.7969 H   0  0  0  0  0  0  0  0  0  0  0  0
    7.8060   49.2807   33.3247 H   0  0  0  0  0  0  0  0  0  0  0  0
    6.3100   52.5322   32.5905 H   0  0  0  0  0  0  0  0  0  0  0  0
    7.3221   54.6972   33.1675 H   0  0  0  0  0  0  0  0  0  0  0  0
   11.0614   52.7842   33.9838 H   0  0  0  0  0  0  0  0  0  0  0  0
    9.6887   54.8210   33.8769 H   0  0  0  0  0  0  0  0  0  0  0  0
   11.2116   41.0420   31.8834 H   0  0  0  0  0  0  0  0  0  0  0  0
    9.7455   40.0168   31.9263 H   0  0  0  0  0  0  0  0  0  0  0  0
   11.6245   39.0449   30.5888 H   0  0  0  0  0  0  0  0  0  0  0  0
   10.7050   37.5580   33.1500 H   0  0  0  0  0  0  0  0  0  0  0  0
   14.1985   37.4426   31.5553 H   0  0  0  0  0  0  0  0  0  0  0  0
   10.0893   37.4057   30.3459 H   0  0  0  0  0  0  0  0  0  0  0  0
   12.1337   35.7754   32.5703 H   0  0  0  0  0  0  0  0  0  0  0  0
   11.7934   35.4394   30.4513 H   0  0  0  0  0  0  0  0  0  0  0  0
   12.4314   38.3973   34.8700 H   0  0  0  0  0  0  0  0  0  0  0  0
   17.2669   34.4142   33.1691 H   0  0  0  0  0  0  0  0  0  0  0  0
   16.7638   35.0599   37.7896 H   0  0  0  0  0  0  0  0  0  0  0  0
   15.3759   36.1864   37.9790 H   0  0  0  0  0  0  0  0  0  0  0  0
  1  2  2  0
  1  3  1  0
  3  4  1  0
  4  5  1  0
  6  1  1  0
  7  6  1  0
  6  8  1  0
  8  9  1  0
  9 10  1  0
 10 11  1  0
 11 12  1  0
 12 13  1  0
 13 14  1  0
 13 15  2  0
 14 16  1  0
 16 17  1  0
 17 18  2  0
 19 17  1  0
 18 20  1  0
 21 19  2  0
 19 22  1  0
 20 23  2  0
 23 21  1  0
 22 24  1  0
 22 25  2  0
  4 26  2  0
  4 27  1  0
 28 27  1  0
 28 29  1  0
 29 30  1  0
 29 31  1  0
 30 32  1  0
 31 33  1  0
 31 34  1  0
 34 32  1  0
 32 35  1  0
 34 36  1  0
 37 35  1  0
 38 35  1  0
 39 37  2  0
 37 40  1  0
 41 38  2  0
 42 39  1  0
 40 43  2  0
 40 41  1  0
 44 42  2  0
 44 43  1  0
 43 45  1  0
  6 46  1  6
  7 47  1  0
  7 48  1  0
  8 49  1  0
  8 50  1  0
  9 51  1  0
  9 52  1  0
 10 53  1  0
 10 54  1  0
 11 55  1  0
 11 56  1  0
 12 57  1  0
 16 58  1  0
 16 59  1  0
 18 60  1  0
 20 61  1  0
 21 62  1  0
 23 63  1  0
 28 64  1  0
 28 65  1  0
 29 66  1  0
 31 67  1  0
 32 68  1  0
 33 69  1  0
 34 70  1  0
 36 71  1  0
 38 72  1  0
 42 73  1  0
 45 74  1  0
 45 75  1  0
M  CHG  3   5  -1  22   1  24  -1
M  END
>  <EmbedRMS>  (459) 
0.0751669562998

$$$$

     RDKit          3D

 75 78  0  0  0  0  0  0  0  0999 V2000
    9.4336   42.9373   34.3454 C   0  0  0  0  0  0  0  0  0  0  0  0
   10.4908   43.0336   35.0315 O   0  0  0  0  0  0  0  0  0  0  0  0
    8.8564   41.7110   34.0291 O   0  0  0  0  0  0  0  0  0  0  0  0
    9.4944   40.2146   34.4678 P   0  0  0  0  0  0  0  0  0  0  0  0
    9.7307   40.1730   36.1290 O   0  0  0  0  0  0  0  0  0  0  0  0
    8.7511   44.1360   33.7736 C   0  0  1  0  0  0  0  0  0  0  0  0
    9.2969   45.3831   34.3130 N   0  0  0  0  0  0  0  0  0  0  0  0
    8.8895   44.0552   32.2352 C   0  0  0  0  0  0  0  0  0  0  0  0
    8.2022   45.1856   31.4619 C   0  0  0  0  0  0  0  0  0  0  0  0
    6.6645   45.1061   31.4852 C   0  0  0  0  0  0  0  0  0  0  0  0
    6.0232   46.3216   30.8070 C   0  0  0  0  0  0  0  0  0  0  0  0
    6.4948   47.5656   31.4146 N   0  0  0  0  0  0  0  0  0  0  0  0
    7.2633   48.5258   30.6931 C   0  0  0  0  0  0  0  0  0  0  0  0
    7.7023   49.6780   31.3525 O   0  0  0  0  0  0  0  0  0  0  0  0
    7.5889   48.3115   29.4945 O   0  0  0  0  0  0  0  0  0  0  0  0
    8.6822   50.5654   30.8160 C   0  0  0  0  0  0  0  0  0  0  0  0
   10.0305   49.8829   30.7424 C   0  0  0  0  0  0  0  0  0  0  0  0
   10.5450   49.3146   31.9225 C   0  0  0  0  0  0  0  0  0  0  0  0
   10.8160   49.8467   29.5596 C   0  0  0  0  0  0  0  0  0  0  0  0
   11.8063   48.7180   31.9368 C   0  0  0  0  0  0  0  0  0  0  0  0
   12.0929   49.2616   29.6001 C   0  0  0  0  0  0  0  0  0  0  0  0
   10.3527   50.4012   28.3198 N   0  0  0  0  0  0  0  0  0  0  0  0
   12.5808   48.6953   30.7786 C   0  0  0  0  0  0  0  0  0  0  0  0
   11.2240   51.1118   27.5269 O   0  0  0  0  0  0  0  0  0  0  0  0
    9.2686   50.0228   27.8315 O   0  0  0  0  0  0  0  0  0  0  0  0
    8.5371   39.1390   34.0124 O   0  0  0  0  0  0  0  0  0  0  0  0
   10.9804   40.0881   33.6836 O   0  0  0  0  0  0  0  0  0  0  0  0
   10.8025   40.0900   32.2838 C   0  0  0  0  0  0  0  0  0  0  0  0
   11.5889   38.9174   31.7007 C   0  0  0  0  0  0  0  0  0  0  0  0
   12.9220   38.9373   32.1692 O   0  0  0  0  0  0  0  0  0  0  0  0
   11.0028   37.5682   32.0980 C   0  0  0  0  0  0  0  0  0  0  0  0
   13.3496   37.5885   32.2601 C   0  0  0  0  0  0  0  0  0  0  0  0
    9.9343   37.1822   31.2756 O   0  0  0  0  0  0  0  0  0  0  0  0
   12.1891   36.6677   31.9049 C   0  0  0  0  0  0  0  0  0  0  0  0
   13.8025   37.2965   33.6186 N   0  0  0  0  0  0  0  0  0  0  0  0
   12.2991   36.2867   30.5567 O   0  0  0  0  0  0  0  0  0  0  0  0
   14.7929   36.4725   33.9858 C   0  0  0  0  0  0  0  0  0  0  0  0
   13.2749   37.7294   34.7935 C   0  0  0  0  0  0  0  0  0  0  0  0
   15.6240   35.7580   33.1858 N   0  0  0  0  0  0  0  0  0  0  0  0
   14.8727   36.4411   35.3327 C   0  0  0  0  0  0  0  0  0  0  0  0
   13.9208   37.2263   35.8803 N   0  0  0  0  0  0  0  0  0  0  0  0
   16.5871   34.9921   33.7801 C   0  0  0  0  0  0  0  0  0  0  0  0
   15.8576   35.6718   35.9441 C   0  0  0  0  0  0  0  0  0  0  0  0
   16.7024   34.9584   35.1438 N   0  0  0  0  0  0  0  0  0  0  0  0
   16.0099   35.6384   37.3562 N   0  0  0  0  0  0  0  0  0  0  0  0
    7.6775   44.0721   34.0498 H   0  0  0  0  0  0  0  0  0  0  0  0
   10.3190   45.4438   34.0965 H   0  0  0  0  0  0  0  0  0  0  0  0
    9.1863   45.3820   35.3535 H   0  0  0  0  0  0  0  0  0  0  0  0
    9.9713   44.0717   31.9732 H   0  0  0  0  0  0  0  0  0  0  0  0
    8.4824   43.0877   31.8655 H   0  0  0  0  0  0  0  0  0  0  0  0
    8.5531   46.1546   31.8759 H   0  0  0  0  0  0  0  0  0  0  0  0
    8.5386   45.1417   30.4029 H   0  0  0  0  0  0  0  0  0  0  0  0
    6.3009   45.0671   32.5329 H   0  0  0  0  0  0  0  0  0  0  0  0
    6.3307   44.1798   30.9692 H   0  0  0  0  0  0  0  0  0  0  0  0
    4.9196   46.2619   30.9189 H   0  0  0  0  0  0  0  0  0  0  0  0
    6.2465   46.2887   29.7190 H   0  0  0  0  0  0  0  0  0  0  0  0
    6.2732   47.7509   32.4187 H   0  0  0  0  0  0  0  0  0  0  0  0
    8.7725   51.4346   31.5009 H   0  0  0  0  0  0  0  0  0  0  0  0
    8.3326   50.9666   29.8455 H   0  0  0  0  0  0  0  0  0  0  0  0
    9.9668   49.3384   32.8383 H   0  0  0  0  0  0  0  0  0  0  0  0
   12.1871   48.2802   32.8506 H   0  0  0  0  0  0  0  0  0  0  0  0
   12.7056   49.2288   28.7079 H   0  0  0  0  0  0  0  0  0  0  0  0
   13.5615   48.2377   30.7932 H   0  0  0  0  0  0  0  0  0  0  0  0
   11.2259   41.0357   31.8829 H   0  0  0  0  0  0  0  0  0  0  0  0
    9.7477   40.0332   31.9255 H   0  0  0  0  0  0  0  0  0  0  0  0
   11.5975   39.0148   30.5904 H   0  0  0  0  0  0  0  0  0  0  0  0
   10.7023   37.5455   33.1719 H   0  0  0  0  0  0  0  0  0  0  0  0
   14.1957   37.4366   31.5528 H   0  0  0  0  0  0  0  0  0  0  0  0
    9.1340   37.6659   31.6069 H   0  0  0  0  0  0  0  0  0  0  0  0
   12.1380   35.7717   32.5697 H   0  0  0  0  0  0  0  0  0  0  0  0
   11.7707   35.4530   30.4496 H   0  0  0  0  0  0  0  0  0  0  0  0
   12.4314   38.3980   34.8694 H   0  0  0  0  0  0  0  0  0  0  0  0
   17.2665   34.4140   33.1691 H   0  0  0  0  0  0  0  0  0  0  0  0
   15.3757   36.1868   37.9789 H   0  0  0  0  0  0  0  0  0  0  0  0
   16.7633   35.0598   37.7895 H   0  0  0  0  0  0  0  0  0  0  0  0
  1  2  2  0
  1  3  1  0
  3  4  1  0
  4  5  1  0
  6  1  1  0
  7  6  1  0
  6  8  1  0
  8  9  1  0
  9 10  1  0
 10 11  1  0
 11 12  1  0
 12 13  1  0
 13 14  1  0
 13 15  2  0
 14 16  1  0
 16 17  1  0
 17 18  2  0
 19 17  1  0
 18 20  1  0
 21 19  2  0
 19 22  1  0
 20 23  2  0
 23 21  1  0
 22 24  1  0
 22 25  2  0
  4 26  2  0
  4 27  1  0
 28 27  1  0
 28 29  1  0
 29 30  1  0
 29 31  1  0
 30 32  1  0
 31 33  1  0
 31 34  1  0
 34 32  1  0
 32 35  1  0
 34 36  1  0
 37 35  1  0
 38 35  1  0
 39 37  2  0
 37 40  1  0
 41 38  2  0
 42 39  1  0
 40 43  2  0
 40 41  1  0
 44 42  2  0
 44 43  1  0
 43 45  1  0
  6 46  1  6
  7 47  1  0
  7 48  1  0
  8 49  1  0
  8 50  1  0
  9 51  1  0
  9 52  1  0
 10 53  1  0
 10 54  1  0
 11 55  1  0
 11 56  1  0
 12 57  1  0
 16 58  1  0
 16 59  1  0
 18 60  1  0
 20 61  1  0
 21 62  1  0
 23 63  1  0
 28 64  1  0
 28 65  1  0
 29 66  1  0
 31 67  1  0
 32 68  1  0
 33 69  1  0
 34 70  1  0
 36 71  1  0
 38 72  1  0
 42 73  1  0
 45 74  1  0
 45 75  1  0
M  CHG  3   5  -1  22   1  24  -1
M  END
>  <EmbedRMS>  (460) 
0.0749196250853

$$$$

     RDKit          3D

 75 78  0  0  0  0  0  0  0  0999 V2000
    9.4332   42.9366   34.3464 C   0  0  0  0  0  0  0  0  0  0  0  0
   10.4908   43.0332   35.0319 O   0  0  0  0  0  0  0  0  0  0  0  0
    8.8559   41.7105   34.0306 O   0  0  0  0  0  0  0  0  0  0  0  0
    9.4931   40.2143   34.4708 P   0  0  0  0  0  0  0  0  0  0  0  0
    9.7288   40.1729   36.1318 O   0  0  0  0  0  0  0  0  0  0  0  0
    8.7506   44.1349   33.7741 C   0  0  1  0  0  0  0  0  0  0  0  0
    9.2963   45.3822   34.3133 N   0  0  0  0  0  0  0  0  0  0  0  0
    8.8893   44.0527   32.2359 C   0  0  0  0  0  0  0  0  0  0  0  0
    8.2028   45.1824   31.4615 C   0  0  0  0  0  0  0  0  0  0  0  0
    6.6653   45.1045   31.4855 C   0  0  0  0  0  0  0  0  0  0  0  0
    6.0269   46.3225   30.8103 C   0  0  0  0  0  0  0  0  0  0  0  0
    6.5060   47.5639   31.4179 N   0  0  0  0  0  0  0  0  0  0  0  0
    7.2446   48.5387   30.6840 C   0  0  0  0  0  0  0  0  0  0  0  0
    7.5997   49.7368   31.3091 O   0  0  0  0  0  0  0  0  0  0  0  0
    7.5930   48.3120   29.4936 O   0  0  0  0  0  0  0  0  0  0  0  0
    8.3562   50.7525   30.6557 C   0  0  0  0  0  0  0  0  0  0  0  0
    8.6281   51.8816   31.6197 C   0  0  0  0  0  0  0  0  0  0  0  0
    9.1768   51.5659   32.8763 C   0  0  0  0  0  0  0  0  0  0  0  0
    8.3235   53.2350   31.3196 C   0  0  0  0  0  0  0  0  0  0  0  0
    9.3772   52.5587   33.8366 C   0  0  0  0  0  0  0  0  0  0  0  0
    8.5141   54.2180   32.3067 C   0  0  0  0  0  0  0  0  0  0  0  0
    7.8603   53.6336   30.0203 N   0  0  0  0  0  0  0  0  0  0  0  0
    9.0365   53.8807   33.5561 C   0  0  0  0  0  0  0  0  0  0  0  0
    8.5469   53.2365   28.8960 O   0  0  0  0  0  0  0  0  0  0  0  0
    6.9941   54.5261   29.9138 O   0  0  0  0  0  0  0  0  0  0  0  0
    8.5366   39.1386   34.0140 O   0  0  0  0  0  0  0  0  0  0  0  0
   10.9795   40.0875   33.6890 O   0  0  0  0  0  0  0  0  0  0  0  0
   10.8017   40.0947   32.2902 C   0  0  0  0  0  0  0  0  0  0  0  0
   11.5885   38.9266   31.7041 C   0  0  0  0  0  0  0  0  0  0  0  0
   12.9237   38.9445   32.1721 O   0  0  0  0  0  0  0  0  0  0  0  0
   11.0029   37.5725   32.0908 C   0  0  0  0  0  0  0  0  0  0  0  0
   13.3555   37.5960   32.2594 C   0  0  0  0  0  0  0  0  0  0  0  0
    9.9380   37.1846   31.2656 O   0  0  0  0  0  0  0  0  0  0  0  0
   12.1932   36.6769   31.8952 C   0  0  0  0  0  0  0  0  0  0  0  0
   13.8028   37.2977   33.6186 N   0  0  0  0  0  0  0  0  0  0  0  0
   12.2918   36.2396   30.5587 O   0  0  0  0  0  0  0  0  0  0  0  0
   14.7926   36.4727   33.9858 C   0  0  0  0  0  0  0  0  0  0  0  0
   13.2750   37.7302   34.7935 C   0  0  0  0  0  0  0  0  0  0  0  0
   15.6241   35.7586   33.1857 N   0  0  0  0  0  0  0  0  0  0  0  0
   14.8721   36.4408   35.3326 C   0  0  0  0  0  0  0  0  0  0  0  0
   13.9204   37.2263   35.8802 N   0  0  0  0  0  0  0  0  0  0  0  0
   16.5870   34.9924   33.7800 C   0  0  0  0  0  0  0  0  0  0  0  0
   15.8572   35.6717   35.9441 C   0  0  0  0  0  0  0  0  0  0  0  0
   16.7022   34.9585   35.1437 N   0  0  0  0  0  0  0  0  0  0  0  0
   16.0097   35.6384   37.3561 N   0  0  0  0  0  0  0  0  0  0  0  0
    7.6770   44.0708   34.0504 H   0  0  0  0  0  0  0  0  0  0  0  0
   10.3192   45.4409   34.0999 H   0  0  0  0  0  0  0  0  0  0  0  0
    9.1827   45.3823   35.3534 H   0  0  0  0  0  0  0  0  0  0  0  0
    8.4816   43.0851   31.8670 H   0  0  0  0  0  0  0  0  0  0  0  0
    9.9711   44.0681   31.9740 H   0  0  0  0  0  0  0  0  0  0  0  0
    8.5385   45.1364   30.4023 H   0  0  0  0  0  0  0  0  0  0  0  0
    8.5551   46.1511   31.8743 H   0  0  0  0  0  0  0  0  0  0  0  0
    6.3019   45.0642   32.5333 H   0  0  0  0  0  0  0  0  0  0  0  0
    6.3297   44.1799   30.9678 H   0  0  0  0  0  0  0  0  0  0  0  0
    6.2465   46.2897   29.7216 H   0  0  0  0  0  0  0  0  0  0  0  0
    4.9234   46.2671   30.9262 H   0  0  0  0  0  0  0  0  0  0  0  0
    6.2825   47.7525   32.4210 H   0  0  0  0  0  0  0  0  0  0  0  0
    7.7874   51.0895   29.7666 H   0  0  0  0  0  0  0  0  0  0  0  0
    9.3277   50.3313   30.3175 H   0  0  0  0  0  0  0  0  0  0  0  0
    9.4335   50.5419   33.1198 H   0  0  0  0  0  0  0  0  0  0  0  0
    9.7905   52.3006   34.8031 H   0  0  0  0  0  0  0  0  0  0  0  0
    8.2824   55.2547   32.0967 H   0  0  0  0  0  0  0  0  0  0  0  0
    9.1891   54.6484   34.3038 H   0  0  0  0  0  0  0  0  0  0  0  0
   11.2242   41.0427   31.8934 H   0  0  0  0  0  0  0  0  0  0  0  0
    9.7472   40.0378   31.9304 H   0  0  0  0  0  0  0  0  0  0  0  0
   11.5927   39.0434   30.5965 H   0  0  0  0  0  0  0  0  0  0  0  0
   10.7003   37.5442   33.1640 H   0  0  0  0  0  0  0  0  0  0  0  0
   14.2052   37.4477   31.5560 H   0  0  0  0  0  0  0  0  0  0  0  0
    9.1374   37.6722   31.5905 H   0  0  0  0  0  0  0  0  0  0  0  0
   12.1305   35.7855   32.5585 H   0  0  0  0  0  0  0  0  0  0  0  0
   12.4606   37.0186   29.9674 H   0  0  0  0  0  0  0  0  0  0  0  0
   12.4327   38.4000   34.8694 H   0  0  0  0  0  0  0  0  0  0  0  0
   17.2666   34.4146   33.1690 H   0  0  0  0  0  0  0  0  0  0  0  0
   15.3754   36.1866   37.9788 H   0  0  0  0  0  0  0  0  0  0  0  0
   16.7634   35.0601   37.7894 H   0  0  0  0  0  0  0  0  0  0  0  0
  1  2  2  0
  1  3  1  0
  3  4  1  0
  4  5  1  0
  6  1  1  0
  7  6  1  0
  6  8  1  0
  8  9  1  0
  9 10  1  0
 10 11  1  0
 11 12  1  0
 12 13  1  0
 13 14  1  0
 13 15  2  0
 14 16  1  0
 16 17  1  0
 17 18  2  0
 19 17  1  0
 18 20  1  0
 21 19  2  0
 19 22  1  0
 20 23  2  0
 23 21  1  0
 22 24  1  0
 22 25  2  0
  4 26  2  0
  4 27  1  0
 28 27  1  0
 28 29  1  0
 29 30  1  0
 29 31  1  0
 30 32  1  0
 31 33  1  0
 31 34  1  0
 34 32  1  0
 32 35  1  0
 34 36  1  0
 37 35  1  0
 38 35  1  0
 39 37  2  0
 37 40  1  0
 41 38  2  0
 42 39  1  0
 40 43  2  0
 40 41  1  0
 44 42  2  0
 44 43  1  0
 43 45  1  0
  6 46  1  6
  7 47  1  0
  7 48  1  0
  8 49  1  0
  8 50  1  0
  9 51  1  0
  9 52  1  0
 10 53  1  0
 10 54  1  0
 11 55  1  0
 11 56  1  0
 12 57  1  0
 16 58  1  0
 16 59  1  0
 18 60  1  0
 20 61  1  0
 21 62  1  0
 23 63  1  0
 28 64  1  0
 28 65  1  0
 29 66  1  0
 31 67  1  0
 32 68  1  0
 33 69  1  0
 34 70  1  0
 36 71  1  0
 38 72  1  0
 42 73  1  0
 45 74  1  0
 45 75  1  0
M  CHG  3   5  -1  22   1  24  -1
M  END
>  <EmbedRMS>  (461) 
0.0757264464286

$$$$

     RDKit          3D

 75 78  0  0  0  0  0  0  0  0999 V2000
    9.4332   42.9367   34.3462 C   0  0  0  0  0  0  0  0  0  0  0  0
   10.4906   43.0332   35.0319 O   0  0  0  0  0  0  0  0  0  0  0  0
    8.8563   41.7105   34.0296 O   0  0  0  0  0  0  0  0  0  0  0  0
    9.4945   40.2142   34.4680 P   0  0  0  0  0  0  0  0  0  0  0  0
    9.7309   40.1726   36.1291 O   0  0  0  0  0  0  0  0  0  0  0  0
    8.7505   44.1350   33.7742 C   0  0  1  0  0  0  0  0  0  0  0  0
    9.2960   45.3823   34.3134 N   0  0  0  0  0  0  0  0  0  0  0  0
    8.8892   44.0530   32.2359 C   0  0  0  0  0  0  0  0  0  0  0  0
    8.2030   45.1828   31.4618 C   0  0  0  0  0  0  0  0  0  0  0  0
    6.6656   45.1041   31.4833 C   0  0  0  0  0  0  0  0  0  0  0  0
    6.0283   46.3231   30.8085 C   0  0  0  0  0  0  0  0  0  0  0  0
    6.5049   47.5634   31.4210 N   0  0  0  0  0  0  0  0  0  0  0  0
    7.2491   48.5410   30.6837 C   0  0  0  0  0  0  0  0  0  0  0  0
    7.6373   49.7547   31.2632 O   0  0  0  0  0  0  0  0  0  0  0  0
    7.5883   48.3089   29.4941 O   0  0  0  0  0  0  0  0  0  0  0  0
    7.3519   50.1199   32.6117 C   0  0  0  0  0  0  0  0  0  0  0  0
    7.9075   51.4864   32.9501 C   0  0  0  0  0  0  0  0  0  0  0  0
    8.9035   52.0663   32.1367 C   0  0  0  0  0  0  0  0  0  0  0  0
    7.4361   52.2084   34.0800 C   0  0  0  0  0  0  0  0  0  0  0  0
    9.3932   53.3441   32.4095 C   0  0  0  0  0  0  0  0  0  0  0  0
    7.9326   53.5020   34.3256 C   0  0  0  0  0  0  0  0  0  0  0  0
    6.4586   51.6533   34.9797 N   0  0  0  0  0  0  0  0  0  0  0  0
    8.9033   54.0635   33.4965 C   0  0  0  0  0  0  0  0  0  0  0  0
    6.5106   50.3266   35.3400 O   0  0  0  0  0  0  0  0  0  0  0  0
    5.6556   52.4038   35.5720 O   0  0  0  0  0  0  0  0  0  0  0  0
    8.5372   39.1387   34.0125 O   0  0  0  0  0  0  0  0  0  0  0  0
   10.9804   40.0881   33.6837 O   0  0  0  0  0  0  0  0  0  0  0  0
   10.8025   40.0900   32.2839 C   0  0  0  0  0  0  0  0  0  0  0  0
   11.5888   38.9174   31.7007 C   0  0  0  0  0  0  0  0  0  0  0  0
   12.9219   38.9373   32.1692 O   0  0  0  0  0  0  0  0  0  0  0  0
   11.0028   37.5682   32.0980 C   0  0  0  0  0  0  0  0  0  0  0  0
   13.3496   37.5885   32.2601 C   0  0  0  0  0  0  0  0  0  0  0  0
    9.9343   37.1822   31.2756 O   0  0  0  0  0  0  0  0  0  0  0  0
   12.1891   36.6677   31.9049 C   0  0  0  0  0  0  0  0  0  0  0  0
   13.8025   37.2965   33.6186 N   0  0  0  0  0  0  0  0  0  0  0  0
   12.2991   36.2867   30.5568 O   0  0  0  0  0  0  0  0  0  0  0  0
   14.7929   36.4725   33.9858 C   0  0  0  0  0  0  0  0  0  0  0  0
   13.2749   37.7294   34.7935 C   0  0  0  0  0  0  0  0  0  0  0  0
   15.6240   35.7580   33.1858 N   0  0  0  0  0  0  0  0  0  0  0  0
   14.8727   36.4411   35.3327 C   0  0  0  0  0  0  0  0  0  0  0  0
   13.9208   37.2263   35.8803 N   0  0  0  0  0  0  0  0  0  0  0  0
   16.5871   34.9921   33.7801 C   0  0  0  0  0  0  0  0  0  0  0  0
   15.8576   35.6718   35.9441 C   0  0  0  0  0  0  0  0  0  0  0  0
   16.7024   34.9584   35.1438 N   0  0  0  0  0  0  0  0  0  0  0  0
   16.0099   35.6384   37.3562 N   0  0  0  0  0  0  0  0  0  0  0  0
    7.6768   44.0709   34.0502 H   0  0  0  0  0  0  0  0  0  0  0  0
   10.3189   45.4410   34.1003 H   0  0  0  0  0  0  0  0  0  0  0  0
    9.1821   45.3825   35.3535 H   0  0  0  0  0  0  0  0  0  0  0  0
    9.9711   44.0683   31.9742 H   0  0  0  0  0  0  0  0  0  0  0  0
    8.4815   43.0854   31.8668 H   0  0  0  0  0  0  0  0  0  0  0  0
    8.5403   45.1381   30.4030 H   0  0  0  0  0  0  0  0  0  0  0  0
    8.5541   46.1514   31.8760 H   0  0  0  0  0  0  0  0  0  0  0  0
    6.3005   45.0620   32.5305 H   0  0  0  0  0  0  0  0  0  0  0  0
    6.3313   44.1801   30.9636 H   0  0  0  0  0  0  0  0  0  0  0  0
    6.2502   46.2920   29.7203 H   0  0  0  0  0  0  0  0  0  0  0  0
    4.9246   46.2666   30.9214 H   0  0  0  0  0  0  0  0  0  0  0  0
    6.2720   47.7258   32.4254 H   0  0  0  0  0  0  0  0  0  0  0  0
    6.2478   50.1349   32.7398 H   0  0  0  0  0  0  0  0  0  0  0  0
    7.8007   49.3717   33.2997 H   0  0  0  0  0  0  0  0  0  0  0  0
    9.3071   51.5361   31.2839 H   0  0  0  0  0  0  0  0  0  0  0  0
   10.1536   53.7788   31.7734 H   0  0  0  0  0  0  0  0  0  0  0  0
    7.5803   54.0712   35.1767 H   0  0  0  0  0  0  0  0  0  0  0  0
    9.2832   55.0557   33.7034 H   0  0  0  0  0  0  0  0  0  0  0  0
    9.7476   40.0331   31.9256 H   0  0  0  0  0  0  0  0  0  0  0  0
   11.2258   41.0357   31.8830 H   0  0  0  0  0  0  0  0  0  0  0  0
   11.5974   39.0148   30.5904 H   0  0  0  0  0  0  0  0  0  0  0  0
   10.7023   37.5455   33.1719 H   0  0  0  0  0  0  0  0  0  0  0  0
   14.1957   37.4366   31.5528 H   0  0  0  0  0  0  0  0  0  0  0  0
    9.1339   37.6658   31.6069 H   0  0  0  0  0  0  0  0  0  0  0  0
   12.1380   35.7717   32.5698 H   0  0  0  0  0  0  0  0  0  0  0  0
   11.7707   35.4530   30.4496 H   0  0  0  0  0  0  0  0  0  0  0  0
   12.4314   38.3980   34.8694 H   0  0  0  0  0  0  0  0  0  0  0  0
   17.2665   34.4140   33.1691 H   0  0  0  0  0  0  0  0  0  0  0  0
   15.3757   36.1868   37.9789 H   0  0  0  0  0  0  0  0  0  0  0  0
   16.7633   35.0599   37.7895 H   0  0  0  0  0  0  0  0  0  0  0  0
  1  2  2  0
  1  3  1  0
  3  4  1  0
  4  5  1  0
  6  1  1  0
  7  6  1  0
  6  8  1  0
  8  9  1  0
  9 10  1  0
 10 11  1  0
 11 12  1  0
 12 13  1  0
 13 14  1  0
 13 15  2  0
 14 16  1  0
 16 17  1  0
 17 18  2  0
 19 17  1  0
 18 20  1  0
 21 19  2  0
 19 22  1  0
 20 23  2  0
 23 21  1  0
 22 24  1  0
 22 25  2  0
  4 26  2  0
  4 27  1  0
 28 27  1  0
 28 29  1  0
 29 30  1  0
 29 31  1  0
 30 32  1  0
 31 33  1  0
 31 34  1  0
 34 32  1  0
 32 35  1  0
 34 36  1  0
 37 35  1  0
 38 35  1  0
 39 37  2  0
 37 40  1  0
 41 38  2  0
 42 39  1  0
 40 43  2  0
 40 41  1  0
 44 42  2  0
 44 43  1  0
 43 45  1  0
  6 46  1  6
  7 47  1  0
  7 48  1  0
  8 49  1  0
  8 50  1  0
  9 51  1  0
  9 52  1  0
 10 53  1  0
 10 54  1  0
 11 55  1  0
 11 56  1  0
 12 57  1  0
 16 58  1  0
 16 59  1  0
 18 60  1  0
 20 61  1  0
 21 62  1  0
 23 63  1  0
 28 64  1  0
 28 65  1  0
 29 66  1  0
 31 67  1  0
 32 68  1  0
 33 69  1  0
 34 70  1  0
 36 71  1  0
 38 72  1  0
 42 73  1  0
 45 74  1  0
 45 75  1  0
M  CHG  3   5  -1  22   1  24  -1
M  END
>  <EmbedRMS>  (462) 
0.0742975816385

$$$$

     RDKit          3D

 75 78  0  0  0  0  0  0  0  0999 V2000
    9.4312   42.9410   34.3437 C   0  0  0  0  0  0  0  0  0  0  0  0
   10.4885   43.0409   35.0294 O   0  0  0  0  0  0  0  0  0  0  0  0
    8.8562   41.7127   34.0287 O   0  0  0  0  0  0  0  0  0  0  0  0
    9.4945   40.2160   34.4677 P   0  0  0  0  0  0  0  0  0  0  0  0
    9.7312   40.1739   36.1288 O   0  0  0  0  0  0  0  0  0  0  0  0
    8.7484   44.1359   33.7721 C   0  0  1  0  0  0  0  0  0  0  0  0
    9.3039   45.3664   34.3388 N   0  0  0  0  0  0  0  0  0  0  0  0
    8.8892   44.0519   32.2308 C   0  0  0  0  0  0  0  0  0  0  0  0
    8.2015   45.1722   31.4435 C   0  0  0  0  0  0  0  0  0  0  0  0
    6.6642   45.1066   31.4887 C   0  0  0  0  0  0  0  0  0  0  0  0
    6.0267   46.3237   30.8122 C   0  0  0  0  0  0  0  0  0  0  0  0
    6.5080   47.5646   31.4190 N   0  0  0  0  0  0  0  0  0  0  0  0
    7.2423   48.5405   30.6826 C   0  0  0  0  0  0  0  0  0  0  0  0
    7.5857   49.7468   31.3027 O   0  0  0  0  0  0  0  0  0  0  0  0
    7.5942   48.3103   29.4938 O   0  0  0  0  0  0  0  0  0  0  0  0
    8.3081   50.7855   30.6429 C   0  0  0  0  0  0  0  0  0  0  0  0
    7.4464   51.4442   29.5890 C   0  0  0  0  0  0  0  0  0  0  0  0
    6.1752   51.9123   29.9676 C   0  0  0  0  0  0  0  0  0  0  0  0
    7.8513   51.5628   28.2344 C   0  0  0  0  0  0  0  0  0  0  0  0
    5.3027   52.4505   29.0205 C   0  0  0  0  0  0  0  0  0  0  0  0
    6.9518   52.0899   27.2913 C   0  0  0  0  0  0  0  0  0  0  0  0
    9.1680   51.1851   27.8056 N   0  0  0  0  0  0  0  0  0  0  0  0
    5.6866   52.5303   27.6830 C   0  0  0  0  0  0  0  0  0  0  0  0
   10.2709   51.6794   28.4632 O   0  0  0  0  0  0  0  0  0  0  0  0
    9.3263   50.6171   26.7053 O   0  0  0  0  0  0  0  0  0  0  0  0
    8.5374   39.1400   34.0124 O   0  0  0  0  0  0  0  0  0  0  0  0
   10.9799   40.0879   33.6828 O   0  0  0  0  0  0  0  0  0  0  0  0
   10.8002   40.0907   32.2831 C   0  0  0  0  0  0  0  0  0  0  0  0
   11.5958   38.9271   31.6964 C   0  0  0  0  0  0  0  0  0  0  0  0
   12.9239   38.9409   32.1767 O   0  0  0  0  0  0  0  0  0  0  0  0
   11.0062   37.5720   32.0794 C   0  0  0  0  0  0  0  0  0  0  0  0
   13.3506   37.5905   32.2614 C   0  0  0  0  0  0  0  0  0  0  0  0
    9.9064   37.1793   31.2946 O   0  0  0  0  0  0  0  0  0  0  0  0
   12.1919   36.6672   31.9004 C   0  0  0  0  0  0  0  0  0  0  0  0
   13.8017   37.2948   33.6193 N   0  0  0  0  0  0  0  0  0  0  0  0
   12.3133   36.2788   30.5561 O   0  0  0  0  0  0  0  0  0  0  0  0
   14.7927   36.4716   33.9862 C   0  0  0  0  0  0  0  0  0  0  0  0
   13.2746   37.7284   34.7941 C   0  0  0  0  0  0  0  0  0  0  0  0
   15.6240   35.7576   33.1859 N   0  0  0  0  0  0  0  0  0  0  0  0
   14.8728   36.4406   35.3330 C   0  0  0  0  0  0  0  0  0  0  0  0
   13.9209   37.2258   35.8808 N   0  0  0  0  0  0  0  0  0  0  0  0
   16.5874   34.9920   33.7802 C   0  0  0  0  0  0  0  0  0  0  0  0
   15.8579   35.6716   35.9443 C   0  0  0  0  0  0  0  0  0  0  0  0
   16.7028   34.9584   35.1439 N   0  0  0  0  0  0  0  0  0  0  0  0
   16.0103   35.6383   37.3563 N   0  0  0  0  0  0  0  0  0  0  0  0
    7.6764   44.0633   34.0547 H   0  0  0  0  0  0  0  0  0  0  0  0
   10.2152   45.5879   33.8748 H   0  0  0  0  0  0  0  0  0  0  0  0
    8.6468   46.1558   34.1431 H   0  0  0  0  0  0  0  0  0  0  0  0
    8.4830   43.0818   31.8666 H   0  0  0  0  0  0  0  0  0  0  0  0
    9.9708   44.0643   31.9679 H   0  0  0  0  0  0  0  0  0  0  0  0
    8.5714   46.1488   31.8173 H   0  0  0  0  0  0  0  0  0  0  0  0
    8.5198   45.0959   30.3807 H   0  0  0  0  0  0  0  0  0  0  0  0
    6.3142   45.0783   32.5413 H   0  0  0  0  0  0  0  0  0  0  0  0
    6.3147   44.1801   30.9835 H   0  0  0  0  0  0  0  0  0  0  0  0
    4.9233   46.2698   30.9299 H   0  0  0  0  0  0  0  0  0  0  0  0
    6.2449   46.2897   29.7232 H   0  0  0  0  0  0  0  0  0  0  0  0
    6.2849   47.7543   32.4219 H   0  0  0  0  0  0  0  0  0  0  0  0
    8.5910   51.5509   31.3955 H   0  0  0  0  0  0  0  0  0  0  0  0
    9.2445   50.3584   30.2329 H   0  0  0  0  0  0  0  0  0  0  0  0
    5.8513   51.8413   30.9989 H   0  0  0  0  0  0  0  0  0  0  0  0
    4.3235   52.7984   29.3233 H   0  0  0  0  0  0  0  0  0  0  0  0
    7.2425   52.1829   26.2524 H   0  0  0  0  0  0  0  0  0  0  0  0
    5.0067   52.9438   26.9493 H   0  0  0  0  0  0  0  0  0  0  0  0
   11.2115   41.0421   31.8829 H   0  0  0  0  0  0  0  0  0  0  0  0
    9.7454   40.0168   31.9263 H   0  0  0  0  0  0  0  0  0  0  0  0
   11.6246   39.0449   30.5889 H   0  0  0  0  0  0  0  0  0  0  0  0
   10.7050   37.5581   33.1500 H   0  0  0  0  0  0  0  0  0  0  0  0
   14.1984   37.4426   31.5553 H   0  0  0  0  0  0  0  0  0  0  0  0
   10.0893   37.4058   30.3459 H   0  0  0  0  0  0  0  0  0  0  0  0
   12.1337   35.7754   32.5703 H   0  0  0  0  0  0  0  0  0  0  0  0
   11.7933   35.4394   30.4514 H   0  0  0  0  0  0  0  0  0  0  0  0
   12.4314   38.3973   34.8700 H   0  0  0  0  0  0  0  0  0  0  0  0
   17.2669   34.4142   33.1691 H   0  0  0  0  0  0  0  0  0  0  0  0
   15.3759   36.1864   37.9790 H   0  0  0  0  0  0  0  0  0  0  0  0
   16.7638   35.0599   37.7896 H   0  0  0  0  0  0  0  0  0  0  0  0
  1  2  2  0
  1  3  1  0
  3  4  1  0
  4  5  1  0
  6  1  1  0
  7  6  1  0
  6  8  1  0
  8  9  1  0
  9 10  1  0
 10 11  1  0
 11 12  1  0
 12 13  1  0
 13 14  1  0
 13 15  2  0
 14 16  1  0
 16 17  1  0
 17 18  2  0
 19 17  1  0
 18 20  1  0
 21 19  2  0
 19 22  1  0
 20 23  2  0
 23 21  1  0
 22 24  1  0
 22 25  2  0
  4 26  2  0
  4 27  1  0
 28 27  1  0
 28 29  1  0
 29 30  1  0
 29 31  1  0
 30 32  1  0
 31 33  1  0
 31 34  1  0
 34 32  1  0
 32 35  1  0
 34 36  1  0
 37 35  1  0
 38 35  1  0
 39 37  2  0
 37 40  1  0
 41 38  2  0
 42 39  1  0
 40 43  2  0
 40 41  1  0
 44 42  2  0
 44 43  1  0
 43 45  1  0
  6 46  1  6
  7 47  1  0
  7 48  1  0
  8 49  1  0
  8 50  1  0
  9 51  1  0
  9 52  1  0
 10 53  1  0
 10 54  1  0
 11 55  1  0
 11 56  1  0
 12 57  1  0
 16 58  1  0
 16 59  1  0
 18 60  1  0
 20 61  1  0
 21 62  1  0
 23 63  1  0
 28 64  1  0
 28 65  1  0
 29 66  1  0
 31 67  1  0
 32 68  1  0
 33 69  1  0
 34 70  1  0
 36 71  1  0
 38 72  1  0
 42 73  1  0
 45 74  1  0
 45 75  1  0
M  CHG  3   5  -1  22   1  24  -1
M  END
>  <EmbedRMS>  (463) 
0.0739315946113

$$$$

     RDKit          3D

 75 78  0  0  0  0  0  0  0  0999 V2000
    9.4332   42.9356   34.3454 C   0  0  0  0  0  0  0  0  0  0  0  0
   10.4907   43.0323   35.0311 O   0  0  0  0  0  0  0  0  0  0  0  0
    8.8558   41.7097   34.0295 O   0  0  0  0  0  0  0  0  0  0  0  0
    9.4944   40.2137   34.4677 P   0  0  0  0  0  0  0  0  0  0  0  0
    9.7316   40.1723   36.1287 O   0  0  0  0  0  0  0  0  0  0  0  0
    8.7505   44.1336   33.7736 C   0  0  1  0  0  0  0  0  0  0  0  0
    9.2958   45.3793   34.3142 N   0  0  0  0  0  0  0  0  0  0  0  0
    8.8900   44.0537   32.2356 C   0  0  0  0  0  0  0  0  0  0  0  0
    8.2041   45.1853   31.4638 C   0  0  0  0  0  0  0  0  0  0  0  0
    6.6669   45.1060   31.4859 C   0  0  0  0  0  0  0  0  0  0  0  0
    6.0293   46.3245   30.8115 C   0  0  0  0  0  0  0  0  0  0  0  0
    6.5069   47.5659   31.4217 N   0  0  0  0  0  0  0  0  0  0  0  0
    7.2313   48.5501   30.6742 C   0  0  0  0  0  0  0  0  0  0  0  0
    7.5427   49.8058   31.2120 O   0  0  0  0  0  0  0  0  0  0  0  0
    7.5995   48.2987   29.4973 O   0  0  0  0  0  0  0  0  0  0  0  0
    7.2044   50.2429   32.5273 C   0  0  0  0  0  0  0  0  0  0  0  0
    8.0987   49.6020   33.5642 C   0  0  0  0  0  0  0  0  0  0  0  0
    7.5002   48.9517   34.6591 C   0  0  0  0  0  0  0  0  0  0  0  0
    9.5173   49.6362   33.4700 C   0  0  0  0  0  0  0  0  0  0  0  0
    8.2815   48.3338   35.6356 C   0  0  0  0  0  0  0  0  0  0  0  0
   10.2843   48.9881   34.4542 C   0  0  0  0  0  0  0  0  0  0  0  0
   10.1969   50.3079   32.3941 N   0  0  0  0  0  0  0  0  0  0  0  0
    9.6706   48.3511   35.5328 C   0  0  0  0  0  0  0  0  0  0  0  0
   11.4165   49.8438   31.9576 O   0  0  0  0  0  0  0  0  0  0  0  0
    9.7857   51.4060   31.9671 O   0  0  0  0  0  0  0  0  0  0  0  0
    8.5373   39.1378   34.0122 O   0  0  0  0  0  0  0  0  0  0  0  0
   10.9795   40.0888   33.6816 O   0  0  0  0  0  0  0  0  0  0  0  0
   10.7982   40.0848   32.2819 C   0  0  0  0  0  0  0  0  0  0  0  0
   11.5886   38.9142   31.7008 C   0  0  0  0  0  0  0  0  0  0  0  0
   12.9214   38.9367   32.1698 O   0  0  0  0  0  0  0  0  0  0  0  0
   11.0048   37.5660   32.0990 C   0  0  0  0  0  0  0  0  0  0  0  0
   13.3511   37.5885   32.2601 C   0  0  0  0  0  0  0  0  0  0  0  0
    9.9296   37.1961   31.2780 O   0  0  0  0  0  0  0  0  0  0  0  0
   12.1923   36.6658   31.9047 C   0  0  0  0  0  0  0  0  0  0  0  0
   13.8033   37.2966   33.6188 N   0  0  0  0  0  0  0  0  0  0  0  0
   12.3007   36.2864   30.5561 O   0  0  0  0  0  0  0  0  0  0  0  0
   14.7933   36.4724   33.9860 C   0  0  0  0  0  0  0  0  0  0  0  0
   13.2753   37.7296   34.7935 C   0  0  0  0  0  0  0  0  0  0  0  0
   15.6243   35.7579   33.1860 N   0  0  0  0  0  0  0  0  0  0  0  0
   14.8728   36.4410   35.3328 C   0  0  0  0  0  0  0  0  0  0  0  0
   13.9209   37.2263   35.8804 N   0  0  0  0  0  0  0  0  0  0  0  0
   16.5873   34.9919   33.7803 C   0  0  0  0  0  0  0  0  0  0  0  0
   15.8577   35.6716   35.9443 C   0  0  0  0  0  0  0  0  0  0  0  0
   16.7025   34.9583   35.1440 N   0  0  0  0  0  0  0  0  0  0  0  0
   16.0100   35.6384   37.3563 N   0  0  0  0  0  0  0  0  0  0  0  0
    7.6769   44.0695   34.0496 H   0  0  0  0  0  0  0  0  0  0  0  0
    9.1885   45.3727   35.3550 H   0  0  0  0  0  0  0  0  0  0  0  0
   10.3172   45.4428   34.0954 H   0  0  0  0  0  0  0  0  0  0  0  0
    8.4824   43.0868   31.8649 H   0  0  0  0  0  0  0  0  0  0  0  0
    9.9719   44.0697   31.9743 H   0  0  0  0  0  0  0  0  0  0  0  0
    8.5548   46.1534   31.8804 H   0  0  0  0  0  0  0  0  0  0  0  0
    8.5412   45.1428   30.4049 H   0  0  0  0  0  0  0  0  0  0  0  0
    6.3026   45.0648   32.5334 H   0  0  0  0  0  0  0  0  0  0  0  0
    6.3324   44.1818   30.9668 H   0  0  0  0  0  0  0  0  0  0  0  0
    6.2485   46.2919   29.7228 H   0  0  0  0  0  0  0  0  0  0  0  0
    4.9258   46.2681   30.9267 H   0  0  0  0  0  0  0  0  0  0  0  0
    6.2697   47.7318   32.4232 H   0  0  0  0  0  0  0  0  0  0  0  0
    6.1267   50.0513   32.7222 H   0  0  0  0  0  0  0  0  0  0  0  0
    7.3345   51.3433   32.5802 H   0  0  0  0  0  0  0  0  0  0  0  0
    6.4222   48.9195   34.7586 H   0  0  0  0  0  0  0  0  0  0  0  0
    7.8081   47.8349   36.4714 H   0  0  0  0  0  0  0  0  0  0  0  0
   11.3655   48.9961   34.3990 H   0  0  0  0  0  0  0  0  0  0  0  0
   10.2743   47.8659   36.2890 H   0  0  0  0  0  0  0  0  0  0  0  0
   11.2132   41.0320   31.8758 H   0  0  0  0  0  0  0  0  0  0  0  0
    9.7427   40.0141   31.9266 H   0  0  0  0  0  0  0  0  0  0  0  0
   11.5980   39.0108   30.5904 H   0  0  0  0  0  0  0  0  0  0  0  0
   10.7009   37.5601   33.1721 H   0  0  0  0  0  0  0  0  0  0  0  0
   14.1977   37.4380   31.5532 H   0  0  0  0  0  0  0  0  0  0  0  0
    9.5181   36.3960   31.6977 H   0  0  0  0  0  0  0  0  0  0  0  0
   12.1419   35.7697   32.5692 H   0  0  0  0  0  0  0  0  0  0  0  0
   11.7730   35.4523   30.4488 H   0  0  0  0  0  0  0  0  0  0  0  0
   12.4321   38.3984   34.8692 H   0  0  0  0  0  0  0  0  0  0  0  0
   17.2667   34.4138   33.1694 H   0  0  0  0  0  0  0  0  0  0  0  0
   16.7634   35.0598   37.7897 H   0  0  0  0  0  0  0  0  0  0  0  0
   15.3757   36.1867   37.9790 H   0  0  0  0  0  0  0  0  0  0  0  0
  1  2  2  0
  1  3  1  0
  3  4  1  0
  4  5  1  0
  6  1  1  0
  7  6  1  0
  6  8  1  0
  8  9  1  0
  9 10  1  0
 10 11  1  0
 11 12  1  0
 12 13  1  0
 13 14  1  0
 13 15  2  0
 14 16  1  0
 16 17  1  0
 17 18  2  0
 19 17  1  0
 18 20  1  0
 21 19  2  0
 19 22  1  0
 20 23  2  0
 23 21  1  0
 22 24  1  0
 22 25  2  0
  4 26  2  0
  4 27  1  0
 28 27  1  0
 28 29  1  0
 29 30  1  0
 29 31  1  0
 30 32  1  0
 31 33  1  0
 31 34  1  0
 34 32  1  0
 32 35  1  0
 34 36  1  0
 37 35  1  0
 38 35  1  0
 39 37  2  0
 37 40  1  0
 41 38  2  0
 42 39  1  0
 40 43  2  0
 40 41  1  0
 44 42  2  0
 44 43  1  0
 43 45  1  0
  6 46  1  6
  7 47  1  0
  7 48  1  0
  8 49  1  0
  8 50  1  0
  9 51  1  0
  9 52  1  0
 10 53  1  0
 10 54  1  0
 11 55  1  0
 11 56  1  0
 12 57  1  0
 16 58  1  0
 16 59  1  0
 18 60  1  0
 20 61  1  0
 21 62  1  0
 23 63  1  0
 28 64  1  0
 28 65  1  0
 29 66  1  0
 31 67  1  0
 32 68  1  0
 33 69  1  0
 34 70  1  0
 36 71  1  0
 38 72  1  0
 42 73  1  0
 45 74  1  0
 45 75  1  0
M  CHG  3   5  -1  22   1  24  -1
M  END
>  <EmbedRMS>  (464) 
0.0744032270878

$$$$

     RDKit          3D

 75 78  0  0  0  0  0  0  0  0999 V2000
    9.4333   42.9368   34.3460 C   0  0  0  0  0  0  0  0  0  0  0  0
   10.4908   43.0332   35.0318 O   0  0  0  0  0  0  0  0  0  0  0  0
    8.8563   41.7106   34.0295 O   0  0  0  0  0  0  0  0  0  0  0  0
    9.4945   40.2143   34.4680 P   0  0  0  0  0  0  0  0  0  0  0  0
    9.7308   40.1727   36.1291 O   0  0  0  0  0  0  0  0  0  0  0  0
    8.7507   44.1352   33.7740 C   0  0  1  0  0  0  0  0  0  0  0  0
    9.2964   45.3824   34.3133 N   0  0  0  0  0  0  0  0  0  0  0  0
    8.8893   44.0533   32.2357 C   0  0  0  0  0  0  0  0  0  0  0  0
    8.2026   45.1831   31.4617 C   0  0  0  0  0  0  0  0  0  0  0  0
    6.6651   45.1047   31.4852 C   0  0  0  0  0  0  0  0  0  0  0  0
    6.0261   46.3221   30.8094 C   0  0  0  0  0  0  0  0  0  0  0  0
    6.5037   47.5640   31.4171 N   0  0  0  0  0  0  0  0  0  0  0  0
    7.2498   48.5353   30.6866 C   0  0  0  0  0  0  0  0  0  0  0  0
    7.6293   49.7201   31.3219 O   0  0  0  0  0  0  0  0  0  0  0  0
    7.5910   48.3130   29.4932 O   0  0  0  0  0  0  0  0  0  0  0  0
    8.4246   50.7144   30.6852 C   0  0  0  0  0  0  0  0  0  0  0  0
    8.7219   51.8214   31.6632 C   0  0  0  0  0  0  0  0  0  0  0  0
    7.9697   53.0076   31.5829 C   0  0  0  0  0  0  0  0  0  0  0  0
    9.7491   51.7144   32.6413 C   0  0  0  0  0  0  0  0  0  0  0  0
    8.2341   54.0782   32.4376 C   0  0  0  0  0  0  0  0  0  0  0  0
   10.0080   52.8126   33.4814 C   0  0  0  0  0  0  0  0  0  0  0  0
   10.5495   50.5259   32.7875 N   0  0  0  0  0  0  0  0  0  0  0  0
    9.2541   53.9826   33.3817 C   0  0  0  0  0  0  0  0  0  0  0  0
   11.8362   50.6199   33.2664 O   0  0  0  0  0  0  0  0  0  0  0  0
   10.0470   49.3928   32.6436 O   0  0  0  0  0  0  0  0  0  0  0  0
    8.5372   39.1387   34.0124 O   0  0  0  0  0  0  0  0  0  0  0  0
   10.9804   40.0881   33.6837 O   0  0  0  0  0  0  0  0  0  0  0  0
   10.8025   40.0900   32.2839 C   0  0  0  0  0  0  0  0  0  0  0  0
   11.5888   38.9174   31.7007 C   0  0  0  0  0  0  0  0  0  0  0  0
   12.9219   38.9373   32.1692 O   0  0  0  0  0  0  0  0  0  0  0  0
   11.0028   37.5682   32.0980 C   0  0  0  0  0  0  0  0  0  0  0  0
   13.3496   37.5885   32.2601 C   0  0  0  0  0  0  0  0  0  0  0  0
    9.9343   37.1822   31.2756 O   0  0  0  0  0  0  0  0  0  0  0  0
   12.1891   36.6677   31.9049 C   0  0  0  0  0  0  0  0  0  0  0  0
   13.8025   37.2965   33.6186 N   0  0  0  0  0  0  0  0  0  0  0  0
   12.2991   36.2867   30.5567 O   0  0  0  0  0  0  0  0  0  0  0  0
   14.7929   36.4725   33.9858 C   0  0  0  0  0  0  0  0  0  0  0  0
   13.2749   37.7294   34.7935 C   0  0  0  0  0  0  0  0  0  0  0  0
   15.6240   35.7580   33.1858 N   0  0  0  0  0  0  0  0  0  0  0  0
   14.8727   36.4411   35.3327 C   0  0  0  0  0  0  0  0  0  0  0  0
   13.9208   37.2263   35.8803 N   0  0  0  0  0  0  0  0  0  0  0  0
   16.5871   34.9921   33.7801 C   0  0  0  0  0  0  0  0  0  0  0  0
   15.8576   35.6718   35.9441 C   0  0  0  0  0  0  0  0  0  0  0  0
   16.7024   34.9584   35.1438 N   0  0  0  0  0  0  0  0  0  0  0  0
   16.0099   35.6384   37.3562 N   0  0  0  0  0  0  0  0  0  0  0  0
    7.6771   44.0710   34.0503 H   0  0  0  0  0  0  0  0  0  0  0  0
    9.1834   45.3823   35.3535 H   0  0  0  0  0  0  0  0  0  0  0  0
   10.3191   45.4416   34.0992 H   0  0  0  0  0  0  0  0  0  0  0  0
    8.4817   43.0857   31.8666 H   0  0  0  0  0  0  0  0  0  0  0  0
    9.9711   44.0689   31.9738 H   0  0  0  0  0  0  0  0  0  0  0  0
    8.5544   46.1518   31.8751 H   0  0  0  0  0  0  0  0  0  0  0  0
    8.5386   45.1378   30.4026 H   0  0  0  0  0  0  0  0  0  0  0  0
    6.3014   45.0645   32.5329 H   0  0  0  0  0  0  0  0  0  0  0  0
    6.3301   44.1797   30.9677 H   0  0  0  0  0  0  0  0  0  0  0  0
    6.2466   46.2894   29.7208 H   0  0  0  0  0  0  0  0  0  0  0  0
    4.9226   46.2659   30.9244 H   0  0  0  0  0  0  0  0  0  0  0  0
    6.2816   47.7511   32.4208 H   0  0  0  0  0  0  0  0  0  0  0  0
    7.8734   51.1074   29.8026 H   0  0  0  0  0  0  0  0  0  0  0  0
    9.3729   50.2737   30.3082 H   0  0  0  0  0  0  0  0  0  0  0  0
    7.1770   53.1079   30.8516 H   0  0  0  0  0  0  0  0  0  0  0  0
    7.6494   54.9861   32.3640 H   0  0  0  0  0  0  0  0  0  0  0  0
   10.7878   52.7575   34.2304 H   0  0  0  0  0  0  0  0  0  0  0  0
    9.4595   54.8161   34.0410 H   0  0  0  0  0  0  0  0  0  0  0  0
   11.2258   41.0357   31.8830 H   0  0  0  0  0  0  0  0  0  0  0  0
    9.7476   40.0332   31.9256 H   0  0  0  0  0  0  0  0  0  0  0  0
   11.5974   39.0148   30.5904 H   0  0  0  0  0  0  0  0  0  0  0  0
   10.7023   37.5455   33.1719 H   0  0  0  0  0  0  0  0  0  0  0  0
   14.1957   37.4366   31.5528 H   0  0  0  0  0  0  0  0  0  0  0  0
    9.1340   37.6658   31.6069 H   0  0  0  0  0  0  0  0  0  0  0  0
   12.1381   35.7717   32.5697 H   0  0  0  0  0  0  0  0  0  0  0  0
   11.7707   35.4530   30.4496 H   0  0  0  0  0  0  0  0  0  0  0  0
   12.4314   38.3980   34.8694 H   0  0  0  0  0  0  0  0  0  0  0  0
   17.2665   34.4140   33.1691 H   0  0  0  0  0  0  0  0  0  0  0  0
   15.3757   36.1868   37.9789 H   0  0  0  0  0  0  0  0  0  0  0  0
   16.7633   35.0599   37.7895 H   0  0  0  0  0  0  0  0  0  0  0  0
  1  2  2  0
  1  3  1  0
  3  4  1  0
  4  5  1  0
  6  1  1  0
  7  6  1  0
  6  8  1  0
  8  9  1  0
  9 10  1  0
 10 11  1  0
 11 12  1  0
 12 13  1  0
 13 14  1  0
 13 15  2  0
 14 16  1  0
 16 17  1  0
 17 18  2  0
 19 17  1  0
 18 20  1  0
 21 19  2  0
 19 22  1  0
 20 23  2  0
 23 21  1  0
 22 24  1  0
 22 25  2  0
  4 26  2  0
  4 27  1  0
 28 27  1  0
 28 29  1  0
 29 30  1  0
 29 31  1  0
 30 32  1  0
 31 33  1  0
 31 34  1  0
 34 32  1  0
 32 35  1  0
 34 36  1  0
 37 35  1  0
 38 35  1  0
 39 37  2  0
 37 40  1  0
 41 38  2  0
 42 39  1  0
 40 43  2  0
 40 41  1  0
 44 42  2  0
 44 43  1  0
 43 45  1  0
  6 46  1  6
  7 47  1  0
  7 48  1  0
  8 49  1  0
  8 50  1  0
  9 51  1  0
  9 52  1  0
 10 53  1  0
 10 54  1  0
 11 55  1  0
 11 56  1  0
 12 57  1  0
 16 58  1  0
 16 59  1  0
 18 60  1  0
 20 61  1  0
 21 62  1  0
 23 63  1  0
 28 64  1  0
 28 65  1  0
 29 66  1  0
 31 67  1  0
 32 68  1  0
 33 69  1  0
 34 70  1  0
 36 71  1  0
 38 72  1  0
 42 73  1  0
 45 74  1  0
 45 75  1  0
M  CHG  3   5  -1  22   1  24  -1
M  END
>  <EmbedRMS>  (465) 
0.0743722917631

$$$$

     RDKit          3D

 75 78  0  0  0  0  0  0  0  0999 V2000
    9.4331   42.9366   34.3462 C   0  0  0  0  0  0  0  0  0  0  0  0
   10.4906   43.0331   35.0318 O   0  0  0  0  0  0  0  0  0  0  0  0
    8.8562   41.7104   34.0295 O   0  0  0  0  0  0  0  0  0  0  0  0
    9.4942   40.2140   34.4678 P   0  0  0  0  0  0  0  0  0  0  0  0
    9.7311   40.1724   36.1289 O   0  0  0  0  0  0  0  0  0  0  0  0
    8.7504   44.1350   33.7742 C   0  0  1  0  0  0  0  0  0  0  0  0
    9.2960   45.3823   34.3134 N   0  0  0  0  0  0  0  0  0  0  0  0
    8.8892   44.0530   32.2359 C   0  0  0  0  0  0  0  0  0  0  0  0
    8.2030   45.1829   31.4618 C   0  0  0  0  0  0  0  0  0  0  0  0
    6.6655   45.1041   31.4832 C   0  0  0  0  0  0  0  0  0  0  0  0
    6.0282   46.3230   30.8083 C   0  0  0  0  0  0  0  0  0  0  0  0
    6.5047   47.5633   31.4209 N   0  0  0  0  0  0  0  0  0  0  0  0
    7.2510   48.5400   30.6846 C   0  0  0  0  0  0  0  0  0  0  0  0
    7.6471   49.7496   31.2673 O   0  0  0  0  0  0  0  0  0  0  0  0
    7.5871   48.3096   29.4937 O   0  0  0  0  0  0  0  0  0  0  0  0
    7.3711   50.1091   32.6193 C   0  0  0  0  0  0  0  0  0  0  0  0
    7.9312   51.4733   32.9590 C   0  0  0  0  0  0  0  0  0  0  0  0
    8.2685   52.3754   31.9286 C   0  0  0  0  0  0  0  0  0  0  0  0
    8.1327   51.8660   34.3101 C   0  0  0  0  0  0  0  0  0  0  0  0
    8.8291   53.6186   32.2236 C   0  0  0  0  0  0  0  0  0  0  0  0
    8.7149   53.1176   34.5829 C   0  0  0  0  0  0  0  0  0  0  0  0
    7.7598   51.0146   35.4097 N   0  0  0  0  0  0  0  0  0  0  0  0
    9.0595   53.9856   33.5470 C   0  0  0  0  0  0  0  0  0  0  0  0
    6.5921   50.2884   35.3693 O   0  0  0  0  0  0  0  0  0  0  0  0
    8.4043   51.0540   36.4783 O   0  0  0  0  0  0  0  0  0  0  0  0
    8.5370   39.1383   34.0122 O   0  0  0  0  0  0  0  0  0  0  0  0
   10.9795   40.0869   33.6827 O   0  0  0  0  0  0  0  0  0  0  0  0
   10.7997   40.0898   32.2830 C   0  0  0  0  0  0  0  0  0  0  0  0
   11.5968   38.9273   31.6962 C   0  0  0  0  0  0  0  0  0  0  0  0
   12.9242   38.9425   32.1784 O   0  0  0  0  0  0  0  0  0  0  0  0
   11.0086   37.5713   32.0780 C   0  0  0  0  0  0  0  0  0  0  0  0
   13.3528   37.5929   32.2623 C   0  0  0  0  0  0  0  0  0  0  0  0
    9.9098   37.1770   31.2925 O   0  0  0  0  0  0  0  0  0  0  0  0
   12.1943   36.6683   31.8995 C   0  0  0  0  0  0  0  0  0  0  0  0
   13.8019   37.2950   33.6199 N   0  0  0  0  0  0  0  0  0  0  0  0
   12.3027   36.2773   30.5558 O   0  0  0  0  0  0  0  0  0  0  0  0
   14.7926   36.4715   33.9865 C   0  0  0  0  0  0  0  0  0  0  0  0
   13.2749   37.7286   34.7946 C   0  0  0  0  0  0  0  0  0  0  0  0
   15.6239   35.7577   33.1860 N   0  0  0  0  0  0  0  0  0  0  0  0
   14.8727   36.4403   35.3332 C   0  0  0  0  0  0  0  0  0  0  0  0
   13.9210   37.2257   35.8811 N   0  0  0  0  0  0  0  0  0  0  0  0
   16.5873   34.9921   33.7802 C   0  0  0  0  0  0  0  0  0  0  0  0
   15.8579   35.6714   35.9444 C   0  0  0  0  0  0  0  0  0  0  0  0
   16.7028   34.9583   35.1439 N   0  0  0  0  0  0  0  0  0  0  0  0
   16.0104   35.6382   37.3564 N   0  0  0  0  0  0  0  0  0  0  0  0
    7.6768   44.0709   34.0502 H   0  0  0  0  0  0  0  0  0  0  0  0
   10.3189   45.4409   34.1004 H   0  0  0  0  0  0  0  0  0  0  0  0
    9.1819   45.3825   35.3535 H   0  0  0  0  0  0  0  0  0  0  0  0
    8.4815   43.0854   31.8667 H   0  0  0  0  0  0  0  0  0  0  0  0
    9.9711   44.0683   31.9742 H   0  0  0  0  0  0  0  0  0  0  0  0
    8.5540   46.1514   31.8762 H   0  0  0  0  0  0  0  0  0  0  0  0
    8.5404   45.1383   30.4031 H   0  0  0  0  0  0  0  0  0  0  0  0
    6.3313   44.1801   30.9635 H   0  0  0  0  0  0  0  0  0  0  0  0
    6.3004   45.0620   32.5303 H   0  0  0  0  0  0  0  0  0  0  0  0
    6.2504   46.2919   29.7201 H   0  0  0  0  0  0  0  0  0  0  0  0
    4.9245   46.2664   30.9209 H   0  0  0  0  0  0  0  0  0  0  0  0
    6.2717   47.7253   32.4253 H   0  0  0  0  0  0  0  0  0  0  0  0
    7.8410   49.3490   33.2807 H   0  0  0  0  0  0  0  0  0  0  0  0
    6.2722   50.1224   32.7825 H   0  0  0  0  0  0  0  0  0  0  0  0
    8.1032   52.1229   30.8892 H   0  0  0  0  0  0  0  0  0  0  0  0
    9.0886   54.2985   31.4222 H   0  0  0  0  0  0  0  0  0  0  0  0
    8.8840   53.4317   35.6052 H   0  0  0  0  0  0  0  0  0  0  0  0
    9.4975   54.9495   33.7721 H   0  0  0  0  0  0  0  0  0  0  0  0
   11.2096   41.0418   31.8829 H   0  0  0  0  0  0  0  0  0  0  0  0
    9.7449   40.0145   31.9263 H   0  0  0  0  0  0  0  0  0  0  0  0
   11.6265   39.0456   30.5888 H   0  0  0  0  0  0  0  0  0  0  0  0
   10.7064   37.5574   33.1484 H   0  0  0  0  0  0  0  0  0  0  0  0
   14.2021   37.4484   31.5574 H   0  0  0  0  0  0  0  0  0  0  0  0
   10.0952   37.3990   30.3433 H   0  0  0  0  0  0  0  0  0  0  0  0
   12.1163   35.7745   32.5633 H   0  0  0  0  0  0  0  0  0  0  0  0
   12.9615   35.5349   30.5312 H   0  0  0  0  0  0  0  0  0  0  0  0
   12.4321   38.3982   34.8705 H   0  0  0  0  0  0  0  0  0  0  0  0
   17.2669   34.4144   33.1690 H   0  0  0  0  0  0  0  0  0  0  0  0
   16.7641   35.0599   37.7896 H   0  0  0  0  0  0  0  0  0  0  0  0
   15.3761   36.1862   37.9792 H   0  0  0  0  0  0  0  0  0  0  0  0
  1  2  2  0
  1  3  1  0
  3  4  1  0
  4  5  1  0
  6  1  1  0
  7  6  1  0
  6  8  1  0
  8  9  1  0
  9 10  1  0
 10 11  1  0
 11 12  1  0
 12 13  1  0
 13 14  1  0
 13 15  2  0
 14 16  1  0
 16 17  1  0
 17 18  2  0
 19 17  1  0
 18 20  1  0
 21 19  2  0
 19 22  1  0
 20 23  2  0
 23 21  1  0
 22 24  1  0
 22 25  2  0
  4 26  2  0
  4 27  1  0
 28 27  1  0
 28 29  1  0
 29 30  1  0
 29 31  1  0
 30 32  1  0
 31 33  1  0
 31 34  1  0
 34 32  1  0
 32 35  1  0
 34 36  1  0
 37 35  1  0
 38 35  1  0
 39 37  2  0
 37 40  1  0
 41 38  2  0
 42 39  1  0
 40 43  2  0
 40 41  1  0
 44 42  2  0
 44 43  1  0
 43 45  1  0
  6 46  1  6
  7 47  1  0
  7 48  1  0
  8 49  1  0
  8 50  1  0
  9 51  1  0
  9 52  1  0
 10 53  1  0
 10 54  1  0
 11 55  1  0
 11 56  1  0
 12 57  1  0
 16 58  1  0
 16 59  1  0
 18 60  1  0
 20 61  1  0
 21 62  1  0
 23 63  1  0
 28 64  1  0
 28 65  1  0
 29 66  1  0
 31 67  1  0
 32 68  1  0
 33 69  1  0
 34 70  1  0
 36 71  1  0
 38 72  1  0
 42 73  1  0
 45 74  1  0
 45 75  1  0
M  CHG  3   5  -1  22   1  24  -1
M  END
>  <EmbedRMS>  (466) 
0.0747169411797

$$$$

     RDKit          3D

 75 78  0  0  0  0  0  0  0  0999 V2000
    9.4315   42.9427   34.3429 C   0  0  0  0  0  0  0  0  0  0  0  0
   10.4886   43.0419   35.0289 O   0  0  0  0  0  0  0  0  0  0  0  0
    8.8558   41.7143   34.0288 O   0  0  0  0  0  0  0  0  0  0  0  0
    9.4929   40.2174   34.4705 P   0  0  0  0  0  0  0  0  0  0  0  0
    9.7286   40.1751   36.1315 O   0  0  0  0  0  0  0  0  0  0  0  0
    8.7495   44.1392   33.7715 C   0  0  1  0  0  0  0  0  0  0  0  0
    9.3062   45.3688   34.3393 N   0  0  0  0  0  0  0  0  0  0  0  0
    8.8906   44.0580   32.2301 C   0  0  0  0  0  0  0  0  0  0  0  0
    8.2006   45.1792   31.4446 C   0  0  0  0  0  0  0  0  0  0  0  0
    6.6628   45.1099   31.4883 C   0  0  0  0  0  0  0  0  0  0  0  0
    6.0184   46.3208   30.8041 C   0  0  0  0  0  0  0  0  0  0  0  0
    6.4816   47.5681   31.4105 N   0  0  0  0  0  0  0  0  0  0  0  0
    7.2835   48.5098   30.7025 C   0  0  0  0  0  0  0  0  0  0  0  0
    7.8183   49.5978   31.3966 O   0  0  0  0  0  0  0  0  0  0  0  0
    7.5859   48.3132   29.4945 O   0  0  0  0  0  0  0  0  0  0  0  0
    9.0627   50.1974   31.0471 C   0  0  0  0  0  0  0  0  0  0  0  0
   10.1895   49.2167   31.2810 C   0  0  0  0  0  0  0  0  0  0  0  0
   10.7788   48.5964   30.1637 C   0  0  0  0  0  0  0  0  0  0  0  0
   10.6575   48.8873   32.5841 C   0  0  0  0  0  0  0  0  0  0  0  0
   11.8084   47.6689   30.3224 C   0  0  0  0  0  0  0  0  0  0  0  0
   11.7072   47.9604   32.7172 C   0  0  0  0  0  0  0  0  0  0  0  0
   10.1142   49.4895   33.7746 N   0  0  0  0  0  0  0  0  0  0  0  0
   12.2714   47.3512   31.5965 C   0  0  0  0  0  0  0  0  0  0  0  0
   10.9045   49.6308   34.8921 O   0  0  0  0  0  0  0  0  0  0  0  0
    8.8964   49.7427   33.8700 O   0  0  0  0  0  0  0  0  0  0  0  0
    8.5365   39.1412   34.0142 O   0  0  0  0  0  0  0  0  0  0  0  0
   10.9794   40.0883   33.6889 O   0  0  0  0  0  0  0  0  0  0  0  0
   10.8017   40.0949   32.2901 C   0  0  0  0  0  0  0  0  0  0  0  0
   11.5883   38.9265   31.7042 C   0  0  0  0  0  0  0  0  0  0  0  0
   12.9235   38.9444   32.1720 O   0  0  0  0  0  0  0  0  0  0  0  0
   11.0028   37.5724   32.0909 C   0  0  0  0  0  0  0  0  0  0  0  0
   13.3553   37.5959   32.2595 C   0  0  0  0  0  0  0  0  0  0  0  0
    9.9378   37.1843   31.2658 O   0  0  0  0  0  0  0  0  0  0  0  0
   12.1931   36.6768   31.8953 C   0  0  0  0  0  0  0  0  0  0  0  0
   13.8028   37.2976   33.6186 N   0  0  0  0  0  0  0  0  0  0  0  0
   12.2920   36.2396   30.5588 O   0  0  0  0  0  0  0  0  0  0  0  0
   14.7925   36.4725   33.9857 C   0  0  0  0  0  0  0  0  0  0  0  0
   13.2753   37.7304   34.7935 C   0  0  0  0  0  0  0  0  0  0  0  0
   15.6240   35.7585   33.1856 N   0  0  0  0  0  0  0  0  0  0  0  0
   14.8721   36.4407   35.3325 C   0  0  0  0  0  0  0  0  0  0  0  0
   13.9207   37.2264   35.8802 N   0  0  0  0  0  0  0  0  0  0  0  0
   16.5873   34.9926   33.7798 C   0  0  0  0  0  0  0  0  0  0  0  0
   15.8573   35.6716   35.9439 C   0  0  0  0  0  0  0  0  0  0  0  0
   16.7025   34.9588   35.1436 N   0  0  0  0  0  0  0  0  0  0  0  0
   16.0096   35.6381   37.3560 N   0  0  0  0  0  0  0  0  0  0  0  0
    7.6773   44.0684   34.0536 H   0  0  0  0  0  0  0  0  0  0  0  0
    8.6556   46.1617   34.1366 H   0  0  0  0  0  0  0  0  0  0  0  0
   10.2222   45.5840   33.8819 H   0  0  0  0  0  0  0  0  0  0  0  0
    9.9722   44.0749   31.9678 H   0  0  0  0  0  0  0  0  0  0  0  0
    8.4876   43.0874   31.8638 H   0  0  0  0  0  0  0  0  0  0  0  0
    8.5674   46.1568   31.8199 H   0  0  0  0  0  0  0  0  0  0  0  0
    8.5207   45.1066   30.3822 H   0  0  0  0  0  0  0  0  0  0  0  0
    6.3125   45.0858   32.5410 H   0  0  0  0  0  0  0  0  0  0  0  0
    6.3174   44.1792   30.9881 H   0  0  0  0  0  0  0  0  0  0  0  0
    4.9147   46.2567   30.9122 H   0  0  0  0  0  0  0  0  0  0  0  0
    6.2456   46.2863   29.7170 H   0  0  0  0  0  0  0  0  0  0  0  0
    6.2634   47.7503   32.4160 H   0  0  0  0  0  0  0  0  0  0  0  0
    9.0267   50.5312   29.9868 H   0  0  0  0  0  0  0  0  0  0  0  0
    9.2228   51.1079   31.6615 H   0  0  0  0  0  0  0  0  0  0  0  0
   10.4351   48.8248   29.1628 H   0  0  0  0  0  0  0  0  0  0  0  0
   12.2485   47.1955   29.4543 H   0  0  0  0  0  0  0  0  0  0  0  0
   12.0801   47.6932   33.6974 H   0  0  0  0  0  0  0  0  0  0  0  0
   13.0708   46.6312   31.7172 H   0  0  0  0  0  0  0  0  0  0  0  0
   11.2245   41.0426   31.8929 H   0  0  0  0  0  0  0  0  0  0  0  0
    9.7472   40.0380   31.9305 H   0  0  0  0  0  0  0  0  0  0  0  0
   11.5922   39.0434   30.5967 H   0  0  0  0  0  0  0  0  0  0  0  0
   10.7001   37.5441   33.1641 H   0  0  0  0  0  0  0  0  0  0  0  0
   14.2050   37.4475   31.5561 H   0  0  0  0  0  0  0  0  0  0  0  0
    9.1373   37.6720   31.5905 H   0  0  0  0  0  0  0  0  0  0  0  0
   12.1304   35.7856   32.5588 H   0  0  0  0  0  0  0  0  0  0  0  0
   12.4603   37.0188   29.9675 H   0  0  0  0  0  0  0  0  0  0  0  0
   12.4330   38.4003   34.8695 H   0  0  0  0  0  0  0  0  0  0  0  0
   17.2671   34.4149   33.1688 H   0  0  0  0  0  0  0  0  0  0  0  0
   15.3757   36.1866   37.9788 H   0  0  0  0  0  0  0  0  0  0  0  0
   16.7634   35.0599   37.7891 H   0  0  0  0  0  0  0  0  0  0  0  0
  1  2  2  0
  1  3  1  0
  3  4  1  0
  4  5  1  0
  6  1  1  0
  7  6  1  0
  6  8  1  0
  8  9  1  0
  9 10  1  0
 10 11  1  0
 11 12  1  0
 12 13  1  0
 13 14  1  0
 13 15  2  0
 14 16  1  0
 16 17  1  0
 17 18  2  0
 19 17  1  0
 18 20  1  0
 21 19  2  0
 19 22  1  0
 20 23  2  0
 23 21  1  0
 22 24  1  0
 22 25  2  0
  4 26  2  0
  4 27  1  0
 28 27  1  0
 28 29  1  0
 29 30  1  0
 29 31  1  0
 30 32  1  0
 31 33  1  0
 31 34  1  0
 34 32  1  0
 32 35  1  0
 34 36  1  0
 37 35  1  0
 38 35  1  0
 39 37  2  0
 37 40  1  0
 41 38  2  0
 42 39  1  0
 40 43  2  0
 40 41  1  0
 44 42  2  0
 44 43  1  0
 43 45  1  0
  6 46  1  6
  7 47  1  0
  7 48  1  0
  8 49  1  0
  8 50  1  0
  9 51  1  0
  9 52  1  0
 10 53  1  0
 10 54  1  0
 11 55  1  0
 11 56  1  0
 12 57  1  0
 16 58  1  0
 16 59  1  0
 18 60  1  0
 20 61  1  0
 21 62  1  0
 23 63  1  0
 28 64  1  0
 28 65  1  0
 29 66  1  0
 31 67  1  0
 32 68  1  0
 33 69  1  0
 34 70  1  0
 36 71  1  0
 38 72  1  0
 42 73  1  0
 45 74  1  0
 45 75  1  0
M  CHG  3   5  -1  22   1  24  -1
M  END
>  <EmbedRMS>  (467) 
0.0767978139946

$$$$

     RDKit          3D

 75 78  0  0  0  0  0  0  0  0999 V2000
    9.4333   42.9365   34.3461 C   0  0  0  0  0  0  0  0  0  0  0  0
   10.4907   43.0330   35.0319 O   0  0  0  0  0  0  0  0  0  0  0  0
    8.8563   41.7104   34.0296 O   0  0  0  0  0  0  0  0  0  0  0  0
    9.4945   40.2142   34.4680 P   0  0  0  0  0  0  0  0  0  0  0  0
    9.7308   40.1726   36.1291 O   0  0  0  0  0  0  0  0  0  0  0  0
    8.7506   44.1348   33.7741 C   0  0  1  0  0  0  0  0  0  0  0  0
    9.2963   45.3821   34.3133 N   0  0  0  0  0  0  0  0  0  0  0  0
    8.8893   44.0528   32.2358 C   0  0  0  0  0  0  0  0  0  0  0  0
    8.2028   45.1824   31.4615 C   0  0  0  0  0  0  0  0  0  0  0  0
    6.6653   45.1046   31.4855 C   0  0  0  0  0  0  0  0  0  0  0  0
    6.0270   46.3226   30.8105 C   0  0  0  0  0  0  0  0  0  0  0  0
    6.5062   47.5640   31.4180 N   0  0  0  0  0  0  0  0  0  0  0  0
    7.2438   48.5391   30.6836 C   0  0  0  0  0  0  0  0  0  0  0  0
    7.5938   49.7398   31.3066 O   0  0  0  0  0  0  0  0  0  0  0  0
    7.5933   48.3118   29.4936 O   0  0  0  0  0  0  0  0  0  0  0  0
    8.3403   50.7585   30.6492 C   0  0  0  0  0  0  0  0  0  0  0  0
    8.5379   51.9214   31.5870 C   0  0  0  0  0  0  0  0  0  0  0  0
    9.7701   52.0416   32.2554 C   0  0  0  0  0  0  0  0  0  0  0  0
    7.5346   52.9072   31.7966 C   0  0  0  0  0  0  0  0  0  0  0  0
   10.0198   53.1231   33.1006 C   0  0  0  0  0  0  0  0  0  0  0  0
    7.8147   53.9971   32.6407 C   0  0  0  0  0  0  0  0  0  0  0  0
    6.2457   52.8379   31.1580 N   0  0  0  0  0  0  0  0  0  0  0  0
    9.0460   54.1014   33.2890 C   0  0  0  0  0  0  0  0  0  0  0  0
    5.5510   53.9945   30.8870 O   0  0  0  0  0  0  0  0  0  0  0  0
    5.6708   51.7428   30.9933 O   0  0  0  0  0  0  0  0  0  0  0  0
    8.5372   39.1386   34.0125 O   0  0  0  0  0  0  0  0  0  0  0  0
   10.9804   40.0880   33.6837 O   0  0  0  0  0  0  0  0  0  0  0  0
   10.8025   40.0899   32.2839 C   0  0  0  0  0  0  0  0  0  0  0  0
   11.5888   38.9174   31.7007 C   0  0  0  0  0  0  0  0  0  0  0  0
   12.9219   38.9373   32.1692 O   0  0  0  0  0  0  0  0  0  0  0  0
   11.0028   37.5682   32.0980 C   0  0  0  0  0  0  0  0  0  0  0  0
   13.3496   37.5885   32.2601 C   0  0  0  0  0  0  0  0  0  0  0  0
    9.9343   37.1822   31.2756 O   0  0  0  0  0  0  0  0  0  0  0  0
   12.1891   36.6677   31.9049 C   0  0  0  0  0  0  0  0  0  0  0  0
   13.8025   37.2965   33.6186 N   0  0  0  0  0  0  0  0  0  0  0  0
   12.2991   36.2867   30.5567 O   0  0  0  0  0  0  0  0  0  0  0  0
   14.7929   36.4725   33.9858 C   0  0  0  0  0  0  0  0  0  0  0  0
   13.2749   37.7294   34.7935 C   0  0  0  0  0  0  0  0  0  0  0  0
   15.6240   35.7580   33.1858 N   0  0  0  0  0  0  0  0  0  0  0  0
   14.8727   36.4411   35.3327 C   0  0  0  0  0  0  0  0  0  0  0  0
   13.9208   37.2263   35.8803 N   0  0  0  0  0  0  0  0  0  0  0  0
   16.5871   34.9921   33.7801 C   0  0  0  0  0  0  0  0  0  0  0  0
   15.8576   35.6718   35.9441 C   0  0  0  0  0  0  0  0  0  0  0  0
   16.7024   34.9584   35.1438 N   0  0  0  0  0  0  0  0  0  0  0  0
   16.0099   35.6384   37.3562 N   0  0  0  0  0  0  0  0  0  0  0  0
    7.6771   44.0707   34.0504 H   0  0  0  0  0  0  0  0  0  0  0  0
   10.3192   45.4407   34.0999 H   0  0  0  0  0  0  0  0  0  0  0  0
    9.1827   45.3820   35.3535 H   0  0  0  0  0  0  0  0  0  0  0  0
    9.9711   44.0682   31.9739 H   0  0  0  0  0  0  0  0  0  0  0  0
    8.4816   43.0851   31.8668 H   0  0  0  0  0  0  0  0  0  0  0  0
    8.5384   45.1364   30.4023 H   0  0  0  0  0  0  0  0  0  0  0  0
    8.5551   46.1511   31.8742 H   0  0  0  0  0  0  0  0  0  0  0  0
    6.3020   45.0643   32.5333 H   0  0  0  0  0  0  0  0  0  0  0  0
    6.3296   44.1799   30.9678 H   0  0  0  0  0  0  0  0  0  0  0  0
    4.9235   46.2673   30.9264 H   0  0  0  0  0  0  0  0  0  0  0  0
    6.2465   46.2898   29.7217 H   0  0  0  0  0  0  0  0  0  0  0  0
    6.2818   47.7531   32.4208 H   0  0  0  0  0  0  0  0  0  0  0  0
    9.3220   50.3413   30.3333 H   0  0  0  0  0  0  0  0  0  0  0  0
    7.8169   51.0922   29.7273 H   0  0  0  0  0  0  0  0  0  0  0  0
   10.5452   51.2974   32.1181 H   0  0  0  0  0  0  0  0  0  0  0  0
   10.9729   53.2051   33.6070 H   0  0  0  0  0  0  0  0  0  0  0  0
    7.0690   54.7630   32.8120 H   0  0  0  0  0  0  0  0  0  0  0  0
    9.2436   54.9414   33.9424 H   0  0  0  0  0  0  0  0  0  0  0  0
   11.2258   41.0357   31.8830 H   0  0  0  0  0  0  0  0  0  0  0  0
    9.7476   40.0331   31.9256 H   0  0  0  0  0  0  0  0  0  0  0  0
   11.5974   39.0148   30.5904 H   0  0  0  0  0  0  0  0  0  0  0  0
   10.7024   37.5455   33.1719 H   0  0  0  0  0  0  0  0  0  0  0  0
   14.1957   37.4366   31.5528 H   0  0  0  0  0  0  0  0  0  0  0  0
    9.1340   37.6658   31.6069 H   0  0  0  0  0  0  0  0  0  0  0  0
   12.1381   35.7717   32.5697 H   0  0  0  0  0  0  0  0  0  0  0  0
   11.7707   35.4530   30.4496 H   0  0  0  0  0  0  0  0  0  0  0  0
   12.4314   38.3980   34.8694 H   0  0  0  0  0  0  0  0  0  0  0  0
   17.2665   34.4140   33.1691 H   0  0  0  0  0  0  0  0  0  0  0  0
   15.3757   36.1868   37.9789 H   0  0  0  0  0  0  0  0  0  0  0  0
   16.7633   35.0598   37.7895 H   0  0  0  0  0  0  0  0  0  0  0  0
  1  2  2  0
  1  3  1  0
  3  4  1  0
  4  5  1  0
  6  1  1  0
  7  6  1  0
  6  8  1  0
  8  9  1  0
  9 10  1  0
 10 11  1  0
 11 12  1  0
 12 13  1  0
 13 14  1  0
 13 15  2  0
 14 16  1  0
 16 17  1  0
 17 18  2  0
 19 17  1  0
 18 20  1  0
 21 19  2  0
 19 22  1  0
 20 23  2  0
 23 21  1  0
 22 24  1  0
 22 25  2  0
  4 26  2  0
  4 27  1  0
 28 27  1  0
 28 29  1  0
 29 30  1  0
 29 31  1  0
 30 32  1  0
 31 33  1  0
 31 34  1  0
 34 32  1  0
 32 35  1  0
 34 36  1  0
 37 35  1  0
 38 35  1  0
 39 37  2  0
 37 40  1  0
 41 38  2  0
 42 39  1  0
 40 43  2  0
 40 41  1  0
 44 42  2  0
 44 43  1  0
 43 45  1  0
  6 46  1  6
  7 47  1  0
  7 48  1  0
  8 49  1  0
  8 50  1  0
  9 51  1  0
  9 52  1  0
 10 53  1  0
 10 54  1  0
 11 55  1  0
 11 56  1  0
 12 57  1  0
 16 58  1  0
 16 59  1  0
 18 60  1  0
 20 61  1  0
 21 62  1  0
 23 63  1  0
 28 64  1  0
 28 65  1  0
 29 66  1  0
 31 67  1  0
 32 68  1  0
 33 69  1  0
 34 70  1  0
 36 71  1  0
 38 72  1  0
 42 73  1  0
 45 74  1  0
 45 75  1  0
M  CHG  3   5  -1  22   1  24  -1
M  END
>  <EmbedRMS>  (468) 
0.0742154811934

$$$$

     RDKit          3D

 75 78  0  0  0  0  0  0  0  0999 V2000
    9.4332   42.9366   34.3464 C   0  0  0  0  0  0  0  0  0  0  0  0
   10.4908   43.0331   35.0319 O   0  0  0  0  0  0  0  0  0  0  0  0
    8.8559   41.7105   34.0306 O   0  0  0  0  0  0  0  0  0  0  0  0
    9.4931   40.2143   34.4709 P   0  0  0  0  0  0  0  0  0  0  0  0
    9.7288   40.1729   36.1318 O   0  0  0  0  0  0  0  0  0  0  0  0
    8.7507   44.1349   33.7741 C   0  0  1  0  0  0  0  0  0  0  0  0
    9.2963   45.3821   34.3133 N   0  0  0  0  0  0  0  0  0  0  0  0
    8.8893   44.0527   32.2359 C   0  0  0  0  0  0  0  0  0  0  0  0
    8.2028   45.1822   31.4615 C   0  0  0  0  0  0  0  0  0  0  0  0
    6.6653   45.1045   31.4855 C   0  0  0  0  0  0  0  0  0  0  0  0
    6.0270   46.3225   30.8105 C   0  0  0  0  0  0  0  0  0  0  0  0
    6.5062   47.5640   31.4180 N   0  0  0  0  0  0  0  0  0  0  0  0
    7.2438   48.5391   30.6836 C   0  0  0  0  0  0  0  0  0  0  0  0
    7.5949   49.7393   31.3069 O   0  0  0  0  0  0  0  0  0  0  0  0
    7.5933   48.3118   29.4936 O   0  0  0  0  0  0  0  0  0  0  0  0
    8.3462   50.7580   30.6503 C   0  0  0  0  0  0  0  0  0  0  0  0
    8.5837   51.9479   31.5551 C   0  0  0  0  0  0  0  0  0  0  0  0
    7.7899   52.1294   32.7069 C   0  0  0  0  0  0  0  0  0  0  0  0
    9.6070   52.8921   31.2696 C   0  0  0  0  0  0  0  0  0  0  0  0
    8.0266   53.1948   33.5764 C   0  0  0  0  0  0  0  0  0  0  0  0
    9.8382   53.9489   32.1695 C   0  0  0  0  0  0  0  0  0  0  0  0
   10.4185   52.7941   30.0844 N   0  0  0  0  0  0  0  0  0  0  0  0
    9.0533   54.0978   33.3126 C   0  0  0  0  0  0  0  0  0  0  0  0
    9.8613   52.4261   28.8817 O   0  0  0  0  0  0  0  0  0  0  0  0
   11.5982   53.2028   30.0980 O   0  0  0  0  0  0  0  0  0  0  0  0
    8.5366   39.1385   34.0140 O   0  0  0  0  0  0  0  0  0  0  0  0
   10.9795   40.0875   33.6890 O   0  0  0  0  0  0  0  0  0  0  0  0
   10.8017   40.0947   32.2902 C   0  0  0  0  0  0  0  0  0  0  0  0
   11.5885   38.9266   31.7041 C   0  0  0  0  0  0  0  0  0  0  0  0
   12.9237   38.9445   32.1721 O   0  0  0  0  0  0  0  0  0  0  0  0
   11.0029   37.5725   32.0908 C   0  0  0  0  0  0  0  0  0  0  0  0
   13.3555   37.5960   32.2594 C   0  0  0  0  0  0  0  0  0  0  0  0
    9.9379   37.1846   31.2656 O   0  0  0  0  0  0  0  0  0  0  0  0
   12.1932   36.6769   31.8951 C   0  0  0  0  0  0  0  0  0  0  0  0
   13.8028   37.2977   33.6186 N   0  0  0  0  0  0  0  0  0  0  0  0
   12.2918   36.2396   30.5587 O   0  0  0  0  0  0  0  0  0  0  0  0
   14.7926   36.4727   33.9858 C   0  0  0  0  0  0  0  0  0  0  0  0
   13.2750   37.7302   34.7935 C   0  0  0  0  0  0  0  0  0  0  0  0
   15.6241   35.7586   33.1857 N   0  0  0  0  0  0  0  0  0  0  0  0
   14.8721   36.4408   35.3326 C   0  0  0  0  0  0  0  0  0  0  0  0
   13.9204   37.2263   35.8802 N   0  0  0  0  0  0  0  0  0  0  0  0
   16.5870   34.9925   33.7800 C   0  0  0  0  0  0  0  0  0  0  0  0
   15.8572   35.6717   35.9441 C   0  0  0  0  0  0  0  0  0  0  0  0
   16.7022   34.9586   35.1437 N   0  0  0  0  0  0  0  0  0  0  0  0
   16.0098   35.6384   37.3561 N   0  0  0  0  0  0  0  0  0  0  0  0
    7.6771   44.0708   34.0504 H   0  0  0  0  0  0  0  0  0  0  0  0
    9.1827   45.3822   35.3534 H   0  0  0  0  0  0  0  0  0  0  0  0
   10.3192   45.4407   34.1000 H   0  0  0  0  0  0  0  0  0  0  0  0
    9.9711   44.0681   31.9740 H   0  0  0  0  0  0  0  0  0  0  0  0
    8.4817   43.0850   31.8670 H   0  0  0  0  0  0  0  0  0  0  0  0
    8.5384   45.1361   30.4022 H   0  0  0  0  0  0  0  0  0  0  0  0
    8.5553   46.1510   31.8741 H   0  0  0  0  0  0  0  0  0  0  0  0
    6.3296   44.1799   30.9678 H   0  0  0  0  0  0  0  0  0  0  0  0
    6.3020   45.0643   32.5333 H   0  0  0  0  0  0  0  0  0  0  0  0
    6.2465   46.2897   29.7217 H   0  0  0  0  0  0  0  0  0  0  0  0
    4.9235   46.2672   30.9265 H   0  0  0  0  0  0  0  0  0  0  0  0
    6.2821   47.7530   32.4209 H   0  0  0  0  0  0  0  0  0  0  0  0
    9.3250   50.3249   30.3495 H   0  0  0  0  0  0  0  0  0  0  0  0
    7.7979   51.0951   29.7446 H   0  0  0  0  0  0  0  0  0  0  0  0
    6.9838   51.4468   32.9431 H   0  0  0  0  0  0  0  0  0  0  0  0
    7.4130   53.3184   34.4595 H   0  0  0  0  0  0  0  0  0  0  0  0
   10.6181   54.6740   31.9737 H   0  0  0  0  0  0  0  0  0  0  0  0
    9.2362   54.9213   33.9909 H   0  0  0  0  0  0  0  0  0  0  0  0
   11.2241   41.0427   31.8934 H   0  0  0  0  0  0  0  0  0  0  0  0
    9.7472   40.0378   31.9304 H   0  0  0  0  0  0  0  0  0  0  0  0
   11.5927   39.0434   30.5965 H   0  0  0  0  0  0  0  0  0  0  0  0
   10.7003   37.5442   33.1640 H   0  0  0  0  0  0  0  0  0  0  0  0
   14.2052   37.4477   31.5560 H   0  0  0  0  0  0  0  0  0  0  0  0
    9.1374   37.6722   31.5905 H   0  0  0  0  0  0  0  0  0  0  0  0
   12.1305   35.7855   32.5585 H   0  0  0  0  0  0  0  0  0  0  0  0
   12.4606   37.0186   29.9674 H   0  0  0  0  0  0  0  0  0  0  0  0
   12.4327   38.4000   34.8694 H   0  0  0  0  0  0  0  0  0  0  0  0
   17.2666   34.4146   33.1690 H   0  0  0  0  0  0  0  0  0  0  0  0
   16.7634   35.0601   37.7894 H   0  0  0  0  0  0  0  0  0  0  0  0
   15.3754   36.1866   37.9788 H   0  0  0  0  0  0  0  0  0  0  0  0
  1  2  2  0
  1  3  1  0
  3  4  1  0
  4  5  1  0
  6  1  1  0
  7  6  1  0
  6  8  1  0
  8  9  1  0
  9 10  1  0
 10 11  1  0
 11 12  1  0
 12 13  1  0
 13 14  1  0
 13 15  2  0
 14 16  1  0
 16 17  1  0
 17 18  2  0
 19 17  1  0
 18 20  1  0
 21 19  2  0
 19 22  1  0
 20 23  2  0
 23 21  1  0
 22 24  1  0
 22 25  2  0
  4 26  2  0
  4 27  1  0
 28 27  1  0
 28 29  1  0
 29 30  1  0
 29 31  1  0
 30 32  1  0
 31 33  1  0
 31 34  1  0
 34 32  1  0
 32 35  1  0
 34 36  1  0
 37 35  1  0
 38 35  1  0
 39 37  2  0
 37 40  1  0
 41 38  2  0
 42 39  1  0
 40 43  2  0
 40 41  1  0
 44 42  2  0
 44 43  1  0
 43 45  1  0
  6 46  1  6
  7 47  1  0
  7 48  1  0
  8 49  1  0
  8 50  1  0
  9 51  1  0
  9 52  1  0
 10 53  1  0
 10 54  1  0
 11 55  1  0
 11 56  1  0
 12 57  1  0
 16 58  1  0
 16 59  1  0
 18 60  1  0
 20 61  1  0
 21 62  1  0
 23 63  1  0
 28 64  1  0
 28 65  1  0
 29 66  1  0
 31 67  1  0
 32 68  1  0
 33 69  1  0
 34 70  1  0
 36 71  1  0
 38 72  1  0
 42 73  1  0
 45 74  1  0
 45 75  1  0
M  CHG  3   5  -1  22   1  24  -1
M  END
>  <EmbedRMS>  (469) 
0.0757106579758

$$$$

     RDKit          3D

 75 78  0  0  0  0  0  0  0  0999 V2000
    9.4332   42.9356   34.3454 C   0  0  0  0  0  0  0  0  0  0  0  0
   10.4907   43.0323   35.0311 O   0  0  0  0  0  0  0  0  0  0  0  0
    8.8557   41.7097   34.0295 O   0  0  0  0  0  0  0  0  0  0  0  0
    9.4943   40.2137   34.4677 P   0  0  0  0  0  0  0  0  0  0  0  0
    9.7316   40.1723   36.1287 O   0  0  0  0  0  0  0  0  0  0  0  0
    8.7505   44.1336   33.7736 C   0  0  1  0  0  0  0  0  0  0  0  0
    9.2957   45.3793   34.3143 N   0  0  0  0  0  0  0  0  0  0  0  0
    8.8900   44.0538   32.2356 C   0  0  0  0  0  0  0  0  0  0  0  0
    8.2041   45.1853   31.4638 C   0  0  0  0  0  0  0  0  0  0  0  0
    6.6670   45.1060   31.4859 C   0  0  0  0  0  0  0  0  0  0  0  0
    6.0293   46.3245   30.8117 C   0  0  0  0  0  0  0  0  0  0  0  0
    6.5071   47.5659   31.4218 N   0  0  0  0  0  0  0  0  0  0  0  0
    7.2313   48.5501   30.6741 C   0  0  0  0  0  0  0  0  0  0  0  0
    7.5430   49.8056   31.2122 O   0  0  0  0  0  0  0  0  0  0  0  0
    7.5994   48.2988   29.4972 O   0  0  0  0  0  0  0  0  0  0  0  0
    7.2046   50.2418   32.5277 C   0  0  0  0  0  0  0  0  0  0  0  0
    8.0963   49.5983   33.5648 C   0  0  0  0  0  0  0  0  0  0  0  0
    7.4962   48.9619   34.6671 C   0  0  0  0  0  0  0  0  0  0  0  0
    9.5135   49.6155   33.4624 C   0  0  0  0  0  0  0  0  0  0  0  0
    8.2758   48.3433   35.6447 C   0  0  0  0  0  0  0  0  0  0  0  0
   10.2795   48.9679   34.4489 C   0  0  0  0  0  0  0  0  0  0  0  0
   10.1888   50.2732   32.3754 N   0  0  0  0  0  0  0  0  0  0  0  0
    9.6646   48.3461   35.5357 C   0  0  0  0  0  0  0  0  0  0  0  0
    9.7624   51.5011   31.9258 O   0  0  0  0  0  0  0  0  0  0  0  0
   11.2684   49.8183   31.9437 O   0  0  0  0  0  0  0  0  0  0  0  0
    8.5372   39.1378   34.0124 O   0  0  0  0  0  0  0  0  0  0  0  0
   10.9793   40.0885   33.6814 O   0  0  0  0  0  0  0  0  0  0  0  0
   10.7977   40.0842   32.2818 C   0  0  0  0  0  0  0  0  0  0  0  0
   11.5897   38.9146   31.7008 C   0  0  0  0  0  0  0  0  0  0  0  0
   12.9218   38.9385   32.1717 O   0  0  0  0  0  0  0  0  0  0  0  0
   11.0071   37.5654   32.0975 C   0  0  0  0  0  0  0  0  0  0  0  0
   13.3533   37.5909   32.2610 C   0  0  0  0  0  0  0  0  0  0  0  0
    9.9333   37.1934   31.2754 O   0  0  0  0  0  0  0  0  0  0  0  0
   12.1945   36.6671   31.9040 C   0  0  0  0  0  0  0  0  0  0  0  0
   13.8036   37.2970   33.6193 N   0  0  0  0  0  0  0  0  0  0  0  0
   12.2893   36.2849   30.5562 O   0  0  0  0  0  0  0  0  0  0  0  0
   14.7931   36.4723   33.9863 C   0  0  0  0  0  0  0  0  0  0  0  0
   13.2756   37.7298   34.7940 C   0  0  0  0  0  0  0  0  0  0  0  0
   15.6242   35.7580   33.1861 N   0  0  0  0  0  0  0  0  0  0  0  0
   14.8727   36.4407   35.3331 C   0  0  0  0  0  0  0  0  0  0  0  0
   13.9210   37.2262   35.8807 N   0  0  0  0  0  0  0  0  0  0  0  0
   16.5873   34.9920   33.7803 C   0  0  0  0  0  0  0  0  0  0  0  0
   15.8577   35.6715   35.9444 C   0  0  0  0  0  0  0  0  0  0  0  0
   16.7025   34.9582   35.1440 N   0  0  0  0  0  0  0  0  0  0  0  0
   16.0101   35.6382   37.3564 N   0  0  0  0  0  0  0  0  0  0  0  0
    7.6768   44.0694   34.0495 H   0  0  0  0  0  0  0  0  0  0  0  0
    9.1879   45.3728   35.3550 H   0  0  0  0  0  0  0  0  0  0  0  0
   10.3172   45.4427   34.0958 H   0  0  0  0  0  0  0  0  0  0  0  0
    9.9720   44.0697   31.9744 H   0  0  0  0  0  0  0  0  0  0  0  0
    8.4825   43.0868   31.8649 H   0  0  0  0  0  0  0  0  0  0  0  0
    8.5413   45.1429   30.4049 H   0  0  0  0  0  0  0  0  0  0  0  0
    8.5548   46.1534   31.8804 H   0  0  0  0  0  0  0  0  0  0  0  0
    6.3324   44.1818   30.9666 H   0  0  0  0  0  0  0  0  0  0  0  0
    6.3026   45.0646   32.5334 H   0  0  0  0  0  0  0  0  0  0  0  0
    6.2483   46.2920   29.7229 H   0  0  0  0  0  0  0  0  0  0  0  0
    4.9258   46.2682   30.9270 H   0  0  0  0  0  0  0  0  0  0  0  0
    6.2708   47.7314   32.4237 H   0  0  0  0  0  0  0  0  0  0  0  0
    6.1265   50.0517   32.7216 H   0  0  0  0  0  0  0  0  0  0  0  0
    7.3362   51.3417   32.5824 H   0  0  0  0  0  0  0  0  0  0  0  0
    6.4184   48.9418   34.7716 H   0  0  0  0  0  0  0  0  0  0  0  0
    7.8012   47.8556   36.4864 H   0  0  0  0  0  0  0  0  0  0  0  0
   11.3605   48.9643   34.3876 H   0  0  0  0  0  0  0  0  0  0  0  0
   10.2668   47.8609   36.2929 H   0  0  0  0  0  0  0  0  0  0  0  0
   11.2113   41.0319   31.8755 H   0  0  0  0  0  0  0  0  0  0  0  0
    9.7423   40.0118   31.9266 H   0  0  0  0  0  0  0  0  0  0  0  0
   11.6005   39.0120   30.5904 H   0  0  0  0  0  0  0  0  0  0  0  0
   10.7015   37.5592   33.1701 H   0  0  0  0  0  0  0  0  0  0  0  0
   14.2012   37.4438   31.5551 H   0  0  0  0  0  0  0  0  0  0  0  0
    9.5289   36.3869   31.6895 H   0  0  0  0  0  0  0  0  0  0  0  0
   12.1243   35.7693   32.5633 H   0  0  0  0  0  0  0  0  0  0  0  0
   12.9478   35.5427   30.5202 H   0  0  0  0  0  0  0  0  0  0  0  0
   12.4328   38.3993   34.8697 H   0  0  0  0  0  0  0  0  0  0  0  0
   17.2667   34.4140   33.1692 H   0  0  0  0  0  0  0  0  0  0  0  0
   15.3759   36.1865   37.9791 H   0  0  0  0  0  0  0  0  0  0  0  0
   16.7636   35.0598   37.7897 H   0  0  0  0  0  0  0  0  0  0  0  0
  1  2  2  0
  1  3  1  0
  3  4  1  0
  4  5  1  0
  6  1  1  0
  7  6  1  0
  6  8  1  0
  8  9  1  0
  9 10  1  0
 10 11  1  0
 11 12  1  0
 12 13  1  0
 13 14  1  0
 13 15  2  0
 14 16  1  0
 16 17  1  0
 17 18  2  0
 19 17  1  0
 18 20  1  0
 21 19  2  0
 19 22  1  0
 20 23  2  0
 23 21  1  0
 22 24  1  0
 22 25  2  0
  4 26  2  0
  4 27  1  0
 28 27  1  0
 28 29  1  0
 29 30  1  0
 29 31  1  0
 30 32  1  0
 31 33  1  0
 31 34  1  0
 34 32  1  0
 32 35  1  0
 34 36  1  0
 37 35  1  0
 38 35  1  0
 39 37  2  0
 37 40  1  0
 41 38  2  0
 42 39  1  0
 40 43  2  0
 40 41  1  0
 44 42  2  0
 44 43  1  0
 43 45  1  0
  6 46  1  6
  7 47  1  0
  7 48  1  0
  8 49  1  0
  8 50  1  0
  9 51  1  0
  9 52  1  0
 10 53  1  0
 10 54  1  0
 11 55  1  0
 11 56  1  0
 12 57  1  0
 16 58  1  0
 16 59  1  0
 18 60  1  0
 20 61  1  0
 21 62  1  0
 23 63  1  0
 28 64  1  0
 28 65  1  0
 29 66  1  0
 31 67  1  0
 32 68  1  0
 33 69  1  0
 34 70  1  0
 36 71  1  0
 38 72  1  0
 42 73  1  0
 45 74  1  0
 45 75  1  0
M  CHG  3   5  -1  22   1  24  -1
M  END
>  <EmbedRMS>  (470) 
0.0742539527061

$$$$

     RDKit          3D

 75 78  0  0  0  0  0  0  0  0999 V2000
    9.4301   42.9393   34.3434 C   0  0  0  0  0  0  0  0  0  0  0  0
   10.4913   43.0379   35.0235 O   0  0  0  0  0  0  0  0  0  0  0  0
    8.8550   41.7114   34.0282 O   0  0  0  0  0  0  0  0  0  0  0  0
    9.4942   40.2153   34.4674 P   0  0  0  0  0  0  0  0  0  0  0  0
    9.7309   40.1737   36.1286 O   0  0  0  0  0  0  0  0  0  0  0  0
    8.7413   44.1376   33.7786 C   0  0  1  0  0  0  0  0  0  0  0  0
    9.3016   45.3716   34.3326 N   0  0  0  0  0  0  0  0  0  0  0  0
    8.8963   44.0592   32.2399 C   0  0  0  0  0  0  0  0  0  0  0  0
    8.2026   45.1686   31.4401 C   0  0  0  0  0  0  0  0  0  0  0  0
    6.6653   45.1062   31.4911 C   0  0  0  0  0  0  0  0  0  0  0  0
    6.0276   46.3222   30.8123 C   0  0  0  0  0  0  0  0  0  0  0  0
    6.5075   47.5640   31.4185 N   0  0  0  0  0  0  0  0  0  0  0  0
    7.2433   48.5395   30.6829 C   0  0  0  0  0  0  0  0  0  0  0  0
    7.5904   49.7417   31.3042 O   0  0  0  0  0  0  0  0  0  0  0  0
    7.5932   48.3113   29.4932 O   0  0  0  0  0  0  0  0  0  0  0  0
    8.3301   50.7644   30.6440 C   0  0  0  0  0  0  0  0  0  0  0  0
    8.5043   51.9442   31.5678 C   0  0  0  0  0  0  0  0  0  0  0  0
    9.8092   52.3740   31.8742 C   0  0  0  0  0  0  0  0  0  0  0  0
    7.3980   52.6046   32.1687 C   0  0  0  0  0  0  0  0  0  0  0  0
   10.0226   53.4279   32.7634 C   0  0  0  0  0  0  0  0  0  0  0  0
    7.6379   53.6551   33.0740 C   0  0  0  0  0  0  0  0  0  0  0  0
    6.0387   52.2167   31.8945 N   0  0  0  0  0  0  0  0  0  0  0  0
    8.9395   54.0646   33.3649 C   0  0  0  0  0  0  0  0  0  0  0  0
    5.6470   51.8748   30.6214 O   0  0  0  0  0  0  0  0  0  0  0  0
    5.1636   52.3403   32.7765 O   0  0  0  0  0  0  0  0  0  0  0  0
    8.5375   39.1389   34.0122 O   0  0  0  0  0  0  0  0  0  0  0  0
   10.9797   40.0878   33.6827 O   0  0  0  0  0  0  0  0  0  0  0  0
   10.8002   40.0907   32.2830 C   0  0  0  0  0  0  0  0  0  0  0  0
   11.5958   38.9271   31.6963 C   0  0  0  0  0  0  0  0  0  0  0  0
   12.9239   38.9409   32.1767 O   0  0  0  0  0  0  0  0  0  0  0  0
   11.0062   37.5719   32.0794 C   0  0  0  0  0  0  0  0  0  0  0  0
   13.3506   37.5905   32.2614 C   0  0  0  0  0  0  0  0  0  0  0  0
    9.9064   37.1793   31.2946 O   0  0  0  0  0  0  0  0  0  0  0  0
   12.1920   36.6672   31.9003 C   0  0  0  0  0  0  0  0  0  0  0  0
   13.8017   37.2948   33.6193 N   0  0  0  0  0  0  0  0  0  0  0  0
   12.3133   36.2788   30.5561 O   0  0  0  0  0  0  0  0  0  0  0  0
   14.7927   36.4716   33.9862 C   0  0  0  0  0  0  0  0  0  0  0  0
   13.2746   37.7284   34.7941 C   0  0  0  0  0  0  0  0  0  0  0  0
   15.6240   35.7576   33.1859 N   0  0  0  0  0  0  0  0  0  0  0  0
   14.8728   36.4406   35.3330 C   0  0  0  0  0  0  0  0  0  0  0  0
   13.9209   37.2258   35.8808 N   0  0  0  0  0  0  0  0  0  0  0  0
   16.5874   34.9920   33.7802 C   0  0  0  0  0  0  0  0  0  0  0  0
   15.8579   35.6716   35.9443 C   0  0  0  0  0  0  0  0  0  0  0  0
   16.7028   34.9584   35.1439 N   0  0  0  0  0  0  0  0  0  0  0  0
   16.0103   35.6383   37.3563 N   0  0  0  0  0  0  0  0  0  0  0  0
    7.6669   44.0650   34.0548 H   0  0  0  0  0  0  0  0  0  0  0  0
    9.2335   45.3272   35.3760 H   0  0  0  0  0  0  0  0  0  0  0  0
    8.6809   46.1666   34.0588 H   0  0  0  0  0  0  0  0  0  0  0  0
    8.5085   43.0838   31.8695 H   0  0  0  0  0  0  0  0  0  0  0  0
    9.9810   44.0906   31.9915 H   0  0  0  0  0  0  0  0  0  0  0  0
    8.5768   46.1512   31.7921 H   0  0  0  0  0  0  0  0  0  0  0  0
    8.5157   45.0755   30.3770 H   0  0  0  0  0  0  0  0  0  0  0  0
    6.3125   44.1781   30.9914 H   0  0  0  0  0  0  0  0  0  0  0  0
    6.3182   45.0836   32.5447 H   0  0  0  0  0  0  0  0  0  0  0  0
    6.2471   46.2873   29.7236 H   0  0  0  0  0  0  0  0  0  0  0  0
    4.9242   46.2678   30.9290 H   0  0  0  0  0  0  0  0  0  0  0  0
    6.2839   47.7539   32.4214 H   0  0  0  0  0  0  0  0  0  0  0  0
    7.8050   51.0864   29.7205 H   0  0  0  0  0  0  0  0  0  0  0  0
    9.3151   50.3515   30.3335 H   0  0  0  0  0  0  0  0  0  0  0  0
   10.6690   51.8876   31.4301 H   0  0  0  0  0  0  0  0  0  0  0  0
   11.0314   53.7473   32.9912 H   0  0  0  0  0  0  0  0  0  0  0  0
    6.8108   54.1700   33.5464 H   0  0  0  0  0  0  0  0  0  0  0  0
    9.1082   54.8793   34.0574 H   0  0  0  0  0  0  0  0  0  0  0  0
    9.7454   40.0168   31.9261 H   0  0  0  0  0  0  0  0  0  0  0  0
   11.2115   41.0420   31.8828 H   0  0  0  0  0  0  0  0  0  0  0  0
   11.6246   39.0448   30.5888 H   0  0  0  0  0  0  0  0  0  0  0  0
   10.7050   37.5581   33.1500 H   0  0  0  0  0  0  0  0  0  0  0  0
   14.1985   37.4426   31.5553 H   0  0  0  0  0  0  0  0  0  0  0  0
   10.0893   37.4057   30.3459 H   0  0  0  0  0  0  0  0  0  0  0  0
   12.1337   35.7754   32.5703 H   0  0  0  0  0  0  0  0  0  0  0  0
   11.7934   35.4394   30.4514 H   0  0  0  0  0  0  0  0  0  0  0  0
   12.4314   38.3973   34.8699 H   0  0  0  0  0  0  0  0  0  0  0  0
   17.2669   34.4141   33.1692 H   0  0  0  0  0  0  0  0  0  0  0  0
   16.7638   35.0599   37.7896 H   0  0  0  0  0  0  0  0  0  0  0  0
   15.3759   36.1864   37.9790 H   0  0  0  0  0  0  0  0  0  0  0  0
  1  2  2  0
  1  3  1  0
  3  4  1  0
  4  5  1  0
  6  1  1  0
  7  6  1  0
  6  8  1  0
  8  9  1  0
  9 10  1  0
 10 11  1  0
 11 12  1  0
 12 13  1  0
 13 14  1  0
 13 15  2  0
 14 16  1  0
 16 17  1  0
 17 18  2  0
 19 17  1  0
 18 20  1  0
 21 19  2  0
 19 22  1  0
 20 23  2  0
 23 21  1  0
 22 24  1  0
 22 25  2  0
  4 26  2  0
  4 27  1  0
 28 27  1  0
 28 29  1  0
 29 30  1  0
 29 31  1  0
 30 32  1  0
 31 33  1  0
 31 34  1  0
 34 32  1  0
 32 35  1  0
 34 36  1  0
 37 35  1  0
 38 35  1  0
 39 37  2  0
 37 40  1  0
 41 38  2  0
 42 39  1  0
 40 43  2  0
 40 41  1  0
 44 42  2  0
 44 43  1  0
 43 45  1  0
  6 46  1  6
  7 47  1  0
  7 48  1  0
  8 49  1  0
  8 50  1  0
  9 51  1  0
  9 52  1  0
 10 53  1  0
 10 54  1  0
 11 55  1  0
 11 56  1  0
 12 57  1  0
 16 58  1  0
 16 59  1  0
 18 60  1  0
 20 61  1  0
 21 62  1  0
 23 63  1  0
 28 64  1  0
 28 65  1  0
 29 66  1  0
 31 67  1  0
 32 68  1  0
 33 69  1  0
 34 70  1  0
 36 71  1  0
 38 72  1  0
 42 73  1  0
 45 74  1  0
 45 75  1  0
M  CHG  3   5  -1  22   1  24  -1
M  END
>  <EmbedRMS>  (471) 
0.0741165076339

$$$$

     RDKit          3D

 75 78  0  0  0  0  0  0  0  0999 V2000
    9.4338   42.9379   34.3445 C   0  0  0  0  0  0  0  0  0  0  0  0
   10.4908   43.0338   35.0310 O   0  0  0  0  0  0  0  0  0  0  0  0
    8.8564   41.7116   34.0283 O   0  0  0  0  0  0  0  0  0  0  0  0
    9.4941   40.2149   34.4674 P   0  0  0  0  0  0  0  0  0  0  0  0
    9.7307   40.1733   36.1286 O   0  0  0  0  0  0  0  0  0  0  0  0
    8.7517   44.1374   33.7729 C   0  0  1  0  0  0  0  0  0  0  0  0
    9.2971   45.3839   34.3139 N   0  0  0  0  0  0  0  0  0  0  0  0
    8.8911   44.0595   32.2345 C   0  0  0  0  0  0  0  0  0  0  0  0
    8.2018   45.1906   31.4632 C   0  0  0  0  0  0  0  0  0  0  0  0
    6.6637   45.1083   31.4850 C   0  0  0  0  0  0  0  0  0  0  0  0
    6.0174   46.3205   30.8032 C   0  0  0  0  0  0  0  0  0  0  0  0
    6.4792   47.5684   31.4099 N   0  0  0  0  0  0  0  0  0  0  0  0
    7.2931   48.5028   30.7058 C   0  0  0  0  0  0  0  0  0  0  0  0
    7.8700   49.5615   31.4116 O   0  0  0  0  0  0  0  0  0  0  0  0
    7.5797   48.3153   29.4925 O   0  0  0  0  0  0  0  0  0  0  0  0
    9.1373   50.1154   31.0664 C   0  0  0  0  0  0  0  0  0  0  0  0
   10.2227   49.0818   31.2684 C   0  0  0  0  0  0  0  0  0  0  0  0
   10.7457   48.4295   30.1365 C   0  0  0  0  0  0  0  0  0  0  0  0
   10.7122   48.7334   32.5571 C   0  0  0  0  0  0  0  0  0  0  0  0
   11.7286   47.4484   30.2685 C   0  0  0  0  0  0  0  0  0  0  0  0
   11.7164   47.7531   32.6642 C   0  0  0  0  0  0  0  0  0  0  0  0
   10.2290   49.3679   33.7562 N   0  0  0  0  0  0  0  0  0  0  0  0
   12.2128   47.1107   31.5299 C   0  0  0  0  0  0  0  0  0  0  0  0
    8.8934   49.6520   33.9165 O   0  0  0  0  0  0  0  0  0  0  0  0
   10.9921   49.5177   34.7330 O   0  0  0  0  0  0  0  0  0  0  0  0
    8.5370   39.1390   34.0120 O   0  0  0  0  0  0  0  0  0  0  0  0
   10.9796   40.0872   33.6828 O   0  0  0  0  0  0  0  0  0  0  0  0
   10.8003   40.0907   32.2831 C   0  0  0  0  0  0  0  0  0  0  0  0
   11.5958   38.9271   31.6963 C   0  0  0  0  0  0  0  0  0  0  0  0
   12.9239   38.9409   32.1766 O   0  0  0  0  0  0  0  0  0  0  0  0
   11.0062   37.5720   32.0793 C   0  0  0  0  0  0  0  0  0  0  0  0
   13.3507   37.5905   32.2614 C   0  0  0  0  0  0  0  0  0  0  0  0
    9.9064   37.1793   31.2946 O   0  0  0  0  0  0  0  0  0  0  0  0
   12.1920   36.6672   31.9003 C   0  0  0  0  0  0  0  0  0  0  0  0
   13.8017   37.2948   33.6193 N   0  0  0  0  0  0  0  0  0  0  0  0
   12.3133   36.2788   30.5560 O   0  0  0  0  0  0  0  0  0  0  0  0
   14.7927   36.4717   33.9861 C   0  0  0  0  0  0  0  0  0  0  0  0
   13.2746   37.7284   34.7941 C   0  0  0  0  0  0  0  0  0  0  0  0
   15.6240   35.7576   33.1859 N   0  0  0  0  0  0  0  0  0  0  0  0
   14.8728   36.4406   35.3330 C   0  0  0  0  0  0  0  0  0  0  0  0
   13.9209   37.2258   35.8808 N   0  0  0  0  0  0  0  0  0  0  0  0
   16.5874   34.9920   33.7802 C   0  0  0  0  0  0  0  0  0  0  0  0
   15.8579   35.6716   35.9443 C   0  0  0  0  0  0  0  0  0  0  0  0
   16.7028   34.9584   35.1439 N   0  0  0  0  0  0  0  0  0  0  0  0
   16.0103   35.6383   37.3563 N   0  0  0  0  0  0  0  0  0  0  0  0
    7.6778   44.0733   34.0481 H   0  0  0  0  0  0  0  0  0  0  0  0
    9.1813   45.3841   35.3537 H   0  0  0  0  0  0  0  0  0  0  0  0
   10.3205   45.4411   34.1031 H   0  0  0  0  0  0  0  0  0  0  0  0
    8.4868   43.0917   31.8625 H   0  0  0  0  0  0  0  0  0  0  0  0
    9.9732   44.0801   31.9735 H   0  0  0  0  0  0  0  0  0  0  0  0
    8.5499   46.1594   31.8801 H   0  0  0  0  0  0  0  0  0  0  0  0
    8.5399   45.1510   30.4045 H   0  0  0  0  0  0  0  0  0  0  0  0
    6.3328   44.1799   30.9711 H   0  0  0  0  0  0  0  0  0  0  0  0
    6.2997   45.0704   32.5327 H   0  0  0  0  0  0  0  0  0  0  0  0
    6.2443   46.2874   29.7160 H   0  0  0  0  0  0  0  0  0  0  0  0
    4.9137   46.2547   30.9112 H   0  0  0  0  0  0  0  0  0  0  0  0
    6.2638   47.7482   32.4164 H   0  0  0  0  0  0  0  0  0  0  0  0
    9.3399   51.0044   31.6995 H   0  0  0  0  0  0  0  0  0  0  0  0
    9.1095   50.4740   30.0139 H   0  0  0  0  0  0  0  0  0  0  0  0
   10.3848   48.6740   29.1451 H   0  0  0  0  0  0  0  0  0  0  0  0
   12.1159   46.9492   29.3897 H   0  0  0  0  0  0  0  0  0  0  0  0
   12.1043   47.4709   33.6348 H   0  0  0  0  0  0  0  0  0  0  0  0
   12.9755   46.3493   31.6298 H   0  0  0  0  0  0  0  0  0  0  0  0
    9.7456   40.0170   31.9260 H   0  0  0  0  0  0  0  0  0  0  0  0
   11.2118   41.0421   31.8834 H   0  0  0  0  0  0  0  0  0  0  0  0
   11.6246   39.0450   30.5888 H   0  0  0  0  0  0  0  0  0  0  0  0
   10.7050   37.5581   33.1499 H   0  0  0  0  0  0  0  0  0  0  0  0
   14.1985   37.4426   31.5553 H   0  0  0  0  0  0  0  0  0  0  0  0
   10.0893   37.4058   30.3459 H   0  0  0  0  0  0  0  0  0  0  0  0
   12.1337   35.7754   32.5703 H   0  0  0  0  0  0  0  0  0  0  0  0
   11.7934   35.4394   30.4514 H   0  0  0  0  0  0  0  0  0  0  0  0
   12.4314   38.3973   34.8700 H   0  0  0  0  0  0  0  0  0  0  0  0
   17.2669   34.4142   33.1691 H   0  0  0  0  0  0  0  0  0  0  0  0
   16.7638   35.0599   37.7896 H   0  0  0  0  0  0  0  0  0  0  0  0
   15.3759   36.1865   37.9790 H   0  0  0  0  0  0  0  0  0  0  0  0
  1  2  2  0
  1  3  1  0
  3  4  1  0
  4  5  1  0
  6  1  1  0
  7  6  1  0
  6  8  1  0
  8  9  1  0
  9 10  1  0
 10 11  1  0
 11 12  1  0
 12 13  1  0
 13 14  1  0
 13 15  2  0
 14 16  1  0
 16 17  1  0
 17 18  2  0
 19 17  1  0
 18 20  1  0
 21 19  2  0
 19 22  1  0
 20 23  2  0
 23 21  1  0
 22 24  1  0
 22 25  2  0
  4 26  2  0
  4 27  1  0
 28 27  1  0
 28 29  1  0
 29 30  1  0
 29 31  1  0
 30 32  1  0
 31 33  1  0
 31 34  1  0
 34 32  1  0
 32 35  1  0
 34 36  1  0
 37 35  1  0
 38 35  1  0
 39 37  2  0
 37 40  1  0
 41 38  2  0
 42 39  1  0
 40 43  2  0
 40 41  1  0
 44 42  2  0
 44 43  1  0
 43 45  1  0
  6 46  1  6
  7 47  1  0
  7 48  1  0
  8 49  1  0
  8 50  1  0
  9 51  1  0
  9 52  1  0
 10 53  1  0
 10 54  1  0
 11 55  1  0
 11 56  1  0
 12 57  1  0
 16 58  1  0
 16 59  1  0
 18 60  1  0
 20 61  1  0
 21 62  1  0
 23 63  1  0
 28 64  1  0
 28 65  1  0
 29 66  1  0
 31 67  1  0
 32 68  1  0
 33 69  1  0
 34 70  1  0
 36 71  1  0
 38 72  1  0
 42 73  1  0
 45 74  1  0
 45 75  1  0
M  CHG  3   5  -1  22   1  24  -1
M  END
>  <EmbedRMS>  (472) 
0.0771111293276

$$$$

     RDKit          3D

 75 78  0  0  0  0  0  0  0  0999 V2000
    9.4331   42.9365   34.3462 C   0  0  0  0  0  0  0  0  0  0  0  0
   10.4907   43.0329   35.0317 O   0  0  0  0  0  0  0  0  0  0  0  0
    8.8558   41.7103   34.0299 O   0  0  0  0  0  0  0  0  0  0  0  0
    9.4943   40.2141   34.4677 P   0  0  0  0  0  0  0  0  0  0  0  0
    9.7317   40.1723   36.1287 O   0  0  0  0  0  0  0  0  0  0  0  0
    8.7506   44.1348   33.7741 C   0  0  1  0  0  0  0  0  0  0  0  0
    9.2963   45.3820   34.3133 N   0  0  0  0  0  0  0  0  0  0  0  0
    8.8893   44.0527   32.2358 C   0  0  0  0  0  0  0  0  0  0  0  0
    8.2029   45.1823   31.4614 C   0  0  0  0  0  0  0  0  0  0  0  0
    6.6654   45.1047   31.4855 C   0  0  0  0  0  0  0  0  0  0  0  0
    6.0272   46.3228   30.8106 C   0  0  0  0  0  0  0  0  0  0  0  0
    6.5068   47.5642   31.4180 N   0  0  0  0  0  0  0  0  0  0  0  0
    7.2421   48.5404   30.6827 C   0  0  0  0  0  0  0  0  0  0  0  0
    7.5826   49.7466   31.3038 O   0  0  0  0  0  0  0  0  0  0  0  0
    7.5940   48.3102   29.4948 O   0  0  0  0  0  0  0  0  0  0  0  0
    8.3189   50.7872   30.6617 C   0  0  0  0  0  0  0  0  0  0  0  0
    7.4953   51.4377   29.5730 C   0  0  0  0  0  0  0  0  0  0  0  0
    6.2446   51.9752   29.9277 C   0  0  0  0  0  0  0  0  0  0  0  0
    7.9632   51.5981   28.2411 C   0  0  0  0  0  0  0  0  0  0  0  0
    5.4673   52.6548   28.9889 C   0  0  0  0  0  0  0  0  0  0  0  0
    7.1743   52.3025   27.3158 C   0  0  0  0  0  0  0  0  0  0  0  0
    9.2288   51.0768   27.8091 N   0  0  0  0  0  0  0  0  0  0  0  0
    5.9329   52.8213   27.6861 C   0  0  0  0  0  0  0  0  0  0  0  0
   10.0224   51.8276   26.9729 O   0  0  0  0  0  0  0  0  0  0  0  0
    9.4933   49.8670   27.9618 O   0  0  0  0  0  0  0  0  0  0  0  0
    8.5371   39.1382   34.0123 O   0  0  0  0  0  0  0  0  0  0  0  0
   10.9793   40.0887   33.6814 O   0  0  0  0  0  0  0  0  0  0  0  0
   10.7977   40.0842   32.2817 C   0  0  0  0  0  0  0  0  0  0  0  0
   11.5897   38.9146   31.7008 C   0  0  0  0  0  0  0  0  0  0  0  0
   12.9218   38.9385   32.1717 O   0  0  0  0  0  0  0  0  0  0  0  0
   11.0071   37.5654   32.0975 C   0  0  0  0  0  0  0  0  0  0  0  0
   13.3533   37.5909   32.2610 C   0  0  0  0  0  0  0  0  0  0  0  0
    9.9333   37.1934   31.2754 O   0  0  0  0  0  0  0  0  0  0  0  0
   12.1945   36.6671   31.9040 C   0  0  0  0  0  0  0  0  0  0  0  0
   13.8036   37.2970   33.6193 N   0  0  0  0  0  0  0  0  0  0  0  0
   12.2893   36.2849   30.5562 O   0  0  0  0  0  0  0  0  0  0  0  0
   14.7931   36.4723   33.9863 C   0  0  0  0  0  0  0  0  0  0  0  0
   13.2756   37.7298   34.7940 C   0  0  0  0  0  0  0  0  0  0  0  0
   15.6242   35.7580   33.1861 N   0  0  0  0  0  0  0  0  0  0  0  0
   14.8727   36.4407   35.3331 C   0  0  0  0  0  0  0  0  0  0  0  0
   13.9210   37.2262   35.8807 N   0  0  0  0  0  0  0  0  0  0  0  0
   16.5872   34.9920   33.7803 C   0  0  0  0  0  0  0  0  0  0  0  0
   15.8577   35.6715   35.9444 C   0  0  0  0  0  0  0  0  0  0  0  0
   16.7025   34.9582   35.1440 N   0  0  0  0  0  0  0  0  0  0  0  0
   16.0101   35.6382   37.3564 N   0  0  0  0  0  0  0  0  0  0  0  0
    7.6770   44.0707   34.0503 H   0  0  0  0  0  0  0  0  0  0  0  0
    9.1827   45.3819   35.3535 H   0  0  0  0  0  0  0  0  0  0  0  0
   10.3192   45.4405   34.1000 H   0  0  0  0  0  0  0  0  0  0  0  0
    9.9711   44.0681   31.9739 H   0  0  0  0  0  0  0  0  0  0  0  0
    8.4816   43.0851   31.8668 H   0  0  0  0  0  0  0  0  0  0  0  0
    8.5554   46.1510   31.8740 H   0  0  0  0  0  0  0  0  0  0  0  0
    8.5385   45.1363   30.4021 H   0  0  0  0  0  0  0  0  0  0  0  0
    6.3296   44.1802   30.9677 H   0  0  0  0  0  0  0  0  0  0  0  0
    6.3021   45.0644   32.5333 H   0  0  0  0  0  0  0  0  0  0  0  0
    6.2464   46.2900   29.7217 H   0  0  0  0  0  0  0  0  0  0  0  0
    4.9238   46.2678   30.9267 H   0  0  0  0  0  0  0  0  0  0  0  0
    6.2815   47.7539   32.4205 H   0  0  0  0  0  0  0  0  0  0  0  0
    8.5554   51.5610   31.4221 H   0  0  0  0  0  0  0  0  0  0  0  0
    9.2910   50.3931   30.3082 H   0  0  0  0  0  0  0  0  0  0  0  0
    5.8746   51.8760   30.9411 H   0  0  0  0  0  0  0  0  0  0  0  0
    4.5063   53.0620   29.2755 H   0  0  0  0  0  0  0  0  0  0  0  0
    7.5175   52.4365   26.2976 H   0  0  0  0  0  0  0  0  0  0  0  0
    5.3312   53.3541   26.9611 H   0  0  0  0  0  0  0  0  0  0  0  0
   11.2111   41.0319   31.8754 H   0  0  0  0  0  0  0  0  0  0  0  0
    9.7422   40.0118   31.9267 H   0  0  0  0  0  0  0  0  0  0  0  0
   11.6005   39.0119   30.5904 H   0  0  0  0  0  0  0  0  0  0  0  0
   10.7015   37.5592   33.1701 H   0  0  0  0  0  0  0  0  0  0  0  0
   14.2012   37.4438   31.5551 H   0  0  0  0  0  0  0  0  0  0  0  0
    9.5289   36.3869   31.6895 H   0  0  0  0  0  0  0  0  0  0  0  0
   12.1244   35.7693   32.5633 H   0  0  0  0  0  0  0  0  0  0  0  0
   12.9478   35.5427   30.5201 H   0  0  0  0  0  0  0  0  0  0  0  0
   12.4328   38.3993   34.8697 H   0  0  0  0  0  0  0  0  0  0  0  0
   17.2667   34.4140   33.1692 H   0  0  0  0  0  0  0  0  0  0  0  0
   15.3759   36.1865   37.9791 H   0  0  0  0  0  0  0  0  0  0  0  0
   16.7636   35.0598   37.7897 H   0  0  0  0  0  0  0  0  0  0  0  0
  1  2  2  0
  1  3  1  0
  3  4  1  0
  4  5  1  0
  6  1  1  0
  7  6  1  0
  6  8  1  0
  8  9  1  0
  9 10  1  0
 10 11  1  0
 11 12  1  0
 12 13  1  0
 13 14  1  0
 13 15  2  0
 14 16  1  0
 16 17  1  0
 17 18  2  0
 19 17  1  0
 18 20  1  0
 21 19  2  0
 19 22  1  0
 20 23  2  0
 23 21  1  0
 22 24  1  0
 22 25  2  0
  4 26  2  0
  4 27  1  0
 28 27  1  0
 28 29  1  0
 29 30  1  0
 29 31  1  0
 30 32  1  0
 31 33  1  0
 31 34  1  0
 34 32  1  0
 32 35  1  0
 34 36  1  0
 37 35  1  0
 38 35  1  0
 39 37  2  0
 37 40  1  0
 41 38  2  0
 42 39  1  0
 40 43  2  0
 40 41  1  0
 44 42  2  0
 44 43  1  0
 43 45  1  0
  6 46  1  6
  7 47  1  0
  7 48  1  0
  8 49  1  0
  8 50  1  0
  9 51  1  0
  9 52  1  0
 10 53  1  0
 10 54  1  0
 11 55  1  0
 11 56  1  0
 12 57  1  0
 16 58  1  0
 16 59  1  0
 18 60  1  0
 20 61  1  0
 21 62  1  0
 23 63  1  0
 28 64  1  0
 28 65  1  0
 29 66  1  0
 31 67  1  0
 32 68  1  0
 33 69  1  0
 34 70  1  0
 36 71  1  0
 38 72  1  0
 42 73  1  0
 45 74  1  0
 45 75  1  0
M  CHG  3   5  -1  22   1  24  -1
M  END
>  <EmbedRMS>  (473) 
0.0742201191786

$$$$

     RDKit          3D

 75 78  0  0  0  0  0  0  0  0999 V2000
    9.4332   42.9356   34.3455 C   0  0  0  0  0  0  0  0  0  0  0  0
   10.4906   43.0324   35.0313 O   0  0  0  0  0  0  0  0  0  0  0  0
    8.8562   41.7096   34.0292 O   0  0  0  0  0  0  0  0  0  0  0  0
    9.4944   40.2135   34.4679 P   0  0  0  0  0  0  0  0  0  0  0  0
    9.7310   40.1723   36.1290 O   0  0  0  0  0  0  0  0  0  0  0  0
    8.7503   44.1334   33.7737 C   0  0  1  0  0  0  0  0  0  0  0  0
    9.2955   45.3792   34.3141 N   0  0  0  0  0  0  0  0  0  0  0  0
    8.8900   44.0534   32.2358 C   0  0  0  0  0  0  0  0  0  0  0  0
    8.2042   45.1847   31.4637 C   0  0  0  0  0  0  0  0  0  0  0  0
    6.6670   45.1054   31.4855 C   0  0  0  0  0  0  0  0  0  0  0  0
    6.0295   46.3245   30.8124 C   0  0  0  0  0  0  0  0  0  0  0  0
    6.5097   47.5649   31.4224 N   0  0  0  0  0  0  0  0  0  0  0  0
    7.2295   48.5514   30.6731 C   0  0  0  0  0  0  0  0  0  0  0  0
    7.5340   49.8091   31.2109 O   0  0  0  0  0  0  0  0  0  0  0  0
    7.5990   48.3002   29.4966 O   0  0  0  0  0  0  0  0  0  0  0  0
    7.1907   50.2361   32.5283 C   0  0  0  0  0  0  0  0  0  0  0  0
    8.1013   49.6003   33.5551 C   0  0  0  0  0  0  0  0  0  0  0  0
    9.4885   49.6223   33.3208 C   0  0  0  0  0  0  0  0  0  0  0  0
    7.6110   48.9842   34.7366 C   0  0  0  0  0  0  0  0  0  0  0  0
   10.3726   49.0160   34.2143 C   0  0  0  0  0  0  0  0  0  0  0  0
    8.5152   48.3655   35.6158 C   0  0  0  0  0  0  0  0  0  0  0  0
    6.2165   48.9952   35.0756 N   0  0  0  0  0  0  0  0  0  0  0  0
    9.8866   48.3858   35.3579 C   0  0  0  0  0  0  0  0  0  0  0  0
    5.6487   47.8877   35.6622 O   0  0  0  0  0  0  0  0  0  0  0  0
    5.5808   50.0694   35.0745 O   0  0  0  0  0  0  0  0  0  0  0  0
    8.5373   39.1378   34.0122 O   0  0  0  0  0  0  0  0  0  0  0  0
   10.9798   40.0869   33.6829 O   0  0  0  0  0  0  0  0  0  0  0  0
   10.8003   40.0905   32.2833 C   0  0  0  0  0  0  0  0  0  0  0  0
   11.5958   38.9271   31.6963 C   0  0  0  0  0  0  0  0  0  0  0  0
   12.9239   38.9408   32.1766 O   0  0  0  0  0  0  0  0  0  0  0  0
   11.0062   37.5719   32.0793 C   0  0  0  0  0  0  0  0  0  0  0  0
   13.3507   37.5905   32.2614 C   0  0  0  0  0  0  0  0  0  0  0  0
    9.9064   37.1792   31.2946 O   0  0  0  0  0  0  0  0  0  0  0  0
   12.1920   36.6671   31.9003 C   0  0  0  0  0  0  0  0  0  0  0  0
   13.8017   37.2948   33.6193 N   0  0  0  0  0  0  0  0  0  0  0  0
   12.3134   36.2787   30.5560 O   0  0  0  0  0  0  0  0  0  0  0  0
   14.7927   36.4716   33.9861 C   0  0  0  0  0  0  0  0  0  0  0  0
   13.2746   37.7284   34.7941 C   0  0  0  0  0  0  0  0  0  0  0  0
   15.6240   35.7576   33.1859 N   0  0  0  0  0  0  0  0  0  0  0  0
   14.8728   36.4406   35.3330 C   0  0  0  0  0  0  0  0  0  0  0  0
   13.9209   37.2258   35.8807 N   0  0  0  0  0  0  0  0  0  0  0  0
   16.5874   34.9920   33.7802 C   0  0  0  0  0  0  0  0  0  0  0  0
   15.8579   35.6716   35.9443 C   0  0  0  0  0  0  0  0  0  0  0  0
   16.7028   34.9584   35.1439 N   0  0  0  0  0  0  0  0  0  0  0  0
   16.0103   35.6383   37.3563 N   0  0  0  0  0  0  0  0  0  0  0  0
    7.6767   44.0692   34.0497 H   0  0  0  0  0  0  0  0  0  0  0  0
    9.1866   45.3743   35.3548 H   0  0  0  0  0  0  0  0  0  0  0  0
   10.3172   45.4419   34.0966 H   0  0  0  0  0  0  0  0  0  0  0  0
    9.9719   44.0693   31.9745 H   0  0  0  0  0  0  0  0  0  0  0  0
    8.4824   43.0864   31.8651 H   0  0  0  0  0  0  0  0  0  0  0  0
    8.5550   46.1528   31.8804 H   0  0  0  0  0  0  0  0  0  0  0  0
    8.5416   45.1423   30.4049 H   0  0  0  0  0  0  0  0  0  0  0  0
    6.3025   45.0631   32.5329 H   0  0  0  0  0  0  0  0  0  0  0  0
    6.3325   44.1817   30.9654 H   0  0  0  0  0  0  0  0  0  0  0  0
    4.9261   46.2693   30.9300 H   0  0  0  0  0  0  0  0  0  0  0  0
    6.2467   46.2925   29.7232 H   0  0  0  0  0  0  0  0  0  0  0  0
    6.2845   47.7253   32.4280 H   0  0  0  0  0  0  0  0  0  0  0  0
    6.1154   50.0366   32.7053 H   0  0  0  0  0  0  0  0  0  0  0  0
    7.3315   51.3359   32.5814 H   0  0  0  0  0  0  0  0  0  0  0  0
    9.8869   50.1021   32.4352 H   0  0  0  0  0  0  0  0  0  0  0  0
   11.4367   49.0325   34.0174 H   0  0  0  0  0  0  0  0  0  0  0  0
    8.1574   47.8859   36.5182 H   0  0  0  0  0  0  0  0  0  0  0  0
   10.5736   47.9130   36.0478 H   0  0  0  0  0  0  0  0  0  0  0  0
   11.2117   41.0420   31.8835 H   0  0  0  0  0  0  0  0  0  0  0  0
    9.7455   40.0168   31.9263 H   0  0  0  0  0  0  0  0  0  0  0  0
   11.6245   39.0449   30.5888 H   0  0  0  0  0  0  0  0  0  0  0  0
   10.7051   37.5579   33.1499 H   0  0  0  0  0  0  0  0  0  0  0  0
   14.1985   37.4426   31.5553 H   0  0  0  0  0  0  0  0  0  0  0  0
   10.0893   37.4057   30.3459 H   0  0  0  0  0  0  0  0  0  0  0  0
   12.1337   35.7754   32.5703 H   0  0  0  0  0  0  0  0  0  0  0  0
   11.7934   35.4394   30.4513 H   0  0  0  0  0  0  0  0  0  0  0  0
   12.4314   38.3973   34.8700 H   0  0  0  0  0  0  0  0  0  0  0  0
   17.2669   34.4141   33.1692 H   0  0  0  0  0  0  0  0  0  0  0  0
   15.3759   36.1865   37.9790 H   0  0  0  0  0  0  0  0  0  0  0  0
   16.7638   35.0599   37.7897 H   0  0  0  0  0  0  0  0  0  0  0  0
  1  2  2  0
  1  3  1  0
  3  4  1  0
  4  5  1  0
  6  1  1  0
  7  6  1  0
  6  8  1  0
  8  9  1  0
  9 10  1  0
 10 11  1  0
 11 12  1  0
 12 13  1  0
 13 14  1  0
 13 15  2  0
 14 16  1  0
 16 17  1  0
 17 18  2  0
 19 17  1  0
 18 20  1  0
 21 19  2  0
 19 22  1  0
 20 23  2  0
 23 21  1  0
 22 24  1  0
 22 25  2  0
  4 26  2  0
  4 27  1  0
 28 27  1  0
 28 29  1  0
 29 30  1  0
 29 31  1  0
 30 32  1  0
 31 33  1  0
 31 34  1  0
 34 32  1  0
 32 35  1  0
 34 36  1  0
 37 35  1  0
 38 35  1  0
 39 37  2  0
 37 40  1  0
 41 38  2  0
 42 39  1  0
 40 43  2  0
 40 41  1  0
 44 42  2  0
 44 43  1  0
 43 45  1  0
  6 46  1  6
  7 47  1  0
  7 48  1  0
  8 49  1  0
  8 50  1  0
  9 51  1  0
  9 52  1  0
 10 53  1  0
 10 54  1  0
 11 55  1  0
 11 56  1  0
 12 57  1  0
 16 58  1  0
 16 59  1  0
 18 60  1  0
 20 61  1  0
 21 62  1  0
 23 63  1  0
 28 64  1  0
 28 65  1  0
 29 66  1  0
 31 67  1  0
 32 68  1  0
 33 69  1  0
 34 70  1  0
 36 71  1  0
 38 72  1  0
 42 73  1  0
 45 74  1  0
 45 75  1  0
M  CHG  3   5  -1  22   1  24  -1
M  END
>  <EmbedRMS>  (474) 
0.0747013261017

$$$$

     RDKit          3D

 75 78  0  0  0  0  0  0  0  0999 V2000
    9.4330   42.9359   34.3457 C   0  0  0  0  0  0  0  0  0  0  0  0
   10.4904   43.0328   35.0315 O   0  0  0  0  0  0  0  0  0  0  0  0
    8.8562   41.7098   34.0293 O   0  0  0  0  0  0  0  0  0  0  0  0
    9.4943   40.2137   34.4679 P   0  0  0  0  0  0  0  0  0  0  0  0
    9.7311   40.1724   36.1290 O   0  0  0  0  0  0  0  0  0  0  0  0
    8.7499   44.1337   33.7738 C   0  0  1  0  0  0  0  0  0  0  0  0
    9.2941   45.3800   34.3142 N   0  0  0  0  0  0  0  0  0  0  0  0
    8.8901   44.0536   32.2358 C   0  0  0  0  0  0  0  0  0  0  0  0
    8.2042   45.1847   31.4634 C   0  0  0  0  0  0  0  0  0  0  0  0
    6.6669   45.1047   31.4841 C   0  0  0  0  0  0  0  0  0  0  0  0
    6.0290   46.3243   30.8116 C   0  0  0  0  0  0  0  0  0  0  0  0
    6.5105   47.5637   31.4220 N   0  0  0  0  0  0  0  0  0  0  0  0
    7.2395   48.5462   30.6780 C   0  0  0  0  0  0  0  0  0  0  0  0
    7.5897   49.7829   31.2358 O   0  0  0  0  0  0  0  0  0  0  0  0
    7.5907   48.3046   29.4939 O   0  0  0  0  0  0  0  0  0  0  0  0
    7.3097   50.1864   32.5765 C   0  0  0  0  0  0  0  0  0  0  0  0
    8.1847   49.4548   33.5724 C   0  0  0  0  0  0  0  0  0  0  0  0
    9.5372   49.2341   33.2475 C   0  0  0  0  0  0  0  0  0  0  0  0
    7.7268   49.1152   34.8724 C   0  0  0  0  0  0  0  0  0  0  0  0
   10.4123   48.6690   34.1762 C   0  0  0  0  0  0  0  0  0  0  0  0
    8.6270   48.5621   35.7990 C   0  0  0  0  0  0  0  0  0  0  0  0
    6.3731   49.3553   35.2831 N   0  0  0  0  0  0  0  0  0  0  0  0
    9.9593   48.3385   35.4515 C   0  0  0  0  0  0  0  0  0  0  0  0
    5.3340   48.7570   34.6098 O   0  0  0  0  0  0  0  0  0  0  0  0
    6.1477   49.8799   36.3931 O   0  0  0  0  0  0  0  0  0  0  0  0
    8.5371   39.1379   34.0123 O   0  0  0  0  0  0  0  0  0  0  0  0
   10.9796   40.0868   33.6827 O   0  0  0  0  0  0  0  0  0  0  0  0
   10.7997   40.0898   32.2830 C   0  0  0  0  0  0  0  0  0  0  0  0
   11.5968   38.9274   31.6962 C   0  0  0  0  0  0  0  0  0  0  0  0
   12.9242   38.9425   32.1784 O   0  0  0  0  0  0  0  0  0  0  0  0
   11.0086   37.5713   32.0780 C   0  0  0  0  0  0  0  0  0  0  0  0
   13.3529   37.5929   32.2623 C   0  0  0  0  0  0  0  0  0  0  0  0
    9.9098   37.1770   31.2925 O   0  0  0  0  0  0  0  0  0  0  0  0
   12.1943   36.6683   31.8995 C   0  0  0  0  0  0  0  0  0  0  0  0
   13.8019   37.2950   33.6199 N   0  0  0  0  0  0  0  0  0  0  0  0
   12.3027   36.2773   30.5558 O   0  0  0  0  0  0  0  0  0  0  0  0
   14.7926   36.4715   33.9865 C   0  0  0  0  0  0  0  0  0  0  0  0
   13.2749   37.7286   34.7946 C   0  0  0  0  0  0  0  0  0  0  0  0
   15.6239   35.7577   33.1860 N   0  0  0  0  0  0  0  0  0  0  0  0
   14.8727   36.4403   35.3332 C   0  0  0  0  0  0  0  0  0  0  0  0
   13.9210   37.2257   35.8811 N   0  0  0  0  0  0  0  0  0  0  0  0
   16.5873   34.9921   33.7802 C   0  0  0  0  0  0  0  0  0  0  0  0
   15.8579   35.6714   35.9444 C   0  0  0  0  0  0  0  0  0  0  0  0
   16.7028   34.9583   35.1439 N   0  0  0  0  0  0  0  0  0  0  0  0
   16.0104   35.6381   37.3564 N   0  0  0  0  0  0  0  0  0  0  0  0
    7.6761   44.0689   34.0491 H   0  0  0  0  0  0  0  0  0  0  0  0
    9.1791   45.3788   35.3542 H   0  0  0  0  0  0  0  0  0  0  0  0
   10.3171   45.4404   34.1018 H   0  0  0  0  0  0  0  0  0  0  0  0
    8.4831   43.0864   31.8650 H   0  0  0  0  0  0  0  0  0  0  0  0
    9.9722   44.0701   31.9751 H   0  0  0  0  0  0  0  0  0  0  0  0
    8.5423   45.1425   30.4049 H   0  0  0  0  0  0  0  0  0  0  0  0
    8.5547   46.1527   31.8804 H   0  0  0  0  0  0  0  0  0  0  0  0
    6.3332   44.1813   30.9631 H   0  0  0  0  0  0  0  0  0  0  0  0
    6.3018   45.0612   32.5312 H   0  0  0  0  0  0  0  0  0  0  0  0
    4.9258   46.2696   30.9302 H   0  0  0  0  0  0  0  0  0  0  0  0
    6.2456   46.2926   29.7223 H   0  0  0  0  0  0  0  0  0  0  0  0
    6.2958   47.7197   32.4295 H   0  0  0  0  0  0  0  0  0  0  0  0
    6.2269   50.0766   32.7766 H   0  0  0  0  0  0  0  0  0  0  0  0
    7.5397   51.2689   32.6608 H   0  0  0  0  0  0  0  0  0  0  0  0
    9.9229   49.5145   32.2753 H   0  0  0  0  0  0  0  0  0  0  0  0
   11.4477   48.4996   33.9102 H   0  0  0  0  0  0  0  0  0  0  0  0
    8.2907   48.2986   36.7940 H   0  0  0  0  0  0  0  0  0  0  0  0
   10.6412   47.9058   36.1721 H   0  0  0  0  0  0  0  0  0  0  0  0
   11.2097   41.0418   31.8830 H   0  0  0  0  0  0  0  0  0  0  0  0
    9.7450   40.0145   31.9263 H   0  0  0  0  0  0  0  0  0  0  0  0
   11.6265   39.0456   30.5888 H   0  0  0  0  0  0  0  0  0  0  0  0
   10.7064   37.5574   33.1484 H   0  0  0  0  0  0  0  0  0  0  0  0
   14.2021   37.4484   31.5574 H   0  0  0  0  0  0  0  0  0  0  0  0
   10.0952   37.3990   30.3433 H   0  0  0  0  0  0  0  0  0  0  0  0
   12.1163   35.7745   32.5633 H   0  0  0  0  0  0  0  0  0  0  0  0
   12.9615   35.5349   30.5311 H   0  0  0  0  0  0  0  0  0  0  0  0
   12.4321   38.3982   34.8705 H   0  0  0  0  0  0  0  0  0  0  0  0
   17.2669   34.4143   33.1690 H   0  0  0  0  0  0  0  0  0  0  0  0
   15.3761   36.1862   37.9792 H   0  0  0  0  0  0  0  0  0  0  0  0
   16.7641   35.0598   37.7896 H   0  0  0  0  0  0  0  0  0  0  0  0
  1  2  2  0
  1  3  1  0
  3  4  1  0
  4  5  1  0
  6  1  1  0
  7  6  1  0
  6  8  1  0
  8  9  1  0
  9 10  1  0
 10 11  1  0
 11 12  1  0
 12 13  1  0
 13 14  1  0
 13 15  2  0
 14 16  1  0
 16 17  1  0
 17 18  2  0
 19 17  1  0
 18 20  1  0
 21 19  2  0
 19 22  1  0
 20 23  2  0
 23 21  1  0
 22 24  1  0
 22 25  2  0
  4 26  2  0
  4 27  1  0
 28 27  1  0
 28 29  1  0
 29 30  1  0
 29 31  1  0
 30 32  1  0
 31 33  1  0
 31 34  1  0
 34 32  1  0
 32 35  1  0
 34 36  1  0
 37 35  1  0
 38 35  1  0
 39 37  2  0
 37 40  1  0
 41 38  2  0
 42 39  1  0
 40 43  2  0
 40 41  1  0
 44 42  2  0
 44 43  1  0
 43 45  1  0
  6 46  1  6
  7 47  1  0
  7 48  1  0
  8 49  1  0
  8 50  1  0
  9 51  1  0
  9 52  1  0
 10 53  1  0
 10 54  1  0
 11 55  1  0
 11 56  1  0
 12 57  1  0
 16 58  1  0
 16 59  1  0
 18 60  1  0
 20 61  1  0
 21 62  1  0
 23 63  1  0
 28 64  1  0
 28 65  1  0
 29 66  1  0
 31 67  1  0
 32 68  1  0
 33 69  1  0
 34 70  1  0
 36 71  1  0
 38 72  1  0
 42 73  1  0
 45 74  1  0
 45 75  1  0
M  CHG  3   5  -1  22   1  24  -1
M  END
>  <EmbedRMS>  (475) 
0.0744615799866

$$$$

     RDKit          3D

 75 78  0  0  0  0  0  0  0  0999 V2000
    9.4315   42.9422   34.3429 C   0  0  0  0  0  0  0  0  0  0  0  0
   10.4886   43.0416   35.0290 O   0  0  0  0  0  0  0  0  0  0  0  0
    8.8558   41.7139   34.0289 O   0  0  0  0  0  0  0  0  0  0  0  0
    9.4931   40.2169   34.4699 P   0  0  0  0  0  0  0  0  0  0  0  0
    9.7293   40.1749   36.1309 O   0  0  0  0  0  0  0  0  0  0  0  0
    8.7493   44.1381   33.7714 C   0  0  1  0  0  0  0  0  0  0  0  0
    9.3058   45.3683   34.3382 N   0  0  0  0  0  0  0  0  0  0  0  0
    8.8897   44.0557   32.2300 C   0  0  0  0  0  0  0  0  0  0  0  0
    8.2004   45.1770   31.4442 C   0  0  0  0  0  0  0  0  0  0  0  0
    6.6628   45.1089   31.4883 C   0  0  0  0  0  0  0  0  0  0  0  0
    6.0203   46.3216   30.8063 C   0  0  0  0  0  0  0  0  0  0  0  0
    6.4887   47.5670   31.4131 N   0  0  0  0  0  0  0  0  0  0  0  0
    7.2752   48.5173   30.6986 C   0  0  0  0  0  0  0  0  0  0  0  0
    7.7688   49.6348   31.3778 O   0  0  0  0  0  0  0  0  0  0  0  0
    7.5864   48.3123   29.4945 O   0  0  0  0  0  0  0  0  0  0  0  0
    8.8702   50.4106   30.9091 C   0  0  0  0  0  0  0  0  0  0  0  0
   10.1367   49.5825   30.9166 C   0  0  0  0  0  0  0  0  0  0  0  0
   10.4929   48.9312   32.1125 C   0  0  0  0  0  0  0  0  0  0  0  0
   10.9973   49.4803   29.7928 C   0  0  0  0  0  0  0  0  0  0  0  0
   11.6688   48.1847   32.1961 C   0  0  0  0  0  0  0  0  0  0  0  0
   12.1885   48.7420   29.9032 C   0  0  0  0  0  0  0  0  0  0  0  0
   10.6892   50.1153   28.5436 N   0  0  0  0  0  0  0  0  0  0  0  0
   12.5171   48.0932   31.0944 C   0  0  0  0  0  0  0  0  0  0  0  0
    9.5110   49.8235   27.8971 O   0  0  0  0  0  0  0  0  0  0  0  0
   11.5849   50.7197   27.9185 O   0  0  0  0  0  0  0  0  0  0  0  0
    8.5366   39.1406   34.0137 O   0  0  0  0  0  0  0  0  0  0  0  0
   10.9788   40.0876   33.6872 O   0  0  0  0  0  0  0  0  0  0  0  0
   10.7993   40.0947   32.2884 C   0  0  0  0  0  0  0  0  0  0  0  0
   11.5957   38.9352   31.6994 C   0  0  0  0  0  0  0  0  0  0  0  0
   12.9257   38.9478   32.1799 O   0  0  0  0  0  0  0  0  0  0  0  0
   11.0070   37.5758   32.0732 C   0  0  0  0  0  0  0  0  0  0  0  0
   13.3571   37.5980   32.2612 C   0  0  0  0  0  0  0  0  0  0  0  0
    9.9093   37.1808   31.2875 O   0  0  0  0  0  0  0  0  0  0  0  0
   12.1967   36.6764   31.8894 C   0  0  0  0  0  0  0  0  0  0  0  0
   13.8018   37.2956   33.6197 N   0  0  0  0  0  0  0  0  0  0  0  0
   12.3048   36.2361   30.5555 O   0  0  0  0  0  0  0  0  0  0  0  0
   14.7922   36.4716   33.9864 C   0  0  0  0  0  0  0  0  0  0  0  0
   13.2747   37.7291   34.7944 C   0  0  0  0  0  0  0  0  0  0  0  0
   15.6239   35.7582   33.1861 N   0  0  0  0  0  0  0  0  0  0  0  0
   14.8721   36.4402   35.3331 C   0  0  0  0  0  0  0  0  0  0  0  0
   13.9206   37.2257   35.8810 N   0  0  0  0  0  0  0  0  0  0  0  0
   16.5873   34.9924   33.7802 C   0  0  0  0  0  0  0  0  0  0  0  0
   15.8576   35.6714   35.9444 C   0  0  0  0  0  0  0  0  0  0  0  0
   16.7026   34.9585   35.1439 N   0  0  0  0  0  0  0  0  0  0  0  0
   16.0102   35.6382   37.3564 N   0  0  0  0  0  0  0  0  0  0  0  0
    7.6773   44.0664   34.0539 H   0  0  0  0  0  0  0  0  0  0  0  0
   10.2174   45.5892   33.8742 H   0  0  0  0  0  0  0  0  0  0  0  0
    8.6502   46.1588   34.1418 H   0  0  0  0  0  0  0  0  0  0  0  0
    8.4845   43.0856   31.8648 H   0  0  0  0  0  0  0  0  0  0  0  0
    9.9712   44.0701   31.9669 H   0  0  0  0  0  0  0  0  0  0  0  0
    8.5680   46.1541   31.8198 H   0  0  0  0  0  0  0  0  0  0  0  0
    8.5199   45.1038   30.3816 H   0  0  0  0  0  0  0  0  0  0  0  0
    6.3124   45.0832   32.5409 H   0  0  0  0  0  0  0  0  0  0  0  0
    6.3162   44.1795   30.9865 H   0  0  0  0  0  0  0  0  0  0  0  0
    4.9167   46.2604   30.9171 H   0  0  0  0  0  0  0  0  0  0  0  0
    6.2451   46.2875   29.7186 H   0  0  0  0  0  0  0  0  0  0  0  0
    6.2701   47.7502   32.4183 H   0  0  0  0  0  0  0  0  0  0  0  0
    9.0115   51.2651   31.6037 H   0  0  0  0  0  0  0  0  0  0  0  0
    8.6297   50.8436   29.9192 H   0  0  0  0  0  0  0  0  0  0  0  0
    9.8552   49.0023   32.9854 H   0  0  0  0  0  0  0  0  0  0  0  0
   11.9261   47.6828   33.1199 H   0  0  0  0  0  0  0  0  0  0  0  0
   12.8561   48.6554   29.0550 H   0  0  0  0  0  0  0  0  0  0  0  0
   13.4317   47.5184   31.1629 H   0  0  0  0  0  0  0  0  0  0  0  0
   11.2093   41.0481   31.8916 H   0  0  0  0  0  0  0  0  0  0  0  0
    9.7449   40.0202   31.9302 H   0  0  0  0  0  0  0  0  0  0  0  0
   11.6207   39.0685   30.5942 H   0  0  0  0  0  0  0  0  0  0  0  0
   10.7059   37.5565   33.1439 H   0  0  0  0  0  0  0  0  0  0  0  0
   14.2095   37.4544   31.5601 H   0  0  0  0  0  0  0  0  0  0  0  0
   10.0864   37.4211   30.3414 H   0  0  0  0  0  0  0  0  0  0  0  0
   12.1275   35.7873   32.5550 H   0  0  0  0  0  0  0  0  0  0  0  0
   12.5030   37.0109   29.9673 H   0  0  0  0  0  0  0  0  0  0  0  0
   12.4328   38.3997   34.8703 H   0  0  0  0  0  0  0  0  0  0  0  0
   17.2670   34.4149   33.1690 H   0  0  0  0  0  0  0  0  0  0  0  0
   16.7640   35.0601   37.7896 H   0  0  0  0  0  0  0  0  0  0  0  0
   15.3758   36.1862   37.9792 H   0  0  0  0  0  0  0  0  0  0  0  0
  1  2  2  0
  1  3  1  0
  3  4  1  0
  4  5  1  0
  6  1  1  0
  7  6  1  0
  6  8  1  0
  8  9  1  0
  9 10  1  0
 10 11  1  0
 11 12  1  0
 12 13  1  0
 13 14  1  0
 13 15  2  0
 14 16  1  0
 16 17  1  0
 17 18  2  0
 19 17  1  0
 18 20  1  0
 21 19  2  0
 19 22  1  0
 20 23  2  0
 23 21  1  0
 22 24  1  0
 22 25  2  0
  4 26  2  0
  4 27  1  0
 28 27  1  0
 28 29  1  0
 29 30  1  0
 29 31  1  0
 30 32  1  0
 31 33  1  0
 31 34  1  0
 34 32  1  0
 32 35  1  0
 34 36  1  0
 37 35  1  0
 38 35  1  0
 39 37  2  0
 37 40  1  0
 41 38  2  0
 42 39  1  0
 40 43  2  0
 40 41  1  0
 44 42  2  0
 44 43  1  0
 43 45  1  0
  6 46  1  6
  7 47  1  0
  7 48  1  0
  8 49  1  0
  8 50  1  0
  9 51  1  0
  9 52  1  0
 10 53  1  0
 10 54  1  0
 11 55  1  0
 11 56  1  0
 12 57  1  0
 16 58  1  0
 16 59  1  0
 18 60  1  0
 20 61  1  0
 21 62  1  0
 23 63  1  0
 28 64  1  0
 28 65  1  0
 29 66  1  0
 31 67  1  0
 32 68  1  0
 33 69  1  0
 34 70  1  0
 36 71  1  0
 38 72  1  0
 42 73  1  0
 45 74  1  0
 45 75  1  0
M  CHG  3   5  -1  22   1  24  -1
M  END
>  <EmbedRMS>  (476) 
0.0766447497011

$$$$

     RDKit          3D

 75 78  0  0  0  0  0  0  0  0999 V2000
    9.4312   42.9412   34.3440 C   0  0  0  0  0  0  0  0  0  0  0  0
   10.4886   43.0411   35.0294 O   0  0  0  0  0  0  0  0  0  0  0  0
    8.8558   41.7129   34.0298 O   0  0  0  0  0  0  0  0  0  0  0  0
    9.4933   40.2164   34.4707 P   0  0  0  0  0  0  0  0  0  0  0  0
    9.7290   40.1745   36.1317 O   0  0  0  0  0  0  0  0  0  0  0  0
    8.7484   44.1360   33.7722 C   0  0  1  0  0  0  0  0  0  0  0  0
    9.3039   45.3666   34.3388 N   0  0  0  0  0  0  0  0  0  0  0  0
    8.8892   44.0519   32.2309 C   0  0  0  0  0  0  0  0  0  0  0  0
    8.2014   45.1721   31.4436 C   0  0  0  0  0  0  0  0  0  0  0  0
    6.6642   45.1065   31.4887 C   0  0  0  0  0  0  0  0  0  0  0  0
    6.0265   46.3234   30.8120 C   0  0  0  0  0  0  0  0  0  0  0  0
    6.5073   47.5645   31.4186 N   0  0  0  0  0  0  0  0  0  0  0  0
    7.2444   48.5393   30.6834 C   0  0  0  0  0  0  0  0  0  0  0  0
    7.5965   49.7396   31.3063 O   0  0  0  0  0  0  0  0  0  0  0  0
    7.5931   48.3115   29.4933 O   0  0  0  0  0  0  0  0  0  0  0  0
    8.3489   50.7566   30.6503 C   0  0  0  0  0  0  0  0  0  0  0  0
    8.5238   51.9353   31.5773 C   0  0  0  0  0  0  0  0  0  0  0  0
    7.3774   52.4730   32.1909 C   0  0  0  0  0  0  0  0  0  0  0  0
    9.7940   52.4963   31.8763 C   0  0  0  0  0  0  0  0  0  0  0  0
    7.4848   53.5110   33.1176 C   0  0  0  0  0  0  0  0  0  0  0  0
    9.8837   53.5265   32.8279 C   0  0  0  0  0  0  0  0  0  0  0  0
   10.9911   52.0622   31.2135 N   0  0  0  0  0  0  0  0  0  0  0  0
    8.7367   54.0295   33.4435 C   0  0  0  0  0  0  0  0  0  0  0  0
   12.1720   51.9903   31.9157 O   0  0  0  0  0  0  0  0  0  0  0  0
   11.0271   51.9989   29.9673 O   0  0  0  0  0  0  0  0  0  0  0  0
    8.5369   39.1403   34.0143 O   0  0  0  0  0  0  0  0  0  0  0  0
   10.9796   40.0883   33.6889 O   0  0  0  0  0  0  0  0  0  0  0  0
   10.8017   40.0949   32.2901 C   0  0  0  0  0  0  0  0  0  0  0  0
   11.5885   38.9267   31.7042 C   0  0  0  0  0  0  0  0  0  0  0  0
   12.9237   38.9445   32.1722 O   0  0  0  0  0  0  0  0  0  0  0  0
   11.0029   37.5726   32.0908 C   0  0  0  0  0  0  0  0  0  0  0  0
   13.3555   37.5960   32.2595 C   0  0  0  0  0  0  0  0  0  0  0  0
    9.9379   37.1847   31.2657 O   0  0  0  0  0  0  0  0  0  0  0  0
   12.1931   36.6769   31.8952 C   0  0  0  0  0  0  0  0  0  0  0  0
   13.8028   37.2977   33.6186 N   0  0  0  0  0  0  0  0  0  0  0  0
   12.2918   36.2396   30.5587 O   0  0  0  0  0  0  0  0  0  0  0  0
   14.7926   36.4727   33.9858 C   0  0  0  0  0  0  0  0  0  0  0  0
   13.2750   37.7302   34.7935 C   0  0  0  0  0  0  0  0  0  0  0  0
   15.6241   35.7586   33.1857 N   0  0  0  0  0  0  0  0  0  0  0  0
   14.8721   36.4408   35.3326 C   0  0  0  0  0  0  0  0  0  0  0  0
   13.9204   37.2263   35.8802 N   0  0  0  0  0  0  0  0  0  0  0  0
   16.5870   34.9925   33.7800 C   0  0  0  0  0  0  0  0  0  0  0  0
   15.8572   35.6717   35.9441 C   0  0  0  0  0  0  0  0  0  0  0  0
   16.7022   34.9585   35.1437 N   0  0  0  0  0  0  0  0  0  0  0  0
   16.0097   35.6384   37.3561 N   0  0  0  0  0  0  0  0  0  0  0  0
    7.6764   44.0635   34.0548 H   0  0  0  0  0  0  0  0  0  0  0  0
    8.6468   46.1560   34.1431 H   0  0  0  0  0  0  0  0  0  0  0  0
   10.2152   45.5880   33.8747 H   0  0  0  0  0  0  0  0  0  0  0  0
    9.9708   44.0643   31.9680 H   0  0  0  0  0  0  0  0  0  0  0  0
    8.4831   43.0817   31.8668 H   0  0  0  0  0  0  0  0  0  0  0  0
    8.5713   46.1488   31.8175 H   0  0  0  0  0  0  0  0  0  0  0  0
    8.5198   45.0959   30.3808 H   0  0  0  0  0  0  0  0  0  0  0  0
    6.3141   45.0785   32.5414 H   0  0  0  0  0  0  0  0  0  0  0  0
    6.3148   44.1799   30.9839 H   0  0  0  0  0  0  0  0  0  0  0  0
    4.9231   46.2692   30.9293 H   0  0  0  0  0  0  0  0  0  0  0  0
    6.2451   46.2893   29.7230 H   0  0  0  0  0  0  0  0  0  0  0  0
    6.2851   47.7535   32.4219 H   0  0  0  0  0  0  0  0  0  0  0  0
    7.8031   51.0940   29.7428 H   0  0  0  0  0  0  0  0  0  0  0  0
    9.3187   50.3217   30.3378 H   0  0  0  0  0  0  0  0  0  0  0  0
    6.3966   52.0728   31.9637 H   0  0  0  0  0  0  0  0  0  0  0  0
    6.5957   53.9084   33.5899 H   0  0  0  0  0  0  0  0  0  0  0  0
   10.8447   53.9610   33.0730 H   0  0  0  0  0  0  0  0  0  0  0  0
    8.8181   54.8314   34.1660 H   0  0  0  0  0  0  0  0  0  0  0  0
   11.2240   41.0428   31.8929 H   0  0  0  0  0  0  0  0  0  0  0  0
    9.7472   40.0378   31.9304 H   0  0  0  0  0  0  0  0  0  0  0  0
   11.5927   39.0434   30.5966 H   0  0  0  0  0  0  0  0  0  0  0  0
   10.7003   37.5444   33.1641 H   0  0  0  0  0  0  0  0  0  0  0  0
   14.2051   37.4477   31.5560 H   0  0  0  0  0  0  0  0  0  0  0  0
    9.1373   37.6722   31.5906 H   0  0  0  0  0  0  0  0  0  0  0  0
   12.1305   35.7856   32.5586 H   0  0  0  0  0  0  0  0  0  0  0  0
   12.4606   37.0186   29.9674 H   0  0  0  0  0  0  0  0  0  0  0  0
   12.4327   38.4001   34.8694 H   0  0  0  0  0  0  0  0  0  0  0  0
   17.2666   34.4146   33.1690 H   0  0  0  0  0  0  0  0  0  0  0  0
   16.7634   35.0601   37.7894 H   0  0  0  0  0  0  0  0  0  0  0  0
   15.3754   36.1866   37.9788 H   0  0  0  0  0  0  0  0  0  0  0  0
  1  2  2  0
  1  3  1  0
  3  4  1  0
  4  5  1  0
  6  1  1  0
  7  6  1  0
  6  8  1  0
  8  9  1  0
  9 10  1  0
 10 11  1  0
 11 12  1  0
 12 13  1  0
 13 14  1  0
 13 15  2  0
 14 16  1  0
 16 17  1  0
 17 18  2  0
 19 17  1  0
 18 20  1  0
 21 19  2  0
 19 22  1  0
 20 23  2  0
 23 21  1  0
 22 24  1  0
 22 25  2  0
  4 26  2  0
  4 27  1  0
 28 27  1  0
 28 29  1  0
 29 30  1  0
 29 31  1  0
 30 32  1  0
 31 33  1  0
 31 34  1  0
 34 32  1  0
 32 35  1  0
 34 36  1  0
 37 35  1  0
 38 35  1  0
 39 37  2  0
 37 40  1  0
 41 38  2  0
 42 39  1  0
 40 43  2  0
 40 41  1  0
 44 42  2  0
 44 43  1  0
 43 45  1  0
  6 46  1  6
  7 47  1  0
  7 48  1  0
  8 49  1  0
  8 50  1  0
  9 51  1  0
  9 52  1  0
 10 53  1  0
 10 54  1  0
 11 55  1  0
 11 56  1  0
 12 57  1  0
 16 58  1  0
 16 59  1  0
 18 60  1  0
 20 61  1  0
 21 62  1  0
 23 63  1  0
 28 64  1  0
 28 65  1  0
 29 66  1  0
 31 67  1  0
 32 68  1  0
 33 69  1  0
 34 70  1  0
 36 71  1  0
 38 72  1  0
 42 73  1  0
 45 74  1  0
 45 75  1  0
M  CHG  3   5  -1  22   1  24  -1
M  END
>  <EmbedRMS>  (477) 
0.0749103513894

$$$$

     RDKit          3D

 75 78  0  0  0  0  0  0  0  0999 V2000
    9.4298   42.9394   34.3437 C   0  0  0  0  0  0  0  0  0  0  0  0
   10.4913   43.0380   35.0234 O   0  0  0  0  0  0  0  0  0  0  0  0
    8.8541   41.7116   34.0296 O   0  0  0  0  0  0  0  0  0  0  0  0
    9.4928   40.2156   34.4702 P   0  0  0  0  0  0  0  0  0  0  0  0
    9.7296   40.1741   36.1311 O   0  0  0  0  0  0  0  0  0  0  0  0
    8.7412   44.1376   33.7786 C   0  0  1  0  0  0  0  0  0  0  0  0
    9.3016   45.3717   34.3325 N   0  0  0  0  0  0  0  0  0  0  0  0
    8.8963   44.0590   32.2399 C   0  0  0  0  0  0  0  0  0  0  0  0
    8.2027   45.1685   31.4400 C   0  0  0  0  0  0  0  0  0  0  0  0
    6.6653   45.1063   31.4910 C   0  0  0  0  0  0  0  0  0  0  0  0
    6.0277   46.3225   30.8125 C   0  0  0  0  0  0  0  0  0  0  0  0
    6.5080   47.5642   31.4188 N   0  0  0  0  0  0  0  0  0  0  0  0
    7.2419   48.5403   30.6824 C   0  0  0  0  0  0  0  0  0  0  0  0
    7.5846   49.7470   31.3022 O   0  0  0  0  0  0  0  0  0  0  0  0
    7.5940   48.3101   29.4937 O   0  0  0  0  0  0  0  0  0  0  0  0
    8.3056   50.7862   30.6418 C   0  0  0  0  0  0  0  0  0  0  0  0
    7.4415   51.4450   29.5897 C   0  0  0  0  0  0  0  0  0  0  0  0
    6.1736   51.9175   29.9743 C   0  0  0  0  0  0  0  0  0  0  0  0
    7.8390   51.5605   28.2316 C   0  0  0  0  0  0  0  0  0  0  0  0
    5.2971   52.4556   29.0309 C   0  0  0  0  0  0  0  0  0  0  0  0
    6.9348   52.0857   27.2929 C   0  0  0  0  0  0  0  0  0  0  0  0
    9.1486   51.1750   27.7887 N   0  0  0  0  0  0  0  0  0  0  0  0
    5.6732   52.5305   27.6909 C   0  0  0  0  0  0  0  0  0  0  0  0
    9.3029   50.5673   26.5641 O   0  0  0  0  0  0  0  0  0  0  0  0
   10.1598   51.6122   28.3757 O   0  0  0  0  0  0  0  0  0  0  0  0
    8.5369   39.1389   34.0141 O   0  0  0  0  0  0  0  0  0  0  0  0
   10.9784   40.0890   33.6866 O   0  0  0  0  0  0  0  0  0  0  0  0
   10.7973   40.0897   32.2880 C   0  0  0  0  0  0  0  0  0  0  0  0
   11.5882   38.9234   31.7043 C   0  0  0  0  0  0  0  0  0  0  0  0
   12.9230   38.9440   32.1728 O   0  0  0  0  0  0  0  0  0  0  0  0
   11.0048   37.5704   32.0916 C   0  0  0  0  0  0  0  0  0  0  0  0
   13.3570   37.5961   32.2595 C   0  0  0  0  0  0  0  0  0  0  0  0
    9.9332   37.1987   31.2676 O   0  0  0  0  0  0  0  0  0  0  0  0
   12.1965   36.6751   31.8950 C   0  0  0  0  0  0  0  0  0  0  0  0
   13.8037   37.2979   33.6187 N   0  0  0  0  0  0  0  0  0  0  0  0
   12.2934   36.2389   30.5582 O   0  0  0  0  0  0  0  0  0  0  0  0
   14.7929   36.4726   33.9860 C   0  0  0  0  0  0  0  0  0  0  0  0
   13.2755   37.7304   34.7934 C   0  0  0  0  0  0  0  0  0  0  0  0
   15.6244   35.7585   33.1859 N   0  0  0  0  0  0  0  0  0  0  0  0
   14.8722   36.4406   35.3328 C   0  0  0  0  0  0  0  0  0  0  0  0
   13.9205   37.2262   35.8803 N   0  0  0  0  0  0  0  0  0  0  0  0
   16.5872   34.9923   33.7802 C   0  0  0  0  0  0  0  0  0  0  0  0
   15.8573   35.6715   35.9442 C   0  0  0  0  0  0  0  0  0  0  0  0
   16.7023   34.9584   35.1439 N   0  0  0  0  0  0  0  0  0  0  0  0
   16.0098   35.6384   37.3563 N   0  0  0  0  0  0  0  0  0  0  0  0
    7.6668   44.0652   34.0548 H   0  0  0  0  0  0  0  0  0  0  0  0
    8.6809   46.1667   34.0587 H   0  0  0  0  0  0  0  0  0  0  0  0
    9.2334   45.3273   35.3759 H   0  0  0  0  0  0  0  0  0  0  0  0
    9.9810   44.0904   31.9916 H   0  0  0  0  0  0  0  0  0  0  0  0
    8.5084   43.0837   31.8696 H   0  0  0  0  0  0  0  0  0  0  0  0
    8.5157   45.0752   30.3769 H   0  0  0  0  0  0  0  0  0  0  0  0
    8.5770   46.1511   31.7918 H   0  0  0  0  0  0  0  0  0  0  0  0
    6.3124   44.1783   30.9911 H   0  0  0  0  0  0  0  0  0  0  0  0
    6.3182   45.0835   32.5446 H   0  0  0  0  0  0  0  0  0  0  0  0
    6.2469   46.2877   29.7237 H   0  0  0  0  0  0  0  0  0  0  0  0
    4.9243   46.2683   30.9294 H   0  0  0  0  0  0  0  0  0  0  0  0
    6.2844   47.7542   32.4216 H   0  0  0  0  0  0  0  0  0  0  0  0
    9.2423   50.3598   30.2322 H   0  0  0  0  0  0  0  0  0  0  0  0
    8.5890   51.5515   31.3945 H   0  0  0  0  0  0  0  0  0  0  0  0
    5.8553   51.8498   31.0075 H   0  0  0  0  0  0  0  0  0  0  0  0
    4.3205   52.8067   29.3385 H   0  0  0  0  0  0  0  0  0  0  0  0
    7.2190   52.1743   26.2519 H   0  0  0  0  0  0  0  0  0  0  0  0
    4.9898   52.9433   26.9601 H   0  0  0  0  0  0  0  0  0  0  0  0
    9.7422   40.0186   31.9312 H   0  0  0  0  0  0  0  0  0  0  0  0
   11.2112   41.0391   31.8856 H   0  0  0  0  0  0  0  0  0  0  0  0
   11.5932   39.0395   30.5966 H   0  0  0  0  0  0  0  0  0  0  0  0
   10.6986   37.5586   33.1640 H   0  0  0  0  0  0  0  0  0  0  0  0
   14.2072   37.4493   31.5564 H   0  0  0  0  0  0  0  0  0  0  0  0
    9.5321   36.3881   31.6772 H   0  0  0  0  0  0  0  0  0  0  0  0
   12.1344   35.7838   32.5583 H   0  0  0  0  0  0  0  0  0  0  0  0
   12.4642   37.0179   29.9675 H   0  0  0  0  0  0  0  0  0  0  0  0
   12.4333   38.4006   34.8692 H   0  0  0  0  0  0  0  0  0  0  0  0
   17.2668   34.4144   33.1692 H   0  0  0  0  0  0  0  0  0  0  0  0
   16.7634   35.0600   37.7896 H   0  0  0  0  0  0  0  0  0  0  0  0
   15.3755   36.1866   37.9789 H   0  0  0  0  0  0  0  0  0  0  0  0
  1  2  2  0
  1  3  1  0
  3  4  1  0
  4  5  1  0
  6  1  1  0
  7  6  1  0
  6  8  1  0
  8  9  1  0
  9 10  1  0
 10 11  1  0
 11 12  1  0
 12 13  1  0
 13 14  1  0
 13 15  2  0
 14 16  1  0
 16 17  1  0
 17 18  2  0
 19 17  1  0
 18 20  1  0
 21 19  2  0
 19 22  1  0
 20 23  2  0
 23 21  1  0
 22 24  1  0
 22 25  2  0
  4 26  2  0
  4 27  1  0
 28 27  1  0
 28 29  1  0
 29 30  1  0
 29 31  1  0
 30 32  1  0
 31 33  1  0
 31 34  1  0
 34 32  1  0
 32 35  1  0
 34 36  1  0
 37 35  1  0
 38 35  1  0
 39 37  2  0
 37 40  1  0
 41 38  2  0
 42 39  1  0
 40 43  2  0
 40 41  1  0
 44 42  2  0
 44 43  1  0
 43 45  1  0
  6 46  1  6
  7 47  1  0
  7 48  1  0
  8 49  1  0
  8 50  1  0
  9 51  1  0
  9 52  1  0
 10 53  1  0
 10 54  1  0
 11 55  1  0
 11 56  1  0
 12 57  1  0
 16 58  1  0
 16 59  1  0
 18 60  1  0
 20 61  1  0
 21 62  1  0
 23 63  1  0
 28 64  1  0
 28 65  1  0
 29 66  1  0
 31 67  1  0
 32 68  1  0
 33 69  1  0
 34 70  1  0
 36 71  1  0
 38 72  1  0
 42 73  1  0
 45 74  1  0
 45 75  1  0
M  CHG  3   5  -1  22   1  24  -1
M  END
>  <EmbedRMS>  (478) 
0.0751792869926

$$$$

     RDKit          3D

 75 78  0  0  0  0  0  0  0  0999 V2000
    9.4329   42.9369   34.3464 C   0  0  0  0  0  0  0  0  0  0  0  0
   10.4905   43.0334   35.0320 O   0  0  0  0  0  0  0  0  0  0  0  0
    8.8562   41.7106   34.0297 O   0  0  0  0  0  0  0  0  0  0  0  0
    9.4945   40.2143   34.4680 P   0  0  0  0  0  0  0  0  0  0  0  0
    9.7309   40.1727   36.1291 O   0  0  0  0  0  0  0  0  0  0  0  0
    8.7500   44.1351   33.7743 C   0  0  1  0  0  0  0  0  0  0  0  0
    9.2953   45.3826   34.3134 N   0  0  0  0  0  0  0  0  0  0  0  0
    8.8890   44.0528   32.2362 C   0  0  0  0  0  0  0  0  0  0  0  0
    8.2030   45.1826   31.4619 C   0  0  0  0  0  0  0  0  0  0  0  0
    6.6655   45.1037   31.4826 C   0  0  0  0  0  0  0  0  0  0  0  0
    6.0290   46.3230   30.8076 C   0  0  0  0  0  0  0  0  0  0  0  0
    6.5080   47.5616   31.4205 N   0  0  0  0  0  0  0  0  0  0  0  0
    7.2537   48.5391   30.6863 C   0  0  0  0  0  0  0  0  0  0  0  0
    7.6595   49.7473   31.2696 O   0  0  0  0  0  0  0  0  0  0  0  0
    7.5820   48.3120   29.4926 O   0  0  0  0  0  0  0  0  0  0  0  0
    7.4672   50.1038   32.6394 C   0  0  0  0  0  0  0  0  0  0  0  0
    6.0089   50.3611   32.9527 C   0  0  0  0  0  0  0  0  0  0  0  0
    5.2378   51.0852   32.0238 C   0  0  0  0  0  0  0  0  0  0  0  0
    5.4257   49.9952   34.1944 C   0  0  0  0  0  0  0  0  0  0  0  0
    3.9085   51.4100   32.2985 C   0  0  0  0  0  0  0  0  0  0  0  0
    4.0908   50.3455   34.4592 C   0  0  0  0  0  0  0  0  0  0  0  0
    6.1726   49.3052   35.2072 N   0  0  0  0  0  0  0  0  0  0  0  0
    3.3356   51.0398   33.5136 C   0  0  0  0  0  0  0  0  0  0  0  0
    6.7005   48.0620   34.9473 O   0  0  0  0  0  0  0  0  0  0  0  0
    6.1201   49.7006   36.3899 O   0  0  0  0  0  0  0  0  0  0  0  0
    8.5372   39.1388   34.0125 O   0  0  0  0  0  0  0  0  0  0  0  0
   10.9804   40.0881   33.6837 O   0  0  0  0  0  0  0  0  0  0  0  0
   10.8025   40.0900   32.2839 C   0  0  0  0  0  0  0  0  0  0  0  0
   11.5888   38.9174   31.7007 C   0  0  0  0  0  0  0  0  0  0  0  0
   12.9219   38.9373   32.1692 O   0  0  0  0  0  0  0  0  0  0  0  0
   11.0028   37.5682   32.0980 C   0  0  0  0  0  0  0  0  0  0  0  0
   13.3496   37.5885   32.2601 C   0  0  0  0  0  0  0  0  0  0  0  0
    9.9343   37.1822   31.2756 O   0  0  0  0  0  0  0  0  0  0  0  0
   12.1891   36.6677   31.9049 C   0  0  0  0  0  0  0  0  0  0  0  0
   13.8025   37.2965   33.6186 N   0  0  0  0  0  0  0  0  0  0  0  0
   12.2991   36.2867   30.5567 O   0  0  0  0  0  0  0  0  0  0  0  0
   14.7929   36.4725   33.9858 C   0  0  0  0  0  0  0  0  0  0  0  0
   13.2749   37.7294   34.7935 C   0  0  0  0  0  0  0  0  0  0  0  0
   15.6240   35.7580   33.1858 N   0  0  0  0  0  0  0  0  0  0  0  0
   14.8727   36.4411   35.3327 C   0  0  0  0  0  0  0  0  0  0  0  0
   13.9208   37.2263   35.8803 N   0  0  0  0  0  0  0  0  0  0  0  0
   16.5871   34.9921   33.7801 C   0  0  0  0  0  0  0  0  0  0  0  0
   15.8576   35.6718   35.9441 C   0  0  0  0  0  0  0  0  0  0  0  0
   16.7024   34.9584   35.1438 N   0  0  0  0  0  0  0  0  0  0  0  0
   16.0099   35.6384   37.3562 N   0  0  0  0  0  0  0  0  0  0  0  0
    7.6763   44.0710   34.0502 H   0  0  0  0  0  0  0  0  0  0  0  0
   10.3185   45.4409   34.1021 H   0  0  0  0  0  0  0  0  0  0  0  0
    9.1792   45.3841   35.3533 H   0  0  0  0  0  0  0  0  0  0  0  0
    8.4813   43.0853   31.8670 H   0  0  0  0  0  0  0  0  0  0  0  0
    9.9709   44.0682   31.9746 H   0  0  0  0  0  0  0  0  0  0  0  0
    8.5539   46.1509   31.8768 H   0  0  0  0  0  0  0  0  0  0  0  0
    8.5409   45.1382   30.4033 H   0  0  0  0  0  0  0  0  0  0  0  0
    6.2999   45.0618   32.5297 H   0  0  0  0  0  0  0  0  0  0  0  0
    6.3313   44.1798   30.9626 H   0  0  0  0  0  0  0  0  0  0  0  0
    4.9253   46.2681   30.9214 H   0  0  0  0  0  0  0  0  0  0  0  0
    6.2506   46.2918   29.7193 H   0  0  0  0  0  0  0  0  0  0  0  0
    6.2792   47.7182   32.4243 H   0  0  0  0  0  0  0  0  0  0  0  0
    7.9254   49.3308   33.2852 H   0  0  0  0  0  0  0  0  0  0  0  0
    8.0228   51.0461   32.8269 H   0  0  0  0  0  0  0  0  0  0  0  0
    5.6686   51.4063   31.0834 H   0  0  0  0  0  0  0  0  0  0  0  0
    3.3249   51.9599   31.5714 H   0  0  0  0  0  0  0  0  0  0  0  0
    3.6333   50.0722   35.4019 H   0  0  0  0  0  0  0  0  0  0  0  0
    2.3065   51.2985   33.7272 H   0  0  0  0  0  0  0  0  0  0  0  0
    9.7476   40.0331   31.9256 H   0  0  0  0  0  0  0  0  0  0  0  0
   11.2258   41.0357   31.8829 H   0  0  0  0  0  0  0  0  0  0  0  0
   11.5974   39.0148   30.5905 H   0  0  0  0  0  0  0  0  0  0  0  0
   10.7023   37.5455   33.1719 H   0  0  0  0  0  0  0  0  0  0  0  0
   14.1957   37.4366   31.5528 H   0  0  0  0  0  0  0  0  0  0  0  0
    9.1339   37.6658   31.6069 H   0  0  0  0  0  0  0  0  0  0  0  0
   12.1381   35.7717   32.5697 H   0  0  0  0  0  0  0  0  0  0  0  0
   11.7707   35.4530   30.4496 H   0  0  0  0  0  0  0  0  0  0  0  0
   12.4314   38.3980   34.8694 H   0  0  0  0  0  0  0  0  0  0  0  0
   17.2665   34.4140   33.1691 H   0  0  0  0  0  0  0  0  0  0  0  0
   15.3757   36.1867   37.9789 H   0  0  0  0  0  0  0  0  0  0  0  0
   16.7633   35.0598   37.7895 H   0  0  0  0  0  0  0  0  0  0  0  0
  1  2  2  0
  1  3  1  0
  3  4  1  0
  4  5  1  0
  6  1  1  0
  7  6  1  0
  6  8  1  0
  8  9  1  0
  9 10  1  0
 10 11  1  0
 11 12  1  0
 12 13  1  0
 13 14  1  0
 13 15  2  0
 14 16  1  0
 16 17  1  0
 17 18  2  0
 19 17  1  0
 18 20  1  0
 21 19  2  0
 19 22  1  0
 20 23  2  0
 23 21  1  0
 22 24  1  0
 22 25  2  0
  4 26  2  0
  4 27  1  0
 28 27  1  0
 28 29  1  0
 29 30  1  0
 29 31  1  0
 30 32  1  0
 31 33  1  0
 31 34  1  0
 34 32  1  0
 32 35  1  0
 34 36  1  0
 37 35  1  0
 38 35  1  0
 39 37  2  0
 37 40  1  0
 41 38  2  0
 42 39  1  0
 40 43  2  0
 40 41  1  0
 44 42  2  0
 44 43  1  0
 43 45  1  0
  6 46  1  6
  7 47  1  0
  7 48  1  0
  8 49  1  0
  8 50  1  0
  9 51  1  0
  9 52  1  0
 10 53  1  0
 10 54  1  0
 11 55  1  0
 11 56  1  0
 12 57  1  0
 16 58  1  0
 16 59  1  0
 18 60  1  0
 20 61  1  0
 21 62  1  0
 23 63  1  0
 28 64  1  0
 28 65  1  0
 29 66  1  0
 31 67  1  0
 32 68  1  0
 33 69  1  0
 34 70  1  0
 36 71  1  0
 38 72  1  0
 42 73  1  0
 45 74  1  0
 45 75  1  0
M  CHG  3   5  -1  22   1  24  -1
M  END
>  <EmbedRMS>  (479) 
0.0742910826919

$$$$

     RDKit          3D

 75 78  0  0  0  0  0  0  0  0999 V2000
    9.4315   42.9407   34.3434 C   0  0  0  0  0  0  0  0  0  0  0  0
   10.4886   43.0412   35.0293 O   0  0  0  0  0  0  0  0  0  0  0  0
    8.8561   41.7124   34.0296 O   0  0  0  0  0  0  0  0  0  0  0  0
    9.4935   40.2159   34.4703 P   0  0  0  0  0  0  0  0  0  0  0  0
    9.7296   40.1742   36.1313 O   0  0  0  0  0  0  0  0  0  0  0  0
    8.7484   44.1344   33.7707 C   0  0  1  0  0  0  0  0  0  0  0  0
    9.3008   45.3655   34.3367 N   0  0  0  0  0  0  0  0  0  0  0  0
    8.8902   44.0519   32.2298 C   0  0  0  0  0  0  0  0  0  0  0  0
    8.2025   45.1728   31.4428 C   0  0  0  0  0  0  0  0  0  0  0  0
    6.6655   45.1083   31.4899 C   0  0  0  0  0  0  0  0  0  0  0  0
    6.0283   46.3258   30.8141 C   0  0  0  0  0  0  0  0  0  0  0  0
    6.5074   47.5671   31.4234 N   0  0  0  0  0  0  0  0  0  0  0  0
    7.2320   48.5503   30.6752 C   0  0  0  0  0  0  0  0  0  0  0  0
    7.5433   49.8062   31.2121 O   0  0  0  0  0  0  0  0  0  0  0  0
    7.6021   48.2971   29.4992 O   0  0  0  0  0  0  0  0  0  0  0  0
    7.1524   50.2680   32.5044 C   0  0  0  0  0  0  0  0  0  0  0  0
    7.9958   49.6456   33.5940 C   0  0  0  0  0  0  0  0  0  0  0  0
    7.3451   49.0662   34.6992 C   0  0  0  0  0  0  0  0  0  0  0  0
    9.4157   49.6377   33.5449 C   0  0  0  0  0  0  0  0  0  0  0  0
    8.0778   48.4784   35.7310 C   0  0  0  0  0  0  0  0  0  0  0  0
   10.1341   49.0178   34.5837 C   0  0  0  0  0  0  0  0  0  0  0  0
   10.1411   50.2463   32.4618 N   0  0  0  0  0  0  0  0  0  0  0  0
    9.4695   48.4514   35.6719 C   0  0  0  0  0  0  0  0  0  0  0  0
    9.7543   51.4667   31.9588 O   0  0  0  0  0  0  0  0  0  0  0  0
   11.2270   49.7589   32.0851 O   0  0  0  0  0  0  0  0  0  0  0  0
    8.5370   39.1397   34.0140 O   0  0  0  0  0  0  0  0  0  0  0  0
   10.9790   40.0873   33.6873 O   0  0  0  0  0  0  0  0  0  0  0  0
   10.7993   40.0946   32.2885 C   0  0  0  0  0  0  0  0  0  0  0  0
   11.5957   38.9352   31.6994 C   0  0  0  0  0  0  0  0  0  0  0  0
   12.9257   38.9478   32.1798 O   0  0  0  0  0  0  0  0  0  0  0  0
   11.0070   37.5758   32.0732 C   0  0  0  0  0  0  0  0  0  0  0  0
   13.3571   37.5980   32.2612 C   0  0  0  0  0  0  0  0  0  0  0  0
    9.9093   37.1808   31.2875 O   0  0  0  0  0  0  0  0  0  0  0  0
   12.1967   36.6764   31.8894 C   0  0  0  0  0  0  0  0  0  0  0  0
   13.8018   37.2956   33.6197 N   0  0  0  0  0  0  0  0  0  0  0  0
   12.3048   36.2361   30.5555 O   0  0  0  0  0  0  0  0  0  0  0  0
   14.7922   36.4716   33.9864 C   0  0  0  0  0  0  0  0  0  0  0  0
   13.2747   37.7291   34.7944 C   0  0  0  0  0  0  0  0  0  0  0  0
   15.6239   35.7581   33.1861 N   0  0  0  0  0  0  0  0  0  0  0  0
   14.8721   36.4402   35.3331 C   0  0  0  0  0  0  0  0  0  0  0  0
   13.9206   37.2257   35.8810 N   0  0  0  0  0  0  0  0  0  0  0  0
   16.5873   34.9924   33.7802 C   0  0  0  0  0  0  0  0  0  0  0  0
   15.8576   35.6714   35.9444 C   0  0  0  0  0  0  0  0  0  0  0  0
   16.7026   34.9585   35.1439 N   0  0  0  0  0  0  0  0  0  0  0  0
   16.0102   35.6382   37.3564 N   0  0  0  0  0  0  0  0  0  0  0  0
    7.6763   44.0607   34.0525 H   0  0  0  0  0  0  0  0  0  0  0  0
    8.6468   46.1510   34.1202 H   0  0  0  0  0  0  0  0  0  0  0  0
   10.2176   45.5827   33.8817 H   0  0  0  0  0  0  0  0  0  0  0  0
    8.4847   43.0819   31.8647 H   0  0  0  0  0  0  0  0  0  0  0  0
    9.9720   44.0652   31.9677 H   0  0  0  0  0  0  0  0  0  0  0  0
    8.5192   45.0951   30.3796 H   0  0  0  0  0  0  0  0  0  0  0  0
    8.5736   46.1502   31.8139 H   0  0  0  0  0  0  0  0  0  0  0  0
    6.3168   45.0811   32.5431 H   0  0  0  0  0  0  0  0  0  0  0  0
    6.3146   44.1819   30.9856 H   0  0  0  0  0  0  0  0  0  0  0  0
    6.2459   46.2922   29.7251 H   0  0  0  0  0  0  0  0  0  0  0  0
    4.9249   46.2705   30.9312 H   0  0  0  0  0  0  0  0  0  0  0  0
    6.2747   47.7332   32.4262 H   0  0  0  0  0  0  0  0  0  0  0  0
    7.2873   51.3684   32.5422 H   0  0  0  0  0  0  0  0  0  0  0  0
    6.0662   50.0844   32.6560 H   0  0  0  0  0  0  0  0  0  0  0  0
    6.2641   49.0686   34.7649 H   0  0  0  0  0  0  0  0  0  0  0  0
    7.5644   48.0356   36.5747 H   0  0  0  0  0  0  0  0  0  0  0  0
   11.2163   48.9945   34.5624 H   0  0  0  0  0  0  0  0  0  0  0  0
   10.0353   47.9878   36.4696 H   0  0  0  0  0  0  0  0  0  0  0  0
    9.7448   40.0200   31.9305 H   0  0  0  0  0  0  0  0  0  0  0  0
   11.2093   41.0481   31.8918 H   0  0  0  0  0  0  0  0  0  0  0  0
   11.6207   39.0686   30.5942 H   0  0  0  0  0  0  0  0  0  0  0  0
   10.7059   37.5564   33.1439 H   0  0  0  0  0  0  0  0  0  0  0  0
   14.2095   37.4543   31.5601 H   0  0  0  0  0  0  0  0  0  0  0  0
   10.0864   37.4210   30.3413 H   0  0  0  0  0  0  0  0  0  0  0  0
   12.1275   35.7872   32.5550 H   0  0  0  0  0  0  0  0  0  0  0  0
   12.5030   37.0109   29.9673 H   0  0  0  0  0  0  0  0  0  0  0  0
   12.4328   38.3996   34.8703 H   0  0  0  0  0  0  0  0  0  0  0  0
   17.2670   34.4149   33.1690 H   0  0  0  0  0  0  0  0  0  0  0  0
   15.3757   36.1862   37.9791 H   0  0  0  0  0  0  0  0  0  0  0  0
   16.7640   35.0601   37.7896 H   0  0  0  0  0  0  0  0  0  0  0  0
  1  2  2  0
  1  3  1  0
  3  4  1  0
  4  5  1  0
  6  1  1  0
  7  6  1  0
  6  8  1  0
  8  9  1  0
  9 10  1  0
 10 11  1  0
 11 12  1  0
 12 13  1  0
 13 14  1  0
 13 15  2  0
 14 16  1  0
 16 17  1  0
 17 18  2  0
 19 17  1  0
 18 20  1  0
 21 19  2  0
 19 22  1  0
 20 23  2  0
 23 21  1  0
 22 24  1  0
 22 25  2  0
  4 26  2  0
  4 27  1  0
 28 27  1  0
 28 29  1  0
 29 30  1  0
 29 31  1  0
 30 32  1  0
 31 33  1  0
 31 34  1  0
 34 32  1  0
 32 35  1  0
 34 36  1  0
 37 35  1  0
 38 35  1  0
 39 37  2  0
 37 40  1  0
 41 38  2  0
 42 39  1  0
 40 43  2  0
 40 41  1  0
 44 42  2  0
 44 43  1  0
 43 45  1  0
  6 46  1  6
  7 47  1  0
  7 48  1  0
  8 49  1  0
  8 50  1  0
  9 51  1  0
  9 52  1  0
 10 53  1  0
 10 54  1  0
 11 55  1  0
 11 56  1  0
 12 57  1  0
 16 58  1  0
 16 59  1  0
 18 60  1  0
 20 61  1  0
 21 62  1  0
 23 63  1  0
 28 64  1  0
 28 65  1  0
 29 66  1  0
 31 67  1  0
 32 68  1  0
 33 69  1  0
 34 70  1  0
 36 71  1  0
 38 72  1  0
 42 73  1  0
 45 74  1  0
 45 75  1  0
M  CHG  3   5  -1  22   1  24  -1
M  END
>  <EmbedRMS>  (480) 
0.075362213879

$$$$

     RDKit          3D

 75 78  0  0  0  0  0  0  0  0999 V2000
    9.4303   42.9407   34.3424 C   0  0  0  0  0  0  0  0  0  0  0  0
   10.4913   43.0388   35.0230 O   0  0  0  0  0  0  0  0  0  0  0  0
    8.8546   41.7128   34.0284 O   0  0  0  0  0  0  0  0  0  0  0  0
    9.4927   40.2166   34.4701 P   0  0  0  0  0  0  0  0  0  0  0  0
    9.7285   40.1751   36.1311 O   0  0  0  0  0  0  0  0  0  0  0  0
    8.7423   44.1401   33.7777 C   0  0  1  0  0  0  0  0  0  0  0  0
    9.3039   45.3732   34.3327 N   0  0  0  0  0  0  0  0  0  0  0  0
    8.8976   44.0642   32.2389 C   0  0  0  0  0  0  0  0  0  0  0  0
    8.2014   45.1742   31.4405 C   0  0  0  0  0  0  0  0  0  0  0  0
    6.6637   45.1089   31.4907 C   0  0  0  0  0  0  0  0  0  0  0  0
    6.0201   46.3203   30.8062 C   0  0  0  0  0  0  0  0  0  0  0  0
    6.4856   47.5673   31.4122 N   0  0  0  0  0  0  0  0  0  0  0  0
    7.2795   48.5133   30.7004 C   0  0  0  0  0  0  0  0  0  0  0  0
    7.7998   49.6143   31.3873 O   0  0  0  0  0  0  0  0  0  0  0  0
    7.5854   48.3123   29.4937 O   0  0  0  0  0  0  0  0  0  0  0  0
    8.9500   50.3280   30.9380 C   0  0  0  0  0  0  0  0  0  0  0  0
   10.1705   49.4330   30.9962 C   0  0  0  0  0  0  0  0  0  0  0  0
   10.4007   48.6993   32.1754 C   0  0  0  0  0  0  0  0  0  0  0  0
   11.0371   49.2468   29.8874 C   0  0  0  0  0  0  0  0  0  0  0  0
   11.4298   47.7594   32.2413 C   0  0  0  0  0  0  0  0  0  0  0  0
   12.0587   48.2848   29.9680 C   0  0  0  0  0  0  0  0  0  0  0  0
   10.9137   50.0279   28.6890 N   0  0  0  0  0  0  0  0  0  0  0  0
   12.2507   47.5450   31.1359 C   0  0  0  0  0  0  0  0  0  0  0  0
   11.1769   49.4521   27.4675 O   0  0  0  0  0  0  0  0  0  0  0  0
   10.8100   51.2698   28.7595 O   0  0  0  0  0  0  0  0  0  0  0  0
    8.5367   39.1400   34.0140 O   0  0  0  0  0  0  0  0  0  0  0  0
   10.9792   40.0884   33.6886 O   0  0  0  0  0  0  0  0  0  0  0  0
   10.8017   40.0950   32.2898 C   0  0  0  0  0  0  0  0  0  0  0  0
   11.5885   38.9267   31.7041 C   0  0  0  0  0  0  0  0  0  0  0  0
   12.9237   38.9446   32.1722 O   0  0  0  0  0  0  0  0  0  0  0  0
   11.0029   37.5727   32.0908 C   0  0  0  0  0  0  0  0  0  0  0  0
   13.3555   37.5960   32.2595 C   0  0  0  0  0  0  0  0  0  0  0  0
    9.9379   37.1847   31.2657 O   0  0  0  0  0  0  0  0  0  0  0  0
   12.1931   36.6770   31.8952 C   0  0  0  0  0  0  0  0  0  0  0  0
   13.8028   37.2977   33.6186 N   0  0  0  0  0  0  0  0  0  0  0  0
   12.2918   36.2396   30.5587 O   0  0  0  0  0  0  0  0  0  0  0  0
   14.7926   36.4727   33.9858 C   0  0  0  0  0  0  0  0  0  0  0  0
   13.2750   37.7302   34.7935 C   0  0  0  0  0  0  0  0  0  0  0  0
   15.6240   35.7586   33.1857 N   0  0  0  0  0  0  0  0  0  0  0  0
   14.8721   36.4408   35.3326 C   0  0  0  0  0  0  0  0  0  0  0  0
   13.9204   37.2263   35.8802 N   0  0  0  0  0  0  0  0  0  0  0  0
   16.5870   34.9925   33.7800 C   0  0  0  0  0  0  0  0  0  0  0  0
   15.8572   35.6717   35.9441 C   0  0  0  0  0  0  0  0  0  0  0  0
   16.7022   34.9586   35.1437 N   0  0  0  0  0  0  0  0  0  0  0  0
   16.0097   35.6384   37.3561 N   0  0  0  0  0  0  0  0  0  0  0  0
    7.6678   44.0687   34.0534 H   0  0  0  0  0  0  0  0  0  0  0  0
    9.2310   45.3304   35.3758 H   0  0  0  0  0  0  0  0  0  0  0  0
    8.6887   46.1710   34.0546 H   0  0  0  0  0  0  0  0  0  0  0  0
    8.5125   43.0885   31.8669 H   0  0  0  0  0  0  0  0  0  0  0  0
    9.9824   44.0998   31.9911 H   0  0  0  0  0  0  0  0  0  0  0  0
    8.5724   46.1573   31.7940 H   0  0  0  0  0  0  0  0  0  0  0  0
    8.5157   45.0843   30.3776 H   0  0  0  0  0  0  0  0  0  0  0  0
    6.3165   45.0890   32.5444 H   0  0  0  0  0  0  0  0  0  0  0  0
    6.3140   44.1776   30.9947 H   0  0  0  0  0  0  0  0  0  0  0  0
    4.9165   46.2575   30.9157 H   0  0  0  0  0  0  0  0  0  0  0  0
    6.2463   46.2853   29.7189 H   0  0  0  0  0  0  0  0  0  0  0  0
    6.2679   47.7498   32.4178 H   0  0  0  0  0  0  0  0  0  0  0  0
    9.1132   51.1953   31.6112 H   0  0  0  0  0  0  0  0  0  0  0  0
    8.7482   50.7195   29.9211 H   0  0  0  0  0  0  0  0  0  0  0  0
    9.7574   48.8311   33.0369 H   0  0  0  0  0  0  0  0  0  0  0  0
   11.5829   47.1876   33.1475 H   0  0  0  0  0  0  0  0  0  0  0  0
   12.7238   48.1231   29.1292 H   0  0  0  0  0  0  0  0  0  0  0  0
   13.0450   46.8115   31.1872 H   0  0  0  0  0  0  0  0  0  0  0  0
    9.7473   40.0380   31.9299 H   0  0  0  0  0  0  0  0  0  0  0  0
   11.2242   41.0429   31.8928 H   0  0  0  0  0  0  0  0  0  0  0  0
   11.5928   39.0433   30.5965 H   0  0  0  0  0  0  0  0  0  0  0  0
   10.7003   37.5444   33.1640 H   0  0  0  0  0  0  0  0  0  0  0  0
   14.2051   37.4478   31.5560 H   0  0  0  0  0  0  0  0  0  0  0  0
    9.1374   37.6723   31.5905 H   0  0  0  0  0  0  0  0  0  0  0  0
   12.1305   35.7856   32.5586 H   0  0  0  0  0  0  0  0  0  0  0  0
   12.4606   37.0186   29.9674 H   0  0  0  0  0  0  0  0  0  0  0  0
   12.4327   38.4001   34.8694 H   0  0  0  0  0  0  0  0  0  0  0  0
   17.2666   34.4146   33.1690 H   0  0  0  0  0  0  0  0  0  0  0  0
   15.3754   36.1866   37.9788 H   0  0  0  0  0  0  0  0  0  0  0  0
   16.7634   35.0601   37.7894 H   0  0  0  0  0  0  0  0  0  0  0  0
  1  2  2  0
  1  3  1  0
  3  4  1  0
  4  5  1  0
  6  1  1  0
  7  6  1  0
  6  8  1  0
  8  9  1  0
  9 10  1  0
 10 11  1  0
 11 12  1  0
 12 13  1  0
 13 14  1  0
 13 15  2  0
 14 16  1  0
 16 17  1  0
 17 18  2  0
 19 17  1  0
 18 20  1  0
 21 19  2  0
 19 22  1  0
 20 23  2  0
 23 21  1  0
 22 24  1  0
 22 25  2  0
  4 26  2  0
  4 27  1  0
 28 27  1  0
 28 29  1  0
 29 30  1  0
 29 31  1  0
 30 32  1  0
 31 33  1  0
 31 34  1  0
 34 32  1  0
 32 35  1  0
 34 36  1  0
 37 35  1  0
 38 35  1  0
 39 37  2  0
 37 40  1  0
 41 38  2  0
 42 39  1  0
 40 43  2  0
 40 41  1  0
 44 42  2  0
 44 43  1  0
 43 45  1  0
  6 46  1  6
  7 47  1  0
  7 48  1  0
  8 49  1  0
  8 50  1  0
  9 51  1  0
  9 52  1  0
 10 53  1  0
 10 54  1  0
 11 55  1  0
 11 56  1  0
 12 57  1  0
 16 58  1  0
 16 59  1  0
 18 60  1  0
 20 61  1  0
 21 62  1  0
 23 63  1  0
 28 64  1  0
 28 65  1  0
 29 66  1  0
 31 67  1  0
 32 68  1  0
 33 69  1  0
 34 70  1  0
 36 71  1  0
 38 72  1  0
 42 73  1  0
 45 74  1  0
 45 75  1  0
M  CHG  3   5  -1  22   1  24  -1
M  END
>  <EmbedRMS>  (481) 
0.076578879702

$$$$

     RDKit          3D

 75 78  0  0  0  0  0  0  0  0999 V2000
    9.4332   42.9366   34.3464 C   0  0  0  0  0  0  0  0  0  0  0  0
   10.4908   43.0331   35.0319 O   0  0  0  0  0  0  0  0  0  0  0  0
    8.8559   41.7105   34.0306 O   0  0  0  0  0  0  0  0  0  0  0  0
    9.4931   40.2143   34.4709 P   0  0  0  0  0  0  0  0  0  0  0  0
    9.7288   40.1729   36.1318 O   0  0  0  0  0  0  0  0  0  0  0  0
    8.7506   44.1349   33.7741 C   0  0  1  0  0  0  0  0  0  0  0  0
    9.2963   45.3821   34.3133 N   0  0  0  0  0  0  0  0  0  0  0  0
    8.8893   44.0527   32.2359 C   0  0  0  0  0  0  0  0  0  0  0  0
    8.2028   45.1823   31.4615 C   0  0  0  0  0  0  0  0  0  0  0  0
    6.6653   45.1046   31.4855 C   0  0  0  0  0  0  0  0  0  0  0  0
    6.0269   46.3226   30.8105 C   0  0  0  0  0  0  0  0  0  0  0  0
    6.5062   47.5640   31.4180 N   0  0  0  0  0  0  0  0  0  0  0  0
    7.2441   48.5390   30.6837 C   0  0  0  0  0  0  0  0  0  0  0  0
    7.5962   49.7387   31.3073 O   0  0  0  0  0  0  0  0  0  0  0  0
    7.5932   48.3118   29.4935 O   0  0  0  0  0  0  0  0  0  0  0  0
    8.3479   50.7572   30.6509 C   0  0  0  0  0  0  0  0  0  0  0  0
    8.5929   51.9468   31.5553 C   0  0  0  0  0  0  0  0  0  0  0  0
    7.8493   52.0968   32.7449 C   0  0  0  0  0  0  0  0  0  0  0  0
    9.5780   52.9216   31.2331 C   0  0  0  0  0  0  0  0  0  0  0  0
    8.0958   53.1621   33.6116 C   0  0  0  0  0  0  0  0  0  0  0  0
    9.8199   53.9768   32.1308 C   0  0  0  0  0  0  0  0  0  0  0  0
   10.3484   52.8564   30.0183 N   0  0  0  0  0  0  0  0  0  0  0  0
    9.0835   54.0956   33.3091 C   0  0  0  0  0  0  0  0  0  0  0  0
   11.6196   53.3821   29.9822 O   0  0  0  0  0  0  0  0  0  0  0  0
    9.8242   52.4840   28.9486 O   0  0  0  0  0  0  0  0  0  0  0  0
    8.5366   39.1385   34.0140 O   0  0  0  0  0  0  0  0  0  0  0  0
   10.9795   40.0875   33.6890 O   0  0  0  0  0  0  0  0  0  0  0  0
   10.8017   40.0947   32.2902 C   0  0  0  0  0  0  0  0  0  0  0  0
   11.5885   38.9266   31.7041 C   0  0  0  0  0  0  0  0  0  0  0  0
   12.9237   38.9445   32.1721 O   0  0  0  0  0  0  0  0  0  0  0  0
   11.0029   37.5725   32.0907 C   0  0  0  0  0  0  0  0  0  0  0  0
   13.3555   37.5960   32.2594 C   0  0  0  0  0  0  0  0  0  0  0  0
    9.9380   37.1846   31.2656 O   0  0  0  0  0  0  0  0  0  0  0  0
   12.1932   36.6769   31.8952 C   0  0  0  0  0  0  0  0  0  0  0  0
   13.8028   37.2977   33.6186 N   0  0  0  0  0  0  0  0  0  0  0  0
   12.2918   36.2396   30.5587 O   0  0  0  0  0  0  0  0  0  0  0  0
   14.7926   36.4727   33.9858 C   0  0  0  0  0  0  0  0  0  0  0  0
   13.2750   37.7302   34.7935 C   0  0  0  0  0  0  0  0  0  0  0  0
   15.6241   35.7586   33.1857 N   0  0  0  0  0  0  0  0  0  0  0  0
   14.8721   36.4408   35.3326 C   0  0  0  0  0  0  0  0  0  0  0  0
   13.9204   37.2263   35.8802 N   0  0  0  0  0  0  0  0  0  0  0  0
   16.5870   34.9924   33.7800 C   0  0  0  0  0  0  0  0  0  0  0  0
   15.8572   35.6717   35.9441 C   0  0  0  0  0  0  0  0  0  0  0  0
   16.7022   34.9585   35.1437 N   0  0  0  0  0  0  0  0  0  0  0  0
   16.0097   35.6384   37.3561 N   0  0  0  0  0  0  0  0  0  0  0  0
    7.6770   44.0707   34.0504 H   0  0  0  0  0  0  0  0  0  0  0  0
    9.1827   45.3822   35.3535 H   0  0  0  0  0  0  0  0  0  0  0  0
   10.3192   45.4408   34.0999 H   0  0  0  0  0  0  0  0  0  0  0  0
    9.9711   44.0681   31.9740 H   0  0  0  0  0  0  0  0  0  0  0  0
    8.4817   43.0850   31.8670 H   0  0  0  0  0  0  0  0  0  0  0  0
    8.5384   45.1362   30.4022 H   0  0  0  0  0  0  0  0  0  0  0  0
    8.5552   46.1510   31.8742 H   0  0  0  0  0  0  0  0  0  0  0  0
    6.3296   44.1799   30.9678 H   0  0  0  0  0  0  0  0  0  0  0  0
    6.3020   45.0643   32.5334 H   0  0  0  0  0  0  0  0  0  0  0  0
    4.9235   46.2672   30.9265 H   0  0  0  0  0  0  0  0  0  0  0  0
    6.2465   46.2897   29.7217 H   0  0  0  0  0  0  0  0  0  0  0  0
    6.2822   47.7530   32.4209 H   0  0  0  0  0  0  0  0  0  0  0  0
    9.3256   50.3240   30.3463 H   0  0  0  0  0  0  0  0  0  0  0  0
    7.7968   51.0956   29.7473 H   0  0  0  0  0  0  0  0  0  0  0  0
    7.0748   51.3904   33.0138 H   0  0  0  0  0  0  0  0  0  0  0  0
    7.5206   53.2616   34.5232 H   0  0  0  0  0  0  0  0  0  0  0  0
   10.5705   54.7244   31.9078 H   0  0  0  0  0  0  0  0  0  0  0  0
    9.2744   54.9188   33.9856 H   0  0  0  0  0  0  0  0  0  0  0  0
   11.2241   41.0427   31.8934 H   0  0  0  0  0  0  0  0  0  0  0  0
    9.7472   40.0378   31.9304 H   0  0  0  0  0  0  0  0  0  0  0  0
   11.5927   39.0434   30.5965 H   0  0  0  0  0  0  0  0  0  0  0  0
   10.7003   37.5442   33.1640 H   0  0  0  0  0  0  0  0  0  0  0  0
   14.2052   37.4477   31.5560 H   0  0  0  0  0  0  0  0  0  0  0  0
    9.1374   37.6722   31.5905 H   0  0  0  0  0  0  0  0  0  0  0  0
   12.1305   35.7855   32.5585 H   0  0  0  0  0  0  0  0  0  0  0  0
   12.4607   37.0186   29.9674 H   0  0  0  0  0  0  0  0  0  0  0  0
   12.4327   38.4000   34.8694 H   0  0  0  0  0  0  0  0  0  0  0  0
   17.2666   34.4146   33.1690 H   0  0  0  0  0  0  0  0  0  0  0  0
   15.3754   36.1866   37.9788 H   0  0  0  0  0  0  0  0  0  0  0  0
   16.7634   35.0601   37.7894 H   0  0  0  0  0  0  0  0  0  0  0  0
  1  2  2  0
  1  3  1  0
  3  4  1  0
  4  5  1  0
  6  1  1  0
  7  6  1  0
  6  8  1  0
  8  9  1  0
  9 10  1  0
 10 11  1  0
 11 12  1  0
 12 13  1  0
 13 14  1  0
 13 15  2  0
 14 16  1  0
 16 17  1  0
 17 18  2  0
 19 17  1  0
 18 20  1  0
 21 19  2  0
 19 22  1  0
 20 23  2  0
 23 21  1  0
 22 24  1  0
 22 25  2  0
  4 26  2  0
  4 27  1  0
 28 27  1  0
 28 29  1  0
 29 30  1  0
 29 31  1  0
 30 32  1  0
 31 33  1  0
 31 34  1  0
 34 32  1  0
 32 35  1  0
 34 36  1  0
 37 35  1  0
 38 35  1  0
 39 37  2  0
 37 40  1  0
 41 38  2  0
 42 39  1  0
 40 43  2  0
 40 41  1  0
 44 42  2  0
 44 43  1  0
 43 45  1  0
  6 46  1  6
  7 47  1  0
  7 48  1  0
  8 49  1  0
  8 50  1  0
  9 51  1  0
  9 52  1  0
 10 53  1  0
 10 54  1  0
 11 55  1  0
 11 56  1  0
 12 57  1  0
 16 58  1  0
 16 59  1  0
 18 60  1  0
 20 61  1  0
 21 62  1  0
 23 63  1  0
 28 64  1  0
 28 65  1  0
 29 66  1  0
 31 67  1  0
 32 68  1  0
 33 69  1  0
 34 70  1  0
 36 71  1  0
 38 72  1  0
 42 73  1  0
 45 74  1  0
 45 75  1  0
M  CHG  3   5  -1  22   1  24  -1
M  END
>  <EmbedRMS>  (482) 
0.0757126643334

$$$$

     RDKit          3D

 75 78  0  0  0  0  0  0  0  0999 V2000
    9.4300   42.9390   34.3431 C   0  0  0  0  0  0  0  0  0  0  0  0
   10.4909   43.0384   35.0235 O   0  0  0  0  0  0  0  0  0  0  0  0
    8.8552   41.7111   34.0283 O   0  0  0  0  0  0  0  0  0  0  0  0
    9.4944   40.2151   34.4676 P   0  0  0  0  0  0  0  0  0  0  0  0
    9.7310   40.1737   36.1287 O   0  0  0  0  0  0  0  0  0  0  0  0
    8.7408   44.1361   33.7774 C   0  0  1  0  0  0  0  0  0  0  0  0
    9.2995   45.3700   34.3306 N   0  0  0  0  0  0  0  0  0  0  0  0
    8.8969   44.0586   32.2390 C   0  0  0  0  0  0  0  0  0  0  0  0
    8.2038   45.1687   31.4393 C   0  0  0  0  0  0  0  0  0  0  0  0
    6.6666   45.1070   31.4912 C   0  0  0  0  0  0  0  0  0  0  0  0
    6.0298   46.3246   30.8151 C   0  0  0  0  0  0  0  0  0  0  0  0
    6.5109   47.5651   31.4241 N   0  0  0  0  0  0  0  0  0  0  0  0
    7.2287   48.5519   30.6737 C   0  0  0  0  0  0  0  0  0  0  0  0
    7.5273   49.8121   31.2089 O   0  0  0  0  0  0  0  0  0  0  0  0
    7.6014   48.2990   29.4985 O   0  0  0  0  0  0  0  0  0  0  0  0
    7.1405   50.2576   32.5083 C   0  0  0  0  0  0  0  0  0  0  0  0
    8.0194   49.6473   33.5775 C   0  0  0  0  0  0  0  0  0  0  0  0
    9.4115   49.6302   33.3735 C   0  0  0  0  0  0  0  0  0  0  0  0
    7.4914   49.1028   34.7768 C   0  0  0  0  0  0  0  0  0  0  0  0
   10.2635   49.0529   34.3163 C   0  0  0  0  0  0  0  0  0  0  0  0
    8.3640   48.5146   35.7089 C   0  0  0  0  0  0  0  0  0  0  0  0
    6.0899   49.1676   35.0805 N   0  0  0  0  0  0  0  0  0  0  0  0
    9.7405   48.4931   35.4803 C   0  0  0  0  0  0  0  0  0  0  0  0
    5.4237   50.3686   34.9980 O   0  0  0  0  0  0  0  0  0  0  0  0
    5.5278   48.2028   35.6386 O   0  0  0  0  0  0  0  0  0  0  0  0
    8.5376   39.1388   34.0124 O   0  0  0  0  0  0  0  0  0  0  0  0
   10.9798   40.0878   33.6827 O   0  0  0  0  0  0  0  0  0  0  0  0
   10.8002   40.0906   32.2831 C   0  0  0  0  0  0  0  0  0  0  0  0
   11.5958   38.9271   31.6963 C   0  0  0  0  0  0  0  0  0  0  0  0
   12.9239   38.9409   32.1767 O   0  0  0  0  0  0  0  0  0  0  0  0
   11.0062   37.5719   32.0794 C   0  0  0  0  0  0  0  0  0  0  0  0
   13.3506   37.5905   32.2614 C   0  0  0  0  0  0  0  0  0  0  0  0
    9.9064   37.1793   31.2946 O   0  0  0  0  0  0  0  0  0  0  0  0
   12.1920   36.6672   31.9003 C   0  0  0  0  0  0  0  0  0  0  0  0
   13.8017   37.2948   33.6193 N   0  0  0  0  0  0  0  0  0  0  0  0
   12.3133   36.2788   30.5560 O   0  0  0  0  0  0  0  0  0  0  0  0
   14.7927   36.4716   33.9862 C   0  0  0  0  0  0  0  0  0  0  0  0
   13.2746   37.7284   34.7941 C   0  0  0  0  0  0  0  0  0  0  0  0
   15.6240   35.7576   33.1859 N   0  0  0  0  0  0  0  0  0  0  0  0
   14.8728   36.4406   35.3330 C   0  0  0  0  0  0  0  0  0  0  0  0
   13.9209   37.2258   35.8808 N   0  0  0  0  0  0  0  0  0  0  0  0
   16.5874   34.9920   33.7802 C   0  0  0  0  0  0  0  0  0  0  0  0
   15.8579   35.6716   35.9443 C   0  0  0  0  0  0  0  0  0  0  0  0
   16.7028   34.9584   35.1439 N   0  0  0  0  0  0  0  0  0  0  0  0
   16.0103   35.6383   37.3563 N   0  0  0  0  0  0  0  0  0  0  0  0
    7.6663   44.0629   34.0530 H   0  0  0  0  0  0  0  0  0  0  0  0
    8.6816   46.1617   34.0435 H   0  0  0  0  0  0  0  0  0  0  0  0
    9.2186   45.3319   35.3734 H   0  0  0  0  0  0  0  0  0  0  0  0
    9.9817   44.0903   31.9914 H   0  0  0  0  0  0  0  0  0  0  0  0
    8.5093   43.0834   31.8679 H   0  0  0  0  0  0  0  0  0  0  0  0
    8.5791   46.1518   31.7891 H   0  0  0  0  0  0  0  0  0  0  0  0
    8.5158   45.0743   30.3760 H   0  0  0  0  0  0  0  0  0  0  0  0
    6.3203   45.0835   32.5451 H   0  0  0  0  0  0  0  0  0  0  0  0
    6.3127   44.1798   30.9905 H   0  0  0  0  0  0  0  0  0  0  0  0
    4.9265   46.2703   30.9339 H   0  0  0  0  0  0  0  0  0  0  0  0
    6.2463   46.2908   29.7258 H   0  0  0  0  0  0  0  0  0  0  0  0
    6.2903   47.7253   32.4310 H   0  0  0  0  0  0  0  0  0  0  0  0
    7.2718   51.3591   32.5473 H   0  0  0  0  0  0  0  0  0  0  0  0
    6.0619   50.0502   32.6561 H   0  0  0  0  0  0  0  0  0  0  0  0
    9.8391   50.0579   32.4749 H   0  0  0  0  0  0  0  0  0  0  0  0
   11.3317   49.0384   34.1426 H   0  0  0  0  0  0  0  0  0  0  0  0
    7.9771   48.0910   36.6272 H   0  0  0  0  0  0  0  0  0  0  0  0
   10.4028   48.0437   36.2089 H   0  0  0  0  0  0  0  0  0  0  0  0
   11.2115   41.0420   31.8829 H   0  0  0  0  0  0  0  0  0  0  0  0
    9.7455   40.0168   31.9262 H   0  0  0  0  0  0  0  0  0  0  0  0
   11.6246   39.0449   30.5888 H   0  0  0  0  0  0  0  0  0  0  0  0
   10.7050   37.5581   33.1500 H   0  0  0  0  0  0  0  0  0  0  0  0
   14.1985   37.4426   31.5553 H   0  0  0  0  0  0  0  0  0  0  0  0
   10.0893   37.4057   30.3459 H   0  0  0  0  0  0  0  0  0  0  0  0
   12.1337   35.7754   32.5703 H   0  0  0  0  0  0  0  0  0  0  0  0
   11.7934   35.4394   30.4514 H   0  0  0  0  0  0  0  0  0  0  0  0
   12.4314   38.3973   34.8699 H   0  0  0  0  0  0  0  0  0  0  0  0
   17.2669   34.4142   33.1692 H   0  0  0  0  0  0  0  0  0  0  0  0
   16.7638   35.0599   37.7896 H   0  0  0  0  0  0  0  0  0  0  0  0
   15.3759   36.1865   37.9790 H   0  0  0  0  0  0  0  0  0  0  0  0
  1  2  2  0
  1  3  1  0
  3  4  1  0
  4  5  1  0
  6  1  1  0
  7  6  1  0
  6  8  1  0
  8  9  1  0
  9 10  1  0
 10 11  1  0
 11 12  1  0
 12 13  1  0
 13 14  1  0
 13 15  2  0
 14 16  1  0
 16 17  1  0
 17 18  2  0
 19 17  1  0
 18 20  1  0
 21 19  2  0
 19 22  1  0
 20 23  2  0
 23 21  1  0
 22 24  1  0
 22 25  2  0
  4 26  2  0
  4 27  1  0
 28 27  1  0
 28 29  1  0
 29 30  1  0
 29 31  1  0
 30 32  1  0
 31 33  1  0
 31 34  1  0
 34 32  1  0
 32 35  1  0
 34 36  1  0
 37 35  1  0
 38 35  1  0
 39 37  2  0
 37 40  1  0
 41 38  2  0
 42 39  1  0
 40 43  2  0
 40 41  1  0
 44 42  2  0
 44 43  1  0
 43 45  1  0
  6 46  1  6
  7 47  1  0
  7 48  1  0
  8 49  1  0
  8 50  1  0
  9 51  1  0
  9 52  1  0
 10 53  1  0
 10 54  1  0
 11 55  1  0
 11 56  1  0
 12 57  1  0
 16 58  1  0
 16 59  1  0
 18 60  1  0
 20 61  1  0
 21 62  1  0
 23 63  1  0
 28 64  1  0
 28 65  1  0
 29 66  1  0
 31 67  1  0
 32 68  1  0
 33 69  1  0
 34 70  1  0
 36 71  1  0
 38 72  1  0
 42 73  1  0
 45 74  1  0
 45 75  1  0
M  CHG  3   5  -1  22   1  24  -1
M  END
>  <EmbedRMS>  (483) 
0.0739918641773

$$$$

     RDKit          3D

 75 78  0  0  0  0  0  0  0  0999 V2000
    9.4332   42.9366   34.3464 C   0  0  0  0  0  0  0  0  0  0  0  0
   10.4908   43.0332   35.0319 O   0  0  0  0  0  0  0  0  0  0  0  0
    8.8559   41.7105   34.0306 O   0  0  0  0  0  0  0  0  0  0  0  0
    9.4931   40.2143   34.4708 P   0  0  0  0  0  0  0  0  0  0  0  0
    9.7288   40.1729   36.1318 O   0  0  0  0  0  0  0  0  0  0  0  0
    8.7506   44.1349   33.7741 C   0  0  1  0  0  0  0  0  0  0  0  0
    9.2963   45.3822   34.3133 N   0  0  0  0  0  0  0  0  0  0  0  0
    8.8893   44.0527   32.2359 C   0  0  0  0  0  0  0  0  0  0  0  0
    8.2028   45.1824   31.4615 C   0  0  0  0  0  0  0  0  0  0  0  0
    6.6653   45.1045   31.4854 C   0  0  0  0  0  0  0  0  0  0  0  0
    6.0269   46.3225   30.8103 C   0  0  0  0  0  0  0  0  0  0  0  0
    6.5060   47.5639   31.4179 N   0  0  0  0  0  0  0  0  0  0  0  0
    7.2446   48.5386   30.6840 C   0  0  0  0  0  0  0  0  0  0  0  0
    7.5998   49.7367   31.3092 O   0  0  0  0  0  0  0  0  0  0  0  0
    7.5929   48.3120   29.4935 O   0  0  0  0  0  0  0  0  0  0  0  0
    8.3562   50.7525   30.6559 C   0  0  0  0  0  0  0  0  0  0  0  0
    8.6300   51.8806   31.6212 C   0  0  0  0  0  0  0  0  0  0  0  0
    9.1822   51.5615   32.8755 C   0  0  0  0  0  0  0  0  0  0  0  0
    8.3251   53.2360   31.3259 C   0  0  0  0  0  0  0  0  0  0  0  0
    9.3845   52.5514   33.8383 C   0  0  0  0  0  0  0  0  0  0  0  0
    8.5161   54.2149   32.3160 C   0  0  0  0  0  0  0  0  0  0  0  0
    7.8538   53.6442   30.0327 N   0  0  0  0  0  0  0  0  0  0  0  0
    9.0419   53.8739   33.5629 C   0  0  0  0  0  0  0  0  0  0  0  0
    6.9152   54.6453   29.9333 O   0  0  0  0  0  0  0  0  0  0  0  0
    8.4644   53.2874   29.0041 O   0  0  0  0  0  0  0  0  0  0  0  0
    8.5366   39.1386   34.0140 O   0  0  0  0  0  0  0  0  0  0  0  0
   10.9795   40.0875   33.6890 O   0  0  0  0  0  0  0  0  0  0  0  0
   10.8017   40.0947   32.2902 C   0  0  0  0  0  0  0  0  0  0  0  0
   11.5885   38.9266   31.7041 C   0  0  0  0  0  0  0  0  0  0  0  0
   12.9237   38.9445   32.1721 O   0  0  0  0  0  0  0  0  0  0  0  0
   11.0029   37.5725   32.0908 C   0  0  0  0  0  0  0  0  0  0  0  0
   13.3555   37.5960   32.2594 C   0  0  0  0  0  0  0  0  0  0  0  0
    9.9380   37.1846   31.2656 O   0  0  0  0  0  0  0  0  0  0  0  0
   12.1932   36.6769   31.8952 C   0  0  0  0  0  0  0  0  0  0  0  0
   13.8028   37.2977   33.6186 N   0  0  0  0  0  0  0  0  0  0  0  0
   12.2918   36.2396   30.5587 O   0  0  0  0  0  0  0  0  0  0  0  0
   14.7926   36.4727   33.9858 C   0  0  0  0  0  0  0  0  0  0  0  0
   13.2750   37.7302   34.7935 C   0  0  0  0  0  0  0  0  0  0  0  0
   15.6241   35.7586   33.1857 N   0  0  0  0  0  0  0  0  0  0  0  0
   14.8721   36.4408   35.3326 C   0  0  0  0  0  0  0  0  0  0  0  0
   13.9204   37.2263   35.8802 N   0  0  0  0  0  0  0  0  0  0  0  0
   16.5870   34.9924   33.7800 C   0  0  0  0  0  0  0  0  0  0  0  0
   15.8572   35.6717   35.9441 C   0  0  0  0  0  0  0  0  0  0  0  0
   16.7022   34.9585   35.1437 N   0  0  0  0  0  0  0  0  0  0  0  0
   16.0097   35.6384   37.3561 N   0  0  0  0  0  0  0  0  0  0  0  0
    7.6770   44.0708   34.0504 H   0  0  0  0  0  0  0  0  0  0  0  0
   10.3192   45.4409   34.0999 H   0  0  0  0  0  0  0  0  0  0  0  0
    9.1827   45.3823   35.3534 H   0  0  0  0  0  0  0  0  0  0  0  0
    9.9711   44.0681   31.9740 H   0  0  0  0  0  0  0  0  0  0  0  0
    8.4817   43.0851   31.8670 H   0  0  0  0  0  0  0  0  0  0  0  0
    8.5551   46.1511   31.8743 H   0  0  0  0  0  0  0  0  0  0  0  0
    8.5385   45.1364   30.4023 H   0  0  0  0  0  0  0  0  0  0  0  0
    6.3297   44.1799   30.9677 H   0  0  0  0  0  0  0  0  0  0  0  0
    6.3019   45.0642   32.5333 H   0  0  0  0  0  0  0  0  0  0  0  0
    4.9234   46.2670   30.9262 H   0  0  0  0  0  0  0  0  0  0  0  0
    6.2465   46.2897   29.7215 H   0  0  0  0  0  0  0  0  0  0  0  0
    6.2825   47.7524   32.4210 H   0  0  0  0  0  0  0  0  0  0  0  0
    7.7871   51.0893   29.7670 H   0  0  0  0  0  0  0  0  0  0  0  0
    9.3272   50.3311   30.3166 H   0  0  0  0  0  0  0  0  0  0  0  0
    9.4400   50.5370   33.1153 H   0  0  0  0  0  0  0  0  0  0  0  0
    9.8004   52.2906   34.8029 H   0  0  0  0  0  0  0  0  0  0  0  0
    8.2825   55.2520   32.1104 H   0  0  0  0  0  0  0  0  0  0  0  0
    9.1953   54.6393   34.3128 H   0  0  0  0  0  0  0  0  0  0  0  0
    9.7472   40.0378   31.9304 H   0  0  0  0  0  0  0  0  0  0  0  0
   11.2242   41.0427   31.8934 H   0  0  0  0  0  0  0  0  0  0  0  0
   11.5927   39.0434   30.5965 H   0  0  0  0  0  0  0  0  0  0  0  0
   10.7003   37.5442   33.1640 H   0  0  0  0  0  0  0  0  0  0  0  0
   14.2052   37.4477   31.5560 H   0  0  0  0  0  0  0  0  0  0  0  0
    9.1374   37.6722   31.5905 H   0  0  0  0  0  0  0  0  0  0  0  0
   12.1305   35.7855   32.5585 H   0  0  0  0  0  0  0  0  0  0  0  0
   12.4606   37.0186   29.9674 H   0  0  0  0  0  0  0  0  0  0  0  0
   12.4327   38.4000   34.8694 H   0  0  0  0  0  0  0  0  0  0  0  0
   17.2666   34.4146   33.1690 H   0  0  0  0  0  0  0  0  0  0  0  0
   15.3754   36.1866   37.9788 H   0  0  0  0  0  0  0  0  0  0  0  0
   16.7634   35.0601   37.7894 H   0  0  0  0  0  0  0  0  0  0  0  0
  1  2  2  0
  1  3  1  0
  3  4  1  0
  4  5  1  0
  6  1  1  0
  7  6  1  0
  6  8  1  0
  8  9  1  0
  9 10  1  0
 10 11  1  0
 11 12  1  0
 12 13  1  0
 13 14  1  0
 13 15  2  0
 14 16  1  0
 16 17  1  0
 17 18  2  0
 19 17  1  0
 18 20  1  0
 21 19  2  0
 19 22  1  0
 20 23  2  0
 23 21  1  0
 22 24  1  0
 22 25  2  0
  4 26  2  0
  4 27  1  0
 28 27  1  0
 28 29  1  0
 29 30  1  0
 29 31  1  0
 30 32  1  0
 31 33  1  0
 31 34  1  0
 34 32  1  0
 32 35  1  0
 34 36  1  0
 37 35  1  0
 38 35  1  0
 39 37  2  0
 37 40  1  0
 41 38  2  0
 42 39  1  0
 40 43  2  0
 40 41  1  0
 44 42  2  0
 44 43  1  0
 43 45  1  0
  6 46  1  6
  7 47  1  0
  7 48  1  0
  8 49  1  0
  8 50  1  0
  9 51  1  0
  9 52  1  0
 10 53  1  0
 10 54  1  0
 11 55  1  0
 11 56  1  0
 12 57  1  0
 16 58  1  0
 16 59  1  0
 18 60  1  0
 20 61  1  0
 21 62  1  0
 23 63  1  0
 28 64  1  0
 28 65  1  0
 29 66  1  0
 31 67  1  0
 32 68  1  0
 33 69  1  0
 34 70  1  0
 36 71  1  0
 38 72  1  0
 42 73  1  0
 45 74  1  0
 45 75  1  0
M  CHG  3   5  -1  22   1  24  -1
M  END
>  <EmbedRMS>  (484) 
0.0757269538111

$$$$

     RDKit          3D

 75 78  0  0  0  0  0  0  0  0999 V2000
    9.4331   42.9367   34.3465 C   0  0  0  0  0  0  0  0  0  0  0  0
   10.4907   43.0333   35.0319 O   0  0  0  0  0  0  0  0  0  0  0  0
    8.8558   41.7105   34.0306 O   0  0  0  0  0  0  0  0  0  0  0  0
    9.4931   40.2144   34.4708 P   0  0  0  0  0  0  0  0  0  0  0  0
    9.7288   40.1730   36.1318 O   0  0  0  0  0  0  0  0  0  0  0  0
    8.7505   44.1350   33.7742 C   0  0  1  0  0  0  0  0  0  0  0  0
    9.2961   45.3823   34.3133 N   0  0  0  0  0  0  0  0  0  0  0  0
    8.8892   44.0528   32.2359 C   0  0  0  0  0  0  0  0  0  0  0  0
    8.2031   45.1827   31.4617 C   0  0  0  0  0  0  0  0  0  0  0  0
    6.6656   45.1041   31.4832 C   0  0  0  0  0  0  0  0  0  0  0  0
    6.0283   46.3232   30.8087 C   0  0  0  0  0  0  0  0  0  0  0  0
    6.5051   47.5634   31.4212 N   0  0  0  0  0  0  0  0  0  0  0  0
    7.2483   48.5414   30.6834 C   0  0  0  0  0  0  0  0  0  0  0  0
    7.6329   49.7571   31.2609 O   0  0  0  0  0  0  0  0  0  0  0  0
    7.5890   48.3083   29.4944 O   0  0  0  0  0  0  0  0  0  0  0  0
    7.3345   50.1308   32.6027 C   0  0  0  0  0  0  0  0  0  0  0  0
    7.8674   51.5161   32.8739 C   0  0  0  0  0  0  0  0  0  0  0  0
    8.8071   51.6857   33.9083 C   0  0  0  0  0  0  0  0  0  0  0  0
    7.4835   52.6432   32.0945 C   0  0  0  0  0  0  0  0  0  0  0  0
    9.3672   52.9374   34.1651 C   0  0  0  0  0  0  0  0  0  0  0  0
    8.0736   53.8917   32.3622 C   0  0  0  0  0  0  0  0  0  0  0  0
    6.5264   52.5458   31.0229 N   0  0  0  0  0  0  0  0  0  0  0  0
    9.0041   54.0371   33.3914 C   0  0  0  0  0  0  0  0  0  0  0  0
    6.6048   53.4071   29.9525 O   0  0  0  0  0  0  0  0  0  0  0  0
    5.5290   51.8024   31.1199 O   0  0  0  0  0  0  0  0  0  0  0  0
    8.5366   39.1386   34.0140 O   0  0  0  0  0  0  0  0  0  0  0  0
   10.9794   40.0875   33.6890 O   0  0  0  0  0  0  0  0  0  0  0  0
   10.8017   40.0947   32.2902 C   0  0  0  0  0  0  0  0  0  0  0  0
   11.5885   38.9266   31.7041 C   0  0  0  0  0  0  0  0  0  0  0  0
   12.9237   38.9445   32.1721 O   0  0  0  0  0  0  0  0  0  0  0  0
   11.0029   37.5726   32.0908 C   0  0  0  0  0  0  0  0  0  0  0  0
   13.3555   37.5960   32.2594 C   0  0  0  0  0  0  0  0  0  0  0  0
    9.9380   37.1846   31.2656 O   0  0  0  0  0  0  0  0  0  0  0  0
   12.1932   36.6769   31.8952 C   0  0  0  0  0  0  0  0  0  0  0  0
   13.8028   37.2977   33.6186 N   0  0  0  0  0  0  0  0  0  0  0  0
   12.2918   36.2396   30.5587 O   0  0  0  0  0  0  0  0  0  0  0  0
   14.7926   36.4727   33.9858 C   0  0  0  0  0  0  0  0  0  0  0  0
   13.2750   37.7302   34.7935 C   0  0  0  0  0  0  0  0  0  0  0  0
   15.6241   35.7586   33.1857 N   0  0  0  0  0  0  0  0  0  0  0  0
   14.8721   36.4408   35.3326 C   0  0  0  0  0  0  0  0  0  0  0  0
   13.9204   37.2263   35.8802 N   0  0  0  0  0  0  0  0  0  0  0  0
   16.5870   34.9924   33.7800 C   0  0  0  0  0  0  0  0  0  0  0  0
   15.8572   35.6717   35.9441 C   0  0  0  0  0  0  0  0  0  0  0  0
   16.7022   34.9585   35.1437 N   0  0  0  0  0  0  0  0  0  0  0  0
   16.0097   35.6384   37.3561 N   0  0  0  0  0  0  0  0  0  0  0  0
    7.6768   44.0710   34.0502 H   0  0  0  0  0  0  0  0  0  0  0  0
   10.3190   45.4410   34.1001 H   0  0  0  0  0  0  0  0  0  0  0  0
    9.1822   45.3826   35.3534 H   0  0  0  0  0  0  0  0  0  0  0  0
    8.4815   43.0853   31.8669 H   0  0  0  0  0  0  0  0  0  0  0  0
    9.9711   44.0681   31.9742 H   0  0  0  0  0  0  0  0  0  0  0  0
    8.5542   46.1513   31.8759 H   0  0  0  0  0  0  0  0  0  0  0  0
    8.5404   45.1380   30.4029 H   0  0  0  0  0  0  0  0  0  0  0  0
    6.3006   45.0617   32.5304 H   0  0  0  0  0  0  0  0  0  0  0  0
    6.3313   44.1802   30.9633 H   0  0  0  0  0  0  0  0  0  0  0  0
    4.9245   46.2668   30.9219 H   0  0  0  0  0  0  0  0  0  0  0  0
    6.2497   46.2922   29.7204 H   0  0  0  0  0  0  0  0  0  0  0  0
    6.2742   47.7247   32.4261 H   0  0  0  0  0  0  0  0  0  0  0  0
    7.7923   49.3885   33.2929 H   0  0  0  0  0  0  0  0  0  0  0  0
    6.2380   50.1146   32.7757 H   0  0  0  0  0  0  0  0  0  0  0  0
    9.1165   50.8445   34.5164 H   0  0  0  0  0  0  0  0  0  0  0  0
   10.0898   53.0531   34.9627 H   0  0  0  0  0  0  0  0  0  0  0  0
    7.8002   54.7627   31.7801 H   0  0  0  0  0  0  0  0  0  0  0  0
    9.4434   55.0062   33.5904 H   0  0  0  0  0  0  0  0  0  0  0  0
   11.2241   41.0427   31.8934 H   0  0  0  0  0  0  0  0  0  0  0  0
    9.7472   40.0378   31.9304 H   0  0  0  0  0  0  0  0  0  0  0  0
   11.5927   39.0434   30.5965 H   0  0  0  0  0  0  0  0  0  0  0  0
   10.7003   37.5442   33.1640 H   0  0  0  0  0  0  0  0  0  0  0  0
   14.2052   37.4477   31.5560 H   0  0  0  0  0  0  0  0  0  0  0  0
    9.1374   37.6722   31.5905 H   0  0  0  0  0  0  0  0  0  0  0  0
   12.1305   35.7855   32.5585 H   0  0  0  0  0  0  0  0  0  0  0  0
   12.4606   37.0186   29.9674 H   0  0  0  0  0  0  0  0  0  0  0  0
   12.4327   38.4001   34.8694 H   0  0  0  0  0  0  0  0  0  0  0  0
   17.2666   34.4146   33.1690 H   0  0  0  0  0  0  0  0  0  0  0  0
   16.7634   35.0601   37.7894 H   0  0  0  0  0  0  0  0  0  0  0  0
   15.3754   36.1866   37.9788 H   0  0  0  0  0  0  0  0  0  0  0  0
  1  2  2  0
  1  3  1  0
  3  4  1  0
  4  5  1  0
  6  1  1  0
  7  6  1  0
  6  8  1  0
  8  9  1  0
  9 10  1  0
 10 11  1  0
 11 12  1  0
 12 13  1  0
 13 14  1  0
 13 15  2  0
 14 16  1  0
 16 17  1  0
 17 18  2  0
 19 17  1  0
 18 20  1  0
 21 19  2  0
 19 22  1  0
 20 23  2  0
 23 21  1  0
 22 24  1  0
 22 25  2  0
  4 26  2  0
  4 27  1  0
 28 27  1  0
 28 29  1  0
 29 30  1  0
 29 31  1  0
 30 32  1  0
 31 33  1  0
 31 34  1  0
 34 32  1  0
 32 35  1  0
 34 36  1  0
 37 35  1  0
 38 35  1  0
 39 37  2  0
 37 40  1  0
 41 38  2  0
 42 39  1  0
 40 43  2  0
 40 41  1  0
 44 42  2  0
 44 43  1  0
 43 45  1  0
  6 46  1  6
  7 47  1  0
  7 48  1  0
  8 49  1  0
  8 50  1  0
  9 51  1  0
  9 52  1  0
 10 53  1  0
 10 54  1  0
 11 55  1  0
 11 56  1  0
 12 57  1  0
 16 58  1  0
 16 59  1  0
 18 60  1  0
 20 61  1  0
 21 62  1  0
 23 63  1  0
 28 64  1  0
 28 65  1  0
 29 66  1  0
 31 67  1  0
 32 68  1  0
 33 69  1  0
 34 70  1  0
 36 71  1  0
 38 72  1  0
 42 73  1  0
 45 74  1  0
 45 75  1  0
M  CHG  3   5  -1  22   1  24  -1
M  END
>  <EmbedRMS>  (485) 
0.0757668025721

$$$$

     RDKit          3D

 75 78  0  0  0  0  0  0  0  0999 V2000
    9.4310   42.9412   34.3438 C   0  0  0  0  0  0  0  0  0  0  0  0
   10.4884   43.0412   35.0293 O   0  0  0  0  0  0  0  0  0  0  0  0
    8.8557   41.7129   34.0296 O   0  0  0  0  0  0  0  0  0  0  0  0
    9.4933   40.2163   34.4702 P   0  0  0  0  0  0  0  0  0  0  0  0
    9.7295   40.1743   36.1311 O   0  0  0  0  0  0  0  0  0  0  0  0
    8.7482   44.1360   33.7718 C   0  0  1  0  0  0  0  0  0  0  0  0
    9.3035   45.3667   34.3384 N   0  0  0  0  0  0  0  0  0  0  0  0
    8.8892   44.0515   32.2304 C   0  0  0  0  0  0  0  0  0  0  0  0
    8.2021   45.1718   31.4424 C   0  0  0  0  0  0  0  0  0  0  0  0
    6.6647   45.1043   31.4833 C   0  0  0  0  0  0  0  0  0  0  0  0
    6.0257   46.3266   30.8159 C   0  0  0  0  0  0  0  0  0  0  0  0
    6.5157   47.5630   31.4252 N   0  0  0  0  0  0  0  0  0  0  0  0
    7.2282   48.5520   30.6747 C   0  0  0  0  0  0  0  0  0  0  0  0
    7.5487   49.8028   31.2194 O   0  0  0  0  0  0  0  0  0  0  0  0
    7.6019   48.2993   29.4997 O   0  0  0  0  0  0  0  0  0  0  0  0
    6.9887   50.3535   32.4116 C   0  0  0  0  0  0  0  0  0  0  0  0
    5.5363   50.7217   32.2076 C   0  0  0  0  0  0  0  0  0  0  0  0
    4.5486   49.9470   32.8452 C   0  0  0  0  0  0  0  0  0  0  0  0
    5.1400   51.8567   31.4465 C   0  0  0  0  0  0  0  0  0  0  0  0
    3.1962   50.2610   32.7108 C   0  0  0  0  0  0  0  0  0  0  0  0
    3.7700   52.1605   31.3356 C   0  0  0  0  0  0  0  0  0  0  0  0
    6.0975   52.7363   30.8262 N   0  0  0  0  0  0  0  0  0  0  0  0
    2.8074   51.3636   31.9548 C   0  0  0  0  0  0  0  0  0  0  0  0
    7.2172   52.2395   30.2026 O   0  0  0  0  0  0  0  0  0  0  0  0
    5.8436   53.9536   30.7139 O   0  0  0  0  0  0  0  0  0  0  0  0
    8.5369   39.1400   34.0139 O   0  0  0  0  0  0  0  0  0  0  0  0
   10.9789   40.0875   33.6872 O   0  0  0  0  0  0  0  0  0  0  0  0
   10.7992   40.0946   32.2884 C   0  0  0  0  0  0  0  0  0  0  0  0
   11.5957   38.9352   31.6994 C   0  0  0  0  0  0  0  0  0  0  0  0
   12.9257   38.9478   32.1799 O   0  0  0  0  0  0  0  0  0  0  0  0
   11.0070   37.5758   32.0732 C   0  0  0  0  0  0  0  0  0  0  0  0
   13.3571   37.5980   32.2612 C   0  0  0  0  0  0  0  0  0  0  0  0
    9.9093   37.1808   31.2875 O   0  0  0  0  0  0  0  0  0  0  0  0
   12.1967   36.6764   31.8894 C   0  0  0  0  0  0  0  0  0  0  0  0
   13.8018   37.2956   33.6197 N   0  0  0  0  0  0  0  0  0  0  0  0
   12.3048   36.2360   30.5555 O   0  0  0  0  0  0  0  0  0  0  0  0
   14.7922   36.4716   33.9864 C   0  0  0  0  0  0  0  0  0  0  0  0
   13.2747   37.7291   34.7944 C   0  0  0  0  0  0  0  0  0  0  0  0
   15.6239   35.7581   33.1861 N   0  0  0  0  0  0  0  0  0  0  0  0
   14.8721   36.4401   35.3331 C   0  0  0  0  0  0  0  0  0  0  0  0
   13.9206   37.2257   35.8810 N   0  0  0  0  0  0  0  0  0  0  0  0
   16.5873   34.9924   33.7802 C   0  0  0  0  0  0  0  0  0  0  0  0
   15.8576   35.6714   35.9444 C   0  0  0  0  0  0  0  0  0  0  0  0
   16.7026   34.9585   35.1439 N   0  0  0  0  0  0  0  0  0  0  0  0
   16.0102   35.6382   37.3564 N   0  0  0  0  0  0  0  0  0  0  0  0
    7.6761   44.0636   34.0543 H   0  0  0  0  0  0  0  0  0  0  0  0
    8.6461   46.1559   34.1430 H   0  0  0  0  0  0  0  0  0  0  0  0
   10.2146   45.5884   33.8740 H   0  0  0  0  0  0  0  0  0  0  0  0
    8.4830   43.0814   31.8664 H   0  0  0  0  0  0  0  0  0  0  0  0
    9.9709   44.0636   31.9678 H   0  0  0  0  0  0  0  0  0  0  0  0
    8.5709   46.1481   31.8178 H   0  0  0  0  0  0  0  0  0  0  0  0
    8.5228   45.0970   30.3802 H   0  0  0  0  0  0  0  0  0  0  0  0
    6.3172   44.1815   30.9701 H   0  0  0  0  0  0  0  0  0  0  0  0
    6.3125   45.0664   32.5350 H   0  0  0  0  0  0  0  0  0  0  0  0
    4.9235   46.2754   30.9459 H   0  0  0  0  0  0  0  0  0  0  0  0
    6.2317   46.2972   29.7245 H   0  0  0  0  0  0  0  0  0  0  0  0
    6.3615   47.6899   32.4477 H   0  0  0  0  0  0  0  0  0  0  0  0
    7.1254   49.6467   33.2574 H   0  0  0  0  0  0  0  0  0  0  0  0
    7.5570   51.2664   32.6878 H   0  0  0  0  0  0  0  0  0  0  0  0
    4.8215   49.1011   33.4620 H   0  0  0  0  0  0  0  0  0  0  0  0
    2.4483   49.6523   33.2024 H   0  0  0  0  0  0  0  0  0  0  0  0
    3.4447   53.0180   30.7599 H   0  0  0  0  0  0  0  0  0  0  0  0
    1.7575   51.6078   31.8559 H   0  0  0  0  0  0  0  0  0  0  0  0
   11.2092   41.0481   31.8916 H   0  0  0  0  0  0  0  0  0  0  0  0
    9.7448   40.0200   31.9304 H   0  0  0  0  0  0  0  0  0  0  0  0
   11.6207   39.0685   30.5943 H   0  0  0  0  0  0  0  0  0  0  0  0
   10.7059   37.5565   33.1439 H   0  0  0  0  0  0  0  0  0  0  0  0
   14.2095   37.4543   31.5601 H   0  0  0  0  0  0  0  0  0  0  0  0
   10.0865   37.4210   30.3413 H   0  0  0  0  0  0  0  0  0  0  0  0
   12.1275   35.7873   32.5550 H   0  0  0  0  0  0  0  0  0  0  0  0
   12.5031   37.0109   29.9673 H   0  0  0  0  0  0  0  0  0  0  0  0
   12.4328   38.3997   34.8703 H   0  0  0  0  0  0  0  0  0  0  0  0
   17.2670   34.4149   33.1690 H   0  0  0  0  0  0  0  0  0  0  0  0
   16.7640   35.0601   37.7896 H   0  0  0  0  0  0  0  0  0  0  0  0
   15.3758   36.1862   37.9792 H   0  0  0  0  0  0  0  0  0  0  0  0
  1  2  2  0
  1  3  1  0
  3  4  1  0
  4  5  1  0
  6  1  1  0
  7  6  1  0
  6  8  1  0
  8  9  1  0
  9 10  1  0
 10 11  1  0
 11 12  1  0
 12 13  1  0
 13 14  1  0
 13 15  2  0
 14 16  1  0
 16 17  1  0
 17 18  2  0
 19 17  1  0
 18 20  1  0
 21 19  2  0
 19 22  1  0
 20 23  2  0
 23 21  1  0
 22 24  1  0
 22 25  2  0
  4 26  2  0
  4 27  1  0
 28 27  1  0
 28 29  1  0
 29 30  1  0
 29 31  1  0
 30 32  1  0
 31 33  1  0
 31 34  1  0
 34 32  1  0
 32 35  1  0
 34 36  1  0
 37 35  1  0
 38 35  1  0
 39 37  2  0
 37 40  1  0
 41 38  2  0
 42 39  1  0
 40 43  2  0
 40 41  1  0
 44 42  2  0
 44 43  1  0
 43 45  1  0
  6 46  1  6
  7 47  1  0
  7 48  1  0
  8 49  1  0
  8 50  1  0
  9 51  1  0
  9 52  1  0
 10 53  1  0
 10 54  1  0
 11 55  1  0
 11 56  1  0
 12 57  1  0
 16 58  1  0
 16 59  1  0
 18 60  1  0
 20 61  1  0
 21 62  1  0
 23 63  1  0
 28 64  1  0
 28 65  1  0
 29 66  1  0
 31 67  1  0
 32 68  1  0
 33 69  1  0
 34 70  1  0
 36 71  1  0
 38 72  1  0
 42 73  1  0
 45 74  1  0
 45 75  1  0
M  CHG  3   5  -1  22   1  24  -1
M  END
>  <EmbedRMS>  (486) 
0.0749480481479

$$$$

     RDKit          3D

 75 78  0  0  0  0  0  0  0  0999 V2000
    9.4314   42.9407   34.3435 C   0  0  0  0  0  0  0  0  0  0  0  0
   10.4886   43.0412   35.0292 O   0  0  0  0  0  0  0  0  0  0  0  0
    8.8556   41.7125   34.0302 O   0  0  0  0  0  0  0  0  0  0  0  0
    9.4934   40.2161   34.4706 P   0  0  0  0  0  0  0  0  0  0  0  0
    9.7299   40.1742   36.1315 O   0  0  0  0  0  0  0  0  0  0  0  0
    8.7484   44.1345   33.7708 C   0  0  1  0  0  0  0  0  0  0  0  0
    9.3010   45.3656   34.3367 N   0  0  0  0  0  0  0  0  0  0  0  0
    8.8902   44.0518   32.2298 C   0  0  0  0  0  0  0  0  0  0  0  0
    8.2024   45.1727   31.4427 C   0  0  0  0  0  0  0  0  0  0  0  0
    6.6654   45.1083   31.4899 C   0  0  0  0  0  0  0  0  0  0  0  0
    6.0283   46.3257   30.8139 C   0  0  0  0  0  0  0  0  0  0  0  0
    6.5072   47.5671   31.4233 N   0  0  0  0  0  0  0  0  0  0  0  0
    7.2320   48.5502   30.6753 C   0  0  0  0  0  0  0  0  0  0  0  0
    7.5435   49.8061   31.2123 O   0  0  0  0  0  0  0  0  0  0  0  0
    7.6023   48.2971   29.4994 O   0  0  0  0  0  0  0  0  0  0  0  0
    7.1508   50.2695   32.5035 C   0  0  0  0  0  0  0  0  0  0  0  0
    7.9941   49.6496   33.5950 C   0  0  0  0  0  0  0  0  0  0  0  0
    7.3423   49.0570   34.6925 C   0  0  0  0  0  0  0  0  0  0  0  0
    9.4155   49.6578   33.5564 C   0  0  0  0  0  0  0  0  0  0  0  0
    8.0741   48.4699   35.7252 C   0  0  0  0  0  0  0  0  0  0  0  0
   10.1323   49.0372   34.5948 C   0  0  0  0  0  0  0  0  0  0  0  0
   10.1476   50.2793   32.4852 N   0  0  0  0  0  0  0  0  0  0  0  0
    9.4663   48.4566   35.6746 C   0  0  0  0  0  0  0  0  0  0  0  0
   11.3731   49.7779   32.1109 O   0  0  0  0  0  0  0  0  0  0  0  0
    9.7757   51.3713   32.0093 O   0  0  0  0  0  0  0  0  0  0  0  0
    8.5370   39.1398   34.0143 O   0  0  0  0  0  0  0  0  0  0  0  0
   10.9787   40.0890   33.6868 O   0  0  0  0  0  0  0  0  0  0  0  0
   10.7974   40.0897   32.2882 C   0  0  0  0  0  0  0  0  0  0  0  0
   11.5882   38.9235   31.7043 C   0  0  0  0  0  0  0  0  0  0  0  0
   12.9230   38.9440   32.1728 O   0  0  0  0  0  0  0  0  0  0  0  0
   11.0048   37.5704   32.0917 C   0  0  0  0  0  0  0  0  0  0  0  0
   13.3570   37.5961   32.2595 C   0  0  0  0  0  0  0  0  0  0  0  0
    9.9331   37.1987   31.2677 O   0  0  0  0  0  0  0  0  0  0  0  0
   12.1965   36.6751   31.8950 C   0  0  0  0  0  0  0  0  0  0  0  0
   13.8037   37.2979   33.6187 N   0  0  0  0  0  0  0  0  0  0  0  0
   12.2934   36.2389   30.5582 O   0  0  0  0  0  0  0  0  0  0  0  0
   14.7929   36.4726   33.9860 C   0  0  0  0  0  0  0  0  0  0  0  0
   13.2755   37.7304   34.7934 C   0  0  0  0  0  0  0  0  0  0  0  0
   15.6244   35.7585   33.1859 N   0  0  0  0  0  0  0  0  0  0  0  0
   14.8722   36.4406   35.3328 C   0  0  0  0  0  0  0  0  0  0  0  0
   13.9205   37.2262   35.8803 N   0  0  0  0  0  0  0  0  0  0  0  0
   16.5872   34.9923   33.7802 C   0  0  0  0  0  0  0  0  0  0  0  0
   15.8573   35.6715   35.9442 C   0  0  0  0  0  0  0  0  0  0  0  0
   16.7023   34.9584   35.1439 N   0  0  0  0  0  0  0  0  0  0  0  0
   16.0098   35.6384   37.3563 N   0  0  0  0  0  0  0  0  0  0  0  0
    7.6763   44.0610   34.0526 H   0  0  0  0  0  0  0  0  0  0  0  0
    8.6477   46.1513   34.1192 H   0  0  0  0  0  0  0  0  0  0  0  0
   10.2183   45.5821   33.8822 H   0  0  0  0  0  0  0  0  0  0  0  0
    9.9719   44.0651   31.9677 H   0  0  0  0  0  0  0  0  0  0  0  0
    8.4846   43.0818   31.8648 H   0  0  0  0  0  0  0  0  0  0  0  0
    8.5190   45.0948   30.3795 H   0  0  0  0  0  0  0  0  0  0  0  0
    8.5736   46.1502   31.8136 H   0  0  0  0  0  0  0  0  0  0  0  0
    6.3144   44.1819   30.9858 H   0  0  0  0  0  0  0  0  0  0  0  0
    6.3167   45.0813   32.5431 H   0  0  0  0  0  0  0  0  0  0  0  0
    4.9249   46.2703   30.9306 H   0  0  0  0  0  0  0  0  0  0  0  0
    6.2463   46.2921   29.7249 H   0  0  0  0  0  0  0  0  0  0  0  0
    6.2735   47.7336   32.4257 H   0  0  0  0  0  0  0  0  0  0  0  0
    6.0646   50.0853   32.6542 H   0  0  0  0  0  0  0  0  0  0  0  0
    7.2852   51.3702   32.5394 H   0  0  0  0  0  0  0  0  0  0  0  0
    6.2609   49.0479   34.7514 H   0  0  0  0  0  0  0  0  0  0  0  0
    7.5598   48.0166   36.5627 H   0  0  0  0  0  0  0  0  0  0  0  0
   11.2147   49.0250   34.5813 H   0  0  0  0  0  0  0  0  0  0  0  0
   10.0315   47.9931   36.4728 H   0  0  0  0  0  0  0  0  0  0  0  0
    9.7422   40.0187   31.9316 H   0  0  0  0  0  0  0  0  0  0  0  0
   11.2112   41.0391   31.8858 H   0  0  0  0  0  0  0  0  0  0  0  0
   11.5932   39.0396   30.5966 H   0  0  0  0  0  0  0  0  0  0  0  0
   10.6985   37.5587   33.1640 H   0  0  0  0  0  0  0  0  0  0  0  0
   14.2072   37.4493   31.5564 H   0  0  0  0  0  0  0  0  0  0  0  0
    9.5321   36.3882   31.6772 H   0  0  0  0  0  0  0  0  0  0  0  0
   12.1344   35.7838   32.5583 H   0  0  0  0  0  0  0  0  0  0  0  0
   12.4641   37.0179   29.9675 H   0  0  0  0  0  0  0  0  0  0  0  0
   12.4333   38.4005   34.8692 H   0  0  0  0  0  0  0  0  0  0  0  0
   17.2668   34.4144   33.1692 H   0  0  0  0  0  0  0  0  0  0  0  0
   16.7634   35.0600   37.7896 H   0  0  0  0  0  0  0  0  0  0  0  0
   15.3755   36.1866   37.9789 H   0  0  0  0  0  0  0  0  0  0  0  0
  1  2  2  0
  1  3  1  0
  3  4  1  0
  4  5  1  0
  6  1  1  0
  7  6  1  0
  6  8  1  0
  8  9  1  0
  9 10  1  0
 10 11  1  0
 11 12  1  0
 12 13  1  0
 13 14  1  0
 13 15  2  0
 14 16  1  0
 16 17  1  0
 17 18  2  0
 19 17  1  0
 18 20  1  0
 21 19  2  0
 19 22  1  0
 20 23  2  0
 23 21  1  0
 22 24  1  0
 22 25  2  0
  4 26  2  0
  4 27  1  0
 28 27  1  0
 28 29  1  0
 29 30  1  0
 29 31  1  0
 30 32  1  0
 31 33  1  0
 31 34  1  0
 34 32  1  0
 32 35  1  0
 34 36  1  0
 37 35  1  0
 38 35  1  0
 39 37  2  0
 37 40  1  0
 41 38  2  0
 42 39  1  0
 40 43  2  0
 40 41  1  0
 44 42  2  0
 44 43  1  0
 43 45  1  0
  6 46  1  6
  7 47  1  0
  7 48  1  0
  8 49  1  0
  8 50  1  0
  9 51  1  0
  9 52  1  0
 10 53  1  0
 10 54  1  0
 11 55  1  0
 11 56  1  0
 12 57  1  0
 16 58  1  0
 16 59  1  0
 18 60  1  0
 20 61  1  0
 21 62  1  0
 23 63  1  0
 28 64  1  0
 28 65  1  0
 29 66  1  0
 31 67  1  0
 32 68  1  0
 33 69  1  0
 34 70  1  0
 36 71  1  0
 38 72  1  0
 42 73  1  0
 45 74  1  0
 45 75  1  0
M  CHG  3   5  -1  22   1  24  -1
M  END
>  <EmbedRMS>  (487) 
0.075078897868

$$$$

     RDKit          3D

 75 78  0  0  0  0  0  0  0  0999 V2000
    9.4312   42.9411   34.3437 C   0  0  0  0  0  0  0  0  0  0  0  0
   10.4885   43.0410   35.0294 O   0  0  0  0  0  0  0  0  0  0  0  0
    8.8562   41.7128   34.0288 O   0  0  0  0  0  0  0  0  0  0  0  0
    9.4946   40.2162   34.4679 P   0  0  0  0  0  0  0  0  0  0  0  0
    9.7311   40.1742   36.1290 O   0  0  0  0  0  0  0  0  0  0  0  0
    8.7484   44.1359   33.7721 C   0  0  1  0  0  0  0  0  0  0  0  0
    9.3039   45.3665   34.3388 N   0  0  0  0  0  0  0  0  0  0  0  0
    8.8892   44.0518   32.2308 C   0  0  0  0  0  0  0  0  0  0  0  0
    8.2015   45.1721   31.4435 C   0  0  0  0  0  0  0  0  0  0  0  0
    6.6643   45.1066   31.4886 C   0  0  0  0  0  0  0  0  0  0  0  0
    6.0267   46.3237   30.8122 C   0  0  0  0  0  0  0  0  0  0  0  0
    6.5084   47.5645   31.4189 N   0  0  0  0  0  0  0  0  0  0  0  0
    7.2422   48.5408   30.6825 C   0  0  0  0  0  0  0  0  0  0  0  0
    7.5887   49.7446   31.3052 O   0  0  0  0  0  0  0  0  0  0  0  0
    7.5939   48.3102   29.4941 O   0  0  0  0  0  0  0  0  0  0  0  0
    8.2826   50.8027   30.6463 C   0  0  0  0  0  0  0  0  0  0  0  0
    7.3795   51.5013   29.6564 C   0  0  0  0  0  0  0  0  0  0  0  0
    7.5786   51.2617   28.2839 C   0  0  0  0  0  0  0  0  0  0  0  0
    6.3698   52.4188   30.0613 C   0  0  0  0  0  0  0  0  0  0  0  0
    6.7983   51.9087   27.3258 C   0  0  0  0  0  0  0  0  0  0  0  0
    5.6052   53.0698   29.0759 C   0  0  0  0  0  0  0  0  0  0  0  0
    6.1239   52.7324   31.4458 N   0  0  0  0  0  0  0  0  0  0  0  0
    5.8147   52.8120   27.7208 C   0  0  0  0  0  0  0  0  0  0  0  0
    5.6144   53.9635   31.7902 O   0  0  0  0  0  0  0  0  0  0  0  0
    6.2189   51.8576   32.3301 O   0  0  0  0  0  0  0  0  0  0  0  0
    8.5373   39.1403   34.0128 O   0  0  0  0  0  0  0  0  0  0  0  0
   10.9803   40.0887   33.6834 O   0  0  0  0  0  0  0  0  0  0  0  0
   10.8020   40.0896   32.2836 C   0  0  0  0  0  0  0  0  0  0  0  0
   11.5900   38.9179   31.7007 C   0  0  0  0  0  0  0  0  0  0  0  0
   12.9224   38.9391   32.1711 O   0  0  0  0  0  0  0  0  0  0  0  0
   11.0051   37.5677   32.0967 C   0  0  0  0  0  0  0  0  0  0  0  0
   13.3518   37.5910   32.2610 C   0  0  0  0  0  0  0  0  0  0  0  0
    9.9381   37.1796   31.2733 O   0  0  0  0  0  0  0  0  0  0  0  0
   12.1912   36.6690   31.9043 C   0  0  0  0  0  0  0  0  0  0  0  0
   13.8027   37.2968   33.6192 N   0  0  0  0  0  0  0  0  0  0  0  0
   12.2877   36.2854   30.5568 O   0  0  0  0  0  0  0  0  0  0  0  0
   14.7928   36.4724   33.9861 C   0  0  0  0  0  0  0  0  0  0  0  0
   13.2751   37.7297   34.7941 C   0  0  0  0  0  0  0  0  0  0  0  0
   15.6239   35.7581   33.1859 N   0  0  0  0  0  0  0  0  0  0  0  0
   14.8726   36.4408   35.3329 C   0  0  0  0  0  0  0  0  0  0  0  0
   13.9209   37.2262   35.8807 N   0  0  0  0  0  0  0  0  0  0  0  0
   16.5870   34.9922   33.7801 C   0  0  0  0  0  0  0  0  0  0  0  0
   15.8576   35.6716   35.9442 C   0  0  0  0  0  0  0  0  0  0  0  0
   16.7024   34.9584   35.1438 N   0  0  0  0  0  0  0  0  0  0  0  0
   16.0101   35.6383   37.3563 N   0  0  0  0  0  0  0  0  0  0  0  0
    7.6764   44.0634   34.0547 H   0  0  0  0  0  0  0  0  0  0  0  0
    8.6468   46.1558   34.1431 H   0  0  0  0  0  0  0  0  0  0  0  0
   10.2152   45.5879   33.8747 H   0  0  0  0  0  0  0  0  0  0  0  0
    8.4830   43.0818   31.8666 H   0  0  0  0  0  0  0  0  0  0  0  0
    9.9708   44.0642   31.9679 H   0  0  0  0  0  0  0  0  0  0  0  0
    8.5714   46.1487   31.8173 H   0  0  0  0  0  0  0  0  0  0  0  0
    8.5198   45.0958   30.3807 H   0  0  0  0  0  0  0  0  0  0  0  0
    6.3147   44.1801   30.9835 H   0  0  0  0  0  0  0  0  0  0  0  0
    6.3142   45.0783   32.5413 H   0  0  0  0  0  0  0  0  0  0  0  0
    4.9234   46.2700   30.9301 H   0  0  0  0  0  0  0  0  0  0  0  0
    6.2447   46.2897   29.7231 H   0  0  0  0  0  0  0  0  0  0  0  0
    6.2858   47.7540   32.4220 H   0  0  0  0  0  0  0  0  0  0  0  0
    8.6423   51.5333   31.4008 H   0  0  0  0  0  0  0  0  0  0  0  0
    9.1912   50.3947   30.1507 H   0  0  0  0  0  0  0  0  0  0  0  0
    8.3447   50.5722   27.9511 H   0  0  0  0  0  0  0  0  0  0  0  0
    6.9610   51.7129   26.2737 H   0  0  0  0  0  0  0  0  0  0  0  0
    4.8323   53.7733   29.3581 H   0  0  0  0  0  0  0  0  0  0  0  0
    5.2131   53.3157   26.9751 H   0  0  0  0  0  0  0  0  0  0  0  0
   11.2238   41.0358   31.8821 H   0  0  0  0  0  0  0  0  0  0  0  0
    9.7471   40.0309   31.9256 H   0  0  0  0  0  0  0  0  0  0  0  0
   11.5999   39.0159   30.5905 H   0  0  0  0  0  0  0  0  0  0  0  0
   10.7034   37.5451   33.1703 H   0  0  0  0  0  0  0  0  0  0  0  0
   14.1992   37.4424   31.5548 H   0  0  0  0  0  0  0  0  0  0  0  0
    9.1370   37.6634   31.6025 H   0  0  0  0  0  0  0  0  0  0  0  0
   12.1204   35.7713   32.5637 H   0  0  0  0  0  0  0  0  0  0  0  0
   12.9456   35.5426   30.5221 H   0  0  0  0  0  0  0  0  0  0  0  0
   12.4322   38.3989   34.8700 H   0  0  0  0  0  0  0  0  0  0  0  0
   17.2664   34.4142   33.1690 H   0  0  0  0  0  0  0  0  0  0  0  0
   16.7636   35.0598   37.7895 H   0  0  0  0  0  0  0  0  0  0  0  0
   15.3759   36.1865   37.9790 H   0  0  0  0  0  0  0  0  0  0  0  0
  1  2  2  0
  1  3  1  0
  3  4  1  0
  4  5  1  0
  6  1  1  0
  7  6  1  0
  6  8  1  0
  8  9  1  0
  9 10  1  0
 10 11  1  0
 11 12  1  0
 12 13  1  0
 13 14  1  0
 13 15  2  0
 14 16  1  0
 16 17  1  0
 17 18  2  0
 19 17  1  0
 18 20  1  0
 21 19  2  0
 19 22  1  0
 20 23  2  0
 23 21  1  0
 22 24  1  0
 22 25  2  0
  4 26  2  0
  4 27  1  0
 28 27  1  0
 28 29  1  0
 29 30  1  0
 29 31  1  0
 30 32  1  0
 31 33  1  0
 31 34  1  0
 34 32  1  0
 32 35  1  0
 34 36  1  0
 37 35  1  0
 38 35  1  0
 39 37  2  0
 37 40  1  0
 41 38  2  0
 42 39  1  0
 40 43  2  0
 40 41  1  0
 44 42  2  0
 44 43  1  0
 43 45  1  0
  6 46  1  6
  7 47  1  0
  7 48  1  0
  8 49  1  0
  8 50  1  0
  9 51  1  0
  9 52  1  0
 10 53  1  0
 10 54  1  0
 11 55  1  0
 11 56  1  0
 12 57  1  0
 16 58  1  0
 16 59  1  0
 18 60  1  0
 20 61  1  0
 21 62  1  0
 23 63  1  0
 28 64  1  0
 28 65  1  0
 29 66  1  0
 31 67  1  0
 32 68  1  0
 33 69  1  0
 34 70  1  0
 36 71  1  0
 38 72  1  0
 42 73  1  0
 45 74  1  0
 45 75  1  0
M  CHG  3   5  -1  22   1  24  -1
M  END
>  <EmbedRMS>  (488) 
0.073208763058

$$$$

     RDKit          3D

 75 78  0  0  0  0  0  0  0  0999 V2000
    9.4331   42.9357   34.3457 C   0  0  0  0  0  0  0  0  0  0  0  0
   10.4907   43.0325   35.0314 O   0  0  0  0  0  0  0  0  0  0  0  0
    8.8558   41.7097   34.0301 O   0  0  0  0  0  0  0  0  0  0  0  0
    9.4931   40.2137   34.4703 P   0  0  0  0  0  0  0  0  0  0  0  0
    9.7293   40.1726   36.1313 O   0  0  0  0  0  0  0  0  0  0  0  0
    8.7503   44.1335   33.7737 C   0  0  1  0  0  0  0  0  0  0  0  0
    9.2954   45.3793   34.3141 N   0  0  0  0  0  0  0  0  0  0  0  0
    8.8900   44.0533   32.2358 C   0  0  0  0  0  0  0  0  0  0  0  0
    8.2042   45.1847   31.4637 C   0  0  0  0  0  0  0  0  0  0  0  0
    6.6671   45.1053   31.4855 C   0  0  0  0  0  0  0  0  0  0  0  0
    6.0295   46.3245   30.8124 C   0  0  0  0  0  0  0  0  0  0  0  0
    6.5097   47.5648   31.4225 N   0  0  0  0  0  0  0  0  0  0  0  0
    7.2296   48.5513   30.6732 C   0  0  0  0  0  0  0  0  0  0  0  0
    7.5346   49.8089   31.2111 O   0  0  0  0  0  0  0  0  0  0  0  0
    7.5989   48.3002   29.4966 O   0  0  0  0  0  0  0  0  0  0  0  0
    7.1920   50.2358   32.5286 C   0  0  0  0  0  0  0  0  0  0  0  0
    8.1014   49.5989   33.5554 C   0  0  0  0  0  0  0  0  0  0  0  0
    9.4885   49.6131   33.3203 C   0  0  0  0  0  0  0  0  0  0  0  0
    7.6081   48.9893   34.7378 C   0  0  0  0  0  0  0  0  0  0  0  0
   10.3698   49.0057   34.2158 C   0  0  0  0  0  0  0  0  0  0  0  0
    8.5097   48.3702   35.6207 C   0  0  0  0  0  0  0  0  0  0  0  0
    6.2130   49.0171   35.0745 N   0  0  0  0  0  0  0  0  0  0  0  0
    9.8811   48.3826   35.3622 C   0  0  0  0  0  0  0  0  0  0  0  0
    5.5298   50.2113   35.0727 O   0  0  0  0  0  0  0  0  0  0  0  0
    5.6768   48.0158   35.5923 O   0  0  0  0  0  0  0  0  0  0  0  0
    8.5367   39.1377   34.0136 O   0  0  0  0  0  0  0  0  0  0  0  0
   10.9788   40.0865   33.6874 O   0  0  0  0  0  0  0  0  0  0  0  0
   10.7993   40.0944   32.2886 C   0  0  0  0  0  0  0  0  0  0  0  0
   11.5957   38.9351   31.6994 C   0  0  0  0  0  0  0  0  0  0  0  0
   12.9257   38.9477   32.1798 O   0  0  0  0  0  0  0  0  0  0  0  0
   11.0070   37.5757   32.0732 C   0  0  0  0  0  0  0  0  0  0  0  0
   13.3571   37.5979   32.2612 C   0  0  0  0  0  0  0  0  0  0  0  0
    9.9093   37.1807   31.2875 O   0  0  0  0  0  0  0  0  0  0  0  0
   12.1968   36.6763   31.8893 C   0  0  0  0  0  0  0  0  0  0  0  0
   13.8018   37.2956   33.6197 N   0  0  0  0  0  0  0  0  0  0  0  0
   12.3049   36.2360   30.5554 O   0  0  0  0  0  0  0  0  0  0  0  0
   14.7922   36.4716   33.9864 C   0  0  0  0  0  0  0  0  0  0  0  0
   13.2747   37.7291   34.7944 C   0  0  0  0  0  0  0  0  0  0  0  0
   15.6240   35.7581   33.1861 N   0  0  0  0  0  0  0  0  0  0  0  0
   14.8721   36.4401   35.3331 C   0  0  0  0  0  0  0  0  0  0  0  0
   13.9206   37.2257   35.8810 N   0  0  0  0  0  0  0  0  0  0  0  0
   16.5873   34.9924   33.7802 C   0  0  0  0  0  0  0  0  0  0  0  0
   15.8576   35.6714   35.9444 C   0  0  0  0  0  0  0  0  0  0  0  0
   16.7026   34.9585   35.1439 N   0  0  0  0  0  0  0  0  0  0  0  0
   16.0102   35.6382   37.3564 N   0  0  0  0  0  0  0  0  0  0  0  0
    7.6767   44.0693   34.0497 H   0  0  0  0  0  0  0  0  0  0  0  0
   10.3172   45.4419   34.0967 H   0  0  0  0  0  0  0  0  0  0  0  0
    9.1863   45.3745   35.3547 H   0  0  0  0  0  0  0  0  0  0  0  0
    9.9720   44.0691   31.9746 H   0  0  0  0  0  0  0  0  0  0  0  0
    8.4824   43.0863   31.8652 H   0  0  0  0  0  0  0  0  0  0  0  0
    8.5416   45.1422   30.4048 H   0  0  0  0  0  0  0  0  0  0  0  0
    8.5550   46.1527   31.8803 H   0  0  0  0  0  0  0  0  0  0  0  0
    6.3325   44.1816   30.9654 H   0  0  0  0  0  0  0  0  0  0  0  0
    6.3026   45.0630   32.5329 H   0  0  0  0  0  0  0  0  0  0  0  0
    6.2466   46.2925   29.7232 H   0  0  0  0  0  0  0  0  0  0  0  0
    4.9262   46.2693   30.9301 H   0  0  0  0  0  0  0  0  0  0  0  0
    6.2847   47.7252   32.4281 H   0  0  0  0  0  0  0  0  0  0  0  0
    7.3334   51.3355   32.5822 H   0  0  0  0  0  0  0  0  0  0  0  0
    6.1169   50.0357   32.7068 H   0  0  0  0  0  0  0  0  0  0  0  0
    9.8889   50.0878   32.4329 H   0  0  0  0  0  0  0  0  0  0  0  0
   11.4340   49.0161   34.0185 H   0  0  0  0  0  0  0  0  0  0  0  0
    8.1497   47.8967   36.5255 H   0  0  0  0  0  0  0  0  0  0  0  0
   10.5660   47.9095   36.0540 H   0  0  0  0  0  0  0  0  0  0  0  0
    9.7449   40.0200   31.9304 H   0  0  0  0  0  0  0  0  0  0  0  0
   11.2094   41.0479   31.8922 H   0  0  0  0  0  0  0  0  0  0  0  0
   11.6206   39.0685   30.5942 H   0  0  0  0  0  0  0  0  0  0  0  0
   10.7060   37.5562   33.1438 H   0  0  0  0  0  0  0  0  0  0  0  0
   14.2095   37.4543   31.5601 H   0  0  0  0  0  0  0  0  0  0  0  0
   10.0865   37.4209   30.3413 H   0  0  0  0  0  0  0  0  0  0  0  0
   12.1276   35.7872   32.5549 H   0  0  0  0  0  0  0  0  0  0  0  0
   12.5031   37.0109   29.9672 H   0  0  0  0  0  0  0  0  0  0  0  0
   12.4328   38.3996   34.8703 H   0  0  0  0  0  0  0  0  0  0  0  0
   17.2670   34.4149   33.1690 H   0  0  0  0  0  0  0  0  0  0  0  0
   15.3758   36.1862   37.9791 H   0  0  0  0  0  0  0  0  0  0  0  0
   16.7640   35.0601   37.7896 H   0  0  0  0  0  0  0  0  0  0  0  0
  1  2  2  0
  1  3  1  0
  3  4  1  0
  4  5  1  0
  6  1  1  0
  7  6  1  0
  6  8  1  0
  8  9  1  0
  9 10  1  0
 10 11  1  0
 11 12  1  0
 12 13  1  0
 13 14  1  0
 13 15  2  0
 14 16  1  0
 16 17  1  0
 17 18  2  0
 19 17  1  0
 18 20  1  0
 21 19  2  0
 19 22  1  0
 20 23  2  0
 23 21  1  0
 22 24  1  0
 22 25  2  0
  4 26  2  0
  4 27  1  0
 28 27  1  0
 28 29  1  0
 29 30  1  0
 29 31  1  0
 30 32  1  0
 31 33  1  0
 31 34  1  0
 34 32  1  0
 32 35  1  0
 34 36  1  0
 37 35  1  0
 38 35  1  0
 39 37  2  0
 37 40  1  0
 41 38  2  0
 42 39  1  0
 40 43  2  0
 40 41  1  0
 44 42  2  0
 44 43  1  0
 43 45  1  0
  6 46  1  6
  7 47  1  0
  7 48  1  0
  8 49  1  0
  8 50  1  0
  9 51  1  0
  9 52  1  0
 10 53  1  0
 10 54  1  0
 11 55  1  0
 11 56  1  0
 12 57  1  0
 16 58  1  0
 16 59  1  0
 18 60  1  0
 20 61  1  0
 21 62  1  0
 23 63  1  0
 28 64  1  0
 28 65  1  0
 29 66  1  0
 31 67  1  0
 32 68  1  0
 33 69  1  0
 34 70  1  0
 36 71  1  0
 38 72  1  0
 42 73  1  0
 45 74  1  0
 45 75  1  0
M  CHG  3   5  -1  22   1  24  -1
M  END
>  <EmbedRMS>  (489) 
0.0760843444525

$$$$

     RDKit          3D

 75 78  0  0  0  0  0  0  0  0999 V2000
    9.4312   42.9412   34.3437 C   0  0  0  0  0  0  0  0  0  0  0  0
   10.4885   43.0410   35.0294 O   0  0  0  0  0  0  0  0  0  0  0  0
    8.8562   41.7129   34.0288 O   0  0  0  0  0  0  0  0  0  0  0  0
    9.4946   40.2163   34.4678 P   0  0  0  0  0  0  0  0  0  0  0  0
    9.7311   40.1742   36.1290 O   0  0  0  0  0  0  0  0  0  0  0  0
    8.7484   44.1361   33.7721 C   0  0  1  0  0  0  0  0  0  0  0  0
    9.3039   45.3666   34.3388 N   0  0  0  0  0  0  0  0  0  0  0  0
    8.8892   44.0520   32.2308 C   0  0  0  0  0  0  0  0  0  0  0  0
    8.2014   45.1723   31.4437 C   0  0  0  0  0  0  0  0  0  0  0  0
    6.6641   45.1065   31.4886 C   0  0  0  0  0  0  0  0  0  0  0  0
    6.0263   46.3234   30.8118 C   0  0  0  0  0  0  0  0  0  0  0  0
    6.5070   47.5645   31.4185 N   0  0  0  0  0  0  0  0  0  0  0  0
    7.2457   48.5385   30.6840 C   0  0  0  0  0  0  0  0  0  0  0  0
    7.6041   49.7355   31.3094 O   0  0  0  0  0  0  0  0  0  0  0  0
    7.5924   48.3118   29.4931 O   0  0  0  0  0  0  0  0  0  0  0  0
    8.3625   50.7497   30.6561 C   0  0  0  0  0  0  0  0  0  0  0  0
    8.6412   51.8758   31.6218 C   0  0  0  0  0  0  0  0  0  0  0  0
    9.1920   51.5553   32.8762 C   0  0  0  0  0  0  0  0  0  0  0  0
    8.3412   53.2309   31.3252 C   0  0  0  0  0  0  0  0  0  0  0  0
    9.3990   52.5453   33.8380 C   0  0  0  0  0  0  0  0  0  0  0  0
    8.5384   54.2112   32.3139 C   0  0  0  0  0  0  0  0  0  0  0  0
    7.8762   53.6341   30.0281 N   0  0  0  0  0  0  0  0  0  0  0  0
    9.0628   53.8692   33.5612 C   0  0  0  0  0  0  0  0  0  0  0  0
    8.5581   53.2366   28.9011 O   0  0  0  0  0  0  0  0  0  0  0  0
    7.0133   54.5304   29.9257 O   0  0  0  0  0  0  0  0  0  0  0  0
    8.5373   39.1404   34.0128 O   0  0  0  0  0  0  0  0  0  0  0  0
   10.9803   40.0887   33.6834 O   0  0  0  0  0  0  0  0  0  0  0  0
   10.8020   40.0896   32.2836 C   0  0  0  0  0  0  0  0  0  0  0  0
   11.5900   38.9179   31.7007 C   0  0  0  0  0  0  0  0  0  0  0  0
   12.9224   38.9391   32.1711 O   0  0  0  0  0  0  0  0  0  0  0  0
   11.0051   37.5677   32.0966 C   0  0  0  0  0  0  0  0  0  0  0  0
   13.3517   37.5910   32.2610 C   0  0  0  0  0  0  0  0  0  0  0  0
    9.9381   37.1796   31.2733 O   0  0  0  0  0  0  0  0  0  0  0  0
   12.1912   36.6690   31.9042 C   0  0  0  0  0  0  0  0  0  0  0  0
   13.8027   37.2968   33.6192 N   0  0  0  0  0  0  0  0  0  0  0  0
   12.2877   36.2854   30.5567 O   0  0  0  0  0  0  0  0  0  0  0  0
   14.7928   36.4724   33.9861 C   0  0  0  0  0  0  0  0  0  0  0  0
   13.2751   37.7297   34.7941 C   0  0  0  0  0  0  0  0  0  0  0  0
   15.6239   35.7581   33.1859 N   0  0  0  0  0  0  0  0  0  0  0  0
   14.8726   36.4408   35.3329 C   0  0  0  0  0  0  0  0  0  0  0  0
   13.9209   37.2262   35.8807 N   0  0  0  0  0  0  0  0  0  0  0  0
   16.5871   34.9922   33.7801 C   0  0  0  0  0  0  0  0  0  0  0  0
   15.8576   35.6716   35.9442 C   0  0  0  0  0  0  0  0  0  0  0  0
   16.7024   34.9584   35.1438 N   0  0  0  0  0  0  0  0  0  0  0  0
   16.0101   35.6383   37.3563 N   0  0  0  0  0  0  0  0  0  0  0  0
    7.6764   44.0635   34.0548 H   0  0  0  0  0  0  0  0  0  0  0  0
   10.2152   45.5881   33.8747 H   0  0  0  0  0  0  0  0  0  0  0  0
    8.6469   46.1560   34.1432 H   0  0  0  0  0  0  0  0  0  0  0  0
    9.9708   44.0645   31.9679 H   0  0  0  0  0  0  0  0  0  0  0  0
    8.4831   43.0819   31.8666 H   0  0  0  0  0  0  0  0  0  0  0  0
    8.5199   45.0963   30.3808 H   0  0  0  0  0  0  0  0  0  0  0  0
    8.5711   46.1489   31.8177 H   0  0  0  0  0  0  0  0  0  0  0  0
    6.3149   44.1798   30.9837 H   0  0  0  0  0  0  0  0  0  0  0  0
    6.3140   45.0785   32.5413 H   0  0  0  0  0  0  0  0  0  0  0  0
    6.2449   46.2893   29.7229 H   0  0  0  0  0  0  0  0  0  0  0  0
    4.9229   46.2691   30.9292 H   0  0  0  0  0  0  0  0  0  0  0  0
    6.2857   47.7530   32.4221 H   0  0  0  0  0  0  0  0  0  0  0  0
    9.3316   50.3258   30.3144 H   0  0  0  0  0  0  0  0  0  0  0  0
    7.7925   51.0907   29.7693 H   0  0  0  0  0  0  0  0  0  0  0  0
    9.4454   50.5298   33.1168 H   0  0  0  0  0  0  0  0  0  0  0  0
    9.8139   52.2835   34.8029 H   0  0  0  0  0  0  0  0  0  0  0  0
    8.3103   55.2493   32.1067 H   0  0  0  0  0  0  0  0  0  0  0  0
    9.2205   54.6347   34.3100 H   0  0  0  0  0  0  0  0  0  0  0  0
   11.2238   41.0358   31.8821 H   0  0  0  0  0  0  0  0  0  0  0  0
    9.7471   40.0309   31.9256 H   0  0  0  0  0  0  0  0  0  0  0  0
   11.5999   39.0159   30.5905 H   0  0  0  0  0  0  0  0  0  0  0  0
   10.7034   37.5451   33.1703 H   0  0  0  0  0  0  0  0  0  0  0  0
   14.1992   37.4424   31.5548 H   0  0  0  0  0  0  0  0  0  0  0  0
    9.1370   37.6634   31.6025 H   0  0  0  0  0  0  0  0  0  0  0  0
   12.1204   35.7713   32.5637 H   0  0  0  0  0  0  0  0  0  0  0  0
   12.9456   35.5426   30.5221 H   0  0  0  0  0  0  0  0  0  0  0  0
   12.4322   38.3989   34.8700 H   0  0  0  0  0  0  0  0  0  0  0  0
   17.2665   34.4142   33.1690 H   0  0  0  0  0  0  0  0  0  0  0  0
   16.7636   35.0598   37.7895 H   0  0  0  0  0  0  0  0  0  0  0  0
   15.3759   36.1865   37.9790 H   0  0  0  0  0  0  0  0  0  0  0  0
  1  2  2  0
  1  3  1  0
  3  4  1  0
  4  5  1  0
  6  1  1  0
  7  6  1  0
  6  8  1  0
  8  9  1  0
  9 10  1  0
 10 11  1  0
 11 12  1  0
 12 13  1  0
 13 14  1  0
 13 15  2  0
 14 16  1  0
 16 17  1  0
 17 18  2  0
 19 17  1  0
 18 20  1  0
 21 19  2  0
 19 22  1  0
 20 23  2  0
 23 21  1  0
 22 24  1  0
 22 25  2  0
  4 26  2  0
  4 27  1  0
 28 27  1  0
 28 29  1  0
 29 30  1  0
 29 31  1  0
 30 32  1  0
 31 33  1  0
 31 34  1  0
 34 32  1  0
 32 35  1  0
 34 36  1  0
 37 35  1  0
 38 35  1  0
 39 37  2  0
 37 40  1  0
 41 38  2  0
 42 39  1  0
 40 43  2  0
 40 41  1  0
 44 42  2  0
 44 43  1  0
 43 45  1  0
  6 46  1  6
  7 47  1  0
  7 48  1  0
  8 49  1  0
  8 50  1  0
  9 51  1  0
  9 52  1  0
 10 53  1  0
 10 54  1  0
 11 55  1  0
 11 56  1  0
 12 57  1  0
 16 58  1  0
 16 59  1  0
 18 60  1  0
 20 61  1  0
 21 62  1  0
 23 63  1  0
 28 64  1  0
 28 65  1  0
 29 66  1  0
 31 67  1  0
 32 68  1  0
 33 69  1  0
 34 70  1  0
 36 71  1  0
 38 72  1  0
 42 73  1  0
 45 74  1  0
 45 75  1  0
M  CHG  3   5  -1  22   1  24  -1
M  END
>  <EmbedRMS>  (490) 
0.0732963084162

$$$$

     RDKit          3D

 75 78  0  0  0  0  0  0  0  0999 V2000
    9.4309   42.9413   34.3438 C   0  0  0  0  0  0  0  0  0  0  0  0
   10.4884   43.0411   35.0292 O   0  0  0  0  0  0  0  0  0  0  0  0
    8.8557   41.7130   34.0291 O   0  0  0  0  0  0  0  0  0  0  0  0
    9.4945   40.2163   34.4676 P   0  0  0  0  0  0  0  0  0  0  0  0
    9.7319   40.1740   36.1286 O   0  0  0  0  0  0  0  0  0  0  0  0
    8.7481   44.1363   33.7722 C   0  0  1  0  0  0  0  0  0  0  0  0
    9.3036   45.3669   34.3389 N   0  0  0  0  0  0  0  0  0  0  0  0
    8.8891   44.0522   32.2309 C   0  0  0  0  0  0  0  0  0  0  0  0
    8.2016   45.1726   31.4438 C   0  0  0  0  0  0  0  0  0  0  0  0
    6.6644   45.1060   31.4863 C   0  0  0  0  0  0  0  0  0  0  0  0
    6.0277   46.3240   30.8100 C   0  0  0  0  0  0  0  0  0  0  0  0
    6.5061   47.5638   31.4218 N   0  0  0  0  0  0  0  0  0  0  0  0
    7.2504   48.5408   30.6839 C   0  0  0  0  0  0  0  0  0  0  0  0
    7.6420   49.7532   31.2634 O   0  0  0  0  0  0  0  0  0  0  0  0
    7.5877   48.3086   29.4938 O   0  0  0  0  0  0  0  0  0  0  0  0
    7.3539   50.1222   32.6088 C   0  0  0  0  0  0  0  0  0  0  0  0
    7.8955   51.5030   32.8842 C   0  0  0  0  0  0  0  0  0  0  0  0
    8.8249   51.6672   33.9287 C   0  0  0  0  0  0  0  0  0  0  0  0
    7.5297   52.6301   32.0986 C   0  0  0  0  0  0  0  0  0  0  0  0
    9.3919   52.9151   34.1893 C   0  0  0  0  0  0  0  0  0  0  0  0
    8.1258   53.8757   32.3703 C   0  0  0  0  0  0  0  0  0  0  0  0
    6.5822   52.5311   31.0188 N   0  0  0  0  0  0  0  0  0  0  0  0
    9.0460   54.0162   33.4095 C   0  0  0  0  0  0  0  0  0  0  0  0
    5.4528   51.7559   31.1415 O   0  0  0  0  0  0  0  0  0  0  0  0
    6.6925   53.2732   30.0208 O   0  0  0  0  0  0  0  0  0  0  0  0
    8.5373   39.1401   34.0126 O   0  0  0  0  0  0  0  0  0  0  0  0
   10.9793   40.0896   33.6813 O   0  0  0  0  0  0  0  0  0  0  0  0
   10.7976   40.0844   32.2816 C   0  0  0  0  0  0  0  0  0  0  0  0
   11.5897   38.9147   31.7009 C   0  0  0  0  0  0  0  0  0  0  0  0
   12.9218   38.9385   32.1718 O   0  0  0  0  0  0  0  0  0  0  0  0
   11.0070   37.5655   32.0976 C   0  0  0  0  0  0  0  0  0  0  0  0
   13.3533   37.5910   32.2611 C   0  0  0  0  0  0  0  0  0  0  0  0
    9.9333   37.1935   31.2754 O   0  0  0  0  0  0  0  0  0  0  0  0
   12.1945   36.6672   31.9041 C   0  0  0  0  0  0  0  0  0  0  0  0
   13.8036   37.2970   33.6193 N   0  0  0  0  0  0  0  0  0  0  0  0
   12.2893   36.2849   30.5563 O   0  0  0  0  0  0  0  0  0  0  0  0
   14.7931   36.4723   33.9863 C   0  0  0  0  0  0  0  0  0  0  0  0
   13.2756   37.7298   34.7940 C   0  0  0  0  0  0  0  0  0  0  0  0
   15.6242   35.7580   33.1861 N   0  0  0  0  0  0  0  0  0  0  0  0
   14.8727   36.4407   35.3331 C   0  0  0  0  0  0  0  0  0  0  0  0
   13.9210   37.2262   35.8808 N   0  0  0  0  0  0  0  0  0  0  0  0
   16.5872   34.9920   33.7803 C   0  0  0  0  0  0  0  0  0  0  0  0
   15.8577   35.6715   35.9444 C   0  0  0  0  0  0  0  0  0  0  0  0
   16.7025   34.9582   35.1440 N   0  0  0  0  0  0  0  0  0  0  0  0
   16.0101   35.6382   37.3564 N   0  0  0  0  0  0  0  0  0  0  0  0
    7.6760   44.0639   34.0546 H   0  0  0  0  0  0  0  0  0  0  0  0
    8.6464   46.1563   34.1437 H   0  0  0  0  0  0  0  0  0  0  0  0
   10.2147   45.5887   33.8746 H   0  0  0  0  0  0  0  0  0  0  0  0
    9.9707   44.0645   31.9682 H   0  0  0  0  0  0  0  0  0  0  0  0
    8.4829   43.0821   31.8666 H   0  0  0  0  0  0  0  0  0  0  0  0
    8.5217   45.0977   30.3814 H   0  0  0  0  0  0  0  0  0  0  0  0
    8.5702   46.1492   31.8191 H   0  0  0  0  0  0  0  0  0  0  0  0
    6.3125   45.0758   32.5383 H   0  0  0  0  0  0  0  0  0  0  0  0
    6.3164   44.1801   30.9791 H   0  0  0  0  0  0  0  0  0  0  0  0
    6.2484   46.2918   29.7215 H   0  0  0  0  0  0  0  0  0  0  0  0
    4.9240   46.2687   30.9244 H   0  0  0  0  0  0  0  0  0  0  0  0
    6.2767   47.7251   32.4271 H   0  0  0  0  0  0  0  0  0  0  0  0
    6.2588   50.1112   32.7885 H   0  0  0  0  0  0  0  0  0  0  0  0
    7.8120   49.3741   33.2927 H   0  0  0  0  0  0  0  0  0  0  0  0
    9.1206   50.8247   34.5418 H   0  0  0  0  0  0  0  0  0  0  0  0
   10.1064   53.0268   34.9948 H   0  0  0  0  0  0  0  0  0  0  0  0
    7.8652   54.7470   31.7826 H   0  0  0  0  0  0  0  0  0  0  0  0
    9.4905   54.9823   33.6115 H   0  0  0  0  0  0  0  0  0  0  0  0
    9.7422   40.0118   31.9267 H   0  0  0  0  0  0  0  0  0  0  0  0
   11.2110   41.0321   31.8748 H   0  0  0  0  0  0  0  0  0  0  0  0
   11.6005   39.0119   30.5905 H   0  0  0  0  0  0  0  0  0  0  0  0
   10.7015   37.5594   33.1702 H   0  0  0  0  0  0  0  0  0  0  0  0
   14.2012   37.4438   31.5552 H   0  0  0  0  0  0  0  0  0  0  0  0
    9.5289   36.3870   31.6896 H   0  0  0  0  0  0  0  0  0  0  0  0
   12.1243   35.7694   32.5633 H   0  0  0  0  0  0  0  0  0  0  0  0
   12.9478   35.5427   30.5202 H   0  0  0  0  0  0  0  0  0  0  0  0
   12.4328   38.3994   34.8697 H   0  0  0  0  0  0  0  0  0  0  0  0
   17.2666   34.4140   33.1692 H   0  0  0  0  0  0  0  0  0  0  0  0
   16.7636   35.0598   37.7897 H   0  0  0  0  0  0  0  0  0  0  0  0
   15.3759   36.1865   37.9791 H   0  0  0  0  0  0  0  0  0  0  0  0
  1  2  2  0
  1  3  1  0
  3  4  1  0
  4  5  1  0
  6  1  1  0
  7  6  1  0
  6  8  1  0
  8  9  1  0
  9 10  1  0
 10 11  1  0
 11 12  1  0
 12 13  1  0
 13 14  1  0
 13 15  2  0
 14 16  1  0
 16 17  1  0
 17 18  2  0
 19 17  1  0
 18 20  1  0
 21 19  2  0
 19 22  1  0
 20 23  2  0
 23 21  1  0
 22 24  1  0
 22 25  2  0
  4 26  2  0
  4 27  1  0
 28 27  1  0
 28 29  1  0
 29 30  1  0
 29 31  1  0
 30 32  1  0
 31 33  1  0
 31 34  1  0
 34 32  1  0
 32 35  1  0
 34 36  1  0
 37 35  1  0
 38 35  1  0
 39 37  2  0
 37 40  1  0
 41 38  2  0
 42 39  1  0
 40 43  2  0
 40 41  1  0
 44 42  2  0
 44 43  1  0
 43 45  1  0
  6 46  1  6
  7 47  1  0
  7 48  1  0
  8 49  1  0
  8 50  1  0
  9 51  1  0
  9 52  1  0
 10 53  1  0
 10 54  1  0
 11 55  1  0
 11 56  1  0
 12 57  1  0
 16 58  1  0
 16 59  1  0
 18 60  1  0
 20 61  1  0
 21 62  1  0
 23 63  1  0
 28 64  1  0
 28 65  1  0
 29 66  1  0
 31 67  1  0
 32 68  1  0
 33 69  1  0
 34 70  1  0
 36 71  1  0
 38 72  1  0
 42 73  1  0
 45 74  1  0
 45 75  1  0
M  CHG  3   5  -1  22   1  24  -1
M  END
>  <EmbedRMS>  (491) 
0.0735210709256

$$$$

     RDKit          3D

 75 78  0  0  0  0  0  0  0  0999 V2000
    9.4312   42.9411   34.3437 C   0  0  0  0  0  0  0  0  0  0  0  0
   10.4885   43.0410   35.0294 O   0  0  0  0  0  0  0  0  0  0  0  0
    8.8562   41.7128   34.0288 O   0  0  0  0  0  0  0  0  0  0  0  0
    9.4947   40.2163   34.4679 P   0  0  0  0  0  0  0  0  0  0  0  0
    9.7311   40.1742   36.1290 O   0  0  0  0  0  0  0  0  0  0  0  0
    8.7484   44.1359   33.7721 C   0  0  1  0  0  0  0  0  0  0  0  0
    9.3039   45.3665   34.3388 N   0  0  0  0  0  0  0  0  0  0  0  0
    8.8892   44.0518   32.2308 C   0  0  0  0  0  0  0  0  0  0  0  0
    8.2015   45.1721   31.4435 C   0  0  0  0  0  0  0  0  0  0  0  0
    6.6643   45.1066   31.4886 C   0  0  0  0  0  0  0  0  0  0  0  0
    6.0267   46.3237   30.8122 C   0  0  0  0  0  0  0  0  0  0  0  0
    6.5084   47.5645   31.4189 N   0  0  0  0  0  0  0  0  0  0  0  0
    7.2422   48.5408   30.6825 C   0  0  0  0  0  0  0  0  0  0  0  0
    7.5889   49.7445   31.3053 O   0  0  0  0  0  0  0  0  0  0  0  0
    7.5939   48.3102   29.4941 O   0  0  0  0  0  0  0  0  0  0  0  0
    8.2831   50.8025   30.6465 C   0  0  0  0  0  0  0  0  0  0  0  0
    7.3801   51.5014   29.6566 C   0  0  0  0  0  0  0  0  0  0  0  0
    7.5793   51.2619   28.2841 C   0  0  0  0  0  0  0  0  0  0  0  0
    6.3706   52.4190   30.0616 C   0  0  0  0  0  0  0  0  0  0  0  0
    6.7992   51.9093   27.3260 C   0  0  0  0  0  0  0  0  0  0  0  0
    5.6062   53.0703   29.0761 C   0  0  0  0  0  0  0  0  0  0  0  0
    6.1247   52.7325   31.4460 N   0  0  0  0  0  0  0  0  0  0  0  0
    5.8158   52.8127   27.7211 C   0  0  0  0  0  0  0  0  0  0  0  0
    5.6153   53.9636   31.7905 O   0  0  0  0  0  0  0  0  0  0  0  0
    6.2195   51.8576   32.3303 O   0  0  0  0  0  0  0  0  0  0  0  0
    8.5375   39.1404   34.0127 O   0  0  0  0  0  0  0  0  0  0  0  0
   10.9805   40.0889   33.6836 O   0  0  0  0  0  0  0  0  0  0  0  0
   10.8025   40.0902   32.2838 C   0  0  0  0  0  0  0  0  0  0  0  0
   11.5888   38.9175   31.7008 C   0  0  0  0  0  0  0  0  0  0  0  0
   12.9219   38.9373   32.1692 O   0  0  0  0  0  0  0  0  0  0  0  0
   11.0028   37.5683   32.0981 C   0  0  0  0  0  0  0  0  0  0  0  0
   13.3496   37.5886   32.2601 C   0  0  0  0  0  0  0  0  0  0  0  0
    9.9343   37.1823   31.2757 O   0  0  0  0  0  0  0  0  0  0  0  0
   12.1891   36.6677   31.9050 C   0  0  0  0  0  0  0  0  0  0  0  0
   13.8025   37.2965   33.6186 N   0  0  0  0  0  0  0  0  0  0  0  0
   12.2990   36.2868   30.5568 O   0  0  0  0  0  0  0  0  0  0  0  0
   14.7929   36.4725   33.9858 C   0  0  0  0  0  0  0  0  0  0  0  0
   13.2749   37.7294   34.7935 C   0  0  0  0  0  0  0  0  0  0  0  0
   15.6240   35.7580   33.1858 N   0  0  0  0  0  0  0  0  0  0  0  0
   14.8727   36.4411   35.3327 C   0  0  0  0  0  0  0  0  0  0  0  0
   13.9208   37.2263   35.8803 N   0  0  0  0  0  0  0  0  0  0  0  0
   16.5871   34.9921   33.7801 C   0  0  0  0  0  0  0  0  0  0  0  0
   15.8576   35.6718   35.9441 C   0  0  0  0  0  0  0  0  0  0  0  0
   16.7024   34.9585   35.1438 N   0  0  0  0  0  0  0  0  0  0  0  0
   16.0099   35.6384   37.3562 N   0  0  0  0  0  0  0  0  0  0  0  0
    7.6764   44.0634   34.0548 H   0  0  0  0  0  0  0  0  0  0  0  0
   10.2152   45.5879   33.8747 H   0  0  0  0  0  0  0  0  0  0  0  0
    8.6468   46.1558   34.1431 H   0  0  0  0  0  0  0  0  0  0  0  0
    8.4830   43.0817   31.8666 H   0  0  0  0  0  0  0  0  0  0  0  0
    9.9708   44.0642   31.9679 H   0  0  0  0  0  0  0  0  0  0  0  0
    8.5198   45.0958   30.3807 H   0  0  0  0  0  0  0  0  0  0  0  0
    8.5714   46.1487   31.8173 H   0  0  0  0  0  0  0  0  0  0  0  0
    6.3147   44.1801   30.9835 H   0  0  0  0  0  0  0  0  0  0  0  0
    6.3142   45.0783   32.5413 H   0  0  0  0  0  0  0  0  0  0  0  0
    6.2447   46.2897   29.7231 H   0  0  0  0  0  0  0  0  0  0  0  0
    4.9234   46.2700   30.9301 H   0  0  0  0  0  0  0  0  0  0  0  0
    6.2858   47.7539   32.4220 H   0  0  0  0  0  0  0  0  0  0  0  0
    8.6429   51.5330   31.4010 H   0  0  0  0  0  0  0  0  0  0  0  0
    9.1916   50.3943   30.1508 H   0  0  0  0  0  0  0  0  0  0  0  0
    8.3453   50.5723   27.9512 H   0  0  0  0  0  0  0  0  0  0  0  0
    6.9620   51.7136   26.2739 H   0  0  0  0  0  0  0  0  0  0  0  0
    4.8334   53.7740   29.3585 H   0  0  0  0  0  0  0  0  0  0  0  0
    5.2143   53.3166   26.9754 H   0  0  0  0  0  0  0  0  0  0  0  0
   11.2257   41.0358   31.8825 H   0  0  0  0  0  0  0  0  0  0  0  0
    9.7476   40.0332   31.9256 H   0  0  0  0  0  0  0  0  0  0  0  0
   11.5975   39.0148   30.5905 H   0  0  0  0  0  0  0  0  0  0  0  0
   10.7023   37.5457   33.1720 H   0  0  0  0  0  0  0  0  0  0  0  0
   14.1957   37.4366   31.5528 H   0  0  0  0  0  0  0  0  0  0  0  0
    9.1339   37.6658   31.6070 H   0  0  0  0  0  0  0  0  0  0  0  0
   12.1380   35.7717   32.5698 H   0  0  0  0  0  0  0  0  0  0  0  0
   11.7707   35.4530   30.4496 H   0  0  0  0  0  0  0  0  0  0  0  0
   12.4314   38.3980   34.8694 H   0  0  0  0  0  0  0  0  0  0  0  0
   17.2665   34.4140   33.1691 H   0  0  0  0  0  0  0  0  0  0  0  0
   15.3757   36.1868   37.9789 H   0  0  0  0  0  0  0  0  0  0  0  0
   16.7633   35.0599   37.7895 H   0  0  0  0  0  0  0  0  0  0  0  0
  1  2  2  0
  1  3  1  0
  3  4  1  0
  4  5  1  0
  6  1  1  0
  7  6  1  0
  6  8  1  0
  8  9  1  0
  9 10  1  0
 10 11  1  0
 11 12  1  0
 12 13  1  0
 13 14  1  0
 13 15  2  0
 14 16  1  0
 16 17  1  0
 17 18  2  0
 19 17  1  0
 18 20  1  0
 21 19  2  0
 19 22  1  0
 20 23  2  0
 23 21  1  0
 22 24  1  0
 22 25  2  0
  4 26  2  0
  4 27  1  0
 28 27  1  0
 28 29  1  0
 29 30  1  0
 29 31  1  0
 30 32  1  0
 31 33  1  0
 31 34  1  0
 34 32  1  0
 32 35  1  0
 34 36  1  0
 37 35  1  0
 38 35  1  0
 39 37  2  0
 37 40  1  0
 41 38  2  0
 42 39  1  0
 40 43  2  0
 40 41  1  0
 44 42  2  0
 44 43  1  0
 43 45  1  0
  6 46  1  6
  7 47  1  0
  7 48  1  0
  8 49  1  0
  8 50  1  0
  9 51  1  0
  9 52  1  0
 10 53  1  0
 10 54  1  0
 11 55  1  0
 11 56  1  0
 12 57  1  0
 16 58  1  0
 16 59  1  0
 18 60  1  0
 20 61  1  0
 21 62  1  0
 23 63  1  0
 28 64  1  0
 28 65  1  0
 29 66  1  0
 31 67  1  0
 32 68  1  0
 33 69  1  0
 34 70  1  0
 36 71  1  0
 38 72  1  0
 42 73  1  0
 45 74  1  0
 45 75  1  0
M  CHG  3   5  -1  22   1  24  -1
M  END
>  <EmbedRMS>  (492) 
0.0733366050037

$$$$

     RDKit          3D

 75 78  0  0  0  0  0  0  0  0999 V2000
    9.4301   42.9393   34.3434 C   0  0  0  0  0  0  0  0  0  0  0  0
   10.4914   43.0378   35.0234 O   0  0  0  0  0  0  0  0  0  0  0  0
    8.8548   41.7115   34.0284 O   0  0  0  0  0  0  0  0  0  0  0  0
    9.4942   40.2154   34.4674 P   0  0  0  0  0  0  0  0  0  0  0  0
    9.7307   40.1739   36.1285 O   0  0  0  0  0  0  0  0  0  0  0  0
    8.7413   44.1376   33.7786 C   0  0  1  0  0  0  0  0  0  0  0  0
    9.3018   45.3715   34.3325 N   0  0  0  0  0  0  0  0  0  0  0  0
    8.8965   44.0590   32.2398 C   0  0  0  0  0  0  0  0  0  0  0  0
    8.2030   45.1684   31.4397 C   0  0  0  0  0  0  0  0  0  0  0  0
    6.6657   45.1061   31.4908 C   0  0  0  0  0  0  0  0  0  0  0  0
    6.0281   46.3226   30.8130 C   0  0  0  0  0  0  0  0  0  0  0  0
    6.5091   47.5637   31.4194 N   0  0  0  0  0  0  0  0  0  0  0  0
    7.2423   48.5401   30.6826 C   0  0  0  0  0  0  0  0  0  0  0  0
    7.5874   49.7452   31.3036 O   0  0  0  0  0  0  0  0  0  0  0  0
    7.5919   48.3109   29.4930 O   0  0  0  0  0  0  0  0  0  0  0  0
    8.2765   50.7997   30.6340 C   0  0  0  0  0  0  0  0  0  0  0  0
    7.3830   51.4519   29.6029 C   0  0  0  0  0  0  0  0  0  0  0  0
    7.8109   51.4735   28.2624 C   0  0  0  0  0  0  0  0  0  0  0  0
    6.1105   51.9962   29.9342 C   0  0  0  0  0  0  0  0  0  0  0  0
    6.9978   52.0084   27.2627 C   0  0  0  0  0  0  0  0  0  0  0  0
    5.3020   52.5160   28.9069 C   0  0  0  0  0  0  0  0  0  0  0  0
    5.6107   52.0141   31.2851 N   0  0  0  0  0  0  0  0  0  0  0  0
    5.7444   52.5247   27.5837 C   0  0  0  0  0  0  0  0  0  0  0  0
    4.2546   51.9899   31.5147 O   0  0  0  0  0  0  0  0  0  0  0  0
    6.3765   52.2186   32.2491 O   0  0  0  0  0  0  0  0  0  0  0  0
    8.5377   39.1389   34.0122 O   0  0  0  0  0  0  0  0  0  0  0  0
   10.9801   40.0890   33.6831 O   0  0  0  0  0  0  0  0  0  0  0  0
   10.8019   40.0896   32.2832 C   0  0  0  0  0  0  0  0  0  0  0  0
   11.5900   38.9178   31.7006 C   0  0  0  0  0  0  0  0  0  0  0  0
   12.9223   38.9393   32.1712 O   0  0  0  0  0  0  0  0  0  0  0  0
   11.0053   37.5677   32.0968 C   0  0  0  0  0  0  0  0  0  0  0  0
   13.3519   37.5912   32.2610 C   0  0  0  0  0  0  0  0  0  0  0  0
    9.9382   37.1793   31.2736 O   0  0  0  0  0  0  0  0  0  0  0  0
   12.1914   36.6690   31.9044 C   0  0  0  0  0  0  0  0  0  0  0  0
   13.8027   37.2972   33.6193 N   0  0  0  0  0  0  0  0  0  0  0  0
   12.2877   36.2851   30.5570 O   0  0  0  0  0  0  0  0  0  0  0  0
   14.7927   36.4726   33.9862 C   0  0  0  0  0  0  0  0  0  0  0  0
   13.2750   37.7300   34.7941 C   0  0  0  0  0  0  0  0  0  0  0  0
   15.6238   35.7583   33.1859 N   0  0  0  0  0  0  0  0  0  0  0  0
   14.8724   36.4409   35.3329 C   0  0  0  0  0  0  0  0  0  0  0  0
   13.9206   37.2263   35.8807 N   0  0  0  0  0  0  0  0  0  0  0  0
   16.5868   34.9921   33.7801 C   0  0  0  0  0  0  0  0  0  0  0  0
   15.8574   35.6714   35.9442 C   0  0  0  0  0  0  0  0  0  0  0  0
   16.7021   34.9582   35.1438 N   0  0  0  0  0  0  0  0  0  0  0  0
   16.0102   35.6382   37.3562 N   0  0  0  0  0  0  0  0  0  0  0  0
    7.6669   44.0655   34.0549 H   0  0  0  0  0  0  0  0  0  0  0  0
    8.6810   46.1664   34.0587 H   0  0  0  0  0  0  0  0  0  0  0  0
    9.2340   45.3265   35.3760 H   0  0  0  0  0  0  0  0  0  0  0  0
    8.5088   43.0838   31.8692 H   0  0  0  0  0  0  0  0  0  0  0  0
    9.9812   44.0902   31.9913 H   0  0  0  0  0  0  0  0  0  0  0  0
    8.5774   46.1509   31.7915 H   0  0  0  0  0  0  0  0  0  0  0  0
    8.5155   45.0749   30.3765 H   0  0  0  0  0  0  0  0  0  0  0  0
    6.3129   44.1783   30.9904 H   0  0  0  0  0  0  0  0  0  0  0  0
    6.3189   45.0833   32.5444 H   0  0  0  0  0  0  0  0  0  0  0  0
    4.9247   46.2687   30.9305 H   0  0  0  0  0  0  0  0  0  0  0  0
    6.2469   46.2883   29.7242 H   0  0  0  0  0  0  0  0  0  0  0  0
    6.2858   47.7537   32.4223 H   0  0  0  0  0  0  0  0  0  0  0  0
    8.5985   51.5576   31.3768 H   0  0  0  0  0  0  0  0  0  0  0  0
    9.2074   50.3967   30.1775 H   0  0  0  0  0  0  0  0  0  0  0  0
    8.7741   51.0634   27.9842 H   0  0  0  0  0  0  0  0  0  0  0  0
    7.3386   52.0160   26.2351 H   0  0  0  0  0  0  0  0  0  0  0  0
    4.3282   52.9312   29.1331 H   0  0  0  0  0  0  0  0  0  0  0  0
    5.1139   52.9347   26.8052 H   0  0  0  0  0  0  0  0  0  0  0  0
   11.2243   41.0355   31.8818 H   0  0  0  0  0  0  0  0  0  0  0  0
    9.7470   40.0312   31.9248 H   0  0  0  0  0  0  0  0  0  0  0  0
   11.6004   39.0157   30.5903 H   0  0  0  0  0  0  0  0  0  0  0  0
   10.7034   37.5452   33.1703 H   0  0  0  0  0  0  0  0  0  0  0  0
   14.1994   37.4429   31.5548 H   0  0  0  0  0  0  0  0  0  0  0  0
    9.1372   37.6634   31.6026 H   0  0  0  0  0  0  0  0  0  0  0  0
   12.1213   35.7714   32.5641 H   0  0  0  0  0  0  0  0  0  0  0  0
   12.9456   35.5424   30.5222 H   0  0  0  0  0  0  0  0  0  0  0  0
   12.4317   38.3990   34.8704 H   0  0  0  0  0  0  0  0  0  0  0  0
   17.2662   34.4139   33.1690 H   0  0  0  0  0  0  0  0  0  0  0  0
   15.3757   36.1865   37.9786 H   0  0  0  0  0  0  0  0  0  0  0  0
   16.7635   35.0598   37.7900 H   0  0  0  0  0  0  0  0  0  0  0  0
  1  2  2  0
  1  3  1  0
  3  4  1  0
  4  5  1  0
  6  1  1  0
  7  6  1  0
  6  8  1  0
  8  9  1  0
  9 10  1  0
 10 11  1  0
 11 12  1  0
 12 13  1  0
 13 14  1  0
 13 15  2  0
 14 16  1  0
 16 17  1  0
 17 18  2  0
 19 17  1  0
 18 20  1  0
 21 19  2  0
 19 22  1  0
 20 23  2  0
 23 21  1  0
 22 24  1  0
 22 25  2  0
  4 26  2  0
  4 27  1  0
 28 27  1  0
 28 29  1  0
 29 30  1  0
 29 31  1  0
 30 32  1  0
 31 33  1  0
 31 34  1  0
 34 32  1  0
 32 35  1  0
 34 36  1  0
 37 35  1  0
 38 35  1  0
 39 37  2  0
 37 40  1  0
 41 38  2  0
 42 39  1  0
 40 43  2  0
 40 41  1  0
 44 42  2  0
 44 43  1  0
 43 45  1  0
  6 46  1  6
  7 47  1  0
  7 48  1  0
  8 49  1  0
  8 50  1  0
  9 51  1  0
  9 52  1  0
 10 53  1  0
 10 54  1  0
 11 55  1  0
 11 56  1  0
 12 57  1  0
 16 58  1  0
 16 59  1  0
 18 60  1  0
 20 61  1  0
 21 62  1  0
 23 63  1  0
 28 64  1  0
 28 65  1  0
 29 66  1  0
 31 67  1  0
 32 68  1  0
 33 69  1  0
 34 70  1  0
 36 71  1  0
 38 72  1  0
 42 73  1  0
 45 74  1  0
 45 75  1  0
M  CHG  3   5  -1  22   1  24  -1
M  END
>  <EmbedRMS>  (493) 
0.0733191265634

$$$$

     RDKit          3D

 75 78  0  0  0  0  0  0  0  0999 V2000
    9.4316   42.9407   34.3432 C   0  0  0  0  0  0  0  0  0  0  0  0
   10.4886   43.0412   35.0292 O   0  0  0  0  0  0  0  0  0  0  0  0
    8.8564   41.7124   34.0288 O   0  0  0  0  0  0  0  0  0  0  0  0
    9.4948   40.2160   34.4680 P   0  0  0  0  0  0  0  0  0  0  0  0
    9.7312   40.1741   36.1291 O   0  0  0  0  0  0  0  0  0  0  0  0
    8.7484   44.1345   33.7707 C   0  0  1  0  0  0  0  0  0  0  0  0
    9.3007   45.3655   34.3367 N   0  0  0  0  0  0  0  0  0  0  0  0
    8.8902   44.0519   32.2297 C   0  0  0  0  0  0  0  0  0  0  0  0
    8.2024   45.1728   31.4428 C   0  0  0  0  0  0  0  0  0  0  0  0
    6.6655   45.1083   31.4899 C   0  0  0  0  0  0  0  0  0  0  0  0
    6.0283   46.3258   30.8141 C   0  0  0  0  0  0  0  0  0  0  0  0
    6.5074   47.5671   31.4234 N   0  0  0  0  0  0  0  0  0  0  0  0
    7.2321   48.5502   30.6752 C   0  0  0  0  0  0  0  0  0  0  0  0
    7.5437   49.8060   31.2123 O   0  0  0  0  0  0  0  0  0  0  0  0
    7.6021   48.2971   29.4992 O   0  0  0  0  0  0  0  0  0  0  0  0
    7.1530   50.2678   32.5046 C   0  0  0  0  0  0  0  0  0  0  0  0
    7.9963   49.6453   33.5943 C   0  0  0  0  0  0  0  0  0  0  0  0
    7.3457   49.0657   34.6993 C   0  0  0  0  0  0  0  0  0  0  0  0
    9.4163   49.6376   33.5453 C   0  0  0  0  0  0  0  0  0  0  0  0
    8.0783   48.4779   35.7311 C   0  0  0  0  0  0  0  0  0  0  0  0
   10.1346   49.0177   34.5842 C   0  0  0  0  0  0  0  0  0  0  0  0
   10.1417   50.2465   32.4623 N   0  0  0  0  0  0  0  0  0  0  0  0
    9.4700   48.4512   35.6722 C   0  0  0  0  0  0  0  0  0  0  0  0
    9.7547   51.4667   31.9593 O   0  0  0  0  0  0  0  0  0  0  0  0
   11.2278   49.7593   32.0858 O   0  0  0  0  0  0  0  0  0  0  0  0
    8.5375   39.1402   34.0129 O   0  0  0  0  0  0  0  0  0  0  0  0
   10.9804   40.0886   33.6834 O   0  0  0  0  0  0  0  0  0  0  0  0
   10.8021   40.0896   32.2836 C   0  0  0  0  0  0  0  0  0  0  0  0
   11.5900   38.9179   31.7007 C   0  0  0  0  0  0  0  0  0  0  0  0
   12.9224   38.9391   32.1711 O   0  0  0  0  0  0  0  0  0  0  0  0
   11.0052   37.5677   32.0966 C   0  0  0  0  0  0  0  0  0  0  0  0
   13.3518   37.5910   32.2610 C   0  0  0  0  0  0  0  0  0  0  0  0
    9.9381   37.1796   31.2733 O   0  0  0  0  0  0  0  0  0  0  0  0
   12.1912   36.6690   31.9043 C   0  0  0  0  0  0  0  0  0  0  0  0
   13.8027   37.2968   33.6192 N   0  0  0  0  0  0  0  0  0  0  0  0
   12.2877   36.2854   30.5568 O   0  0  0  0  0  0  0  0  0  0  0  0
   14.7928   36.4724   33.9861 C   0  0  0  0  0  0  0  0  0  0  0  0
   13.2751   37.7297   34.7941 C   0  0  0  0  0  0  0  0  0  0  0  0
   15.6239   35.7581   33.1859 N   0  0  0  0  0  0  0  0  0  0  0  0
   14.8726   36.4408   35.3329 C   0  0  0  0  0  0  0  0  0  0  0  0
   13.9209   37.2262   35.8807 N   0  0  0  0  0  0  0  0  0  0  0  0
   16.5870   34.9922   33.7801 C   0  0  0  0  0  0  0  0  0  0  0  0
   15.8576   35.6716   35.9442 C   0  0  0  0  0  0  0  0  0  0  0  0
   16.7024   34.9584   35.1438 N   0  0  0  0  0  0  0  0  0  0  0  0
   16.0101   35.6383   37.3563 N   0  0  0  0  0  0  0  0  0  0  0  0
    7.6762   44.0607   34.0525 H   0  0  0  0  0  0  0  0  0  0  0  0
   10.2176   45.5828   33.8817 H   0  0  0  0  0  0  0  0  0  0  0  0
    8.6468   46.1510   34.1202 H   0  0  0  0  0  0  0  0  0  0  0  0
    8.4847   43.0819   31.8646 H   0  0  0  0  0  0  0  0  0  0  0  0
    9.9719   44.0653   31.9676 H   0  0  0  0  0  0  0  0  0  0  0  0
    8.5736   46.1503   31.8140 H   0  0  0  0  0  0  0  0  0  0  0  0
    8.5192   45.0952   30.3796 H   0  0  0  0  0  0  0  0  0  0  0  0
    6.3146   44.1819   30.9855 H   0  0  0  0  0  0  0  0  0  0  0  0
    6.3167   45.0810   32.5430 H   0  0  0  0  0  0  0  0  0  0  0  0
    6.2459   46.2922   29.7251 H   0  0  0  0  0  0  0  0  0  0  0  0
    4.9249   46.2705   30.9311 H   0  0  0  0  0  0  0  0  0  0  0  0
    6.2748   47.7332   32.4262 H   0  0  0  0  0  0  0  0  0  0  0  0
    7.2879   51.3681   32.5425 H   0  0  0  0  0  0  0  0  0  0  0  0
    6.0668   50.0842   32.6563 H   0  0  0  0  0  0  0  0  0  0  0  0
    6.2646   49.0679   34.7650 H   0  0  0  0  0  0  0  0  0  0  0  0
    7.5648   48.0350   36.5747 H   0  0  0  0  0  0  0  0  0  0  0  0
   11.2169   48.9947   34.5630 H   0  0  0  0  0  0  0  0  0  0  0  0
   10.0358   47.9876   36.4700 H   0  0  0  0  0  0  0  0  0  0  0  0
    9.7472   40.0310   31.9257 H   0  0  0  0  0  0  0  0  0  0  0  0
   11.2238   41.0358   31.8822 H   0  0  0  0  0  0  0  0  0  0  0  0
   11.5999   39.0159   30.5905 H   0  0  0  0  0  0  0  0  0  0  0  0
   10.7034   37.5451   33.1703 H   0  0  0  0  0  0  0  0  0  0  0  0
   14.1992   37.4424   31.5548 H   0  0  0  0  0  0  0  0  0  0  0  0
    9.1370   37.6635   31.6025 H   0  0  0  0  0  0  0  0  0  0  0  0
   12.1204   35.7713   32.5637 H   0  0  0  0  0  0  0  0  0  0  0  0
   12.9456   35.5426   30.5221 H   0  0  0  0  0  0  0  0  0  0  0  0
   12.4322   38.3989   34.8700 H   0  0  0  0  0  0  0  0  0  0  0  0
   17.2664   34.4142   33.1690 H   0  0  0  0  0  0  0  0  0  0  0  0
   15.3759   36.1865   37.9790 H   0  0  0  0  0  0  0  0  0  0  0  0
   16.7636   35.0598   37.7895 H   0  0  0  0  0  0  0  0  0  0  0  0
  1  2  2  0
  1  3  1  0
  3  4  1  0
  4  5  1  0
  6  1  1  0
  7  6  1  0
  6  8  1  0
  8  9  1  0
  9 10  1  0
 10 11  1  0
 11 12  1  0
 12 13  1  0
 13 14  1  0
 13 15  2  0
 14 16  1  0
 16 17  1  0
 17 18  2  0
 19 17  1  0
 18 20  1  0
 21 19  2  0
 19 22  1  0
 20 23  2  0
 23 21  1  0
 22 24  1  0
 22 25  2  0
  4 26  2  0
  4 27  1  0
 28 27  1  0
 28 29  1  0
 29 30  1  0
 29 31  1  0
 30 32  1  0
 31 33  1  0
 31 34  1  0
 34 32  1  0
 32 35  1  0
 34 36  1  0
 37 35  1  0
 38 35  1  0
 39 37  2  0
 37 40  1  0
 41 38  2  0
 42 39  1  0
 40 43  2  0
 40 41  1  0
 44 42  2  0
 44 43  1  0
 43 45  1  0
  6 46  1  6
  7 47  1  0
  7 48  1  0
  8 49  1  0
  8 50  1  0
  9 51  1  0
  9 52  1  0
 10 53  1  0
 10 54  1  0
 11 55  1  0
 11 56  1  0
 12 57  1  0
 16 58  1  0
 16 59  1  0
 18 60  1  0
 20 61  1  0
 21 62  1  0
 23 63  1  0
 28 64  1  0
 28 65  1  0
 29 66  1  0
 31 67  1  0
 32 68  1  0
 33 69  1  0
 34 70  1  0
 36 71  1  0
 38 72  1  0
 42 73  1  0
 45 74  1  0
 45 75  1  0
M  CHG  3   5  -1  22   1  24  -1
M  END
>  <EmbedRMS>  (494) 
0.0732511326351

$$$$

     RDKit          3D

 75 78  0  0  0  0  0  0  0  0999 V2000
    9.4333   42.9364   34.3461 C   0  0  0  0  0  0  0  0  0  0  0  0
   10.4907   43.0329   35.0319 O   0  0  0  0  0  0  0  0  0  0  0  0
    8.8563   41.7102   34.0295 O   0  0  0  0  0  0  0  0  0  0  0  0
    9.4943   40.2139   34.4679 P   0  0  0  0  0  0  0  0  0  0  0  0
    9.7310   40.1724   36.1290 O   0  0  0  0  0  0  0  0  0  0  0  0
    8.7506   44.1347   33.7741 C   0  0  1  0  0  0  0  0  0  0  0  0
    9.2963   45.3819   34.3133 N   0  0  0  0  0  0  0  0  0  0  0  0
    8.8893   44.0527   32.2358 C   0  0  0  0  0  0  0  0  0  0  0  0
    8.2029   45.1822   31.4614 C   0  0  0  0  0  0  0  0  0  0  0  0
    6.6654   45.1046   31.4855 C   0  0  0  0  0  0  0  0  0  0  0  0
    6.0272   46.3228   30.8108 C   0  0  0  0  0  0  0  0  0  0  0  0
    6.5071   47.5640   31.4183 N   0  0  0  0  0  0  0  0  0  0  0  0
    7.2416   48.5404   30.6827 C   0  0  0  0  0  0  0  0  0  0  0  0
    7.5831   49.7467   31.3034 O   0  0  0  0  0  0  0  0  0  0  0  0
    7.5943   48.3107   29.4942 O   0  0  0  0  0  0  0  0  0  0  0  0
    8.2905   50.7942   30.6420 C   0  0  0  0  0  0  0  0  0  0  0  0
    7.4277   51.4395   29.5815 C   0  0  0  0  0  0  0  0  0  0  0  0
    7.9040   51.4760   28.2578 C   0  0  0  0  0  0  0  0  0  0  0  0
    6.1383   51.9634   29.8693 C   0  0  0  0  0  0  0  0  0  0  0  0
    7.1209   52.0078   27.2328 C   0  0  0  0  0  0  0  0  0  0  0  0
    5.3600   52.4811   28.8173 C   0  0  0  0  0  0  0  0  0  0  0  0
    5.5964   51.9610   31.2030 N   0  0  0  0  0  0  0  0  0  0  0  0
    5.8501   52.5058   27.5112 C   0  0  0  0  0  0  0  0  0  0  0  0
    6.3908   52.2578   32.2856 O   0  0  0  0  0  0  0  0  0  0  0  0
    4.3654   51.8467   31.3773 O   0  0  0  0  0  0  0  0  0  0  0  0
    8.5372   39.1382   34.0121 O   0  0  0  0  0  0  0  0  0  0  0  0
   10.9798   40.0870   33.6829 O   0  0  0  0  0  0  0  0  0  0  0  0
   10.8002   40.0905   32.2833 C   0  0  0  0  0  0  0  0  0  0  0  0
   11.5958   38.9271   31.6963 C   0  0  0  0  0  0  0  0  0  0  0  0
   12.9239   38.9408   32.1766 O   0  0  0  0  0  0  0  0  0  0  0  0
   11.0062   37.5719   32.0793 C   0  0  0  0  0  0  0  0  0  0  0  0
   13.3507   37.5905   32.2614 C   0  0  0  0  0  0  0  0  0  0  0  0
    9.9064   37.1792   31.2946 O   0  0  0  0  0  0  0  0  0  0  0  0
   12.1920   36.6671   31.9003 C   0  0  0  0  0  0  0  0  0  0  0  0
   13.8017   37.2948   33.6193 N   0  0  0  0  0  0  0  0  0  0  0  0
   12.3134   36.2787   30.5560 O   0  0  0  0  0  0  0  0  0  0  0  0
   14.7927   36.4716   33.9861 C   0  0  0  0  0  0  0  0  0  0  0  0
   13.2746   37.7284   34.7941 C   0  0  0  0  0  0  0  0  0  0  0  0
   15.6240   35.7576   33.1859 N   0  0  0  0  0  0  0  0  0  0  0  0
   14.8728   36.4406   35.3330 C   0  0  0  0  0  0  0  0  0  0  0  0
   13.9209   37.2258   35.8807 N   0  0  0  0  0  0  0  0  0  0  0  0
   16.5874   34.9920   33.7802 C   0  0  0  0  0  0  0  0  0  0  0  0
   15.8579   35.6716   35.9443 C   0  0  0  0  0  0  0  0  0  0  0  0
   16.7028   34.9584   35.1439 N   0  0  0  0  0  0  0  0  0  0  0  0
   16.0103   35.6383   37.3563 N   0  0  0  0  0  0  0  0  0  0  0  0
    7.6770   44.0706   34.0504 H   0  0  0  0  0  0  0  0  0  0  0  0
   10.3192   45.4405   34.1000 H   0  0  0  0  0  0  0  0  0  0  0  0
    9.1827   45.3819   35.3535 H   0  0  0  0  0  0  0  0  0  0  0  0
    8.4816   43.0850   31.8668 H   0  0  0  0  0  0  0  0  0  0  0  0
    9.9711   44.0680   31.9739 H   0  0  0  0  0  0  0  0  0  0  0  0
    8.5554   46.1509   31.8741 H   0  0  0  0  0  0  0  0  0  0  0  0
    8.5385   45.1362   30.4021 H   0  0  0  0  0  0  0  0  0  0  0  0
    6.3296   44.1801   30.9675 H   0  0  0  0  0  0  0  0  0  0  0  0
    6.3020   45.0641   32.5333 H   0  0  0  0  0  0  0  0  0  0  0  0
    6.2463   46.2901   29.7219 H   0  0  0  0  0  0  0  0  0  0  0  0
    4.9238   46.2679   30.9271 H   0  0  0  0  0  0  0  0  0  0  0  0
    6.2816   47.7539   32.4207 H   0  0  0  0  0  0  0  0  0  0  0  0
    8.5926   51.5586   31.3861 H   0  0  0  0  0  0  0  0  0  0  0  0
    9.2324   50.3856   30.2140 H   0  0  0  0  0  0  0  0  0  0  0  0
    8.8825   51.0814   28.0132 H   0  0  0  0  0  0  0  0  0  0  0  0
    7.4985   52.0274   26.2185 H   0  0  0  0  0  0  0  0  0  0  0  0
    4.3731   52.8816   29.0125 H   0  0  0  0  0  0  0  0  0  0  0  0
    5.2431   52.9139   26.7134 H   0  0  0  0  0  0  0  0  0  0  0  0
   11.2116   41.0420   31.8835 H   0  0  0  0  0  0  0  0  0  0  0  0
    9.7455   40.0168   31.9263 H   0  0  0  0  0  0  0  0  0  0  0  0
   11.6245   39.0449   30.5888 H   0  0  0  0  0  0  0  0  0  0  0  0
   10.7050   37.5579   33.1499 H   0  0  0  0  0  0  0  0  0  0  0  0
   14.1985   37.4426   31.5553 H   0  0  0  0  0  0  0  0  0  0  0  0
   10.0893   37.4057   30.3459 H   0  0  0  0  0  0  0  0  0  0  0  0
   12.1337   35.7754   32.5703 H   0  0  0  0  0  0  0  0  0  0  0  0
   11.7934   35.4394   30.4513 H   0  0  0  0  0  0  0  0  0  0  0  0
   12.4314   38.3973   34.8700 H   0  0  0  0  0  0  0  0  0  0  0  0
   17.2669   34.4142   33.1692 H   0  0  0  0  0  0  0  0  0  0  0  0
   15.3759   36.1865   37.9790 H   0  0  0  0  0  0  0  0  0  0  0  0
   16.7638   35.0599   37.7896 H   0  0  0  0  0  0  0  0  0  0  0  0
  1  2  2  0
  1  3  1  0
  3  4  1  0
  4  5  1  0
  6  1  1  0
  7  6  1  0
  6  8  1  0
  8  9  1  0
  9 10  1  0
 10 11  1  0
 11 12  1  0
 12 13  1  0
 13 14  1  0
 13 15  2  0
 14 16  1  0
 16 17  1  0
 17 18  2  0
 19 17  1  0
 18 20  1  0
 21 19  2  0
 19 22  1  0
 20 23  2  0
 23 21  1  0
 22 24  1  0
 22 25  2  0
  4 26  2  0
  4 27  1  0
 28 27  1  0
 28 29  1  0
 29 30  1  0
 29 31  1  0
 30 32  1  0
 31 33  1  0
 31 34  1  0
 34 32  1  0
 32 35  1  0
 34 36  1  0
 37 35  1  0
 38 35  1  0
 39 37  2  0
 37 40  1  0
 41 38  2  0
 42 39  1  0
 40 43  2  0
 40 41  1  0
 44 42  2  0
 44 43  1  0
 43 45  1  0
  6 46  1  6
  7 47  1  0
  7 48  1  0
  8 49  1  0
  8 50  1  0
  9 51  1  0
  9 52  1  0
 10 53  1  0
 10 54  1  0
 11 55  1  0
 11 56  1  0
 12 57  1  0
 16 58  1  0
 16 59  1  0
 18 60  1  0
 20 61  1  0
 21 62  1  0
 23 63  1  0
 28 64  1  0
 28 65  1  0
 29 66  1  0
 31 67  1  0
 32 68  1  0
 33 69  1  0
 34 70  1  0
 36 71  1  0
 38 72  1  0
 42 73  1  0
 45 74  1  0
 45 75  1  0
M  CHG  3   5  -1  22   1  24  -1
M  END
>  <EmbedRMS>  (495) 
0.0747373697233

$$$$

     RDKit          3D

 75 78  0  0  0  0  0  0  0  0999 V2000
    9.4299   42.9397   34.3436 C   0  0  0  0  0  0  0  0  0  0  0  0
   10.4913   43.0381   35.0234 O   0  0  0  0  0  0  0  0  0  0  0  0
    8.8541   41.7118   34.0295 O   0  0  0  0  0  0  0  0  0  0  0  0
    9.4928   40.2158   34.4702 P   0  0  0  0  0  0  0  0  0  0  0  0
    9.7295   40.1742   36.1310 O   0  0  0  0  0  0  0  0  0  0  0  0
    8.7414   44.1381   33.7786 C   0  0  1  0  0  0  0  0  0  0  0  0
    9.3021   45.3721   34.3325 N   0  0  0  0  0  0  0  0  0  0  0  0
    8.8963   44.0597   32.2399 C   0  0  0  0  0  0  0  0  0  0  0  0
    8.2025   45.1693   31.4402 C   0  0  0  0  0  0  0  0  0  0  0  0
    6.6650   45.1064   31.4908 C   0  0  0  0  0  0  0  0  0  0  0  0
    6.0266   46.3217   30.8111 C   0  0  0  0  0  0  0  0  0  0  0  0
    6.5046   47.5640   31.4175 N   0  0  0  0  0  0  0  0  0  0  0  0
    7.2498   48.5353   30.6862 C   0  0  0  0  0  0  0  0  0  0  0  0
    7.6294   49.7204   31.3209 O   0  0  0  0  0  0  0  0  0  0  0  0
    7.5908   48.3124   29.4929 O   0  0  0  0  0  0  0  0  0  0  0  0
    8.4278   50.7125   30.6849 C   0  0  0  0  0  0  0  0  0  0  0  0
    8.7192   51.8223   31.6607 C   0  0  0  0  0  0  0  0  0  0  0  0
    7.9332   52.9877   31.6066 C   0  0  0  0  0  0  0  0  0  0  0  0
    9.7733   51.7380   32.6096 C   0  0  0  0  0  0  0  0  0  0  0  0
    8.1922   54.0616   32.4590 C   0  0  0  0  0  0  0  0  0  0  0  0
   10.0264   52.8392   33.4488 C   0  0  0  0  0  0  0  0  0  0  0  0
   10.5992   50.5643   32.7274 N   0  0  0  0  0  0  0  0  0  0  0  0
    9.2398   53.9895   33.3748 C   0  0  0  0  0  0  0  0  0  0  0  0
   10.0524   49.3062   32.6277 O   0  0  0  0  0  0  0  0  0  0  0  0
   11.7904   50.6719   33.0856 O   0  0  0  0  0  0  0  0  0  0  0  0
    8.5368   39.1390   34.0140 O   0  0  0  0  0  0  0  0  0  0  0  0
   10.9784   40.0891   33.6866 O   0  0  0  0  0  0  0  0  0  0  0  0
   10.7973   40.0897   32.2880 C   0  0  0  0  0  0  0  0  0  0  0  0
   11.5882   38.9235   31.7043 C   0  0  0  0  0  0  0  0  0  0  0  0
   12.9230   38.9440   32.1729 O   0  0  0  0  0  0  0  0  0  0  0  0
   11.0048   37.5704   32.0916 C   0  0  0  0  0  0  0  0  0  0  0  0
   13.3570   37.5961   32.2595 C   0  0  0  0  0  0  0  0  0  0  0  0
    9.9332   37.1987   31.2676 O   0  0  0  0  0  0  0  0  0  0  0  0
   12.1965   36.6751   31.8950 C   0  0  0  0  0  0  0  0  0  0  0  0
   13.8037   37.2979   33.6187 N   0  0  0  0  0  0  0  0  0  0  0  0
   12.2934   36.2389   30.5582 O   0  0  0  0  0  0  0  0  0  0  0  0
   14.7929   36.4726   33.9860 C   0  0  0  0  0  0  0  0  0  0  0  0
   13.2755   37.7304   34.7934 C   0  0  0  0  0  0  0  0  0  0  0  0
   15.6244   35.7585   33.1859 N   0  0  0  0  0  0  0  0  0  0  0  0
   14.8722   36.4406   35.3328 C   0  0  0  0  0  0  0  0  0  0  0  0
   13.9205   37.2262   35.8803 N   0  0  0  0  0  0  0  0  0  0  0  0
   16.5872   34.9923   33.7802 C   0  0  0  0  0  0  0  0  0  0  0  0
   15.8573   35.6715   35.9442 C   0  0  0  0  0  0  0  0  0  0  0  0
   16.7023   34.9584   35.1439 N   0  0  0  0  0  0  0  0  0  0  0  0
   16.0098   35.6384   37.3563 N   0  0  0  0  0  0  0  0  0  0  0  0
    7.6669   44.0660   34.0548 H   0  0  0  0  0  0  0  0  0  0  0  0
    9.2332   45.3281   35.3758 H   0  0  0  0  0  0  0  0  0  0  0  0
    8.6825   46.1677   34.0579 H   0  0  0  0  0  0  0  0  0  0  0  0
    8.5086   43.0844   31.8695 H   0  0  0  0  0  0  0  0  0  0  0  0
    9.9810   44.0914   31.9915 H   0  0  0  0  0  0  0  0  0  0  0  0
    8.5158   45.0765   30.3772 H   0  0  0  0  0  0  0  0  0  0  0  0
    8.5762   46.1521   31.7924 H   0  0  0  0  0  0  0  0  0  0  0  0
    6.3177   45.0840   32.5444 H   0  0  0  0  0  0  0  0  0  0  0  0
    6.3128   44.1778   30.9915 H   0  0  0  0  0  0  0  0  0  0  0  0
    4.9231   46.2662   30.9267 H   0  0  0  0  0  0  0  0  0  0  0  0
    6.2472   46.2869   29.7226 H   0  0  0  0  0  0  0  0  0  0  0  0
    6.2837   47.7516   32.4214 H   0  0  0  0  0  0  0  0  0  0  0  0
    9.3772   50.2697   30.3134 H   0  0  0  0  0  0  0  0  0  0  0  0
    7.8818   51.1045   29.7987 H   0  0  0  0  0  0  0  0  0  0  0  0
    7.1189   53.0691   30.8969 H   0  0  0  0  0  0  0  0  0  0  0  0
    7.5818   54.9539   32.4057 H   0  0  0  0  0  0  0  0  0  0  0  0
   10.8273   52.8002   34.1764 H   0  0  0  0  0  0  0  0  0  0  0  0
    9.4408   54.8253   34.0325 H   0  0  0  0  0  0  0  0  0  0  0  0
    9.7422   40.0186   31.9312 H   0  0  0  0  0  0  0  0  0  0  0  0
   11.2112   41.0391   31.8856 H   0  0  0  0  0  0  0  0  0  0  0  0
   11.5932   39.0395   30.5966 H   0  0  0  0  0  0  0  0  0  0  0  0
   10.6986   37.5587   33.1640 H   0  0  0  0  0  0  0  0  0  0  0  0
   14.2072   37.4493   31.5564 H   0  0  0  0  0  0  0  0  0  0  0  0
    9.5321   36.3882   31.6772 H   0  0  0  0  0  0  0  0  0  0  0  0
   12.1344   35.7838   32.5583 H   0  0  0  0  0  0  0  0  0  0  0  0
   12.4642   37.0179   29.9675 H   0  0  0  0  0  0  0  0  0  0  0  0
   12.4333   38.4006   34.8692 H   0  0  0  0  0  0  0  0  0  0  0  0
   17.2668   34.4144   33.1692 H   0  0  0  0  0  0  0  0  0  0  0  0
   16.7634   35.0600   37.7896 H   0  0  0  0  0  0  0  0  0  0  0  0
   15.3755   36.1866   37.9789 H   0  0  0  0  0  0  0  0  0  0  0  0
  1  2  2  0
  1  3  1  0
  3  4  1  0
  4  5  1  0
  6  1  1  0
  7  6  1  0
  6  8  1  0
  8  9  1  0
  9 10  1  0
 10 11  1  0
 11 12  1  0
 12 13  1  0
 13 14  1  0
 13 15  2  0
 14 16  1  0
 16 17  1  0
 17 18  2  0
 19 17  1  0
 18 20  1  0
 21 19  2  0
 19 22  1  0
 20 23  2  0
 23 21  1  0
 22 24  1  0
 22 25  2  0
  4 26  2  0
  4 27  1  0
 28 27  1  0
 28 29  1  0
 29 30  1  0
 29 31  1  0
 30 32  1  0
 31 33  1  0
 31 34  1  0
 34 32  1  0
 32 35  1  0
 34 36  1  0
 37 35  1  0
 38 35  1  0
 39 37  2  0
 37 40  1  0
 41 38  2  0
 42 39  1  0
 40 43  2  0
 40 41  1  0
 44 42  2  0
 44 43  1  0
 43 45  1  0
  6 46  1  6
  7 47  1  0
  7 48  1  0
  8 49  1  0
  8 50  1  0
  9 51  1  0
  9 52  1  0
 10 53  1  0
 10 54  1  0
 11 55  1  0
 11 56  1  0
 12 57  1  0
 16 58  1  0
 16 59  1  0
 18 60  1  0
 20 61  1  0
 21 62  1  0
 23 63  1  0
 28 64  1  0
 28 65  1  0
 29 66  1  0
 31 67  1  0
 32 68  1  0
 33 69  1  0
 34 70  1  0
 36 71  1  0
 38 72  1  0
 42 73  1  0
 45 74  1  0
 45 75  1  0
M  CHG  3   5  -1  22   1  24  -1
M  END
>  <EmbedRMS>  (496) 
0.0753884335098

$$$$

     RDKit          3D

 75 78  0  0  0  0  0  0  0  0999 V2000
    9.4335   42.9369   34.3455 C   0  0  0  0  0  0  0  0  0  0  0  0
   10.4907   43.0332   35.0315 O   0  0  0  0  0  0  0  0  0  0  0  0
    8.8563   41.7107   34.0291 O   0  0  0  0  0  0  0  0  0  0  0  0
    9.4944   40.2144   34.4678 P   0  0  0  0  0  0  0  0  0  0  0  0
    9.7307   40.1729   36.1290 O   0  0  0  0  0  0  0  0  0  0  0  0
    8.7509   44.1355   33.7737 C   0  0  1  0  0  0  0  0  0  0  0  0
    9.2967   45.3822   34.3135 N   0  0  0  0  0  0  0  0  0  0  0  0
    8.8899   44.0552   32.2353 C   0  0  0  0  0  0  0  0  0  0  0  0
    8.2028   45.1859   31.4624 C   0  0  0  0  0  0  0  0  0  0  0  0
    6.6652   45.1062   31.4856 C   0  0  0  0  0  0  0  0  0  0  0  0
    6.0240   46.3220   30.8083 C   0  0  0  0  0  0  0  0  0  0  0  0
    6.4972   47.5657   31.4155 N   0  0  0  0  0  0  0  0  0  0  0  0
    7.2575   48.5294   30.6899 C   0  0  0  0  0  0  0  0  0  0  0  0
    7.6734   49.6966   31.3383 O   0  0  0  0  0  0  0  0  0  0  0  0
    7.5905   48.3102   29.4937 O   0  0  0  0  0  0  0  0  0  0  0  0
    8.6255   50.6000   30.7802 C   0  0  0  0  0  0  0  0  0  0  0  0
    9.9897   49.9510   30.7063 C   0  0  0  0  0  0  0  0  0  0  0  0
   10.6239   49.8614   29.4534 C   0  0  0  0  0  0  0  0  0  0  0  0
   10.6176   49.3729   31.8447 C   0  0  0  0  0  0  0  0  0  0  0  0
   11.8461   49.2024   29.3186 C   0  0  0  0  0  0  0  0  0  0  0  0
   11.8408   48.6983   31.6812 C   0  0  0  0  0  0  0  0  0  0  0  0
   10.0306   49.4348   33.1582 N   0  0  0  0  0  0  0  0  0  0  0  0
   12.4506   48.6176   30.4289 C   0  0  0  0  0  0  0  0  0  0  0  0
   10.2930   48.4429   34.0750 O   0  0  0  0  0  0  0  0  0  0  0  0
    9.4207   50.4544   33.5390 O   0  0  0  0  0  0  0  0  0  0  0  0
    8.5372   39.1388   34.0124 O   0  0  0  0  0  0  0  0  0  0  0  0
   10.9804   40.0881   33.6837 O   0  0  0  0  0  0  0  0  0  0  0  0
   10.8025   40.0900   32.2838 C   0  0  0  0  0  0  0  0  0  0  0  0
   11.5889   38.9174   31.7007 C   0  0  0  0  0  0  0  0  0  0  0  0
   12.9220   38.9373   32.1692 O   0  0  0  0  0  0  0  0  0  0  0  0
   11.0028   37.5682   32.0980 C   0  0  0  0  0  0  0  0  0  0  0  0
   13.3496   37.5885   32.2601 C   0  0  0  0  0  0  0  0  0  0  0  0
    9.9343   37.1822   31.2756 O   0  0  0  0  0  0  0  0  0  0  0  0
   12.1891   36.6677   31.9049 C   0  0  0  0  0  0  0  0  0  0  0  0
   13.8025   37.2965   33.6186 N   0  0  0  0  0  0  0  0  0  0  0  0
   12.2991   36.2867   30.5567 O   0  0  0  0  0  0  0  0  0  0  0  0
   14.7929   36.4725   33.9858 C   0  0  0  0  0  0  0  0  0  0  0  0
   13.2749   37.7294   34.7935 C   0  0  0  0  0  0  0  0  0  0  0  0
   15.6240   35.7580   33.1858 N   0  0  0  0  0  0  0  0  0  0  0  0
   14.8727   36.4411   35.3327 C   0  0  0  0  0  0  0  0  0  0  0  0
   13.9208   37.2263   35.8803 N   0  0  0  0  0  0  0  0  0  0  0  0
   16.5871   34.9921   33.7801 C   0  0  0  0  0  0  0  0  0  0  0  0
   15.8576   35.6718   35.9441 C   0  0  0  0  0  0  0  0  0  0  0  0
   16.7024   34.9584   35.1438 N   0  0  0  0  0  0  0  0  0  0  0  0
   16.0099   35.6384   37.3562 N   0  0  0  0  0  0  0  0  0  0  0  0
    7.6773   44.0714   34.0497 H   0  0  0  0  0  0  0  0  0  0  0  0
   10.3194   45.4413   34.0991 H   0  0  0  0  0  0  0  0  0  0  0  0
    9.1840   45.3819   35.3537 H   0  0  0  0  0  0  0  0  0  0  0  0
    8.4830   43.0877   31.8651 H   0  0  0  0  0  0  0  0  0  0  0  0
    9.9717   44.0720   31.9737 H   0  0  0  0  0  0  0  0  0  0  0  0
    8.5393   45.1424   30.4034 H   0  0  0  0  0  0  0  0  0  0  0  0
    8.5537   46.1547   31.8769 H   0  0  0  0  0  0  0  0  0  0  0  0
    6.3313   44.1802   30.9691 H   0  0  0  0  0  0  0  0  0  0  0  0
    6.3015   45.0666   32.5333 H   0  0  0  0  0  0  0  0  0  0  0  0
    4.9205   46.2630   30.9217 H   0  0  0  0  0  0  0  0  0  0  0  0
    6.2458   46.2890   29.7200 H   0  0  0  0  0  0  0  0  0  0  0  0
    6.2759   47.7521   32.4195 H   0  0  0  0  0  0  0  0  0  0  0  0
    8.6822   51.5099   31.4118 H   0  0  0  0  0  0  0  0  0  0  0  0
    8.2721   50.9329   29.7795 H   0  0  0  0  0  0  0  0  0  0  0  0
   10.1646   50.2906   28.5714 H   0  0  0  0  0  0  0  0  0  0  0  0
   12.3212   49.1374   28.3482 H   0  0  0  0  0  0  0  0  0  0  0  0
   12.3340   48.2444   32.5313 H   0  0  0  0  0  0  0  0  0  0  0  0
   13.3959   48.1017   30.3202 H   0  0  0  0  0  0  0  0  0  0  0  0
   11.2259   41.0357   31.8830 H   0  0  0  0  0  0  0  0  0  0  0  0
    9.7477   40.0332   31.9255 H   0  0  0  0  0  0  0  0  0  0  0  0
   11.5975   39.0148   30.5904 H   0  0  0  0  0  0  0  0  0  0  0  0
   10.7023   37.5455   33.1719 H   0  0  0  0  0  0  0  0  0  0  0  0
   14.1957   37.4366   31.5528 H   0  0  0  0  0  0  0  0  0  0  0  0
    9.1340   37.6659   31.6068 H   0  0  0  0  0  0  0  0  0  0  0  0
   12.1380   35.7717   32.5697 H   0  0  0  0  0  0  0  0  0  0  0  0
   11.7707   35.4530   30.4496 H   0  0  0  0  0  0  0  0  0  0  0  0
   12.4314   38.3980   34.8694 H   0  0  0  0  0  0  0  0  0  0  0  0
   17.2665   34.4140   33.1691 H   0  0  0  0  0  0  0  0  0  0  0  0
   15.3757   36.1868   37.9789 H   0  0  0  0  0  0  0  0  0  0  0  0
   16.7633   35.0598   37.7895 H   0  0  0  0  0  0  0  0  0  0  0  0
  1  2  2  0
  1  3  1  0
  3  4  1  0
  4  5  1  0
  6  1  1  0
  7  6  1  0
  6  8  1  0
  8  9  1  0
  9 10  1  0
 10 11  1  0
 11 12  1  0
 12 13  1  0
 13 14  1  0
 13 15  2  0
 14 16  1  0
 16 17  1  0
 17 18  2  0
 19 17  1  0
 18 20  1  0
 21 19  2  0
 19 22  1  0
 20 23  2  0
 23 21  1  0
 22 24  1  0
 22 25  2  0
  4 26  2  0
  4 27  1  0
 28 27  1  0
 28 29  1  0
 29 30  1  0
 29 31  1  0
 30 32  1  0
 31 33  1  0
 31 34  1  0
 34 32  1  0
 32 35  1  0
 34 36  1  0
 37 35  1  0
 38 35  1  0
 39 37  2  0
 37 40  1  0
 41 38  2  0
 42 39  1  0
 40 43  2  0
 40 41  1  0
 44 42  2  0
 44 43  1  0
 43 45  1  0
  6 46  1  6
  7 47  1  0
  7 48  1  0
  8 49  1  0
  8 50  1  0
  9 51  1  0
  9 52  1  0
 10 53  1  0
 10 54  1  0
 11 55  1  0
 11 56  1  0
 12 57  1  0
 16 58  1  0
 16 59  1  0
 18 60  1  0
 20 61  1  0
 21 62  1  0
 23 63  1  0
 28 64  1  0
 28 65  1  0
 29 66  1  0
 31 67  1  0
 32 68  1  0
 33 69  1  0
 34 70  1  0
 36 71  1  0
 38 72  1  0
 42 73  1  0
 45 74  1  0
 45 75  1  0
M  CHG  3   5  -1  22   1  24  -1
M  END
>  <EmbedRMS>  (497) 
0.0747345803024

$$$$

     RDKit          3D

 75 78  0  0  0  0  0  0  0  0999 V2000
    9.4337   42.9357   34.3453 C   0  0  0  0  0  0  0  0  0  0  0  0
   10.4911   43.0320   35.0311 O   0  0  0  0  0  0  0  0  0  0  0  0
    8.8562   41.7099   34.0291 O   0  0  0  0  0  0  0  0  0  0  0  0
    9.4944   40.2139   34.4679 P   0  0  0  0  0  0  0  0  0  0  0  0
    9.7307   40.1726   36.1290 O   0  0  0  0  0  0  0  0  0  0  0  0
    8.7514   44.1343   33.7741 C   0  0  1  0  0  0  0  0  0  0  0  0
    9.2989   45.3794   34.3141 N   0  0  0  0  0  0  0  0  0  0  0  0
    8.8892   44.0540   32.2359 C   0  0  0  0  0  0  0  0  0  0  0  0
    8.2033   45.1859   31.4645 C   0  0  0  0  0  0  0  0  0  0  0  0
    6.6662   45.1074   31.4872 C   0  0  0  0  0  0  0  0  0  0  0  0
    6.0296   46.3233   30.8072 C   0  0  0  0  0  0  0  0  0  0  0  0
    6.4996   47.5674   31.4182 N   0  0  0  0  0  0  0  0  0  0  0  0
    7.2369   48.5468   30.6783 C   0  0  0  0  0  0  0  0  0  0  0  0
    7.5713   49.7938   31.2231 O   0  0  0  0  0  0  0  0  0  0  0  0
    7.5991   48.2986   29.4987 O   0  0  0  0  0  0  0  0  0  0  0  0
    7.2652   50.2435   32.5428 C   0  0  0  0  0  0  0  0  0  0  0  0
    8.1791   49.6167   33.5737 C   0  0  0  0  0  0  0  0  0  0  0  0
    7.6053   48.7851   34.5552 C   0  0  0  0  0  0  0  0  0  0  0  0
    9.5703   49.9185   33.6532 C   0  0  0  0  0  0  0  0  0  0  0  0
    8.3848   48.2284   35.5678 C   0  0  0  0  0  0  0  0  0  0  0  0
   10.3353   49.3403   34.6832 C   0  0  0  0  0  0  0  0  0  0  0  0
   10.2158   50.8506   32.7631 N   0  0  0  0  0  0  0  0  0  0  0  0
    9.7489   48.4971   35.6260 C   0  0  0  0  0  0  0  0  0  0  0  0
   11.3062   51.5688   33.1982 O   0  0  0  0  0  0  0  0  0  0  0  0
    9.8986   50.9235   31.5595 O   0  0  0  0  0  0  0  0  0  0  0  0
    8.5372   39.1383   34.0124 O   0  0  0  0  0  0  0  0  0  0  0  0
   10.9804   40.0879   33.6837 O   0  0  0  0  0  0  0  0  0  0  0  0
   10.8025   40.0899   32.2839 C   0  0  0  0  0  0  0  0  0  0  0  0
   11.5889   38.9174   31.7007 C   0  0  0  0  0  0  0  0  0  0  0  0
   12.9220   38.9373   32.1692 O   0  0  0  0  0  0  0  0  0  0  0  0
   11.0028   37.5682   32.0980 C   0  0  0  0  0  0  0  0  0  0  0  0
   13.3496   37.5885   32.2601 C   0  0  0  0  0  0  0  0  0  0  0  0
    9.9343   37.1822   31.2756 O   0  0  0  0  0  0  0  0  0  0  0  0
   12.1891   36.6677   31.9049 C   0  0  0  0  0  0  0  0  0  0  0  0
   13.8025   37.2965   33.6186 N   0  0  0  0  0  0  0  0  0  0  0  0
   12.2991   36.2867   30.5567 O   0  0  0  0  0  0  0  0  0  0  0  0
   14.7929   36.4725   33.9858 C   0  0  0  0  0  0  0  0  0  0  0  0
   13.2749   37.7294   34.7935 C   0  0  0  0  0  0  0  0  0  0  0  0
   15.6240   35.7580   33.1858 N   0  0  0  0  0  0  0  0  0  0  0  0
   14.8727   36.4411   35.3327 C   0  0  0  0  0  0  0  0  0  0  0  0
   13.9208   37.2263   35.8803 N   0  0  0  0  0  0  0  0  0  0  0  0
   16.5871   34.9921   33.7801 C   0  0  0  0  0  0  0  0  0  0  0  0
   15.8576   35.6718   35.9441 C   0  0  0  0  0  0  0  0  0  0  0  0
   16.7024   34.9584   35.1438 N   0  0  0  0  0  0  0  0  0  0  0  0
   16.0099   35.6384   37.3562 N   0  0  0  0  0  0  0  0  0  0  0  0
    7.6779   44.0716   34.0513 H   0  0  0  0  0  0  0  0  0  0  0  0
   10.3185   45.4446   34.0875 H   0  0  0  0  0  0  0  0  0  0  0  0
    9.2012   45.3691   35.3558 H   0  0  0  0  0  0  0  0  0  0  0  0
    9.9708   44.0689   31.9734 H   0  0  0  0  0  0  0  0  0  0  0  0
    8.4804   43.0873   31.8658 H   0  0  0  0  0  0  0  0  0  0  0  0
    8.5402   45.1433   30.4055 H   0  0  0  0  0  0  0  0  0  0  0  0
    8.5536   46.1542   31.8810 H   0  0  0  0  0  0  0  0  0  0  0  0
    6.3020   45.0708   32.5350 H   0  0  0  0  0  0  0  0  0  0  0  0
    6.3313   44.1813   30.9718 H   0  0  0  0  0  0  0  0  0  0  0  0
    6.2562   46.2892   29.7201 H   0  0  0  0  0  0  0  0  0  0  0  0
    4.9254   46.2642   30.9143 H   0  0  0  0  0  0  0  0  0  0  0  0
    6.2284   47.7459   32.4068 H   0  0  0  0  0  0  0  0  0  0  0  0
    6.1919   50.0542   32.7618 H   0  0  0  0  0  0  0  0  0  0  0  0
    7.3965   51.3452   32.5811 H   0  0  0  0  0  0  0  0  0  0  0  0
    6.5426   48.5793   34.5541 H   0  0  0  0  0  0  0  0  0  0  0  0
    7.9282   47.5884   36.3117 H   0  0  0  0  0  0  0  0  0  0  0  0
   11.3952   49.5468   34.7599 H   0  0  0  0  0  0  0  0  0  0  0  0
   10.3524   48.0605   36.4114 H   0  0  0  0  0  0  0  0  0  0  0  0
    9.7477   40.0332   31.9255 H   0  0  0  0  0  0  0  0  0  0  0  0
   11.2259   41.0357   31.8831 H   0  0  0  0  0  0  0  0  0  0  0  0
   11.5975   39.0148   30.5904 H   0  0  0  0  0  0  0  0  0  0  0  0
   10.7024   37.5455   33.1719 H   0  0  0  0  0  0  0  0  0  0  0  0
   14.1957   37.4366   31.5528 H   0  0  0  0  0  0  0  0  0  0  0  0
    9.1340   37.6658   31.6068 H   0  0  0  0  0  0  0  0  0  0  0  0
   12.1381   35.7717   32.5697 H   0  0  0  0  0  0  0  0  0  0  0  0
   11.7707   35.4530   30.4496 H   0  0  0  0  0  0  0  0  0  0  0  0
   12.4314   38.3980   34.8694 H   0  0  0  0  0  0  0  0  0  0  0  0
   17.2665   34.4140   33.1691 H   0  0  0  0  0  0  0  0  0  0  0  0
   16.7633   35.0598   37.7895 H   0  0  0  0  0  0  0  0  0  0  0  0
   15.3757   36.1868   37.9789 H   0  0  0  0  0  0  0  0  0  0  0  0
  1  2  2  0
  1  3  1  0
  3  4  1  0
  4  5  1  0
  6  1  1  0
  7  6  1  0
  6  8  1  0
  8  9  1  0
  9 10  1  0
 10 11  1  0
 11 12  1  0
 12 13  1  0
 13 14  1  0
 13 15  2  0
 14 16  1  0
 16 17  1  0
 17 18  2  0
 19 17  1  0
 18 20  1  0
 21 19  2  0
 19 22  1  0
 20 23  2  0
 23 21  1  0
 22 24  1  0
 22 25  2  0
  4 26  2  0
  4 27  1  0
 28 27  1  0
 28 29  1  0
 29 30  1  0
 29 31  1  0
 30 32  1  0
 31 33  1  0
 31 34  1  0
 34 32  1  0
 32 35  1  0
 34 36  1  0
 37 35  1  0
 38 35  1  0
 39 37  2  0
 37 40  1  0
 41 38  2  0
 42 39  1  0
 40 43  2  0
 40 41  1  0
 44 42  2  0
 44 43  1  0
 43 45  1  0
  6 46  1  6
  7 47  1  0
  7 48  1  0
  8 49  1  0
  8 50  1  0
  9 51  1  0
  9 52  1  0
 10 53  1  0
 10 54  1  0
 11 55  1  0
 11 56  1  0
 12 57  1  0
 16 58  1  0
 16 59  1  0
 18 60  1  0
 20 61  1  0
 21 62  1  0
 23 63  1  0
 28 64  1  0
 28 65  1  0
 29 66  1  0
 31 67  1  0
 32 68  1  0
 33 69  1  0
 34 70  1  0
 36 71  1  0
 38 72  1  0
 42 73  1  0
 45 74  1  0
 45 75  1  0
M  CHG  3   5  -1  22   1  24  -1
M  END
>  <EmbedRMS>  (498) 
0.0745367404506

$$$$

     RDKit          3D

 75 78  0  0  0  0  0  0  0  0999 V2000
    9.4334   42.9372   34.3459 C   0  0  0  0  0  0  0  0  0  0  0  0
   10.4909   43.0336   35.0316 O   0  0  0  0  0  0  0  0  0  0  0  0
    8.8560   41.7110   34.0302 O   0  0  0  0  0  0  0  0  0  0  0  0
    9.4930   40.2147   34.4707 P   0  0  0  0  0  0  0  0  0  0  0  0
    9.7287   40.1732   36.1317 O   0  0  0  0  0  0  0  0  0  0  0  0
    8.7510   44.1358   33.7737 C   0  0  1  0  0  0  0  0  0  0  0  0
    9.2966   45.3830   34.3132 N   0  0  0  0  0  0  0  0  0  0  0  0
    8.8895   44.0547   32.2354 C   0  0  0  0  0  0  0  0  0  0  0  0
    8.2024   45.1850   31.4619 C   0  0  0  0  0  0  0  0  0  0  0  0
    6.6647   45.1058   31.4852 C   0  0  0  0  0  0  0  0  0  0  0  0
    6.0240   46.3217   30.8075 C   0  0  0  0  0  0  0  0  0  0  0  0
    6.4970   47.5652   31.4153 N   0  0  0  0  0  0  0  0  0  0  0  0
    7.2609   48.5277   30.6919 C   0  0  0  0  0  0  0  0  0  0  0  0
    7.6831   49.6898   31.3453 O   0  0  0  0  0  0  0  0  0  0  0  0
    7.5886   48.3121   29.4937 O   0  0  0  0  0  0  0  0  0  0  0  0
    8.6453   50.5914   30.8021 C   0  0  0  0  0  0  0  0  0  0  0  0
   10.0155   49.9529   30.7786 C   0  0  0  0  0  0  0  0  0  0  0  0
   10.5374   49.5353   29.5401 C   0  0  0  0  0  0  0  0  0  0  0  0
   10.7989   49.7824   31.9547 C   0  0  0  0  0  0  0  0  0  0  0  0
   11.8041   48.9572   29.4575 C   0  0  0  0  0  0  0  0  0  0  0  0
   12.0789   49.2091   31.8439 C   0  0  0  0  0  0  0  0  0  0  0  0
   10.3428   50.2068   33.2538 N   0  0  0  0  0  0  0  0  0  0  0  0
   12.5735   48.7952   30.6068 C   0  0  0  0  0  0  0  0  0  0  0  0
   11.2568   50.5760   34.2141 O   0  0  0  0  0  0  0  0  0  0  0  0
    9.1438   50.1015   33.5812 O   0  0  0  0  0  0  0  0  0  0  0  0
    8.5366   39.1389   34.0140 O   0  0  0  0  0  0  0  0  0  0  0  0
   10.9794   40.0875   33.6889 O   0  0  0  0  0  0  0  0  0  0  0  0
   10.8018   40.0948   32.2901 C   0  0  0  0  0  0  0  0  0  0  0  0
   11.5885   38.9266   31.7041 C   0  0  0  0  0  0  0  0  0  0  0  0
   12.9237   38.9445   32.1721 O   0  0  0  0  0  0  0  0  0  0  0  0
   11.0029   37.5726   32.0908 C   0  0  0  0  0  0  0  0  0  0  0  0
   13.3555   37.5960   32.2594 C   0  0  0  0  0  0  0  0  0  0  0  0
    9.9380   37.1846   31.2656 O   0  0  0  0  0  0  0  0  0  0  0  0
   12.1932   36.6769   31.8952 C   0  0  0  0  0  0  0  0  0  0  0  0
   13.8028   37.2977   33.6186 N   0  0  0  0  0  0  0  0  0  0  0  0
   12.2918   36.2396   30.5587 O   0  0  0  0  0  0  0  0  0  0  0  0
   14.7926   36.4727   33.9858 C   0  0  0  0  0  0  0  0  0  0  0  0
   13.2750   37.7302   34.7935 C   0  0  0  0  0  0  0  0  0  0  0  0
   15.6241   35.7586   33.1857 N   0  0  0  0  0  0  0  0  0  0  0  0
   14.8721   36.4408   35.3326 C   0  0  0  0  0  0  0  0  0  0  0  0
   13.9204   37.2263   35.8802 N   0  0  0  0  0  0  0  0  0  0  0  0
   16.5870   34.9925   33.7800 C   0  0  0  0  0  0  0  0  0  0  0  0
   15.8572   35.6717   35.9441 C   0  0  0  0  0  0  0  0  0  0  0  0
   16.7022   34.9585   35.1437 N   0  0  0  0  0  0  0  0  0  0  0  0
   16.0097   35.6384   37.3561 N   0  0  0  0  0  0  0  0  0  0  0  0
    7.6773   44.0718   34.0499 H   0  0  0  0  0  0  0  0  0  0  0  0
   10.3191   45.4430   34.0979 H   0  0  0  0  0  0  0  0  0  0  0  0
    9.1847   45.3824   35.3535 H   0  0  0  0  0  0  0  0  0  0  0  0
    9.9713   44.0710   31.9735 H   0  0  0  0  0  0  0  0  0  0  0  0
    8.4824   43.0871   31.8658 H   0  0  0  0  0  0  0  0  0  0  0  0
    8.5535   46.1539   31.8756 H   0  0  0  0  0  0  0  0  0  0  0  0
    8.5387   45.1407   30.4028 H   0  0  0  0  0  0  0  0  0  0  0  0
    6.3306   44.1798   30.9689 H   0  0  0  0  0  0  0  0  0  0  0  0
    6.3011   45.0665   32.5329 H   0  0  0  0  0  0  0  0  0  0  0  0
    6.2467   46.2888   29.7194 H   0  0  0  0  0  0  0  0  0  0  0  0
    4.9204   46.2628   30.9201 H   0  0  0  0  0  0  0  0  0  0  0  0
    6.2752   47.7509   32.4193 H   0  0  0  0  0  0  0  0  0  0  0  0
    8.3233   50.9031   29.7840 H   0  0  0  0  0  0  0  0  0  0  0  0
    8.6754   51.5145   31.4180 H   0  0  0  0  0  0  0  0  0  0  0  0
    9.9614   49.6567   28.6309 H   0  0  0  0  0  0  0  0  0  0  0  0
   12.1912   48.6374   28.4986 H   0  0  0  0  0  0  0  0  0  0  0  0
   12.6944   49.0691   32.7234 H   0  0  0  0  0  0  0  0  0  0  0  0
   13.5573   48.3486   30.5397 H   0  0  0  0  0  0  0  0  0  0  0  0
   11.2242   41.0427   31.8934 H   0  0  0  0  0  0  0  0  0  0  0  0
    9.7473   40.0379   31.9303 H   0  0  0  0  0  0  0  0  0  0  0  0
   11.5927   39.0434   30.5965 H   0  0  0  0  0  0  0  0  0  0  0  0
   10.7003   37.5442   33.1640 H   0  0  0  0  0  0  0  0  0  0  0  0
   14.2052   37.4477   31.5560 H   0  0  0  0  0  0  0  0  0  0  0  0
    9.1374   37.6722   31.5904 H   0  0  0  0  0  0  0  0  0  0  0  0
   12.1305   35.7855   32.5585 H   0  0  0  0  0  0  0  0  0  0  0  0
   12.4606   37.0186   29.9674 H   0  0  0  0  0  0  0  0  0  0  0  0
   12.4327   38.4001   34.8694 H   0  0  0  0  0  0  0  0  0  0  0  0
   17.2666   34.4146   33.1690 H   0  0  0  0  0  0  0  0  0  0  0  0
   16.7634   35.0601   37.7894 H   0  0  0  0  0  0  0  0  0  0  0  0
   15.3754   36.1866   37.9788 H   0  0  0  0  0  0  0  0  0  0  0  0
  1  2  2  0
  1  3  1  0
  3  4  1  0
  4  5  1  0
  6  1  1  0
  7  6  1  0
  6  8  1  0
  8  9  1  0
  9 10  1  0
 10 11  1  0
 11 12  1  0
 12 13  1  0
 13 14  1  0
 13 15  2  0
 14 16  1  0
 16 17  1  0
 17 18  2  0
 19 17  1  0
 18 20  1  0
 21 19  2  0
 19 22  1  0
 20 23  2  0
 23 21  1  0
 22 24  1  0
 22 25  2  0
  4 26  2  0
  4 27  1  0
 28 27  1  0
 28 29  1  0
 29 30  1  0
 29 31  1  0
 30 32  1  0
 31 33  1  0
 31 34  1  0
 34 32  1  0
 32 35  1  0
 34 36  1  0
 37 35  1  0
 38 35  1  0
 39 37  2  0
 37 40  1  0
 41 38  2  0
 42 39  1  0
 40 43  2  0
 40 41  1  0
 44 42  2  0
 44 43  1  0
 43 45  1  0
  6 46  1  6
  7 47  1  0
  7 48  1  0
  8 49  1  0
  8 50  1  0
  9 51  1  0
  9 52  1  0
 10 53  1  0
 10 54  1  0
 11 55  1  0
 11 56  1  0
 12 57  1  0
 16 58  1  0
 16 59  1  0
 18 60  1  0
 20 61  1  0
 21 62  1  0
 23 63  1  0
 28 64  1  0
 28 65  1  0
 29 66  1  0
 31 67  1  0
 32 68  1  0
 33 69  1  0
 34 70  1  0
 36 71  1  0
 38 72  1  0
 42 73  1  0
 45 74  1  0
 45 75  1  0
M  CHG  3   5  -1  22   1  24  -1
M  END
>  <EmbedRMS>  (499) 
0.0762722763592

$$$$

     RDKit          3D

 75 78  0  0  0  0  0  0  0  0999 V2000
    9.4330   42.9366   34.3465 C   0  0  0  0  0  0  0  0  0  0  0  0
   10.4907   43.0330   35.0318 O   0  0  0  0  0  0  0  0  0  0  0  0
    8.8554   41.7104   34.0309 O   0  0  0  0  0  0  0  0  0  0  0  0
    9.4930   40.2143   34.4706 P   0  0  0  0  0  0  0  0  0  0  0  0
    9.7296   40.1727   36.1315 O   0  0  0  0  0  0  0  0  0  0  0  0
    8.7506   44.1349   33.7742 C   0  0  1  0  0  0  0  0  0  0  0  0
    9.2963   45.3821   34.3133 N   0  0  0  0  0  0  0  0  0  0  0  0
    8.8893   44.0527   32.2359 C   0  0  0  0  0  0  0  0  0  0  0  0
    8.2028   45.1823   31.4615 C   0  0  0  0  0  0  0  0  0  0  0  0
    6.6653   45.1046   31.4856 C   0  0  0  0  0  0  0  0  0  0  0  0
    6.0270   46.3226   30.8105 C   0  0  0  0  0  0  0  0  0  0  0  0
    6.5063   47.5640   31.4180 N   0  0  0  0  0  0  0  0  0  0  0  0
    7.2438   48.5391   30.6836 C   0  0  0  0  0  0  0  0  0  0  0  0
    7.5948   49.7394   31.3067 O   0  0  0  0  0  0  0  0  0  0  0  0
    7.5933   48.3118   29.4936 O   0  0  0  0  0  0  0  0  0  0  0  0
    8.3447   50.7587   30.6495 C   0  0  0  0  0  0  0  0  0  0  0  0
    8.5834   51.9483   31.5543 C   0  0  0  0  0  0  0  0  0  0  0  0
    7.7937   52.1276   32.7092 C   0  0  0  0  0  0  0  0  0  0  0  0
    9.6043   52.8943   31.2658 C   0  0  0  0  0  0  0  0  0  0  0  0
    8.0318   53.1928   33.5786 C   0  0  0  0  0  0  0  0  0  0  0  0
    9.8369   53.9509   32.1656 C   0  0  0  0  0  0  0  0  0  0  0  0
   10.4120   52.7983   30.0779 N   0  0  0  0  0  0  0  0  0  0  0  0
    9.0560   54.0977   33.3117 C   0  0  0  0  0  0  0  0  0  0  0  0
    9.8515   52.4298   28.8768 O   0  0  0  0  0  0  0  0  0  0  0  0
   11.5910   53.2090   30.0877 O   0  0  0  0  0  0  0  0  0  0  0  0
    8.5366   39.1382   34.0139 O   0  0  0  0  0  0  0  0  0  0  0  0
   10.9785   40.0883   33.6869 O   0  0  0  0  0  0  0  0  0  0  0  0
   10.7973   40.0895   32.2883 C   0  0  0  0  0  0  0  0  0  0  0  0
   11.5882   38.9234   31.7043 C   0  0  0  0  0  0  0  0  0  0  0  0
   12.9230   38.9440   32.1728 O   0  0  0  0  0  0  0  0  0  0  0  0
   11.0048   37.5703   32.0916 C   0  0  0  0  0  0  0  0  0  0  0  0
   13.3570   37.5960   32.2595 C   0  0  0  0  0  0  0  0  0  0  0  0
    9.9332   37.1986   31.2676 O   0  0  0  0  0  0  0  0  0  0  0  0
   12.1965   36.6751   31.8949 C   0  0  0  0  0  0  0  0  0  0  0  0
   13.8037   37.2979   33.6187 N   0  0  0  0  0  0  0  0  0  0  0  0
   12.2934   36.2389   30.5581 O   0  0  0  0  0  0  0  0  0  0  0  0
   14.7929   36.4726   33.9860 C   0  0  0  0  0  0  0  0  0  0  0  0
   13.2755   37.7304   34.7934 C   0  0  0  0  0  0  0  0  0  0  0  0
   15.6244   35.7585   33.1859 N   0  0  0  0  0  0  0  0  0  0  0  0
   14.8722   36.4406   35.3328 C   0  0  0  0  0  0  0  0  0  0  0  0
   13.9205   37.2262   35.8803 N   0  0  0  0  0  0  0  0  0  0  0  0
   16.5872   34.9923   33.7802 C   0  0  0  0  0  0  0  0  0  0  0  0
   15.8573   35.6715   35.9442 C   0  0  0  0  0  0  0  0  0  0  0  0
   16.7023   34.9584   35.1439 N   0  0  0  0  0  0  0  0  0  0  0  0
   16.0098   35.6384   37.3563 N   0  0  0  0  0  0  0  0  0  0  0  0
    7.6770   44.0708   34.0504 H   0  0  0  0  0  0  0  0  0  0  0  0
    9.1827   45.3822   35.3535 H   0  0  0  0  0  0  0  0  0  0  0  0
   10.3192   45.4407   34.1000 H   0  0  0  0  0  0  0  0  0  0  0  0
    8.4816   43.0850   31.8670 H   0  0  0  0  0  0  0  0  0  0  0  0
    9.9711   44.0680   31.9740 H   0  0  0  0  0  0  0  0  0  0  0  0
    8.5385   45.1362   30.4023 H   0  0  0  0  0  0  0  0  0  0  0  0
    8.5552   46.1510   31.8742 H   0  0  0  0  0  0  0  0  0  0  0  0
    6.3296   44.1799   30.9679 H   0  0  0  0  0  0  0  0  0  0  0  0
    6.3020   45.0643   32.5334 H   0  0  0  0  0  0  0  0  0  0  0  0
    6.2465   46.2897   29.7217 H   0  0  0  0  0  0  0  0  0  0  0  0
    4.9235   46.2673   30.9266 H   0  0  0  0  0  0  0  0  0  0  0  0
    6.2823   47.7531   32.4209 H   0  0  0  0  0  0  0  0  0  0  0  0
    7.7947   51.0960   29.7448 H   0  0  0  0  0  0  0  0  0  0  0  0
    9.3232   50.3262   30.3467 H   0  0  0  0  0  0  0  0  0  0  0  0
    6.9896   51.4435   32.9480 H   0  0  0  0  0  0  0  0  0  0  0  0
    7.4213   53.3146   34.4641 H   0  0  0  0  0  0  0  0  0  0  0  0
   10.6149   54.6774   31.9676 H   0  0  0  0  0  0  0  0  0  0  0  0
    9.2400   54.9210   33.9899 H   0  0  0  0  0  0  0  0  0  0  0  0
    9.7422   40.0186   31.9315 H   0  0  0  0  0  0  0  0  0  0  0  0
   11.2113   41.0390   31.8862 H   0  0  0  0  0  0  0  0  0  0  0  0
   11.5932   39.0396   30.5966 H   0  0  0  0  0  0  0  0  0  0  0  0
   10.6986   37.5585   33.1639 H   0  0  0  0  0  0  0  0  0  0  0  0
   14.2072   37.4492   31.5564 H   0  0  0  0  0  0  0  0  0  0  0  0
    9.5321   36.3881   31.6771 H   0  0  0  0  0  0  0  0  0  0  0  0
   12.1344   35.7838   32.5582 H   0  0  0  0  0  0  0  0  0  0  0  0
   12.4642   37.0179   29.9674 H   0  0  0  0  0  0  0  0  0  0  0  0
   12.4333   38.4005   34.8692 H   0  0  0  0  0  0  0  0  0  0  0  0
   17.2668   34.4144   33.1692 H   0  0  0  0  0  0  0  0  0  0  0  0
   16.7634   35.0600   37.7896 H   0  0  0  0  0  0  0  0  0  0  0  0
   15.3755   36.1866   37.9789 H   0  0  0  0  0  0  0  0  0  0  0  0
  1  2  2  0
  1  3  1  0
  3  4  1  0
  4  5  1  0
  6  1  1  0
  7  6  1  0
  6  8  1  0
  8  9  1  0
  9 10  1  0
 10 11  1  0
 11 12  1  0
 12 13  1  0
 13 14  1  0
 13 15  2  0
 14 16  1  0
 16 17  1  0
 17 18  2  0
 19 17  1  0
 18 20  1  0
 21 19  2  0
 19 22  1  0
 20 23  2  0
 23 21  1  0
 22 24  1  0
 22 25  2  0
  4 26  2  0
  4 27  1  0
 28 27  1  0
 28 29  1  0
 29 30  1  0
 29 31  1  0
 30 32  1  0
 31 33  1  0
 31 34  1  0
 34 32  1  0
 32 35  1  0
 34 36  1  0
 37 35  1  0
 38 35  1  0
 39 37  2  0
 37 40  1  0
 41 38  2  0
 42 39  1  0
 40 43  2  0
 40 41  1  0
 44 42  2  0
 44 43  1  0
 43 45  1  0
  6 46  1  6
  7 47  1  0
  7 48  1  0
  8 49  1  0
  8 50  1  0
  9 51  1  0
  9 52  1  0
 10 53  1  0
 10 54  1  0
 11 55  1  0
 11 56  1  0
 12 57  1  0
 16 58  1  0
 16 59  1  0
 18 60  1  0
 20 61  1  0
 21 62  1  0
 23 63  1  0
 28 64  1  0
 28 65  1  0
 29 66  1  0
 31 67  1  0
 32 68  1  0
 33 69  1  0
 34 70  1  0
 36 71  1  0
 38 72  1  0
 42 73  1  0
 45 74  1  0
 45 75  1  0
M  CHG  3   5  -1  22   1  24  -1
M  END
>  <EmbedRMS>  (500) 
0.0758848795683

$$$$

     RDKit          3D

 75 78  0  0  0  0  0  0  0  0999 V2000
    9.4313   42.9411   34.3437 C   0  0  0  0  0  0  0  0  0  0  0  0
   10.4885   43.0409   35.0294 O   0  0  0  0  0  0  0  0  0  0  0  0
    8.8562   41.7128   34.0287 O   0  0  0  0  0  0  0  0  0  0  0  0
    9.4945   40.2161   34.4677 P   0  0  0  0  0  0  0  0  0  0  0  0
    9.7312   40.1740   36.1288 O   0  0  0  0  0  0  0  0  0  0  0  0
    8.7484   44.1360   33.7721 C   0  0  1  0  0  0  0  0  0  0  0  0
    9.3039   45.3665   34.3388 N   0  0  0  0  0  0  0  0  0  0  0  0
    8.8892   44.0520   32.2308 C   0  0  0  0  0  0  0  0  0  0  0  0
    8.2014   45.1723   31.4437 C   0  0  0  0  0  0  0  0  0  0  0  0
    6.6641   45.1065   31.4886 C   0  0  0  0  0  0  0  0  0  0  0  0
    6.0263   46.3233   30.8118 C   0  0  0  0  0  0  0  0  0  0  0  0
    6.5070   47.5645   31.4185 N   0  0  0  0  0  0  0  0  0  0  0  0
    7.2455   48.5386   30.6839 C   0  0  0  0  0  0  0  0  0  0  0  0
    7.6030   49.7360   31.3091 O   0  0  0  0  0  0  0  0  0  0  0  0
    7.5925   48.3118   29.4931 O   0  0  0  0  0  0  0  0  0  0  0  0
    8.3610   50.7505   30.6558 C   0  0  0  0  0  0  0  0  0  0  0  0
    8.6373   51.8777   31.6208 C   0  0  0  0  0  0  0  0  0  0  0  0
    9.1868   51.5589   32.8763 C   0  0  0  0  0  0  0  0  0  0  0  0
    8.3362   53.2323   31.3227 C   0  0  0  0  0  0  0  0  0  0  0  0
    9.3913   52.5499   33.8375 C   0  0  0  0  0  0  0  0  0  0  0  0
    8.5309   54.2136   32.3108 C   0  0  0  0  0  0  0  0  0  0  0  0
    7.8725   53.6338   30.0245 N   0  0  0  0  0  0  0  0  0  0  0  0
    9.0540   53.8733   33.5591 C   0  0  0  0  0  0  0  0  0  0  0  0
    8.5563   53.2359   28.8988 O   0  0  0  0  0  0  0  0  0  0  0  0
    7.0088   54.5291   29.9202 O   0  0  0  0  0  0  0  0  0  0  0  0
    8.5374   39.1400   34.0124 O   0  0  0  0  0  0  0  0  0  0  0  0
   10.9799   40.0879   33.6828 O   0  0  0  0  0  0  0  0  0  0  0  0
   10.8002   40.0907   32.2831 C   0  0  0  0  0  0  0  0  0  0  0  0
   11.5958   38.9271   31.6964 C   0  0  0  0  0  0  0  0  0  0  0  0
   12.9239   38.9409   32.1767 O   0  0  0  0  0  0  0  0  0  0  0  0
   11.0062   37.5719   32.0794 C   0  0  0  0  0  0  0  0  0  0  0  0
   13.3506   37.5905   32.2614 C   0  0  0  0  0  0  0  0  0  0  0  0
    9.9064   37.1793   31.2946 O   0  0  0  0  0  0  0  0  0  0  0  0
   12.1920   36.6672   31.9003 C   0  0  0  0  0  0  0  0  0  0  0  0
   13.8017   37.2948   33.6193 N   0  0  0  0  0  0  0  0  0  0  0  0
   12.3133   36.2788   30.5561 O   0  0  0  0  0  0  0  0  0  0  0  0
   14.7927   36.4717   33.9862 C   0  0  0  0  0  0  0  0  0  0  0  0
   13.2746   37.7284   34.7941 C   0  0  0  0  0  0  0  0  0  0  0  0
   15.6240   35.7576   33.1859 N   0  0  0  0  0  0  0  0  0  0  0  0
   14.8728   36.4406   35.3330 C   0  0  0  0  0  0  0  0  0  0  0  0
   13.9209   37.2258   35.8808 N   0  0  0  0  0  0  0  0  0  0  0  0
   16.5874   34.9920   33.7802 C   0  0  0  0  0  0  0  0  0  0  0  0
   15.8579   35.6716   35.9443 C   0  0  0  0  0  0  0  0  0  0  0  0
   16.7028   34.9584   35.1439 N   0  0  0  0  0  0  0  0  0  0  0  0
   16.0103   35.6383   37.3563 N   0  0  0  0  0  0  0  0  0  0  0  0
    7.6764   44.0635   34.0548 H   0  0  0  0  0  0  0  0  0  0  0  0
    8.6469   46.1560   34.1433 H   0  0  0  0  0  0  0  0  0  0  0  0
   10.2152   45.5881   33.8748 H   0  0  0  0  0  0  0  0  0  0  0  0
    9.9708   44.0645   31.9679 H   0  0  0  0  0  0  0  0  0  0  0  0
    8.4831   43.0819   31.8666 H   0  0  0  0  0  0  0  0  0  0  0  0
    8.5711   46.1489   31.8177 H   0  0  0  0  0  0  0  0  0  0  0  0
    8.5199   45.0963   30.3809 H   0  0  0  0  0  0  0  0  0  0  0  0
    6.3140   45.0785   32.5413 H   0  0  0  0  0  0  0  0  0  0  0  0
    6.3149   44.1798   30.9837 H   0  0  0  0  0  0  0  0  0  0  0  0
    6.2450   46.2893   29.7229 H   0  0  0  0  0  0  0  0  0  0  0  0
    4.9230   46.2691   30.9291 H   0  0  0  0  0  0  0  0  0  0  0  0
    6.2856   47.7530   32.4221 H   0  0  0  0  0  0  0  0  0  0  0  0
    9.3309   50.3274   30.3155 H   0  0  0  0  0  0  0  0  0  0  0  0
    7.7916   51.0901   29.7681 H   0  0  0  0  0  0  0  0  0  0  0  0
    9.4410   50.5339   33.1181 H   0  0  0  0  0  0  0  0  0  0  0  0
    9.8052   52.2895   34.8032 H   0  0  0  0  0  0  0  0  0  0  0  0
    8.3019   55.2512   32.1024 H   0  0  0  0  0  0  0  0  0  0  0  0
    9.2097   54.6396   34.3075 H   0  0  0  0  0  0  0  0  0  0  0  0
    9.7454   40.0168   31.9263 H   0  0  0  0  0  0  0  0  0  0  0  0
   11.2114   41.0421   31.8829 H   0  0  0  0  0  0  0  0  0  0  0  0
   11.6246   39.0449   30.5889 H   0  0  0  0  0  0  0  0  0  0  0  0
   10.7050   37.5581   33.1500 H   0  0  0  0  0  0  0  0  0  0  0  0
   14.1984   37.4426   31.5553 H   0  0  0  0  0  0  0  0  0  0  0  0
   10.0893   37.4057   30.3459 H   0  0  0  0  0  0  0  0  0  0  0  0
   12.1337   35.7754   32.5703 H   0  0  0  0  0  0  0  0  0  0  0  0
   11.7933   35.4394   30.4514 H   0  0  0  0  0  0  0  0  0  0  0  0
   12.4314   38.3973   34.8700 H   0  0  0  0  0  0  0  0  0  0  0  0
   17.2669   34.4142   33.1692 H   0  0  0  0  0  0  0  0  0  0  0  0
   15.3759   36.1864   37.9790 H   0  0  0  0  0  0  0  0  0  0  0  0
   16.7638   35.0599   37.7896 H   0  0  0  0  0  0  0  0  0  0  0  0
  1  2  2  0
  1  3  1  0
  3  4  1  0
  4  5  1  0
  6  1  1  0
  7  6  1  0
  6  8  1  0
  8  9  1  0
  9 10  1  0
 10 11  1  0
 11 12  1  0
 12 13  1  0
 13 14  1  0
 13 15  2  0
 14 16  1  0
 16 17  1  0
 17 18  2  0
 19 17  1  0
 18 20  1  0
 21 19  2  0
 19 22  1  0
 20 23  2  0
 23 21  1  0
 22 24  1  0
 22 25  2  0
  4 26  2  0
  4 27  1  0
 28 27  1  0
 28 29  1  0
 29 30  1  0
 29 31  1  0
 30 32  1  0
 31 33  1  0
 31 34  1  0
 34 32  1  0
 32 35  1  0
 34 36  1  0
 37 35  1  0
 38 35  1  0
 39 37  2  0
 37 40  1  0
 41 38  2  0
 42 39  1  0
 40 43  2  0
 40 41  1  0
 44 42  2  0
 44 43  1  0
 43 45  1  0
  6 46  1  6
  7 47  1  0
  7 48  1  0
  8 49  1  0
  8 50  1  0
  9 51  1  0
  9 52  1  0
 10 53  1  0
 10 54  1  0
 11 55  1  0
 11 56  1  0
 12 57  1  0
 16 58  1  0
 16 59  1  0
 18 60  1  0
 20 61  1  0
 21 62  1  0
 23 63  1  0
 28 64  1  0
 28 65  1  0
 29 66  1  0
 31 67  1  0
 32 68  1  0
 33 69  1  0
 34 70  1  0
 36 71  1  0
 38 72  1  0
 42 73  1  0
 45 74  1  0
 45 75  1  0
M  CHG  3   5  -1  22   1  24  -1
M  END
>  <EmbedRMS>  (501) 
0.0740043844483

$$$$

     RDKit          3D

 75 78  0  0  0  0  0  0  0  0999 V2000
    9.4301   42.9393   34.3434 C   0  0  0  0  0  0  0  0  0  0  0  0
   10.4913   43.0379   35.0235 O   0  0  0  0  0  0  0  0  0  0  0  0
    8.8550   41.7115   34.0282 O   0  0  0  0  0  0  0  0  0  0  0  0
    9.4942   40.2153   34.4674 P   0  0  0  0  0  0  0  0  0  0  0  0
    9.7309   40.1738   36.1286 O   0  0  0  0  0  0  0  0  0  0  0  0
    8.7413   44.1377   33.7786 C   0  0  1  0  0  0  0  0  0  0  0  0
    9.3017   45.3717   34.3326 N   0  0  0  0  0  0  0  0  0  0  0  0
    8.8963   44.0593   32.2399 C   0  0  0  0  0  0  0  0  0  0  0  0
    8.2026   45.1688   31.4401 C   0  0  0  0  0  0  0  0  0  0  0  0
    6.6652   45.1062   31.4910 C   0  0  0  0  0  0  0  0  0  0  0  0
    6.0274   46.3221   30.8121 C   0  0  0  0  0  0  0  0  0  0  0  0
    6.5070   47.5640   31.4183 N   0  0  0  0  0  0  0  0  0  0  0  0
    7.2448   48.5386   30.6836 C   0  0  0  0  0  0  0  0  0  0  0  0
    7.6005   49.7368   31.3083 O   0  0  0  0  0  0  0  0  0  0  0  0
    7.5925   48.3116   29.4931 O   0  0  0  0  0  0  0  0  0  0  0  0
    8.3573   50.7520   30.6547 C   0  0  0  0  0  0  0  0  0  0  0  0
    8.6310   51.8805   31.6189 C   0  0  0  0  0  0  0  0  0  0  0  0
    9.1797   51.5638   32.8752 C   0  0  0  0  0  0  0  0  0  0  0  0
    8.3281   53.2344   31.3192 C   0  0  0  0  0  0  0  0  0  0  0  0
    9.3818   52.5561   33.8357 C   0  0  0  0  0  0  0  0  0  0  0  0
    8.5204   54.2170   32.3065 C   0  0  0  0  0  0  0  0  0  0  0  0
    7.8650   53.6339   30.0202 N   0  0  0  0  0  0  0  0  0  0  0  0
    9.0427   53.8786   33.5557 C   0  0  0  0  0  0  0  0  0  0  0  0
    8.5504   53.2359   28.8955 O   0  0  0  0  0  0  0  0  0  0  0  0
    7.0001   54.5278   29.9141 O   0  0  0  0  0  0  0  0  0  0  0  0
    8.5375   39.1389   34.0122 O   0  0  0  0  0  0  0  0  0  0  0  0
   10.9797   40.0878   33.6827 O   0  0  0  0  0  0  0  0  0  0  0  0
   10.8002   40.0907   32.2830 C   0  0  0  0  0  0  0  0  0  0  0  0
   11.5958   38.9271   31.6963 C   0  0  0  0  0  0  0  0  0  0  0  0
   12.9239   38.9409   32.1767 O   0  0  0  0  0  0  0  0  0  0  0  0
   11.0062   37.5719   32.0794 C   0  0  0  0  0  0  0  0  0  0  0  0
   13.3506   37.5905   32.2614 C   0  0  0  0  0  0  0  0  0  0  0  0
    9.9064   37.1793   31.2946 O   0  0  0  0  0  0  0  0  0  0  0  0
   12.1920   36.6672   31.9003 C   0  0  0  0  0  0  0  0  0  0  0  0
   13.8017   37.2948   33.6193 N   0  0  0  0  0  0  0  0  0  0  0  0
   12.3133   36.2788   30.5561 O   0  0  0  0  0  0  0  0  0  0  0  0
   14.7927   36.4716   33.9862 C   0  0  0  0  0  0  0  0  0  0  0  0
   13.2746   37.7284   34.7941 C   0  0  0  0  0  0  0  0  0  0  0  0
   15.6240   35.7576   33.1859 N   0  0  0  0  0  0  0  0  0  0  0  0
   14.8728   36.4406   35.3330 C   0  0  0  0  0  0  0  0  0  0  0  0
   13.9209   37.2258   35.8808 N   0  0  0  0  0  0  0  0  0  0  0  0
   16.5874   34.9920   33.7802 C   0  0  0  0  0  0  0  0  0  0  0  0
   15.8579   35.6716   35.9443 C   0  0  0  0  0  0  0  0  0  0  0  0
   16.7028   34.9584   35.1439 N   0  0  0  0  0  0  0  0  0  0  0  0
   16.0103   35.6383   37.3563 N   0  0  0  0  0  0  0  0  0  0  0  0
    7.6669   44.0652   34.0548 H   0  0  0  0  0  0  0  0  0  0  0  0
    9.2335   45.3273   35.3760 H   0  0  0  0  0  0  0  0  0  0  0  0
    8.6811   46.1668   34.0588 H   0  0  0  0  0  0  0  0  0  0  0  0
    8.5085   43.0839   31.8694 H   0  0  0  0  0  0  0  0  0  0  0  0
    9.9810   44.0908   31.9915 H   0  0  0  0  0  0  0  0  0  0  0  0
    8.5766   46.1514   31.7922 H   0  0  0  0  0  0  0  0  0  0  0  0
    8.5157   45.0757   30.3771 H   0  0  0  0  0  0  0  0  0  0  0  0
    6.3126   44.1780   30.9913 H   0  0  0  0  0  0  0  0  0  0  0  0
    6.3181   45.0836   32.5446 H   0  0  0  0  0  0  0  0  0  0  0  0
    4.9239   46.2675   30.9286 H   0  0  0  0  0  0  0  0  0  0  0  0
    6.2471   46.2872   29.7234 H   0  0  0  0  0  0  0  0  0  0  0  0
    6.2848   47.7529   32.4217 H   0  0  0  0  0  0  0  0  0  0  0  0
    7.7880   51.0898   29.7662 H   0  0  0  0  0  0  0  0  0  0  0  0
    9.3282   50.3302   30.3155 H   0  0  0  0  0  0  0  0  0  0  0  0
    9.4353   50.5394   33.1183 H   0  0  0  0  0  0  0  0  0  0  0  0
    9.7951   52.2972   34.8020 H   0  0  0  0  0  0  0  0  0  0  0  0
    8.2899   55.2540   32.0969 H   0  0  0  0  0  0  0  0  0  0  0  0
    9.1966   54.6459   34.3035 H   0  0  0  0  0  0  0  0  0  0  0  0
   11.2115   41.0420   31.8828 H   0  0  0  0  0  0  0  0  0  0  0  0
    9.7454   40.0168   31.9261 H   0  0  0  0  0  0  0  0  0  0  0  0
   11.6246   39.0448   30.5888 H   0  0  0  0  0  0  0  0  0  0  0  0
   10.7050   37.5581   33.1500 H   0  0  0  0  0  0  0  0  0  0  0  0
   14.1985   37.4426   31.5553 H   0  0  0  0  0  0  0  0  0  0  0  0
   10.0893   37.4057   30.3459 H   0  0  0  0  0  0  0  0  0  0  0  0
   12.1337   35.7754   32.5703 H   0  0  0  0  0  0  0  0  0  0  0  0
   11.7934   35.4394   30.4514 H   0  0  0  0  0  0  0  0  0  0  0  0
   12.4314   38.3973   34.8699 H   0  0  0  0  0  0  0  0  0  0  0  0
   17.2669   34.4142   33.1691 H   0  0  0  0  0  0  0  0  0  0  0  0
   16.7638   35.0599   37.7896 H   0  0  0  0  0  0  0  0  0  0  0  0
   15.3759   36.1865   37.9790 H   0  0  0  0  0  0  0  0  0  0  0  0
  1  2  2  0
  1  3  1  0
  3  4  1  0
  4  5  1  0
  6  1  1  0
  7  6  1  0
  6  8  1  0
  8  9  1  0
  9 10  1  0
 10 11  1  0
 11 12  1  0
 12 13  1  0
 13 14  1  0
 13 15  2  0
 14 16  1  0
 16 17  1  0
 17 18  2  0
 19 17  1  0
 18 20  1  0
 21 19  2  0
 19 22  1  0
 20 23  2  0
 23 21  1  0
 22 24  1  0
 22 25  2  0
  4 26  2  0
  4 27  1  0
 28 27  1  0
 28 29  1  0
 29 30  1  0
 29 31  1  0
 30 32  1  0
 31 33  1  0
 31 34  1  0
 34 32  1  0
 32 35  1  0
 34 36  1  0
 37 35  1  0
 38 35  1  0
 39 37  2  0
 37 40  1  0
 41 38  2  0
 42 39  1  0
 40 43  2  0
 40 41  1  0
 44 42  2  0
 44 43  1  0
 43 45  1  0
  6 46  1  6
  7 47  1  0
  7 48  1  0
  8 49  1  0
  8 50  1  0
  9 51  1  0
  9 52  1  0
 10 53  1  0
 10 54  1  0
 11 55  1  0
 11 56  1  0
 12 57  1  0
 16 58  1  0
 16 59  1  0
 18 60  1  0
 20 61  1  0
 21 62  1  0
 23 63  1  0
 28 64  1  0
 28 65  1  0
 29 66  1  0
 31 67  1  0
 32 68  1  0
 33 69  1  0
 34 70  1  0
 36 71  1  0
 38 72  1  0
 42 73  1  0
 45 74  1  0
 45 75  1  0
M  CHG  3   5  -1  22   1  24  -1
M  END
>  <EmbedRMS>  (502) 
0.074148383661

$$$$

     RDKit          3D

 75 78  0  0  0  0  0  0  0  0999 V2000
    9.4311   42.9412   34.3437 C   0  0  0  0  0  0  0  0  0  0  0  0
   10.4884   43.0411   35.0293 O   0  0  0  0  0  0  0  0  0  0  0  0
    8.8562   41.7129   34.0287 O   0  0  0  0  0  0  0  0  0  0  0  0
    9.4945   40.2162   34.4677 P   0  0  0  0  0  0  0  0  0  0  0  0
    9.7312   40.1740   36.1288 O   0  0  0  0  0  0  0  0  0  0  0  0
    8.7482   44.1362   33.7722 C   0  0  1  0  0  0  0  0  0  0  0  0
    9.3036   45.3668   34.3389 N   0  0  0  0  0  0  0  0  0  0  0  0
    8.8891   44.0522   32.2309 C   0  0  0  0  0  0  0  0  0  0  0  0
    8.2016   45.1727   31.4438 C   0  0  0  0  0  0  0  0  0  0  0  0
    6.6644   45.1061   31.4863 C   0  0  0  0  0  0  0  0  0  0  0  0
    6.0277   46.3240   30.8099 C   0  0  0  0  0  0  0  0  0  0  0  0
    6.5059   47.5639   31.4217 N   0  0  0  0  0  0  0  0  0  0  0  0
    7.2509   48.5405   30.6841 C   0  0  0  0  0  0  0  0  0  0  0  0
    7.6444   49.7520   31.2644 O   0  0  0  0  0  0  0  0  0  0  0  0
    7.5875   48.3087   29.4937 O   0  0  0  0  0  0  0  0  0  0  0  0
    7.3595   50.1187   32.6104 C   0  0  0  0  0  0  0  0  0  0  0  0
    7.9253   51.4876   32.8875 C   0  0  0  0  0  0  0  0  0  0  0  0
    9.1537   51.5804   33.5673 C   0  0  0  0  0  0  0  0  0  0  0  0
    7.2487   52.6800   32.5092 C   0  0  0  0  0  0  0  0  0  0  0  0
    9.6988   52.8241   33.8876 C   0  0  0  0  0  0  0  0  0  0  0  0
    7.8096   53.9224   32.8568 C   0  0  0  0  0  0  0  0  0  0  0  0
    5.9969   52.6590   31.7978 N   0  0  0  0  0  0  0  0  0  0  0  0
    9.0258   53.9925   33.5374 C   0  0  0  0  0  0  0  0  0  0  0  0
    5.1025   53.6934   31.9518 O   0  0  0  0  0  0  0  0  0  0  0  0
    5.7752   51.8033   30.9171 O   0  0  0  0  0  0  0  0  0  0  0  0
    8.5374   39.1401   34.0124 O   0  0  0  0  0  0  0  0  0  0  0  0
   10.9799   40.0879   33.6828 O   0  0  0  0  0  0  0  0  0  0  0  0
   10.8002   40.0907   32.2831 C   0  0  0  0  0  0  0  0  0  0  0  0
   11.5958   38.9271   31.6964 C   0  0  0  0  0  0  0  0  0  0  0  0
   12.9239   38.9409   32.1767 O   0  0  0  0  0  0  0  0  0  0  0  0
   11.0062   37.5720   32.0794 C   0  0  0  0  0  0  0  0  0  0  0  0
   13.3506   37.5906   32.2614 C   0  0  0  0  0  0  0  0  0  0  0  0
    9.9064   37.1793   31.2946 O   0  0  0  0  0  0  0  0  0  0  0  0
   12.1920   36.6672   31.9004 C   0  0  0  0  0  0  0  0  0  0  0  0
   13.8017   37.2948   33.6193 N   0  0  0  0  0  0  0  0  0  0  0  0
   12.3133   36.2788   30.5561 O   0  0  0  0  0  0  0  0  0  0  0  0
   14.7927   36.4717   33.9862 C   0  0  0  0  0  0  0  0  0  0  0  0
   13.2746   37.7284   34.7941 C   0  0  0  0  0  0  0  0  0  0  0  0
   15.6240   35.7576   33.1859 N   0  0  0  0  0  0  0  0  0  0  0  0
   14.8728   36.4406   35.3330 C   0  0  0  0  0  0  0  0  0  0  0  0
   13.9209   37.2258   35.8808 N   0  0  0  0  0  0  0  0  0  0  0  0
   16.5874   34.9920   33.7802 C   0  0  0  0  0  0  0  0  0  0  0  0
   15.8579   35.6716   35.9443 C   0  0  0  0  0  0  0  0  0  0  0  0
   16.7028   34.9584   35.1439 N   0  0  0  0  0  0  0  0  0  0  0  0
   16.0103   35.6383   37.3563 N   0  0  0  0  0  0  0  0  0  0  0  0
    7.6761   44.0638   34.0546 H   0  0  0  0  0  0  0  0  0  0  0  0
   10.2147   45.5887   33.8746 H   0  0  0  0  0  0  0  0  0  0  0  0
    8.6463   46.1563   34.1438 H   0  0  0  0  0  0  0  0  0  0  0  0
    9.9707   44.0645   31.9682 H   0  0  0  0  0  0  0  0  0  0  0  0
    8.4829   43.0822   31.8666 H   0  0  0  0  0  0  0  0  0  0  0  0
    8.5217   45.0978   30.3814 H   0  0  0  0  0  0  0  0  0  0  0  0
    8.5701   46.1493   31.8192 H   0  0  0  0  0  0  0  0  0  0  0  0
    6.3164   44.1801   30.9792 H   0  0  0  0  0  0  0  0  0  0  0  0
    6.3125   45.0760   32.5384 H   0  0  0  0  0  0  0  0  0  0  0  0
    6.2486   46.2917   29.7215 H   0  0  0  0  0  0  0  0  0  0  0  0
    4.9240   46.2686   30.9241 H   0  0  0  0  0  0  0  0  0  0  0  0
    6.2755   47.7255   32.4267 H   0  0  0  0  0  0  0  0  0  0  0  0
    7.8129   49.3680   33.2948 H   0  0  0  0  0  0  0  0  0  0  0  0
    6.2634   50.1152   32.7937 H   0  0  0  0  0  0  0  0  0  0  0  0
    9.6911   50.6855   33.8570 H   0  0  0  0  0  0  0  0  0  0  0  0
   10.6434   52.8815   34.4130 H   0  0  0  0  0  0  0  0  0  0  0  0
    7.3110   54.8439   32.5845 H   0  0  0  0  0  0  0  0  0  0  0  0
    9.4491   54.9560   33.7903 H   0  0  0  0  0  0  0  0  0  0  0  0
   11.2114   41.0421   31.8829 H   0  0  0  0  0  0  0  0  0  0  0  0
    9.7454   40.0168   31.9263 H   0  0  0  0  0  0  0  0  0  0  0  0
   11.6246   39.0449   30.5889 H   0  0  0  0  0  0  0  0  0  0  0  0
   10.7050   37.5581   33.1500 H   0  0  0  0  0  0  0  0  0  0  0  0
   14.1984   37.4426   31.5553 H   0  0  0  0  0  0  0  0  0  0  0  0
   10.0893   37.4058   30.3459 H   0  0  0  0  0  0  0  0  0  0  0  0
   12.1337   35.7754   32.5703 H   0  0  0  0  0  0  0  0  0  0  0  0
   11.7933   35.4394   30.4514 H   0  0  0  0  0  0  0  0  0  0  0  0
   12.4314   38.3973   34.8700 H   0  0  0  0  0  0  0  0  0  0  0  0
   17.2669   34.4142   33.1691 H   0  0  0  0  0  0  0  0  0  0  0  0
   15.3759   36.1865   37.9790 H   0  0  0  0  0  0  0  0  0  0  0  0
   16.7638   35.0599   37.7896 H   0  0  0  0  0  0  0  0  0  0  0  0
  1  2  2  0
  1  3  1  0
  3  4  1  0
  4  5  1  0
  6  1  1  0
  7  6  1  0
  6  8  1  0
  8  9  1  0
  9 10  1  0
 10 11  1  0
 11 12  1  0
 12 13  1  0
 13 14  1  0
 13 15  2  0
 14 16  1  0
 16 17  1  0
 17 18  2  0
 19 17  1  0
 18 20  1  0
 21 19  2  0
 19 22  1  0
 20 23  2  0
 23 21  1  0
 22 24  1  0
 22 25  2  0
  4 26  2  0
  4 27  1  0
 28 27  1  0
 28 29  1  0
 29 30  1  0
 29 31  1  0
 30 32  1  0
 31 33  1  0
 31 34  1  0
 34 32  1  0
 32 35  1  0
 34 36  1  0
 37 35  1  0
 38 35  1  0
 39 37  2  0
 37 40  1  0
 41 38  2  0
 42 39  1  0
 40 43  2  0
 40 41  1  0
 44 42  2  0
 44 43  1  0
 43 45  1  0
  6 46  1  6
  7 47  1  0
  7 48  1  0
  8 49  1  0
  8 50  1  0
  9 51  1  0
  9 52  1  0
 10 53  1  0
 10 54  1  0
 11 55  1  0
 11 56  1  0
 12 57  1  0
 16 58  1  0
 16 59  1  0
 18 60  1  0
 20 61  1  0
 21 62  1  0
 23 63  1  0
 28 64  1  0
 28 65  1  0
 29 66  1  0
 31 67  1  0
 32 68  1  0
 33 69  1  0
 34 70  1  0
 36 71  1  0
 38 72  1  0
 42 73  1  0
 45 74  1  0
 45 75  1  0
M  CHG  3   5  -1  22   1  24  -1
M  END
>  <EmbedRMS>  (503) 
0.0740697224143

$$$$

     RDKit          3D

 75 78  0  0  0  0  0  0  0  0999 V2000
    9.4300   42.9399   34.3429 C   0  0  0  0  0  0  0  0  0  0  0  0
   10.4912   43.0382   35.0231 O   0  0  0  0  0  0  0  0  0  0  0  0
    8.8546   41.7121   34.0282 O   0  0  0  0  0  0  0  0  0  0  0  0
    9.4941   40.2159   34.4671 P   0  0  0  0  0  0  0  0  0  0  0  0
    9.7315   40.1740   36.1282 O   0  0  0  0  0  0  0  0  0  0  0  0
    8.7417   44.1388   33.7782 C   0  0  1  0  0  0  0  0  0  0  0  0
    9.3027   45.3724   34.3325 N   0  0  0  0  0  0  0  0  0  0  0  0
    8.8966   44.0614   32.2394 C   0  0  0  0  0  0  0  0  0  0  0  0
    8.2023   45.1714   31.4402 C   0  0  0  0  0  0  0  0  0  0  0  0
    6.6647   45.1076   31.4908 C   0  0  0  0  0  0  0  0  0  0  0  0
    6.0244   46.3213   30.8093 C   0  0  0  0  0  0  0  0  0  0  0  0
    6.4977   47.5654   31.4156 N   0  0  0  0  0  0  0  0  0  0  0  0
    7.2597   48.5285   30.6909 C   0  0  0  0  0  0  0  0  0  0  0  0
    7.6826   49.6905   31.3437 O   0  0  0  0  0  0  0  0  0  0  0  0
    7.5892   48.3108   29.4941 O   0  0  0  0  0  0  0  0  0  0  0  0
    8.6268   50.6052   30.7892 C   0  0  0  0  0  0  0  0  0  0  0  0
    9.9934   49.9634   30.6923 C   0  0  0  0  0  0  0  0  0  0  0  0
   10.5473   49.4162   31.8642 C   0  0  0  0  0  0  0  0  0  0  0  0
   10.7582   49.9490   29.4954 C   0  0  0  0  0  0  0  0  0  0  0  0
   11.8277   48.8615   31.8574 C   0  0  0  0  0  0  0  0  0  0  0  0
   12.0539   49.4058   29.5143 C   0  0  0  0  0  0  0  0  0  0  0  0
   10.2550   50.4848   28.2628 N   0  0  0  0  0  0  0  0  0  0  0  0
   12.5814   48.8601   30.6854 C   0  0  0  0  0  0  0  0  0  0  0  0
   11.0890   51.2192   27.4518 O   0  0  0  0  0  0  0  0  0  0  0  0
    9.1739   50.0721   27.7962 O   0  0  0  0  0  0  0  0  0  0  0  0
    8.5375   39.1393   34.0123 O   0  0  0  0  0  0  0  0  0  0  0  0
   10.9794   40.0898   33.6813 O   0  0  0  0  0  0  0  0  0  0  0  0
   10.7982   40.0850   32.2816 C   0  0  0  0  0  0  0  0  0  0  0  0
   11.5886   38.9143   31.7009 C   0  0  0  0  0  0  0  0  0  0  0  0
   12.9213   38.9368   32.1699 O   0  0  0  0  0  0  0  0  0  0  0  0
   11.0047   37.5661   32.0991 C   0  0  0  0  0  0  0  0  0  0  0  0
   13.3510   37.5885   32.2602 C   0  0  0  0  0  0  0  0  0  0  0  0
    9.9296   37.1961   31.2780 O   0  0  0  0  0  0  0  0  0  0  0  0
   12.1923   36.6659   31.9047 C   0  0  0  0  0  0  0  0  0  0  0  0
   13.8033   37.2967   33.6188 N   0  0  0  0  0  0  0  0  0  0  0  0
   12.3006   36.2865   30.5562 O   0  0  0  0  0  0  0  0  0  0  0  0
   14.7933   36.4724   33.9860 C   0  0  0  0  0  0  0  0  0  0  0  0
   13.2753   37.7296   34.7935 C   0  0  0  0  0  0  0  0  0  0  0  0
   15.6243   35.7579   33.1860 N   0  0  0  0  0  0  0  0  0  0  0  0
   14.8728   36.4410   35.3328 C   0  0  0  0  0  0  0  0  0  0  0  0
   13.9209   37.2263   35.8804 N   0  0  0  0  0  0  0  0  0  0  0  0
   16.5873   34.9919   33.7803 C   0  0  0  0  0  0  0  0  0  0  0  0
   15.8577   35.6717   35.9443 C   0  0  0  0  0  0  0  0  0  0  0  0
   16.7025   34.9583   35.1440 N   0  0  0  0  0  0  0  0  0  0  0  0
   16.0100   35.6384   37.3564 N   0  0  0  0  0  0  0  0  0  0  0  0
    7.6672   44.0668   34.0542 H   0  0  0  0  0  0  0  0  0  0  0  0
    8.6843   46.1686   34.0569 H   0  0  0  0  0  0  0  0  0  0  0  0
    9.2326   45.3286   35.3758 H   0  0  0  0  0  0  0  0  0  0  0  0
    9.9813   44.0939   31.9911 H   0  0  0  0  0  0  0  0  0  0  0  0
    8.5095   43.0860   31.8684 H   0  0  0  0  0  0  0  0  0  0  0  0
    8.5157   45.0794   30.3772 H   0  0  0  0  0  0  0  0  0  0  0  0
    8.5754   46.1544   31.7925 H   0  0  0  0  0  0  0  0  0  0  0  0
    6.3134   44.1779   30.9928 H   0  0  0  0  0  0  0  0  0  0  0  0
    6.3175   45.0862   32.5444 H   0  0  0  0  0  0  0  0  0  0  0  0
    6.2472   46.2863   29.7212 H   0  0  0  0  0  0  0  0  0  0  0  0
    4.9209   46.2631   30.9225 H   0  0  0  0  0  0  0  0  0  0  0  0
    6.2769   47.7517   32.4197 H   0  0  0  0  0  0  0  0  0  0  0  0
    8.2485   50.9950   29.8248 H   0  0  0  0  0  0  0  0  0  0  0  0
    8.7035   51.4777   31.4716 H   0  0  0  0  0  0  0  0  0  0  0  0
    9.9854   49.4246   32.7905 H   0  0  0  0  0  0  0  0  0  0  0  0
   12.2395   48.4403   32.7655 H   0  0  0  0  0  0  0  0  0  0  0  0
   12.6512   49.3900   28.6112 H   0  0  0  0  0  0  0  0  0  0  0  0
   13.5769   48.4351   30.6836 H   0  0  0  0  0  0  0  0  0  0  0  0
    9.7427   40.0141   31.9263 H   0  0  0  0  0  0  0  0  0  0  0  0
   11.2131   41.0321   31.8750 H   0  0  0  0  0  0  0  0  0  0  0  0
   11.5981   39.0107   30.5904 H   0  0  0  0  0  0  0  0  0  0  0  0
   10.7008   37.5604   33.1721 H   0  0  0  0  0  0  0  0  0  0  0  0
   14.1976   37.4380   31.5532 H   0  0  0  0  0  0  0  0  0  0  0  0
    9.5180   36.3962   31.6978 H   0  0  0  0  0  0  0  0  0  0  0  0
   12.1418   35.7698   32.5692 H   0  0  0  0  0  0  0  0  0  0  0  0
   11.7729   35.4524   30.4489 H   0  0  0  0  0  0  0  0  0  0  0  0
   12.4321   38.3985   34.8692 H   0  0  0  0  0  0  0  0  0  0  0  0
   17.2667   34.4138   33.1694 H   0  0  0  0  0  0  0  0  0  0  0  0
   16.7634   35.0598   37.7897 H   0  0  0  0  0  0  0  0  0  0  0  0
   15.3758   36.1867   37.9790 H   0  0  0  0  0  0  0  0  0  0  0  0
  1  2  2  0
  1  3  1  0
  3  4  1  0
  4  5  1  0
  6  1  1  0
  7  6  1  0
  6  8  1  0
  8  9  1  0
  9 10  1  0
 10 11  1  0
 11 12  1  0
 12 13  1  0
 13 14  1  0
 13 15  2  0
 14 16  1  0
 16 17  1  0
 17 18  2  0
 19 17  1  0
 18 20  1  0
 21 19  2  0
 19 22  1  0
 20 23  2  0
 23 21  1  0
 22 24  1  0
 22 25  2  0
  4 26  2  0
  4 27  1  0
 28 27  1  0
 28 29  1  0
 29 30  1  0
 29 31  1  0
 30 32  1  0
 31 33  1  0
 31 34  1  0
 34 32  1  0
 32 35  1  0
 34 36  1  0
 37 35  1  0
 38 35  1  0
 39 37  2  0
 37 40  1  0
 41 38  2  0
 42 39  1  0
 40 43  2  0
 40 41  1  0
 44 42  2  0
 44 43  1  0
 43 45  1  0
  6 46  1  6
  7 47  1  0
  7 48  1  0
  8 49  1  0
  8 50  1  0
  9 51  1  0
  9 52  1  0
 10 53  1  0
 10 54  1  0
 11 55  1  0
 11 56  1  0
 12 57  1  0
 16 58  1  0
 16 59  1  0
 18 60  1  0
 20 61  1  0
 21 62  1  0
 23 63  1  0
 28 64  1  0
 28 65  1  0
 29 66  1  0
 31 67  1  0
 32 68  1  0
 33 69  1  0
 34 70  1  0
 36 71  1  0
 38 72  1  0
 42 73  1  0
 45 74  1  0
 45 75  1  0
M  CHG  3   5  -1  22   1  24  -1
M  END
>  <EmbedRMS>  (504) 
0.0742947324304

$$$$

     RDKit          3D

 75 78  0  0  0  0  0  0  0  0999 V2000
    9.4332   42.9365   34.3464 C   0  0  0  0  0  0  0  0  0  0  0  0
   10.4907   43.0330   35.0319 O   0  0  0  0  0  0  0  0  0  0  0  0
    8.8559   41.7103   34.0304 O   0  0  0  0  0  0  0  0  0  0  0  0
    9.4931   40.2140   34.4703 P   0  0  0  0  0  0  0  0  0  0  0  0
    9.7293   40.1727   36.1313 O   0  0  0  0  0  0  0  0  0  0  0  0
    8.7506   44.1348   33.7741 C   0  0  1  0  0  0  0  0  0  0  0  0
    9.2963   45.3820   34.3133 N   0  0  0  0  0  0  0  0  0  0  0  0
    8.8893   44.0526   32.2358 C   0  0  0  0  0  0  0  0  0  0  0  0
    8.2029   45.1822   31.4614 C   0  0  0  0  0  0  0  0  0  0  0  0
    6.6654   45.1046   31.4854 C   0  0  0  0  0  0  0  0  0  0  0  0
    6.0272   46.3228   30.8107 C   0  0  0  0  0  0  0  0  0  0  0  0
    6.5072   47.5640   31.4182 N   0  0  0  0  0  0  0  0  0  0  0  0
    7.2415   48.5407   30.6826 C   0  0  0  0  0  0  0  0  0  0  0  0
    7.5869   49.7446   31.3058 O   0  0  0  0  0  0  0  0  0  0  0  0
    7.5943   48.3104   29.4945 O   0  0  0  0  0  0  0  0  0  0  0  0
    8.2809   50.8031   30.6476 C   0  0  0  0  0  0  0  0  0  0  0  0
    7.3785   51.5012   29.6566 C   0  0  0  0  0  0  0  0  0  0  0  0
    7.5795   51.2617   28.2844 C   0  0  0  0  0  0  0  0  0  0  0  0
    6.3678   52.4181   30.0604 C   0  0  0  0  0  0  0  0  0  0  0  0
    6.8000   51.9084   27.3253 C   0  0  0  0  0  0  0  0  0  0  0  0
    5.6040   53.0687   29.0740 C   0  0  0  0  0  0  0  0  0  0  0  0
    6.1201   52.7315   31.4445 N   0  0  0  0  0  0  0  0  0  0  0  0
    5.8154   52.8111   27.7192 C   0  0  0  0  0  0  0  0  0  0  0  0
    5.6094   53.9622   31.7883 O   0  0  0  0  0  0  0  0  0  0  0  0
    6.2146   51.8568   32.3289 O   0  0  0  0  0  0  0  0  0  0  0  0
    8.5366   39.1381   34.0136 O   0  0  0  0  0  0  0  0  0  0  0  0
   10.9788   40.0866   33.6873 O   0  0  0  0  0  0  0  0  0  0  0  0
   10.7993   40.0944   32.2886 C   0  0  0  0  0  0  0  0  0  0  0  0
   11.5957   38.9351   31.6994 C   0  0  0  0  0  0  0  0  0  0  0  0
   12.9257   38.9477   32.1798 O   0  0  0  0  0  0  0  0  0  0  0  0
   11.0070   37.5757   32.0732 C   0  0  0  0  0  0  0  0  0  0  0  0
   13.3571   37.5979   32.2612 C   0  0  0  0  0  0  0  0  0  0  0  0
    9.9093   37.1807   31.2875 O   0  0  0  0  0  0  0  0  0  0  0  0
   12.1968   36.6763   31.8893 C   0  0  0  0  0  0  0  0  0  0  0  0
   13.8018   37.2956   33.6197 N   0  0  0  0  0  0  0  0  0  0  0  0
   12.3049   36.2360   30.5554 O   0  0  0  0  0  0  0  0  0  0  0  0
   14.7922   36.4716   33.9864 C   0  0  0  0  0  0  0  0  0  0  0  0
   13.2747   37.7291   34.7944 C   0  0  0  0  0  0  0  0  0  0  0  0
   15.6240   35.7581   33.1861 N   0  0  0  0  0  0  0  0  0  0  0  0
   14.8721   36.4401   35.3331 C   0  0  0  0  0  0  0  0  0  0  0  0
   13.9206   37.2257   35.8810 N   0  0  0  0  0  0  0  0  0  0  0  0
   16.5873   34.9924   33.7802 C   0  0  0  0  0  0  0  0  0  0  0  0
   15.8576   35.6714   35.9444 C   0  0  0  0  0  0  0  0  0  0  0  0
   16.7026   34.9585   35.1439 N   0  0  0  0  0  0  0  0  0  0  0  0
   16.0102   35.6382   37.3564 N   0  0  0  0  0  0  0  0  0  0  0  0
    7.6770   44.0707   34.0504 H   0  0  0  0  0  0  0  0  0  0  0  0
    9.1826   45.3821   35.3534 H   0  0  0  0  0  0  0  0  0  0  0  0
   10.3192   45.4406   34.1000 H   0  0  0  0  0  0  0  0  0  0  0  0
    9.9711   44.0679   31.9739 H   0  0  0  0  0  0  0  0  0  0  0  0
    8.4816   43.0849   31.8669 H   0  0  0  0  0  0  0  0  0  0  0  0
    8.5385   45.1360   30.4021 H   0  0  0  0  0  0  0  0  0  0  0  0
    8.5554   46.1508   31.8740 H   0  0  0  0  0  0  0  0  0  0  0  0
    6.3296   44.1801   30.9675 H   0  0  0  0  0  0  0  0  0  0  0  0
    6.3020   45.0641   32.5332 H   0  0  0  0  0  0  0  0  0  0  0  0
    6.2462   46.2901   29.7218 H   0  0  0  0  0  0  0  0  0  0  0  0
    4.9238   46.2680   30.9271 H   0  0  0  0  0  0  0  0  0  0  0  0
    6.2826   47.7534   32.4209 H   0  0  0  0  0  0  0  0  0  0  0  0
    9.1902   50.3955   30.1530 H   0  0  0  0  0  0  0  0  0  0  0  0
    8.6394   51.5339   31.4024 H   0  0  0  0  0  0  0  0  0  0  0  0
    8.3464   50.5727   27.9524 H   0  0  0  0  0  0  0  0  0  0  0  0
    6.9640   51.7127   26.2735 H   0  0  0  0  0  0  0  0  0  0  0  0
    4.8304   53.7718   29.3554 H   0  0  0  0  0  0  0  0  0  0  0  0
    5.2144   53.3144   26.9728 H   0  0  0  0  0  0  0  0  0  0  0  0
   11.2094   41.0479   31.8922 H   0  0  0  0  0  0  0  0  0  0  0  0
    9.7448   40.0200   31.9304 H   0  0  0  0  0  0  0  0  0  0  0  0
   11.6206   39.0685   30.5942 H   0  0  0  0  0  0  0  0  0  0  0  0
   10.7059   37.5563   33.1438 H   0  0  0  0  0  0  0  0  0  0  0  0
   14.2095   37.4543   31.5601 H   0  0  0  0  0  0  0  0  0  0  0  0
   10.0865   37.4209   30.3413 H   0  0  0  0  0  0  0  0  0  0  0  0
   12.1276   35.7872   32.5549 H   0  0  0  0  0  0  0  0  0  0  0  0
   12.5031   37.0109   29.9672 H   0  0  0  0  0  0  0  0  0  0  0  0
   12.4328   38.3996   34.8703 H   0  0  0  0  0  0  0  0  0  0  0  0
   17.2670   34.4149   33.1691 H   0  0  0  0  0  0  0  0  0  0  0  0
   16.7640   35.0601   37.7896 H   0  0  0  0  0  0  0  0  0  0  0  0
   15.3758   36.1862   37.9791 H   0  0  0  0  0  0  0  0  0  0  0  0
  1  2  2  0
  1  3  1  0
  3  4  1  0
  4  5  1  0
  6  1  1  0
  7  6  1  0
  6  8  1  0
  8  9  1  0
  9 10  1  0
 10 11  1  0
 11 12  1  0
 12 13  1  0
 13 14  1  0
 13 15  2  0
 14 16  1  0
 16 17  1  0
 17 18  2  0
 19 17  1  0
 18 20  1  0
 21 19  2  0
 19 22  1  0
 20 23  2  0
 23 21  1  0
 22 24  1  0
 22 25  2  0
  4 26  2  0
  4 27  1  0
 28 27  1  0
 28 29  1  0
 29 30  1  0
 29 31  1  0
 30 32  1  0
 31 33  1  0
 31 34  1  0
 34 32  1  0
 32 35  1  0
 34 36  1  0
 37 35  1  0
 38 35  1  0
 39 37  2  0
 37 40  1  0
 41 38  2  0
 42 39  1  0
 40 43  2  0
 40 41  1  0
 44 42  2  0
 44 43  1  0
 43 45  1  0
  6 46  1  6
  7 47  1  0
  7 48  1  0
  8 49  1  0
  8 50  1  0
  9 51  1  0
  9 52  1  0
 10 53  1  0
 10 54  1  0
 11 55  1  0
 11 56  1  0
 12 57  1  0
 16 58  1  0
 16 59  1  0
 18 60  1  0
 20 61  1  0
 21 62  1  0
 23 63  1  0
 28 64  1  0
 28 65  1  0
 29 66  1  0
 31 67  1  0
 32 68  1  0
 33 69  1  0
 34 70  1  0
 36 71  1  0
 38 72  1  0
 42 73  1  0
 45 74  1  0
 45 75  1  0
M  CHG  3   5  -1  22   1  24  -1
M  END
>  <EmbedRMS>  (505) 
0.0761193762437

$$$$

     RDKit          3D

 75 78  0  0  0  0  0  0  0  0999 V2000
    9.4333   42.9368   34.3460 C   0  0  0  0  0  0  0  0  0  0  0  0
   10.4907   43.0332   35.0318 O   0  0  0  0  0  0  0  0  0  0  0  0
    8.8563   41.7106   34.0294 O   0  0  0  0  0  0  0  0  0  0  0  0
    9.4943   40.2141   34.4678 P   0  0  0  0  0  0  0  0  0  0  0  0
    9.7310   40.1725   36.1289 O   0  0  0  0  0  0  0  0  0  0  0  0
    8.7507   44.1353   33.7741 C   0  0  1  0  0  0  0  0  0  0  0  0
    9.2963   45.3826   34.3133 N   0  0  0  0  0  0  0  0  0  0  0  0
    8.8892   44.0536   32.2358 C   0  0  0  0  0  0  0  0  0  0  0  0
    8.2024   45.1834   31.4619 C   0  0  0  0  0  0  0  0  0  0  0  0
    6.6649   45.1047   31.4850 C   0  0  0  0  0  0  0  0  0  0  0  0
    6.0256   46.3219   30.8088 C   0  0  0  0  0  0  0  0  0  0  0  0
    6.5026   47.5638   31.4167 N   0  0  0  0  0  0  0  0  0  0  0  0
    7.2539   48.5327   30.6884 C   0  0  0  0  0  0  0  0  0  0  0  0
    7.6520   49.7069   31.3316 O   0  0  0  0  0  0  0  0  0  0  0  0
    7.5889   48.3143   29.4926 O   0  0  0  0  0  0  0  0  0  0  0  0
    8.4641   50.6937   30.7034 C   0  0  0  0  0  0  0  0  0  0  0  0
    8.8340   51.7578   31.7064 C   0  0  0  0  0  0  0  0  0  0  0  0
    8.4713   53.0913   31.4394 C   0  0  0  0  0  0  0  0  0  0  0  0
    9.4982   51.4504   32.9268 C   0  0  0  0  0  0  0  0  0  0  0  0
    8.7467   54.1029   32.3599 C   0  0  0  0  0  0  0  0  0  0  0  0
    9.7509   52.4845   33.8461 C   0  0  0  0  0  0  0  0  0  0  0  0
    9.9001   50.1094   33.2657 N   0  0  0  0  0  0  0  0  0  0  0  0
    9.3816   53.7997   33.5621 C   0  0  0  0  0  0  0  0  0  0  0  0
    9.9628   49.7245   34.5854 O   0  0  0  0  0  0  0  0  0  0  0  0
   10.3454   49.3341   32.3953 O   0  0  0  0  0  0  0  0  0  0  0  0
    8.5371   39.1384   34.0121 O   0  0  0  0  0  0  0  0  0  0  0  0
   10.9798   40.0871   33.6829 O   0  0  0  0  0  0  0  0  0  0  0  0
   10.8002   40.0905   32.2832 C   0  0  0  0  0  0  0  0  0  0  0  0
   11.5958   38.9271   31.6963 C   0  0  0  0  0  0  0  0  0  0  0  0
   12.9239   38.9409   32.1766 O   0  0  0  0  0  0  0  0  0  0  0  0
   11.0062   37.5719   32.0793 C   0  0  0  0  0  0  0  0  0  0  0  0
   13.3507   37.5905   32.2614 C   0  0  0  0  0  0  0  0  0  0  0  0
    9.9064   37.1792   31.2946 O   0  0  0  0  0  0  0  0  0  0  0  0
   12.1920   36.6671   31.9003 C   0  0  0  0  0  0  0  0  0  0  0  0
   13.8017   37.2948   33.6193 N   0  0  0  0  0  0  0  0  0  0  0  0
   12.3134   36.2787   30.5560 O   0  0  0  0  0  0  0  0  0  0  0  0
   14.7927   36.4716   33.9861 C   0  0  0  0  0  0  0  0  0  0  0  0
   13.2746   37.7284   34.7941 C   0  0  0  0  0  0  0  0  0  0  0  0
   15.6240   35.7576   33.1859 N   0  0  0  0  0  0  0  0  0  0  0  0
   14.8728   36.4406   35.3330 C   0  0  0  0  0  0  0  0  0  0  0  0
   13.9209   37.2258   35.8807 N   0  0  0  0  0  0  0  0  0  0  0  0
   16.5874   34.9920   33.7802 C   0  0  0  0  0  0  0  0  0  0  0  0
   15.8579   35.6716   35.9443 C   0  0  0  0  0  0  0  0  0  0  0  0
   16.7028   34.9584   35.1439 N   0  0  0  0  0  0  0  0  0  0  0  0
   16.0103   35.6383   37.3563 N   0  0  0  0  0  0  0  0  0  0  0  0
    7.6771   44.0712   34.0503 H   0  0  0  0  0  0  0  0  0  0  0  0
   10.3190   45.4420   34.0991 H   0  0  0  0  0  0  0  0  0  0  0  0
    9.1835   45.3825   35.3535 H   0  0  0  0  0  0  0  0  0  0  0  0
    8.4817   43.0859   31.8665 H   0  0  0  0  0  0  0  0  0  0  0  0
    9.9710   44.0693   31.9738 H   0  0  0  0  0  0  0  0  0  0  0  0
    8.5387   45.1384   30.4028 H   0  0  0  0  0  0  0  0  0  0  0  0
    8.5540   46.1521   31.8756 H   0  0  0  0  0  0  0  0  0  0  0  0
    6.3010   45.0646   32.5326 H   0  0  0  0  0  0  0  0  0  0  0  0
    6.3302   44.1796   30.9675 H   0  0  0  0  0  0  0  0  0  0  0  0
    4.9221   46.2653   30.9233 H   0  0  0  0  0  0  0  0  0  0  0  0
    6.2467   46.2893   29.7203 H   0  0  0  0  0  0  0  0  0  0  0  0
    6.2820   47.7497   32.4209 H   0  0  0  0  0  0  0  0  0  0  0  0
    9.3879   50.2324   30.2947 H   0  0  0  0  0  0  0  0  0  0  0  0
    7.9045   51.1256   29.8449 H   0  0  0  0  0  0  0  0  0  0  0  0
    7.9651   53.3514   30.5179 H   0  0  0  0  0  0  0  0  0  0  0  0
    8.4609   55.1241   32.1426 H   0  0  0  0  0  0  0  0  0  0  0  0
   10.2511   52.2743   34.7829 H   0  0  0  0  0  0  0  0  0  0  0  0
    9.5901   54.5861   34.2761 H   0  0  0  0  0  0  0  0  0  0  0  0
    9.7455   40.0168   31.9263 H   0  0  0  0  0  0  0  0  0  0  0  0
   11.2116   41.0420   31.8834 H   0  0  0  0  0  0  0  0  0  0  0  0
   11.6245   39.0449   30.5888 H   0  0  0  0  0  0  0  0  0  0  0  0
   10.7050   37.5580   33.1500 H   0  0  0  0  0  0  0  0  0  0  0  0
   14.1985   37.4426   31.5553 H   0  0  0  0  0  0  0  0  0  0  0  0
   10.0893   37.4057   30.3459 H   0  0  0  0  0  0  0  0  0  0  0  0
   12.1337   35.7754   32.5703 H   0  0  0  0  0  0  0  0  0  0  0  0
   11.7934   35.4394   30.4513 H   0  0  0  0  0  0  0  0  0  0  0  0
   12.4314   38.3973   34.8700 H   0  0  0  0  0  0  0  0  0  0  0  0
   17.2669   34.4141   33.1692 H   0  0  0  0  0  0  0  0  0  0  0  0
   15.3759   36.1865   37.9790 H   0  0  0  0  0  0  0  0  0  0  0  0
   16.7638   35.0599   37.7896 H   0  0  0  0  0  0  0  0  0  0  0  0
  1  2  2  0
  1  3  1  0
  3  4  1  0
  4  5  1  0
  6  1  1  0
  7  6  1  0
  6  8  1  0
  8  9  1  0
  9 10  1  0
 10 11  1  0
 11 12  1  0
 12 13  1  0
 13 14  1  0
 13 15  2  0
 14 16  1  0
 16 17  1  0
 17 18  2  0
 19 17  1  0
 18 20  1  0
 21 19  2  0
 19 22  1  0
 20 23  2  0
 23 21  1  0
 22 24  1  0
 22 25  2  0
  4 26  2  0
  4 27  1  0
 28 27  1  0
 28 29  1  0
 29 30  1  0
 29 31  1  0
 30 32  1  0
 31 33  1  0
 31 34  1  0
 34 32  1  0
 32 35  1  0
 34 36  1  0
 37 35  1  0
 38 35  1  0
 39 37  2  0
 37 40  1  0
 41 38  2  0
 42 39  1  0
 40 43  2  0
 40 41  1  0
 44 42  2  0
 44 43  1  0
 43 45  1  0
  6 46  1  6
  7 47  1  0
  7 48  1  0
  8 49  1  0
  8 50  1  0
  9 51  1  0
  9 52  1  0
 10 53  1  0
 10 54  1  0
 11 55  1  0
 11 56  1  0
 12 57  1  0
 16 58  1  0
 16 59  1  0
 18 60  1  0
 20 61  1  0
 21 62  1  0
 23 63  1  0
 28 64  1  0
 28 65  1  0
 29 66  1  0
 31 67  1  0
 32 68  1  0
 33 69  1  0
 34 70  1  0
 36 71  1  0
 38 72  1  0
 42 73  1  0
 45 74  1  0
 45 75  1  0
M  CHG  3   5  -1  22   1  24  -1
M  END
>  <EmbedRMS>  (506) 
0.0750477353415

$$$$

     RDKit          3D

 75 78  0  0  0  0  0  0  0  0999 V2000
    9.4312   42.9411   34.3437 C   0  0  0  0  0  0  0  0  0  0  0  0
   10.4885   43.0410   35.0294 O   0  0  0  0  0  0  0  0  0  0  0  0
    8.8562   41.7128   34.0288 O   0  0  0  0  0  0  0  0  0  0  0  0
    9.4946   40.2162   34.4678 P   0  0  0  0  0  0  0  0  0  0  0  0
    9.7311   40.1741   36.1289 O   0  0  0  0  0  0  0  0  0  0  0  0
    8.7484   44.1359   33.7721 C   0  0  1  0  0  0  0  0  0  0  0  0
    9.3039   45.3665   34.3388 N   0  0  0  0  0  0  0  0  0  0  0  0
    8.8892   44.0518   32.2308 C   0  0  0  0  0  0  0  0  0  0  0  0
    8.2015   45.1721   31.4435 C   0  0  0  0  0  0  0  0  0  0  0  0
    6.6642   45.1065   31.4886 C   0  0  0  0  0  0  0  0  0  0  0  0
    6.0267   46.3237   30.8123 C   0  0  0  0  0  0  0  0  0  0  0  0
    6.5083   47.5644   31.4190 N   0  0  0  0  0  0  0  0  0  0  0  0
    7.2424   48.5405   30.6826 C   0  0  0  0  0  0  0  0  0  0  0  0
    7.5860   49.7461   31.3034 O   0  0  0  0  0  0  0  0  0  0  0  0
    7.5938   48.3107   29.4937 O   0  0  0  0  0  0  0  0  0  0  0  0
    8.2922   50.7939   30.6412 C   0  0  0  0  0  0  0  0  0  0  0  0
    7.4245   51.4428   29.5866 C   0  0  0  0  0  0  0  0  0  0  0  0
    7.8846   51.4615   28.2569 C   0  0  0  0  0  0  0  0  0  0  0  0
    6.1454   51.9888   29.8858 C   0  0  0  0  0  0  0  0  0  0  0  0
    7.0965   51.9955   27.2371 C   0  0  0  0  0  0  0  0  0  0  0  0
    5.3622   52.5074   28.8390 C   0  0  0  0  0  0  0  0  0  0  0  0
    5.6137   52.0079   31.2237 N   0  0  0  0  0  0  0  0  0  0  0  0
    5.8364   52.5137   27.5268 C   0  0  0  0  0  0  0  0  0  0  0  0
    4.2530   51.9555   31.4223 O   0  0  0  0  0  0  0  0  0  0  0  0
    6.3529   52.2339   32.2031 O   0  0  0  0  0  0  0  0  0  0  0  0
    8.5374   39.1403   34.0128 O   0  0  0  0  0  0  0  0  0  0  0  0
   10.9803   40.0887   33.6834 O   0  0  0  0  0  0  0  0  0  0  0  0
   10.8020   40.0896   32.2836 C   0  0  0  0  0  0  0  0  0  0  0  0
   11.5900   38.9179   31.7007 C   0  0  0  0  0  0  0  0  0  0  0  0
   12.9224   38.9391   32.1711 O   0  0  0  0  0  0  0  0  0  0  0  0
   11.0051   37.5677   32.0966 C   0  0  0  0  0  0  0  0  0  0  0  0
   13.3518   37.5910   32.2610 C   0  0  0  0  0  0  0  0  0  0  0  0
    9.9381   37.1796   31.2733 O   0  0  0  0  0  0  0  0  0  0  0  0
   12.1912   36.6690   31.9043 C   0  0  0  0  0  0  0  0  0  0  0  0
   13.8027   37.2968   33.6192 N   0  0  0  0  0  0  0  0  0  0  0  0
   12.2877   36.2854   30.5568 O   0  0  0  0  0  0  0  0  0  0  0  0
   14.7928   36.4724   33.9861 C   0  0  0  0  0  0  0  0  0  0  0  0
   13.2751   37.7297   34.7941 C   0  0  0  0  0  0  0  0  0  0  0  0
   15.6239   35.7581   33.1859 N   0  0  0  0  0  0  0  0  0  0  0  0
   14.8726   36.4408   35.3329 C   0  0  0  0  0  0  0  0  0  0  0  0
   13.9209   37.2262   35.8807 N   0  0  0  0  0  0  0  0  0  0  0  0
   16.5870   34.9921   33.7801 C   0  0  0  0  0  0  0  0  0  0  0  0
   15.8576   35.6716   35.9442 C   0  0  0  0  0  0  0  0  0  0  0  0
   16.7024   34.9584   35.1438 N   0  0  0  0  0  0  0  0  0  0  0  0
   16.0101   35.6383   37.3563 N   0  0  0  0  0  0  0  0  0  0  0  0
    7.6764   44.0634   34.0548 H   0  0  0  0  0  0  0  0  0  0  0  0
   10.2152   45.5879   33.8747 H   0  0  0  0  0  0  0  0  0  0  0  0
    8.6468   46.1558   34.1431 H   0  0  0  0  0  0  0  0  0  0  0  0
    9.9708   44.0642   31.9679 H   0  0  0  0  0  0  0  0  0  0  0  0
    8.4830   43.0818   31.8666 H   0  0  0  0  0  0  0  0  0  0  0  0
    8.5714   46.1487   31.8174 H   0  0  0  0  0  0  0  0  0  0  0  0
    8.5198   45.0959   30.3807 H   0  0  0  0  0  0  0  0  0  0  0  0
    6.3141   45.0783   32.5413 H   0  0  0  0  0  0  0  0  0  0  0  0
    6.3147   44.1801   30.9835 H   0  0  0  0  0  0  0  0  0  0  0  0
    6.2448   46.2897   29.7232 H   0  0  0  0  0  0  0  0  0  0  0  0
    4.9234   46.2700   30.9300 H   0  0  0  0  0  0  0  0  0  0  0  0
    6.2850   47.7543   32.4219 H   0  0  0  0  0  0  0  0  0  0  0  0
    8.5993   51.5561   31.3860 H   0  0  0  0  0  0  0  0  0  0  0  0
    9.2313   50.3847   30.2077 H   0  0  0  0  0  0  0  0  0  0  0  0
    8.8541   51.0506   28.0034 H   0  0  0  0  0  0  0  0  0  0  0  0
    7.4616   52.0011   26.2181 H   0  0  0  0  0  0  0  0  0  0  0  0
    4.3838   52.9241   29.0418 H   0  0  0  0  0  0  0  0  0  0  0  0
    5.2253   52.9236   26.7330 H   0  0  0  0  0  0  0  0  0  0  0  0
   11.2237   41.0358   31.8821 H   0  0  0  0  0  0  0  0  0  0  0  0
    9.7471   40.0309   31.9256 H   0  0  0  0  0  0  0  0  0  0  0  0
   11.5999   39.0159   30.5905 H   0  0  0  0  0  0  0  0  0  0  0  0
   10.7034   37.5451   33.1703 H   0  0  0  0  0  0  0  0  0  0  0  0
   14.1992   37.4424   31.5548 H   0  0  0  0  0  0  0  0  0  0  0  0
    9.1370   37.6634   31.6025 H   0  0  0  0  0  0  0  0  0  0  0  0
   12.1204   35.7712   32.5637 H   0  0  0  0  0  0  0  0  0  0  0  0
   12.9456   35.5426   30.5221 H   0  0  0  0  0  0  0  0  0  0  0  0
   12.4322   38.3989   34.8700 H   0  0  0  0  0  0  0  0  0  0  0  0
   17.2664   34.4142   33.1690 H   0  0  0  0  0  0  0  0  0  0  0  0
   16.7636   35.0598   37.7895 H   0  0  0  0  0  0  0  0  0  0  0  0
   15.3759   36.1865   37.9790 H   0  0  0  0  0  0  0  0  0  0  0  0
  1  2  2  0
  1  3  1  0
  3  4  1  0
  4  5  1  0
  6  1  1  0
  7  6  1  0
  6  8  1  0
  8  9  1  0
  9 10  1  0
 10 11  1  0
 11 12  1  0
 12 13  1  0
 13 14  1  0
 13 15  2  0
 14 16  1  0
 16 17  1  0
 17 18  2  0
 19 17  1  0
 18 20  1  0
 21 19  2  0
 19 22  1  0
 20 23  2  0
 23 21  1  0
 22 24  1  0
 22 25  2  0
  4 26  2  0
  4 27  1  0
 28 27  1  0
 28 29  1  0
 29 30  1  0
 29 31  1  0
 30 32  1  0
 31 33  1  0
 31 34  1  0
 34 32  1  0
 32 35  1  0
 34 36  1  0
 37 35  1  0
 38 35  1  0
 39 37  2  0
 37 40  1  0
 41 38  2  0
 42 39  1  0
 40 43  2  0
 40 41  1  0
 44 42  2  0
 44 43  1  0
 43 45  1  0
  6 46  1  6
  7 47  1  0
  7 48  1  0
  8 49  1  0
  8 50  1  0
  9 51  1  0
  9 52  1  0
 10 53  1  0
 10 54  1  0
 11 55  1  0
 11 56  1  0
 12 57  1  0
 16 58  1  0
 16 59  1  0
 18 60  1  0
 20 61  1  0
 21 62  1  0
 23 63  1  0
 28 64  1  0
 28 65  1  0
 29 66  1  0
 31 67  1  0
 32 68  1  0
 33 69  1  0
 34 70  1  0
 36 71  1  0
 38 72  1  0
 42 73  1  0
 45 74  1  0
 45 75  1  0
M  CHG  3   5  -1  22   1  24  -1
M  END
>  <EmbedRMS>  (507) 
0.0732142758479

$$$$

     RDKit          3D

 75 78  0  0  0  0  0  0  0  0999 V2000
    9.4311   42.9413   34.3438 C   0  0  0  0  0  0  0  0  0  0  0  0
   10.4884   43.0412   35.0293 O   0  0  0  0  0  0  0  0  0  0  0  0
    8.8561   41.7130   34.0288 O   0  0  0  0  0  0  0  0  0  0  0  0
    9.4946   40.2164   34.4678 P   0  0  0  0  0  0  0  0  0  0  0  0
    9.7311   40.1742   36.1289 O   0  0  0  0  0  0  0  0  0  0  0  0
    8.7482   44.1363   33.7722 C   0  0  1  0  0  0  0  0  0  0  0  0
    9.3036   45.3669   34.3388 N   0  0  0  0  0  0  0  0  0  0  0  0
    8.8891   44.0522   32.2309 C   0  0  0  0  0  0  0  0  0  0  0  0
    8.2016   45.1727   31.4438 C   0  0  0  0  0  0  0  0  0  0  0  0
    6.6644   45.1060   31.4863 C   0  0  0  0  0  0  0  0  0  0  0  0
    6.0277   46.3239   30.8099 C   0  0  0  0  0  0  0  0  0  0  0  0
    6.5058   47.5638   31.4217 N   0  0  0  0  0  0  0  0  0  0  0  0
    7.2508   48.5405   30.6842 C   0  0  0  0  0  0  0  0  0  0  0  0
    7.6443   49.7520   31.2645 O   0  0  0  0  0  0  0  0  0  0  0  0
    7.5875   48.3087   29.4937 O   0  0  0  0  0  0  0  0  0  0  0  0
    7.3601   50.1181   32.6107 C   0  0  0  0  0  0  0  0  0  0  0  0
    7.9292   51.4849   32.8883 C   0  0  0  0  0  0  0  0  0  0  0  0
    9.1857   51.5740   33.5148 C   0  0  0  0  0  0  0  0  0  0  0  0
    7.2288   52.6773   32.5631 C   0  0  0  0  0  0  0  0  0  0  0  0
    9.7350   52.8157   33.8362 C   0  0  0  0  0  0  0  0  0  0  0  0
    7.7944   53.9184   32.9107 C   0  0  0  0  0  0  0  0  0  0  0  0
    5.9522   52.6519   31.8982 N   0  0  0  0  0  0  0  0  0  0  0  0
    9.0384   53.9853   33.5397 C   0  0  0  0  0  0  0  0  0  0  0  0
    5.7049   51.7537   30.8864 O   0  0  0  0  0  0  0  0  0  0  0  0
    5.1149   53.5518   32.1175 O   0  0  0  0  0  0  0  0  0  0  0  0
    8.5373   39.1404   34.0128 O   0  0  0  0  0  0  0  0  0  0  0  0
   10.9803   40.0888   33.6834 O   0  0  0  0  0  0  0  0  0  0  0  0
   10.8020   40.0896   32.2835 C   0  0  0  0  0  0  0  0  0  0  0  0
   11.5900   38.9179   31.7007 C   0  0  0  0  0  0  0  0  0  0  0  0
   12.9224   38.9391   32.1711 O   0  0  0  0  0  0  0  0  0  0  0  0
   11.0051   37.5677   32.0967 C   0  0  0  0  0  0  0  0  0  0  0  0
   13.3518   37.5910   32.2610 C   0  0  0  0  0  0  0  0  0  0  0  0
    9.9381   37.1796   31.2733 O   0  0  0  0  0  0  0  0  0  0  0  0
   12.1912   36.6690   31.9043 C   0  0  0  0  0  0  0  0  0  0  0  0
   13.8027   37.2968   33.6192 N   0  0  0  0  0  0  0  0  0  0  0  0
   12.2877   36.2854   30.5568 O   0  0  0  0  0  0  0  0  0  0  0  0
   14.7928   36.4724   33.9861 C   0  0  0  0  0  0  0  0  0  0  0  0
   13.2751   37.7297   34.7941 C   0  0  0  0  0  0  0  0  0  0  0  0
   15.6239   35.7581   33.1859 N   0  0  0  0  0  0  0  0  0  0  0  0
   14.8726   36.4408   35.3329 C   0  0  0  0  0  0  0  0  0  0  0  0
   13.9209   37.2262   35.8807 N   0  0  0  0  0  0  0  0  0  0  0  0
   16.5870   34.9922   33.7801 C   0  0  0  0  0  0  0  0  0  0  0  0
   15.8576   35.6716   35.9442 C   0  0  0  0  0  0  0  0  0  0  0  0
   16.7024   34.9584   35.1438 N   0  0  0  0  0  0  0  0  0  0  0  0
   16.0101   35.6383   37.3563 N   0  0  0  0  0  0  0  0  0  0  0  0
    7.6761   44.0638   34.0546 H   0  0  0  0  0  0  0  0  0  0  0  0
   10.2147   45.5888   33.8745 H   0  0  0  0  0  0  0  0  0  0  0  0
    8.6463   46.1563   34.1437 H   0  0  0  0  0  0  0  0  0  0  0  0
    8.4828   43.0822   31.8666 H   0  0  0  0  0  0  0  0  0  0  0  0
    9.9707   44.0645   31.9682 H   0  0  0  0  0  0  0  0  0  0  0  0
    8.5701   46.1493   31.8192 H   0  0  0  0  0  0  0  0  0  0  0  0
    8.5217   45.0978   30.3814 H   0  0  0  0  0  0  0  0  0  0  0  0
    6.3125   45.0760   32.5384 H   0  0  0  0  0  0  0  0  0  0  0  0
    6.3164   44.1801   30.9792 H   0  0  0  0  0  0  0  0  0  0  0  0
    6.2487   46.2917   29.7215 H   0  0  0  0  0  0  0  0  0  0  0  0
    4.9240   46.2685   30.9241 H   0  0  0  0  0  0  0  0  0  0  0  0
    6.2754   47.7254   32.4267 H   0  0  0  0  0  0  0  0  0  0  0  0
    6.2641   50.1148   32.7936 H   0  0  0  0  0  0  0  0  0  0  0  0
    7.8127   49.3678   33.2962 H   0  0  0  0  0  0  0  0  0  0  0  0
    9.7410   50.6775   33.7625 H   0  0  0  0  0  0  0  0  0  0  0  0
   10.7012   52.8705   34.3211 H   0  0  0  0  0  0  0  0  0  0  0  0
    7.2770   54.8404   32.6774 H   0  0  0  0  0  0  0  0  0  0  0  0
    9.4651   54.9472   33.7933 H   0  0  0  0  0  0  0  0  0  0  0  0
   11.2237   41.0358   31.8821 H   0  0  0  0  0  0  0  0  0  0  0  0
    9.7471   40.0309   31.9256 H   0  0  0  0  0  0  0  0  0  0  0  0
   11.5999   39.0159   30.5905 H   0  0  0  0  0  0  0  0  0  0  0  0
   10.7034   37.5451   33.1703 H   0  0  0  0  0  0  0  0  0  0  0  0
   14.1992   37.4424   31.5548 H   0  0  0  0  0  0  0  0  0  0  0  0
    9.1370   37.6634   31.6025 H   0  0  0  0  0  0  0  0  0  0  0  0
   12.1204   35.7713   32.5637 H   0  0  0  0  0  0  0  0  0  0  0  0
   12.9456   35.5426   30.5221 H   0  0  0  0  0  0  0  0  0  0  0  0
   12.4322   38.3989   34.8700 H   0  0  0  0  0  0  0  0  0  0  0  0
   17.2664   34.4142   33.1690 H   0  0  0  0  0  0  0  0  0  0  0  0
   15.3759   36.1865   37.9790 H   0  0  0  0  0  0  0  0  0  0  0  0
   16.7636   35.0598   37.7895 H   0  0  0  0  0  0  0  0  0  0  0  0
  1  2  2  0
  1  3  1  0
  3  4  1  0
  4  5  1  0
  6  1  1  0
  7  6  1  0
  6  8  1  0
  8  9  1  0
  9 10  1  0
 10 11  1  0
 11 12  1  0
 12 13  1  0
 13 14  1  0
 13 15  2  0
 14 16  1  0
 16 17  1  0
 17 18  2  0
 19 17  1  0
 18 20  1  0
 21 19  2  0
 19 22  1  0
 20 23  2  0
 23 21  1  0
 22 24  1  0
 22 25  2  0
  4 26  2  0
  4 27  1  0
 28 27  1  0
 28 29  1  0
 29 30  1  0
 29 31  1  0
 30 32  1  0
 31 33  1  0
 31 34  1  0
 34 32  1  0
 32 35  1  0
 34 36  1  0
 37 35  1  0
 38 35  1  0
 39 37  2  0
 37 40  1  0
 41 38  2  0
 42 39  1  0
 40 43  2  0
 40 41  1  0
 44 42  2  0
 44 43  1  0
 43 45  1  0
  6 46  1  6
  7 47  1  0
  7 48  1  0
  8 49  1  0
  8 50  1  0
  9 51  1  0
  9 52  1  0
 10 53  1  0
 10 54  1  0
 11 55  1  0
 11 56  1  0
 12 57  1  0
 16 58  1  0
 16 59  1  0
 18 60  1  0
 20 61  1  0
 21 62  1  0
 23 63  1  0
 28 64  1  0
 28 65  1  0
 29 66  1  0
 31 67  1  0
 32 68  1  0
 33 69  1  0
 34 70  1  0
 36 71  1  0
 38 72  1  0
 42 73  1  0
 45 74  1  0
 45 75  1  0
M  CHG  3   5  -1  22   1  24  -1
M  END
>  <EmbedRMS>  (508) 
0.0733604258227

$$$$

     RDKit          3D

 75 78  0  0  0  0  0  0  0  0999 V2000
    9.4312   42.9410   34.3437 C   0  0  0  0  0  0  0  0  0  0  0  0
   10.4885   43.0409   35.0294 O   0  0  0  0  0  0  0  0  0  0  0  0
    8.8562   41.7127   34.0287 O   0  0  0  0  0  0  0  0  0  0  0  0
    9.4945   40.2161   34.4677 P   0  0  0  0  0  0  0  0  0  0  0  0
    9.7312   40.1739   36.1288 O   0  0  0  0  0  0  0  0  0  0  0  0
    8.7484   44.1360   33.7721 C   0  0  1  0  0  0  0  0  0  0  0  0
    9.3039   45.3665   34.3388 N   0  0  0  0  0  0  0  0  0  0  0  0
    8.8892   44.0519   32.2308 C   0  0  0  0  0  0  0  0  0  0  0  0
    8.2014   45.1722   31.4436 C   0  0  0  0  0  0  0  0  0  0  0  0
    6.6642   45.1066   31.4887 C   0  0  0  0  0  0  0  0  0  0  0  0
    6.0264   46.3234   30.8120 C   0  0  0  0  0  0  0  0  0  0  0  0
    6.5073   47.5645   31.4186 N   0  0  0  0  0  0  0  0  0  0  0  0
    7.2446   48.5392   30.6835 C   0  0  0  0  0  0  0  0  0  0  0  0
    7.5967   49.7393   31.3064 O   0  0  0  0  0  0  0  0  0  0  0  0
    7.5929   48.3116   29.4932 O   0  0  0  0  0  0  0  0  0  0  0  0
    8.3447   50.7567   30.6489 C   0  0  0  0  0  0  0  0  0  0  0  0
    8.5490   51.9159   31.5888 C   0  0  0  0  0  0  0  0  0  0  0  0
    9.7604   51.9979   32.2993 C   0  0  0  0  0  0  0  0  0  0  0  0
    7.5734   52.9344   31.7585 C   0  0  0  0  0  0  0  0  0  0  0  0
   10.0174   53.0761   33.1470 C   0  0  0  0  0  0  0  0  0  0  0  0
    7.8602   54.0208   32.6061 C   0  0  0  0  0  0  0  0  0  0  0  0
    6.3045   52.8924   31.0798 N   0  0  0  0  0  0  0  0  0  0  0  0
    9.0715   54.0882   33.2959 C   0  0  0  0  0  0  0  0  0  0  0  0
    5.6238   51.7060   30.9360 O   0  0  0  0  0  0  0  0  0  0  0  0
    5.7300   53.9543   30.7618 O   0  0  0  0  0  0  0  0  0  0  0  0
    8.5374   39.1400   34.0124 O   0  0  0  0  0  0  0  0  0  0  0  0
   10.9799   40.0879   33.6828 O   0  0  0  0  0  0  0  0  0  0  0  0
   10.8002   40.0907   32.2831 C   0  0  0  0  0  0  0  0  0  0  0  0
   11.5958   38.9271   31.6964 C   0  0  0  0  0  0  0  0  0  0  0  0
   12.9239   38.9409   32.1767 O   0  0  0  0  0  0  0  0  0  0  0  0
   11.0062   37.5720   32.0794 C   0  0  0  0  0  0  0  0  0  0  0  0
   13.3506   37.5906   32.2614 C   0  0  0  0  0  0  0  0  0  0  0  0
    9.9064   37.1793   31.2946 O   0  0  0  0  0  0  0  0  0  0  0  0
   12.1920   36.6672   31.9004 C   0  0  0  0  0  0  0  0  0  0  0  0
   13.8017   37.2948   33.6193 N   0  0  0  0  0  0  0  0  0  0  0  0
   12.3133   36.2788   30.5561 O   0  0  0  0  0  0  0  0  0  0  0  0
   14.7927   36.4717   33.9862 C   0  0  0  0  0  0  0  0  0  0  0  0
   13.2746   37.7284   34.7941 C   0  0  0  0  0  0  0  0  0  0  0  0
   15.6240   35.7576   33.1859 N   0  0  0  0  0  0  0  0  0  0  0  0
   14.8728   36.4406   35.3330 C   0  0  0  0  0  0  0  0  0  0  0  0
   13.9209   37.2258   35.8808 N   0  0  0  0  0  0  0  0  0  0  0  0
   16.5874   34.9920   33.7802 C   0  0  0  0  0  0  0  0  0  0  0  0
   15.8579   35.6716   35.9443 C   0  0  0  0  0  0  0  0  0  0  0  0
   16.7028   34.9584   35.1439 N   0  0  0  0  0  0  0  0  0  0  0  0
   16.0103   35.6383   37.3563 N   0  0  0  0  0  0  0  0  0  0  0  0
    7.6764   44.0634   34.0548 H   0  0  0  0  0  0  0  0  0  0  0  0
    8.6468   46.1559   34.1432 H   0  0  0  0  0  0  0  0  0  0  0  0
   10.2152   45.5880   33.8748 H   0  0  0  0  0  0  0  0  0  0  0  0
    8.4831   43.0819   31.8666 H   0  0  0  0  0  0  0  0  0  0  0  0
    9.9708   44.0644   31.9679 H   0  0  0  0  0  0  0  0  0  0  0  0
    8.5712   46.1488   31.8176 H   0  0  0  0  0  0  0  0  0  0  0  0
    8.5198   45.0961   30.3808 H   0  0  0  0  0  0  0  0  0  0  0  0
    6.3148   44.1799   30.9838 H   0  0  0  0  0  0  0  0  0  0  0  0
    6.3141   45.0785   32.5414 H   0  0  0  0  0  0  0  0  0  0  0  0
    4.9231   46.2693   30.9293 H   0  0  0  0  0  0  0  0  0  0  0  0
    6.2450   46.2894   29.7230 H   0  0  0  0  0  0  0  0  0  0  0  0
    6.2849   47.7537   32.4219 H   0  0  0  0  0  0  0  0  0  0  0  0
    7.8201   51.0922   29.7284 H   0  0  0  0  0  0  0  0  0  0  0  0
    9.3252   50.3390   30.3300 H   0  0  0  0  0  0  0  0  0  0  0  0
   10.5136   51.2267   32.1922 H   0  0  0  0  0  0  0  0  0  0  0  0
   10.9547   53.1290   33.6857 H   0  0  0  0  0  0  0  0  0  0  0  0
    7.1341   54.8115   32.7474 H   0  0  0  0  0  0  0  0  0  0  0  0
    9.2748   54.9253   33.9512 H   0  0  0  0  0  0  0  0  0  0  0  0
   11.2114   41.0421   31.8829 H   0  0  0  0  0  0  0  0  0  0  0  0
    9.7454   40.0168   31.9263 H   0  0  0  0  0  0  0  0  0  0  0  0
   11.6246   39.0449   30.5889 H   0  0  0  0  0  0  0  0  0  0  0  0
   10.7050   37.5581   33.1500 H   0  0  0  0  0  0  0  0  0  0  0  0
   14.1985   37.4426   31.5553 H   0  0  0  0  0  0  0  0  0  0  0  0
   10.0893   37.4057   30.3459 H   0  0  0  0  0  0  0  0  0  0  0  0
   12.1337   35.7755   32.5703 H   0  0  0  0  0  0  0  0  0  0  0  0
   11.7933   35.4394   30.4514 H   0  0  0  0  0  0  0  0  0  0  0  0
   12.4314   38.3973   34.8700 H   0  0  0  0  0  0  0  0  0  0  0  0
   17.2669   34.4142   33.1692 H   0  0  0  0  0  0  0  0  0  0  0  0
   16.7638   35.0599   37.7897 H   0  0  0  0  0  0  0  0  0  0  0  0
   15.3759   36.1865   37.9790 H   0  0  0  0  0  0  0  0  0  0  0  0
  1  2  2  0
  1  3  1  0
  3  4  1  0
  4  5  1  0
  6  1  1  0
  7  6  1  0
  6  8  1  0
  8  9  1  0
  9 10  1  0
 10 11  1  0
 11 12  1  0
 12 13  1  0
 13 14  1  0
 13 15  2  0
 14 16  1  0
 16 17  1  0
 17 18  2  0
 19 17  1  0
 18 20  1  0
 21 19  2  0
 19 22  1  0
 20 23  2  0
 23 21  1  0
 22 24  1  0
 22 25  2  0
  4 26  2  0
  4 27  1  0
 28 27  1  0
 28 29  1  0
 29 30  1  0
 29 31  1  0
 30 32  1  0
 31 33  1  0
 31 34  1  0
 34 32  1  0
 32 35  1  0
 34 36  1  0
 37 35  1  0
 38 35  1  0
 39 37  2  0
 37 40  1  0
 41 38  2  0
 42 39  1  0
 40 43  2  0
 40 41  1  0
 44 42  2  0
 44 43  1  0
 43 45  1  0
  6 46  1  6
  7 47  1  0
  7 48  1  0
  8 49  1  0
  8 50  1  0
  9 51  1  0
  9 52  1  0
 10 53  1  0
 10 54  1  0
 11 55  1  0
 11 56  1  0
 12 57  1  0
 16 58  1  0
 16 59  1  0
 18 60  1  0
 20 61  1  0
 21 62  1  0
 23 63  1  0
 28 64  1  0
 28 65  1  0
 29 66  1  0
 31 67  1  0
 32 68  1  0
 33 69  1  0
 34 70  1  0
 36 71  1  0
 38 72  1  0
 42 73  1  0
 45 74  1  0
 45 75  1  0
M  CHG  3   5  -1  22   1  24  -1
M  END
>  <EmbedRMS>  (509) 
0.0739843132709

$$$$

     RDKit          3D

 75 78  0  0  0  0  0  0  0  0999 V2000
    9.4336   42.9375   34.3452 C   0  0  0  0  0  0  0  0  0  0  0  0
   10.4909   43.0337   35.0313 O   0  0  0  0  0  0  0  0  0  0  0  0
    8.8560   41.7113   34.0296 O   0  0  0  0  0  0  0  0  0  0  0  0
    9.4929   40.2147   34.4701 P   0  0  0  0  0  0  0  0  0  0  0  0
    9.7291   40.1733   36.1310 O   0  0  0  0  0  0  0  0  0  0  0  0
    8.7514   44.1366   33.7733 C   0  0  1  0  0  0  0  0  0  0  0  0
    9.2971   45.3835   34.3132 N   0  0  0  0  0  0  0  0  0  0  0  0
    8.8901   44.0569   32.2349 C   0  0  0  0  0  0  0  0  0  0  0  0
    8.2020   45.1876   31.4625 C   0  0  0  0  0  0  0  0  0  0  0  0
    6.6642   45.1069   31.4851 C   0  0  0  0  0  0  0  0  0  0  0  0
    6.0209   46.3211   30.8055 C   0  0  0  0  0  0  0  0  0  0  0  0
    6.4884   47.5666   31.4130 N   0  0  0  0  0  0  0  0  0  0  0  0
    7.2743   48.5174   30.6982 C   0  0  0  0  0  0  0  0  0  0  0  0
    7.7685   49.6361   31.3760 O   0  0  0  0  0  0  0  0  0  0  0  0
    7.5863   48.3123   29.4937 O   0  0  0  0  0  0  0  0  0  0  0  0
    8.8561   50.4182   30.8859 C   0  0  0  0  0  0  0  0  0  0  0  0
   10.1292   49.5989   30.8858 C   0  0  0  0  0  0  0  0  0  0  0  0
   10.4521   48.8687   32.0451 C   0  0  0  0  0  0  0  0  0  0  0  0
   10.9624   49.4845   29.7434 C   0  0  0  0  0  0  0  0  0  0  0  0
   11.5456   48.0021   32.0605 C   0  0  0  0  0  0  0  0  0  0  0  0
   12.0513   48.5950   29.7731 C   0  0  0  0  0  0  0  0  0  0  0  0
   10.7392   50.2759   28.5662 N   0  0  0  0  0  0  0  0  0  0  0  0
   12.3378   47.8578   30.9231 C   0  0  0  0  0  0  0  0  0  0  0  0
   10.5488   51.6340   28.6776 O   0  0  0  0  0  0  0  0  0  0  0  0
   10.9446   49.7865   27.4363 O   0  0  0  0  0  0  0  0  0  0  0  0
    8.5364   39.1387   34.0135 O   0  0  0  0  0  0  0  0  0  0  0  0
   10.9787   40.0867   33.6873 O   0  0  0  0  0  0  0  0  0  0  0  0
   10.7993   40.0945   32.2885 C   0  0  0  0  0  0  0  0  0  0  0  0
   11.5957   38.9351   31.6994 C   0  0  0  0  0  0  0  0  0  0  0  0
   12.9257   38.9478   32.1798 O   0  0  0  0  0  0  0  0  0  0  0  0
   11.0070   37.5758   32.0732 C   0  0  0  0  0  0  0  0  0  0  0  0
   13.3571   37.5980   32.2612 C   0  0  0  0  0  0  0  0  0  0  0  0
    9.9093   37.1808   31.2875 O   0  0  0  0  0  0  0  0  0  0  0  0
   12.1967   36.6764   31.8894 C   0  0  0  0  0  0  0  0  0  0  0  0
   13.8018   37.2956   33.6197 N   0  0  0  0  0  0  0  0  0  0  0  0
   12.3049   36.2360   30.5555 O   0  0  0  0  0  0  0  0  0  0  0  0
   14.7922   36.4716   33.9864 C   0  0  0  0  0  0  0  0  0  0  0  0
   13.2747   37.7291   34.7944 C   0  0  0  0  0  0  0  0  0  0  0  0
   15.6240   35.7581   33.1861 N   0  0  0  0  0  0  0  0  0  0  0  0
   14.8721   36.4402   35.3331 C   0  0  0  0  0  0  0  0  0  0  0  0
   13.9206   37.2257   35.8810 N   0  0  0  0  0  0  0  0  0  0  0  0
   16.5873   34.9924   33.7802 C   0  0  0  0  0  0  0  0  0  0  0  0
   15.8576   35.6714   35.9444 C   0  0  0  0  0  0  0  0  0  0  0  0
   16.7026   34.9585   35.1439 N   0  0  0  0  0  0  0  0  0  0  0  0
   16.0102   35.6382   37.3564 N   0  0  0  0  0  0  0  0  0  0  0  0
    7.6777   44.0727   34.0492 H   0  0  0  0  0  0  0  0  0  0  0  0
   10.3196   45.4431   34.0981 H   0  0  0  0  0  0  0  0  0  0  0  0
    9.1853   45.3826   35.3535 H   0  0  0  0  0  0  0  0  0  0  0  0
    8.4841   43.0892   31.8644 H   0  0  0  0  0  0  0  0  0  0  0  0
    9.9720   44.0749   31.9733 H   0  0  0  0  0  0  0  0  0  0  0  0
    8.5516   46.1564   31.8777 H   0  0  0  0  0  0  0  0  0  0  0  0
    8.5391   45.1454   30.4036 H   0  0  0  0  0  0  0  0  0  0  0  0
    6.3003   45.0682   32.5328 H   0  0  0  0  0  0  0  0  0  0  0  0
    6.3315   44.1798   30.9699 H   0  0  0  0  0  0  0  0  0  0  0  0
    4.9172   46.2590   30.9158 H   0  0  0  0  0  0  0  0  0  0  0  0
    6.2457   46.2883   29.7178 H   0  0  0  0  0  0  0  0  0  0  0  0
    6.2692   47.7497   32.4181 H   0  0  0  0  0  0  0  0  0  0  0  0
    8.5905   50.8023   29.8807 H   0  0  0  0  0  0  0  0  0  0  0  0
    8.9954   51.2900   31.5587 H   0  0  0  0  0  0  0  0  0  0  0  0
    9.8351   48.9481   32.9319 H   0  0  0  0  0  0  0  0  0  0  0  0
   11.7728   47.4339   32.9532 H   0  0  0  0  0  0  0  0  0  0  0  0
   12.6945   48.4900   28.9084 H   0  0  0  0  0  0  0  0  0  0  0  0
   13.1830   47.1816   30.9357 H   0  0  0  0  0  0  0  0  0  0  0  0
    9.7449   40.0201   31.9302 H   0  0  0  0  0  0  0  0  0  0  0  0
   11.2095   41.0480   31.8921 H   0  0  0  0  0  0  0  0  0  0  0  0
   11.6207   39.0685   30.5942 H   0  0  0  0  0  0  0  0  0  0  0  0
   10.7059   37.5563   33.1438 H   0  0  0  0  0  0  0  0  0  0  0  0
   14.2095   37.4543   31.5601 H   0  0  0  0  0  0  0  0  0  0  0  0
   10.0864   37.4210   30.3413 H   0  0  0  0  0  0  0  0  0  0  0  0
   12.1276   35.7872   32.5550 H   0  0  0  0  0  0  0  0  0  0  0  0
   12.5031   37.0109   29.9672 H   0  0  0  0  0  0  0  0  0  0  0  0
   12.4328   38.3996   34.8703 H   0  0  0  0  0  0  0  0  0  0  0  0
   17.2670   34.4149   33.1691 H   0  0  0  0  0  0  0  0  0  0  0  0
   16.7640   35.0601   37.7896 H   0  0  0  0  0  0  0  0  0  0  0  0
   15.3758   36.1862   37.9792 H   0  0  0  0  0  0  0  0  0  0  0  0
  1  2  2  0
  1  3  1  0
  3  4  1  0
  4  5  1  0
  6  1  1  0
  7  6  1  0
  6  8  1  0
  8  9  1  0
  9 10  1  0
 10 11  1  0
 11 12  1  0
 12 13  1  0
 13 14  1  0
 13 15  2  0
 14 16  1  0
 16 17  1  0
 17 18  2  0
 19 17  1  0
 18 20  1  0
 21 19  2  0
 19 22  1  0
 20 23  2  0
 23 21  1  0
 22 24  1  0
 22 25  2  0
  4 26  2  0
  4 27  1  0
 28 27  1  0
 28 29  1  0
 29 30  1  0
 29 31  1  0
 30 32  1  0
 31 33  1  0
 31 34  1  0
 34 32  1  0
 32 35  1  0
 34 36  1  0
 37 35  1  0
 38 35  1  0
 39 37  2  0
 37 40  1  0
 41 38  2  0
 42 39  1  0
 40 43  2  0
 40 41  1  0
 44 42  2  0
 44 43  1  0
 43 45  1  0
  6 46  1  6
  7 47  1  0
  7 48  1  0
  8 49  1  0
  8 50  1  0
  9 51  1  0
  9 52  1  0
 10 53  1  0
 10 54  1  0
 11 55  1  0
 11 56  1  0
 12 57  1  0
 16 58  1  0
 16 59  1  0
 18 60  1  0
 20 61  1  0
 21 62  1  0
 23 63  1  0
 28 64  1  0
 28 65  1  0
 29 66  1  0
 31 67  1  0
 32 68  1  0
 33 69  1  0
 34 70  1  0
 36 71  1  0
 38 72  1  0
 42 73  1  0
 45 74  1  0
 45 75  1  0
M  CHG  3   5  -1  22   1  24  -1
M  END
>  <EmbedRMS>  (510) 
0.077393724505

$$$$

     RDKit          3D

 75 78  0  0  0  0  0  0  0  0999 V2000
    9.4337   42.9357   34.3452 C   0  0  0  0  0  0  0  0  0  0  0  0
   10.4911   43.0319   35.0311 O   0  0  0  0  0  0  0  0  0  0  0  0
    8.8562   41.7098   34.0290 O   0  0  0  0  0  0  0  0  0  0  0  0
    9.4941   40.2136   34.4677 P   0  0  0  0  0  0  0  0  0  0  0  0
    9.7309   40.1724   36.1288 O   0  0  0  0  0  0  0  0  0  0  0  0
    8.7513   44.1343   33.7741 C   0  0  1  0  0  0  0  0  0  0  0  0
    9.2988   45.3794   34.3141 N   0  0  0  0  0  0  0  0  0  0  0  0
    8.8892   44.0541   32.2359 C   0  0  0  0  0  0  0  0  0  0  0  0
    8.2033   45.1860   31.4645 C   0  0  0  0  0  0  0  0  0  0  0  0
    6.6662   45.1074   31.4872 C   0  0  0  0  0  0  0  0  0  0  0  0
    6.0295   46.3232   30.8071 C   0  0  0  0  0  0  0  0  0  0  0  0
    6.4994   47.5672   31.4181 N   0  0  0  0  0  0  0  0  0  0  0  0
    7.2382   48.5461   30.6789 C   0  0  0  0  0  0  0  0  0  0  0  0
    7.5783   49.7902   31.2267 O   0  0  0  0  0  0  0  0  0  0  0  0
    7.5983   48.2992   29.4984 O   0  0  0  0  0  0  0  0  0  0  0  0
    7.2758   50.2351   32.5480 C   0  0  0  0  0  0  0  0  0  0  0  0
    8.1792   49.5922   33.5771 C   0  0  0  0  0  0  0  0  0  0  0  0
    7.6008   48.7738   34.5664 C   0  0  0  0  0  0  0  0  0  0  0  0
    9.5688   49.8823   33.6505 C   0  0  0  0  0  0  0  0  0  0  0  0
    8.3794   48.2239   35.5845 C   0  0  0  0  0  0  0  0  0  0  0  0
   10.3348   49.3184   34.6866 C   0  0  0  0  0  0  0  0  0  0  0  0
   10.2055   50.7909   32.7364 N   0  0  0  0  0  0  0  0  0  0  0  0
    9.7453   48.4890   35.6403 C   0  0  0  0  0  0  0  0  0  0  0  0
   10.0548   50.6389   31.3789 O   0  0  0  0  0  0  0  0  0  0  0  0
   11.0655   51.5923   33.1570 O   0  0  0  0  0  0  0  0  0  0  0  0
    8.5370   39.1379   34.0122 O   0  0  0  0  0  0  0  0  0  0  0  0
   10.9795   40.0867   33.6827 O   0  0  0  0  0  0  0  0  0  0  0  0
   10.7997   40.0898   32.2830 C   0  0  0  0  0  0  0  0  0  0  0  0
   11.5968   38.9273   31.6962 C   0  0  0  0  0  0  0  0  0  0  0  0
   12.9242   38.9425   32.1784 O   0  0  0  0  0  0  0  0  0  0  0  0
   11.0086   37.5713   32.0780 C   0  0  0  0  0  0  0  0  0  0  0  0
   13.3529   37.5929   32.2623 C   0  0  0  0  0  0  0  0  0  0  0  0
    9.9098   37.1770   31.2925 O   0  0  0  0  0  0  0  0  0  0  0  0
   12.1943   36.6683   31.8994 C   0  0  0  0  0  0  0  0  0  0  0  0
   13.8019   37.2950   33.6199 N   0  0  0  0  0  0  0  0  0  0  0  0
   12.3027   36.2773   30.5558 O   0  0  0  0  0  0  0  0  0  0  0  0
   14.7926   36.4715   33.9865 C   0  0  0  0  0  0  0  0  0  0  0  0
   13.2749   37.7286   34.7946 C   0  0  0  0  0  0  0  0  0  0  0  0
   15.6239   35.7577   33.1860 N   0  0  0  0  0  0  0  0  0  0  0  0
   14.8727   36.4403   35.3332 C   0  0  0  0  0  0  0  0  0  0  0  0
   13.9210   37.2257   35.8811 N   0  0  0  0  0  0  0  0  0  0  0  0
   16.5873   34.9921   33.7802 C   0  0  0  0  0  0  0  0  0  0  0  0
   15.8579   35.6714   35.9444 C   0  0  0  0  0  0  0  0  0  0  0  0
   16.7028   34.9583   35.1439 N   0  0  0  0  0  0  0  0  0  0  0  0
   16.0104   35.6382   37.3564 N   0  0  0  0  0  0  0  0  0  0  0  0
    7.6779   44.0715   34.0513 H   0  0  0  0  0  0  0  0  0  0  0  0
    9.2008   45.3692   35.3558 H   0  0  0  0  0  0  0  0  0  0  0  0
   10.3184   45.4446   34.0878 H   0  0  0  0  0  0  0  0  0  0  0  0
    9.9709   44.0691   31.9734 H   0  0  0  0  0  0  0  0  0  0  0  0
    8.4805   43.0874   31.8657 H   0  0  0  0  0  0  0  0  0  0  0  0
    8.5402   45.1436   30.4056 H   0  0  0  0  0  0  0  0  0  0  0  0
    8.5535   46.1543   31.8811 H   0  0  0  0  0  0  0  0  0  0  0  0
    6.3314   44.1812   30.9717 H   0  0  0  0  0  0  0  0  0  0  0  0
    6.3019   45.0707   32.5349 H   0  0  0  0  0  0  0  0  0  0  0  0
    4.9253   46.2640   30.9141 H   0  0  0  0  0  0  0  0  0  0  0  0
    6.2562   46.2891   29.7200 H   0  0  0  0  0  0  0  0  0  0  0  0
    6.2284   47.7456   32.4070 H   0  0  0  0  0  0  0  0  0  0  0  0
    6.2001   50.0575   32.7649 H   0  0  0  0  0  0  0  0  0  0  0  0
    7.4235   51.3346   32.5913 H   0  0  0  0  0  0  0  0  0  0  0  0
    6.5366   48.5756   34.5677 H   0  0  0  0  0  0  0  0  0  0  0  0
    7.9205   47.5941   36.3357 H   0  0  0  0  0  0  0  0  0  0  0  0
   11.3953   49.5260   34.7558 H   0  0  0  0  0  0  0  0  0  0  0  0
   10.3473   48.0601   36.4310 H   0  0  0  0  0  0  0  0  0  0  0  0
   11.2097   41.0418   31.8830 H   0  0  0  0  0  0  0  0  0  0  0  0
    9.7450   40.0145   31.9263 H   0  0  0  0  0  0  0  0  0  0  0  0
   11.6265   39.0456   30.5888 H   0  0  0  0  0  0  0  0  0  0  0  0
   10.7064   37.5573   33.1484 H   0  0  0  0  0  0  0  0  0  0  0  0
   14.2021   37.4484   31.5574 H   0  0  0  0  0  0  0  0  0  0  0  0
   10.0952   37.3990   30.3433 H   0  0  0  0  0  0  0  0  0  0  0  0
   12.1163   35.7744   32.5633 H   0  0  0  0  0  0  0  0  0  0  0  0
   12.9615   35.5349   30.5312 H   0  0  0  0  0  0  0  0  0  0  0  0
   12.4321   38.3982   34.8705 H   0  0  0  0  0  0  0  0  0  0  0  0
   17.2669   34.4143   33.1690 H   0  0  0  0  0  0  0  0  0  0  0  0
   16.7641   35.0599   37.7897 H   0  0  0  0  0  0  0  0  0  0  0  0
   15.3761   36.1862   37.9792 H   0  0  0  0  0  0  0  0  0  0  0  0
  1  2  2  0
  1  3  1  0
  3  4  1  0
  4  5  1  0
  6  1  1  0
  7  6  1  0
  6  8  1  0
  8  9  1  0
  9 10  1  0
 10 11  1  0
 11 12  1  0
 12 13  1  0
 13 14  1  0
 13 15  2  0
 14 16  1  0
 16 17  1  0
 17 18  2  0
 19 17  1  0
 18 20  1  0
 21 19  2  0
 19 22  1  0
 20 23  2  0
 23 21  1  0
 22 24  1  0
 22 25  2  0
  4 26  2  0
  4 27  1  0
 28 27  1  0
 28 29  1  0
 29 30  1  0
 29 31  1  0
 30 32  1  0
 31 33  1  0
 31 34  1  0
 34 32  1  0
 32 35  1  0
 34 36  1  0
 37 35  1  0
 38 35  1  0
 39 37  2  0
 37 40  1  0
 41 38  2  0
 42 39  1  0
 40 43  2  0
 40 41  1  0
 44 42  2  0
 44 43  1  0
 43 45  1  0
  6 46  1  6
  7 47  1  0
  7 48  1  0
  8 49  1  0
  8 50  1  0
  9 51  1  0
  9 52  1  0
 10 53  1  0
 10 54  1  0
 11 55  1  0
 11 56  1  0
 12 57  1  0
 16 58  1  0
 16 59  1  0
 18 60  1  0
 20 61  1  0
 21 62  1  0
 23 63  1  0
 28 64  1  0
 28 65  1  0
 29 66  1  0
 31 67  1  0
 32 68  1  0
 33 69  1  0
 34 70  1  0
 36 71  1  0
 38 72  1  0
 42 73  1  0
 45 74  1  0
 45 75  1  0
M  CHG  3   5  -1  22   1  24  -1
M  END
>  <EmbedRMS>  (511) 
0.0749325548861

$$$$

     RDKit          3D

 75 78  0  0  0  0  0  0  0  0999 V2000
    9.4311   42.9413   34.3436 C   0  0  0  0  0  0  0  0  0  0  0  0
   10.4884   43.0412   35.0293 O   0  0  0  0  0  0  0  0  0  0  0  0
    8.8561   41.7129   34.0288 O   0  0  0  0  0  0  0  0  0  0  0  0
    9.4947   40.2164   34.4679 P   0  0  0  0  0  0  0  0  0  0  0  0
    9.7311   40.1742   36.1290 O   0  0  0  0  0  0  0  0  0  0  0  0
    8.7482   44.1361   33.7718 C   0  0  1  0  0  0  0  0  0  0  0  0
    9.3035   45.3667   34.3384 N   0  0  0  0  0  0  0  0  0  0  0  0
    8.8892   44.0516   32.2304 C   0  0  0  0  0  0  0  0  0  0  0  0
    8.2020   45.1719   31.4424 C   0  0  0  0  0  0  0  0  0  0  0  0
    6.6646   45.1045   31.4834 C   0  0  0  0  0  0  0  0  0  0  0  0
    6.0258   46.3265   30.8156 C   0  0  0  0  0  0  0  0  0  0  0  0
    6.5152   47.5630   31.4250 N   0  0  0  0  0  0  0  0  0  0  0  0
    7.2297   48.5514   30.6754 C   0  0  0  0  0  0  0  0  0  0  0  0
    7.5551   49.8000   31.2221 O   0  0  0  0  0  0  0  0  0  0  0  0
    7.6007   48.2999   29.4993 O   0  0  0  0  0  0  0  0  0  0  0  0
    7.0164   50.3398   32.4292 C   0  0  0  0  0  0  0  0  0  0  0  0
    5.5556   50.6954   32.2606 C   0  0  0  0  0  0  0  0  0  0  0  0
    4.5955   49.9321   32.9523 C   0  0  0  0  0  0  0  0  0  0  0  0
    5.1240   51.8054   31.4784 C   0  0  0  0  0  0  0  0  0  0  0  0
    3.2369   50.2301   32.8520 C   0  0  0  0  0  0  0  0  0  0  0  0
    3.7483   52.0919   31.4028 C   0  0  0  0  0  0  0  0  0  0  0  0
    6.0464   52.6818   30.8011 N   0  0  0  0  0  0  0  0  0  0  0  0
    2.8138   51.3054   32.0759 C   0  0  0  0  0  0  0  0  0  0  0  0
    5.7035   53.9956   30.5767 O   0  0  0  0  0  0  0  0  0  0  0  0
    7.0947   52.2445   30.2863 O   0  0  0  0  0  0  0  0  0  0  0  0
    8.5375   39.1404   34.0127 O   0  0  0  0  0  0  0  0  0  0  0  0
   10.9805   40.0889   33.6836 O   0  0  0  0  0  0  0  0  0  0  0  0
   10.8025   40.0902   32.2837 C   0  0  0  0  0  0  0  0  0  0  0  0
   11.5888   38.9175   31.7008 C   0  0  0  0  0  0  0  0  0  0  0  0
   12.9219   38.9373   32.1692 O   0  0  0  0  0  0  0  0  0  0  0  0
   11.0028   37.5683   32.0981 C   0  0  0  0  0  0  0  0  0  0  0  0
   13.3496   37.5886   32.2601 C   0  0  0  0  0  0  0  0  0  0  0  0
    9.9343   37.1823   31.2757 O   0  0  0  0  0  0  0  0  0  0  0  0
   12.1890   36.6677   31.9050 C   0  0  0  0  0  0  0  0  0  0  0  0
   13.8025   37.2965   33.6186 N   0  0  0  0  0  0  0  0  0  0  0  0
   12.2990   36.2868   30.5568 O   0  0  0  0  0  0  0  0  0  0  0  0
   14.7929   36.4725   33.9858 C   0  0  0  0  0  0  0  0  0  0  0  0
   13.2749   37.7294   34.7935 C   0  0  0  0  0  0  0  0  0  0  0  0
   15.6240   35.7580   33.1858 N   0  0  0  0  0  0  0  0  0  0  0  0
   14.8727   36.4411   35.3327 C   0  0  0  0  0  0  0  0  0  0  0  0
   13.9208   37.2263   35.8803 N   0  0  0  0  0  0  0  0  0  0  0  0
   16.5871   34.9921   33.7801 C   0  0  0  0  0  0  0  0  0  0  0  0
   15.8576   35.6718   35.9441 C   0  0  0  0  0  0  0  0  0  0  0  0
   16.7024   34.9584   35.1438 N   0  0  0  0  0  0  0  0  0  0  0  0
   16.0099   35.6384   37.3562 N   0  0  0  0  0  0  0  0  0  0  0  0
    7.6761   44.0635   34.0543 H   0  0  0  0  0  0  0  0  0  0  0  0
   10.2145   45.5885   33.8740 H   0  0  0  0  0  0  0  0  0  0  0  0
    8.6460   46.1559   34.1431 H   0  0  0  0  0  0  0  0  0  0  0  0
    8.4829   43.0815   31.8663 H   0  0  0  0  0  0  0  0  0  0  0  0
    9.9709   44.0637   31.9678 H   0  0  0  0  0  0  0  0  0  0  0  0
    8.5708   46.1482   31.8180 H   0  0  0  0  0  0  0  0  0  0  0  0
    8.5227   45.0972   30.3802 H   0  0  0  0  0  0  0  0  0  0  0  0
    6.3125   45.0670   32.5352 H   0  0  0  0  0  0  0  0  0  0  0  0
    6.3171   44.1814   30.9707 H   0  0  0  0  0  0  0  0  0  0  0  0
    6.2327   46.2969   29.7243 H   0  0  0  0  0  0  0  0  0  0  0  0
    4.9236   46.2750   30.9446 H   0  0  0  0  0  0  0  0  0  0  0  0
    6.3563   47.6917   32.4465 H   0  0  0  0  0  0  0  0  0  0  0  0
    7.5814   51.2570   32.6975 H   0  0  0  0  0  0  0  0  0  0  0  0
    7.1804   49.6291   33.2670 H   0  0  0  0  0  0  0  0  0  0  0  0
    4.8957   49.1068   33.5846 H   0  0  0  0  0  0  0  0  0  0  0  0
    2.5108   49.6299   33.3850 H   0  0  0  0  0  0  0  0  0  0  0  0
    3.3946   52.9277   30.8125 H   0  0  0  0  0  0  0  0  0  0  0  0
    1.7590   51.5370   32.0029 H   0  0  0  0  0  0  0  0  0  0  0  0
   11.2257   41.0358   31.8825 H   0  0  0  0  0  0  0  0  0  0  0  0
    9.7476   40.0332   31.9256 H   0  0  0  0  0  0  0  0  0  0  0  0
   11.5975   39.0148   30.5905 H   0  0  0  0  0  0  0  0  0  0  0  0
   10.7023   37.5457   33.1720 H   0  0  0  0  0  0  0  0  0  0  0  0
   14.1957   37.4366   31.5528 H   0  0  0  0  0  0  0  0  0  0  0  0
    9.1339   37.6659   31.6070 H   0  0  0  0  0  0  0  0  0  0  0  0
   12.1380   35.7717   32.5698 H   0  0  0  0  0  0  0  0  0  0  0  0
   11.7706   35.4530   30.4497 H   0  0  0  0  0  0  0  0  0  0  0  0
   12.4314   38.3980   34.8694 H   0  0  0  0  0  0  0  0  0  0  0  0
   17.2665   34.4140   33.1691 H   0  0  0  0  0  0  0  0  0  0  0  0
   15.3757   36.1868   37.9789 H   0  0  0  0  0  0  0  0  0  0  0  0
   16.7633   35.0598   37.7895 H   0  0  0  0  0  0  0  0  0  0  0  0
  1  2  2  0
  1  3  1  0
  3  4  1  0
  4  5  1  0
  6  1  1  0
  7  6  1  0
  6  8  1  0
  8  9  1  0
  9 10  1  0
 10 11  1  0
 11 12  1  0
 12 13  1  0
 13 14  1  0
 13 15  2  0
 14 16  1  0
 16 17  1  0
 17 18  2  0
 19 17  1  0
 18 20  1  0
 21 19  2  0
 19 22  1  0
 20 23  2  0
 23 21  1  0
 22 24  1  0
 22 25  2  0
  4 26  2  0
  4 27  1  0
 28 27  1  0
 28 29  1  0
 29 30  1  0
 29 31  1  0
 30 32  1  0
 31 33  1  0
 31 34  1  0
 34 32  1  0
 32 35  1  0
 34 36  1  0
 37 35  1  0
 38 35  1  0
 39 37  2  0
 37 40  1  0
 41 38  2  0
 42 39  1  0
 40 43  2  0
 40 41  1  0
 44 42  2  0
 44 43  1  0
 43 45  1  0
  6 46  1  6
  7 47  1  0
  7 48  1  0
  8 49  1  0
  8 50  1  0
  9 51  1  0
  9 52  1  0
 10 53  1  0
 10 54  1  0
 11 55  1  0
 11 56  1  0
 12 57  1  0
 16 58  1  0
 16 59  1  0
 18 60  1  0
 20 61  1  0
 21 62  1  0
 23 63  1  0
 28 64  1  0
 28 65  1  0
 29 66  1  0
 31 67  1  0
 32 68  1  0
 33 69  1  0
 34 70  1  0
 36 71  1  0
 38 72  1  0
 42 73  1  0
 45 74  1  0
 45 75  1  0
M  CHG  3   5  -1  22   1  24  -1
M  END
>  <EmbedRMS>  (512) 
0.072968883461

$$$$

     RDKit          3D

 75 78  0  0  0  0  0  0  0  0999 V2000
    9.4308   42.9414   34.3439 C   0  0  0  0  0  0  0  0  0  0  0  0
   10.4883   43.0413   35.0292 O   0  0  0  0  0  0  0  0  0  0  0  0
    8.8557   41.7130   34.0292 O   0  0  0  0  0  0  0  0  0  0  0  0
    9.4946   40.2164   34.4676 P   0  0  0  0  0  0  0  0  0  0  0  0
    9.7319   40.1739   36.1286 O   0  0  0  0  0  0  0  0  0  0  0  0
    8.7478   44.1362   33.7722 C   0  0  1  0  0  0  0  0  0  0  0  0
    9.3028   45.3670   34.3389 N   0  0  0  0  0  0  0  0  0  0  0  0
    8.8890   44.0518   32.2309 C   0  0  0  0  0  0  0  0  0  0  0  0
    8.2017   45.1721   31.4435 C   0  0  0  0  0  0  0  0  0  0  0  0
    6.6644   45.1050   31.4848 C   0  0  0  0  0  0  0  0  0  0  0  0
    6.0276   46.3247   30.8116 C   0  0  0  0  0  0  0  0  0  0  0  0
    6.5115   47.5620   31.4232 N   0  0  0  0  0  0  0  0  0  0  0  0
    7.2457   48.5439   30.6820 C   0  0  0  0  0  0  0  0  0  0  0  0
    7.6209   49.7681   31.2530 O   0  0  0  0  0  0  0  0  0  0  0  0
    7.5884   48.3080   29.4942 O   0  0  0  0  0  0  0  0  0  0  0  0
    7.3090   50.1731   32.5858 C   0  0  0  0  0  0  0  0  0  0  0  0
    5.8294   50.4541   32.7335 C   0  0  0  0  0  0  0  0  0  0  0  0
    5.2032   51.2596   31.7648 C   0  0  0  0  0  0  0  0  0  0  0  0
    5.0494   49.9106   33.7884 C   0  0  0  0  0  0  0  0  0  0  0  0
    3.8260   51.4822   31.8051 C   0  0  0  0  0  0  0  0  0  0  0  0
    3.6613   50.1279   33.7995 C   0  0  0  0  0  0  0  0  0  0  0  0
    5.6404   49.1578   34.8586 N   0  0  0  0  0  0  0  0  0  0  0  0
    3.0548   50.9083   32.8142 C   0  0  0  0  0  0  0  0  0  0  0  0
    4.9695   48.0792   35.3870 O   0  0  0  0  0  0  0  0  0  0  0  0
    6.6311   49.6094   35.4690 O   0  0  0  0  0  0  0  0  0  0  0  0
    8.5375   39.1401   34.0125 O   0  0  0  0  0  0  0  0  0  0  0  0
   10.9796   40.0898   33.6814 O   0  0  0  0  0  0  0  0  0  0  0  0
   10.7982   40.0851   32.2818 C   0  0  0  0  0  0  0  0  0  0  0  0
   11.5886   38.9143   31.7009 C   0  0  0  0  0  0  0  0  0  0  0  0
   12.9213   38.9368   32.1699 O   0  0  0  0  0  0  0  0  0  0  0  0
   11.0047   37.5661   32.0991 C   0  0  0  0  0  0  0  0  0  0  0  0
   13.3510   37.5885   32.2602 C   0  0  0  0  0  0  0  0  0  0  0  0
    9.9296   37.1962   31.2780 O   0  0  0  0  0  0  0  0  0  0  0  0
   12.1923   36.6659   31.9047 C   0  0  0  0  0  0  0  0  0  0  0  0
   13.8033   37.2967   33.6188 N   0  0  0  0  0  0  0  0  0  0  0  0
   12.3006   36.2865   30.5562 O   0  0  0  0  0  0  0  0  0  0  0  0
   14.7933   36.4724   33.9860 C   0  0  0  0  0  0  0  0  0  0  0  0
   13.2753   37.7296   34.7935 C   0  0  0  0  0  0  0  0  0  0  0  0
   15.6243   35.7579   33.1860 N   0  0  0  0  0  0  0  0  0  0  0  0
   14.8728   36.4410   35.3328 C   0  0  0  0  0  0  0  0  0  0  0  0
   13.9209   37.2263   35.8804 N   0  0  0  0  0  0  0  0  0  0  0  0
   16.5873   34.9919   33.7803 C   0  0  0  0  0  0  0  0  0  0  0  0
   15.8577   35.6716   35.9443 C   0  0  0  0  0  0  0  0  0  0  0  0
   16.7025   34.9583   35.1440 N   0  0  0  0  0  0  0  0  0  0  0  0
   16.0100   35.6384   37.3563 N   0  0  0  0  0  0  0  0  0  0  0  0
    7.6757   44.0636   34.0544 H   0  0  0  0  0  0  0  0  0  0  0  0
   10.2131   45.5900   33.8736 H   0  0  0  0  0  0  0  0  0  0  0  0
    8.6444   46.1559   34.1450 H   0  0  0  0  0  0  0  0  0  0  0  0
    9.9707   44.0641   31.9684 H   0  0  0  0  0  0  0  0  0  0  0  0
    8.4828   43.0817   31.8667 H   0  0  0  0  0  0  0  0  0  0  0  0
    8.5225   45.0975   30.3812 H   0  0  0  0  0  0  0  0  0  0  0  0
    8.5702   46.1484   31.8194 H   0  0  0  0  0  0  0  0  0  0  0  0
    6.3120   45.0723   32.5367 H   0  0  0  0  0  0  0  0  0  0  0  0
    6.3166   44.1803   30.9754 H   0  0  0  0  0  0  0  0  0  0  0  0
    4.9245   46.2720   30.9317 H   0  0  0  0  0  0  0  0  0  0  0  0
    6.2434   46.2936   29.7221 H   0  0  0  0  0  0  0  0  0  0  0  0
    6.3071   47.7078   32.4351 H   0  0  0  0  0  0  0  0  0  0  0  0
    7.8619   51.1111   32.8014 H   0  0  0  0  0  0  0  0  0  0  0  0
    7.6826   49.4027   33.2890 H   0  0  0  0  0  0  0  0  0  0  0  0
    5.7818   51.7004   30.9622 H   0  0  0  0  0  0  0  0  0  0  0  0
    3.3548   52.0943   31.0469 H   0  0  0  0  0  0  0  0  0  0  0  0
    3.0501   49.7125   34.5909 H   0  0  0  0  0  0  0  0  0  0  0  0
    1.9861   51.0779   32.8404 H   0  0  0  0  0  0  0  0  0  0  0  0
    9.7426   40.0141   31.9267 H   0  0  0  0  0  0  0  0  0  0  0  0
   11.2129   41.0321   31.8751 H   0  0  0  0  0  0  0  0  0  0  0  0
   11.5980   39.0108   30.5905 H   0  0  0  0  0  0  0  0  0  0  0  0
   10.7008   37.5603   33.1721 H   0  0  0  0  0  0  0  0  0  0  0  0
   14.1976   37.4380   31.5532 H   0  0  0  0  0  0  0  0  0  0  0  0
    9.5180   36.3962   31.6978 H   0  0  0  0  0  0  0  0  0  0  0  0
   12.1418   35.7698   32.5692 H   0  0  0  0  0  0  0  0  0  0  0  0
   11.7729   35.4524   30.4489 H   0  0  0  0  0  0  0  0  0  0  0  0
   12.4321   38.3985   34.8692 H   0  0  0  0  0  0  0  0  0  0  0  0
   17.2667   34.4138   33.1694 H   0  0  0  0  0  0  0  0  0  0  0  0
   16.7634   35.0598   37.7897 H   0  0  0  0  0  0  0  0  0  0  0  0
   15.3757   36.1867   37.9790 H   0  0  0  0  0  0  0  0  0  0  0  0
  1  2  2  0
  1  3  1  0
  3  4  1  0
  4  5  1  0
  6  1  1  0
  7  6  1  0
  6  8  1  0
  8  9  1  0
  9 10  1  0
 10 11  1  0
 11 12  1  0
 12 13  1  0
 13 14  1  0
 13 15  2  0
 14 16  1  0
 16 17  1  0
 17 18  2  0
 19 17  1  0
 18 20  1  0
 21 19  2  0
 19 22  1  0
 20 23  2  0
 23 21  1  0
 22 24  1  0
 22 25  2  0
  4 26  2  0
  4 27  1  0
 28 27  1  0
 28 29  1  0
 29 30  1  0
 29 31  1  0
 30 32  1  0
 31 33  1  0
 31 34  1  0
 34 32  1  0
 32 35  1  0
 34 36  1  0
 37 35  1  0
 38 35  1  0
 39 37  2  0
 37 40  1  0
 41 38  2  0
 42 39  1  0
 40 43  2  0
 40 41  1  0
 44 42  2  0
 44 43  1  0
 43 45  1  0
  6 46  1  6
  7 47  1  0
  7 48  1  0
  8 49  1  0
  8 50  1  0
  9 51  1  0
  9 52  1  0
 10 53  1  0
 10 54  1  0
 11 55  1  0
 11 56  1  0
 12 57  1  0
 16 58  1  0
 16 59  1  0
 18 60  1  0
 20 61  1  0
 21 62  1  0
 23 63  1  0
 28 64  1  0
 28 65  1  0
 29 66  1  0
 31 67  1  0
 32 68  1  0
 33 69  1  0
 34 70  1  0
 36 71  1  0
 38 72  1  0
 42 73  1  0
 45 74  1  0
 45 75  1  0
M  CHG  3   5  -1  22   1  24  -1
M  END
>  <EmbedRMS>  (513) 
0.0734107706713

$$$$

     RDKit          3D

 75 78  0  0  0  0  0  0  0  0999 V2000
    9.4333   42.9365   34.3461 C   0  0  0  0  0  0  0  0  0  0  0  0
   10.4907   43.0329   35.0319 O   0  0  0  0  0  0  0  0  0  0  0  0
    8.8563   41.7103   34.0295 O   0  0  0  0  0  0  0  0  0  0  0  0
    9.4943   40.2139   34.4679 P   0  0  0  0  0  0  0  0  0  0  0  0
    9.7310   40.1724   36.1290 O   0  0  0  0  0  0  0  0  0  0  0  0
    8.7506   44.1348   33.7741 C   0  0  1  0  0  0  0  0  0  0  0  0
    9.2963   45.3820   34.3133 N   0  0  0  0  0  0  0  0  0  0  0  0
    8.8893   44.0528   32.2358 C   0  0  0  0  0  0  0  0  0  0  0  0
    8.2028   45.1825   31.4615 C   0  0  0  0  0  0  0  0  0  0  0  0
    6.6653   45.1046   31.4854 C   0  0  0  0  0  0  0  0  0  0  0  0
    6.0268   46.3225   30.8103 C   0  0  0  0  0  0  0  0  0  0  0  0
    6.5059   47.5640   31.4179 N   0  0  0  0  0  0  0  0  0  0  0  0
    7.2446   48.5386   30.6840 C   0  0  0  0  0  0  0  0  0  0  0  0
    7.5998   49.7368   31.3091 O   0  0  0  0  0  0  0  0  0  0  0  0
    7.5929   48.3120   29.4935 O   0  0  0  0  0  0  0  0  0  0  0  0
    8.3563   50.7525   30.6558 C   0  0  0  0  0  0  0  0  0  0  0  0
    8.6298   51.8807   31.6209 C   0  0  0  0  0  0  0  0  0  0  0  0
    9.1815   51.5619   32.8755 C   0  0  0  0  0  0  0  0  0  0  0  0
    8.3253   53.2361   31.3252 C   0  0  0  0  0  0  0  0  0  0  0  0
    9.3836   52.5520   33.8382 C   0  0  0  0  0  0  0  0  0  0  0  0
    8.5160   54.2152   32.3151 C   0  0  0  0  0  0  0  0  0  0  0  0
    7.8545   53.6441   30.0318 N   0  0  0  0  0  0  0  0  0  0  0  0
    9.0413   53.8745   33.5624 C   0  0  0  0  0  0  0  0  0  0  0  0
    6.9161   54.6453   29.9318 O   0  0  0  0  0  0  0  0  0  0  0  0
    8.4654   53.2868   29.0035 O   0  0  0  0  0  0  0  0  0  0  0  0
    8.5372   39.1382   34.0121 O   0  0  0  0  0  0  0  0  0  0  0  0
   10.9798   40.0871   33.6829 O   0  0  0  0  0  0  0  0  0  0  0  0
   10.8002   40.0905   32.2832 C   0  0  0  0  0  0  0  0  0  0  0  0
   11.5958   38.9271   31.6963 C   0  0  0  0  0  0  0  0  0  0  0  0
   12.9239   38.9409   32.1766 O   0  0  0  0  0  0  0  0  0  0  0  0
   11.0062   37.5719   32.0793 C   0  0  0  0  0  0  0  0  0  0  0  0
   13.3507   37.5905   32.2614 C   0  0  0  0  0  0  0  0  0  0  0  0
    9.9064   37.1792   31.2946 O   0  0  0  0  0  0  0  0  0  0  0  0
   12.1920   36.6671   31.9003 C   0  0  0  0  0  0  0  0  0  0  0  0
   13.8017   37.2948   33.6193 N   0  0  0  0  0  0  0  0  0  0  0  0
   12.3134   36.2788   30.5560 O   0  0  0  0  0  0  0  0  0  0  0  0
   14.7927   36.4716   33.9862 C   0  0  0  0  0  0  0  0  0  0  0  0
   13.2746   37.7284   34.7941 C   0  0  0  0  0  0  0  0  0  0  0  0
   15.6240   35.7576   33.1859 N   0  0  0  0  0  0  0  0  0  0  0  0
   14.8728   36.4406   35.3330 C   0  0  0  0  0  0  0  0  0  0  0  0
   13.9209   37.2258   35.8808 N   0  0  0  0  0  0  0  0  0  0  0  0
   16.5874   34.9920   33.7802 C   0  0  0  0  0  0  0  0  0  0  0  0
   15.8579   35.6716   35.9443 C   0  0  0  0  0  0  0  0  0  0  0  0
   16.7028   34.9584   35.1439 N   0  0  0  0  0  0  0  0  0  0  0  0
   16.0103   35.6383   37.3563 N   0  0  0  0  0  0  0  0  0  0  0  0
    7.6771   44.0706   34.0504 H   0  0  0  0  0  0  0  0  0  0  0  0
    9.1827   45.3820   35.3535 H   0  0  0  0  0  0  0  0  0  0  0  0
   10.3192   45.4407   34.1000 H   0  0  0  0  0  0  0  0  0  0  0  0
    8.4817   43.0852   31.8668 H   0  0  0  0  0  0  0  0  0  0  0  0
    9.9711   44.0683   31.9739 H   0  0  0  0  0  0  0  0  0  0  0  0
    8.5551   46.1511   31.8744 H   0  0  0  0  0  0  0  0  0  0  0  0
    8.5385   45.1366   30.4023 H   0  0  0  0  0  0  0  0  0  0  0  0
    6.3019   45.0642   32.5333 H   0  0  0  0  0  0  0  0  0  0  0  0
    6.3297   44.1799   30.9677 H   0  0  0  0  0  0  0  0  0  0  0  0
    6.2465   46.2897   29.7216 H   0  0  0  0  0  0  0  0  0  0  0  0
    4.9234   46.2671   30.9262 H   0  0  0  0  0  0  0  0  0  0  0  0
    6.2825   47.7525   32.4210 H   0  0  0  0  0  0  0  0  0  0  0  0
    7.7873   51.0891   29.7668 H   0  0  0  0  0  0  0  0  0  0  0  0
    9.3273   50.3310   30.3168 H   0  0  0  0  0  0  0  0  0  0  0  0
    9.4392   50.5373   33.1157 H   0  0  0  0  0  0  0  0  0  0  0  0
    9.7991   52.2913   34.8031 H   0  0  0  0  0  0  0  0  0  0  0  0
    8.2826   55.2523   32.1093 H   0  0  0  0  0  0  0  0  0  0  0  0
    9.1945   54.6399   34.3122 H   0  0  0  0  0  0  0  0  0  0  0  0
    9.7455   40.0168   31.9263 H   0  0  0  0  0  0  0  0  0  0  0  0
   11.2116   41.0420   31.8834 H   0  0  0  0  0  0  0  0  0  0  0  0
   11.6245   39.0449   30.5888 H   0  0  0  0  0  0  0  0  0  0  0  0
   10.7050   37.5579   33.1499 H   0  0  0  0  0  0  0  0  0  0  0  0
   14.1985   37.4426   31.5553 H   0  0  0  0  0  0  0  0  0  0  0  0
   10.0893   37.4057   30.3459 H   0  0  0  0  0  0  0  0  0  0  0  0
   12.1337   35.7754   32.5703 H   0  0  0  0  0  0  0  0  0  0  0  0
   11.7934   35.4394   30.4513 H   0  0  0  0  0  0  0  0  0  0  0  0
   12.4314   38.3973   34.8700 H   0  0  0  0  0  0  0  0  0  0  0  0
   17.2669   34.4142   33.1691 H   0  0  0  0  0  0  0  0  0  0  0  0
   16.7638   35.0599   37.7896 H   0  0  0  0  0  0  0  0  0  0  0  0
   15.3759   36.1865   37.9790 H   0  0  0  0  0  0  0  0  0  0  0  0
  1  2  2  0
  1  3  1  0
  3  4  1  0
  4  5  1  0
  6  1  1  0
  7  6  1  0
  6  8  1  0
  8  9  1  0
  9 10  1  0
 10 11  1  0
 11 12  1  0
 12 13  1  0
 13 14  1  0
 13 15  2  0
 14 16  1  0
 16 17  1  0
 17 18  2  0
 19 17  1  0
 18 20  1  0
 21 19  2  0
 19 22  1  0
 20 23  2  0
 23 21  1  0
 22 24  1  0
 22 25  2  0
  4 26  2  0
  4 27  1  0
 28 27  1  0
 28 29  1  0
 29 30  1  0
 29 31  1  0
 30 32  1  0
 31 33  1  0
 31 34  1  0
 34 32  1  0
 32 35  1  0
 34 36  1  0
 37 35  1  0
 38 35  1  0
 39 37  2  0
 37 40  1  0
 41 38  2  0
 42 39  1  0
 40 43  2  0
 40 41  1  0
 44 42  2  0
 44 43  1  0
 43 45  1  0
  6 46  1  6
  7 47  1  0
  7 48  1  0
  8 49  1  0
  8 50  1  0
  9 51  1  0
  9 52  1  0
 10 53  1  0
 10 54  1  0
 11 55  1  0
 11 56  1  0
 12 57  1  0
 16 58  1  0
 16 59  1  0
 18 60  1  0
 20 61  1  0
 21 62  1  0
 23 63  1  0
 28 64  1  0
 28 65  1  0
 29 66  1  0
 31 67  1  0
 32 68  1  0
 33 69  1  0
 34 70  1  0
 36 71  1  0
 38 72  1  0
 42 73  1  0
 45 74  1  0
 45 75  1  0
M  CHG  3   5  -1  22   1  24  -1
M  END
>  <EmbedRMS>  (514) 
0.0748114336404

$$$$

     RDKit          3D

 75 78  0  0  0  0  0  0  0  0999 V2000
    9.4331   42.9365   34.3460 C   0  0  0  0  0  0  0  0  0  0  0  0
   10.4905   43.0331   35.0318 O   0  0  0  0  0  0  0  0  0  0  0  0
    8.8562   41.7103   34.0295 O   0  0  0  0  0  0  0  0  0  0  0  0
    9.4943   40.2140   34.4679 P   0  0  0  0  0  0  0  0  0  0  0  0
    9.7310   40.1724   36.1290 O   0  0  0  0  0  0  0  0  0  0  0  0
    8.7505   44.1348   33.7737 C   0  0  1  0  0  0  0  0  0  0  0  0
    9.2961   45.3821   34.3129 N   0  0  0  0  0  0  0  0  0  0  0  0
    8.8893   44.0524   32.2353 C   0  0  0  0  0  0  0  0  0  0  0  0
    8.2034   45.1820   31.4603 C   0  0  0  0  0  0  0  0  0  0  0  0
    6.6659   45.1026   31.4802 C   0  0  0  0  0  0  0  0  0  0  0  0
    6.0261   46.3258   30.8144 C   0  0  0  0  0  0  0  0  0  0  0  0
    6.5142   47.5626   31.4244 N   0  0  0  0  0  0  0  0  0  0  0  0
    7.2273   48.5520   30.6748 C   0  0  0  0  0  0  0  0  0  0  0  0
    7.5463   49.8030   31.2196 O   0  0  0  0  0  0  0  0  0  0  0  0
    7.6024   48.2994   29.5002 O   0  0  0  0  0  0  0  0  0  0  0  0
    6.9817   50.3551   32.4090 C   0  0  0  0  0  0  0  0  0  0  0  0
    5.5306   50.7243   32.1983 C   0  0  0  0  0  0  0  0  0  0  0  0
    4.5393   49.9497   32.8304 C   0  0  0  0  0  0  0  0  0  0  0  0
    5.1388   51.8600   31.4359 C   0  0  0  0  0  0  0  0  0  0  0  0
    3.1879   50.2649   32.6898 C   0  0  0  0  0  0  0  0  0  0  0  0
    3.7695   52.1651   31.3188 C   0  0  0  0  0  0  0  0  0  0  0  0
    6.0999   52.7391   30.8205 N   0  0  0  0  0  0  0  0  0  0  0  0
    2.8034   51.3683   31.9329 C   0  0  0  0  0  0  0  0  0  0  0  0
    7.2222   52.2415   30.2021 O   0  0  0  0  0  0  0  0  0  0  0  0
    5.8475   53.9566   30.7072 O   0  0  0  0  0  0  0  0  0  0  0  0
    8.5372   39.1382   34.0121 O   0  0  0  0  0  0  0  0  0  0  0  0
   10.9798   40.0871   33.6829 O   0  0  0  0  0  0  0  0  0  0  0  0
   10.8002   40.0905   32.2832 C   0  0  0  0  0  0  0  0  0  0  0  0
   11.5958   38.9271   31.6963 C   0  0  0  0  0  0  0  0  0  0  0  0
   12.9239   38.9409   32.1766 O   0  0  0  0  0  0  0  0  0  0  0  0
   11.0062   37.5719   32.0793 C   0  0  0  0  0  0  0  0  0  0  0  0
   13.3507   37.5905   32.2614 C   0  0  0  0  0  0  0  0  0  0  0  0
    9.9064   37.1792   31.2946 O   0  0  0  0  0  0  0  0  0  0  0  0
   12.1920   36.6671   31.9003 C   0  0  0  0  0  0  0  0  0  0  0  0
   13.8017   37.2948   33.6193 N   0  0  0  0  0  0  0  0  0  0  0  0
   12.3134   36.2788   30.5560 O   0  0  0  0  0  0  0  0  0  0  0  0
   14.7927   36.4717   33.9862 C   0  0  0  0  0  0  0  0  0  0  0  0
   13.2746   37.7284   34.7941 C   0  0  0  0  0  0  0  0  0  0  0  0
   15.6240   35.7576   33.1859 N   0  0  0  0  0  0  0  0  0  0  0  0
   14.8728   36.4406   35.3330 C   0  0  0  0  0  0  0  0  0  0  0  0
   13.9209   37.2258   35.8808 N   0  0  0  0  0  0  0  0  0  0  0  0
   16.5874   34.9920   33.7802 C   0  0  0  0  0  0  0  0  0  0  0  0
   15.8579   35.6716   35.9443 C   0  0  0  0  0  0  0  0  0  0  0  0
   16.7028   34.9584   35.1439 N   0  0  0  0  0  0  0  0  0  0  0  0
   16.0103   35.6383   37.3563 N   0  0  0  0  0  0  0  0  0  0  0  0
    7.6768   44.0708   34.0499 H   0  0  0  0  0  0  0  0  0  0  0  0
    9.1822   45.3823   35.3530 H   0  0  0  0  0  0  0  0  0  0  0  0
   10.3190   45.4406   34.0998 H   0  0  0  0  0  0  0  0  0  0  0  0
    8.4815   43.0847   31.8665 H   0  0  0  0  0  0  0  0  0  0  0  0
    9.9712   44.0674   31.9737 H   0  0  0  0  0  0  0  0  0  0  0  0
    8.5414   45.1375   30.4017 H   0  0  0  0  0  0  0  0  0  0  0  0
    8.5548   46.1502   31.8747 H   0  0  0  0  0  0  0  0  0  0  0  0
    6.3007   45.0526   32.5270 H   0  0  0  0  0  0  0  0  0  0  0  0
    6.3322   44.1817   30.9545 H   0  0  0  0  0  0  0  0  0  0  0  0
    4.9238   46.2732   30.9429 H   0  0  0  0  0  0  0  0  0  0  0  0
    6.2331   46.2975   29.7232 H   0  0  0  0  0  0  0  0  0  0  0  0
    6.3572   47.6900   32.4465 H   0  0  0  0  0  0  0  0  0  0  0  0
    7.5496   51.2676   32.6871 H   0  0  0  0  0  0  0  0  0  0  0  0
    7.1141   49.6489   33.2560 H   0  0  0  0  0  0  0  0  0  0  0  0
    4.8087   49.1030   33.4476 H   0  0  0  0  0  0  0  0  0  0  0  0
    2.4371   49.6562   33.1772 H   0  0  0  0  0  0  0  0  0  0  0  0
    3.4476   53.0231   30.7421 H   0  0  0  0  0  0  0  0  0  0  0  0
    1.7542   51.6134   31.8290 H   0  0  0  0  0  0  0  0  0  0  0  0
   11.2116   41.0420   31.8834 H   0  0  0  0  0  0  0  0  0  0  0  0
    9.7454   40.0167   31.9263 H   0  0  0  0  0  0  0  0  0  0  0  0
   11.6245   39.0449   30.5888 H   0  0  0  0  0  0  0  0  0  0  0  0
   10.7050   37.5579   33.1499 H   0  0  0  0  0  0  0  0  0  0  0  0
   14.1985   37.4426   31.5553 H   0  0  0  0  0  0  0  0  0  0  0  0
   10.0893   37.4057   30.3459 H   0  0  0  0  0  0  0  0  0  0  0  0
   12.1337   35.7754   32.5703 H   0  0  0  0  0  0  0  0  0  0  0  0
   11.7934   35.4394   30.4513 H   0  0  0  0  0  0  0  0  0  0  0  0
   12.4314   38.3973   34.8700 H   0  0  0  0  0  0  0  0  0  0  0  0
   17.2669   34.4142   33.1691 H   0  0  0  0  0  0  0  0  0  0  0  0
   15.3759   36.1864   37.9790 H   0  0  0  0  0  0  0  0  0  0  0  0
   16.7638   35.0599   37.7896 H   0  0  0  0  0  0  0  0  0  0  0  0
  1  2  2  0
  1  3  1  0
  3  4  1  0
  4  5  1  0
  6  1  1  0
  7  6  1  0
  6  8  1  0
  8  9  1  0
  9 10  1  0
 10 11  1  0
 11 12  1  0
 12 13  1  0
 13 14  1  0
 13 15  2  0
 14 16  1  0
 16 17  1  0
 17 18  2  0
 19 17  1  0
 18 20  1  0
 21 19  2  0
 19 22  1  0
 20 23  2  0
 23 21  1  0
 22 24  1  0
 22 25  2  0
  4 26  2  0
  4 27  1  0
 28 27  1  0
 28 29  1  0
 29 30  1  0
 29 31  1  0
 30 32  1  0
 31 33  1  0
 31 34  1  0
 34 32  1  0
 32 35  1  0
 34 36  1  0
 37 35  1  0
 38 35  1  0
 39 37  2  0
 37 40  1  0
 41 38  2  0
 42 39  1  0
 40 43  2  0
 40 41  1  0
 44 42  2  0
 44 43  1  0
 43 45  1  0
  6 46  1  6
  7 47  1  0
  7 48  1  0
  8 49  1  0
  8 50  1  0
  9 51  1  0
  9 52  1  0
 10 53  1  0
 10 54  1  0
 11 55  1  0
 11 56  1  0
 12 57  1  0
 16 58  1  0
 16 59  1  0
 18 60  1  0
 20 61  1  0
 21 62  1  0
 23 63  1  0
 28 64  1  0
 28 65  1  0
 29 66  1  0
 31 67  1  0
 32 68  1  0
 33 69  1  0
 34 70  1  0
 36 71  1  0
 38 72  1  0
 42 73  1  0
 45 74  1  0
 45 75  1  0
M  CHG  3   5  -1  22   1  24  -1
M  END
>  <EmbedRMS>  (515) 
0.0743694736485

$$$$

     RDKit          3D

 75 78  0  0  0  0  0  0  0  0999 V2000
    9.4333   42.9364   34.3461 C   0  0  0  0  0  0  0  0  0  0  0  0
   10.4907   43.0329   35.0319 O   0  0  0  0  0  0  0  0  0  0  0  0
    8.8562   41.7103   34.0295 O   0  0  0  0  0  0  0  0  0  0  0  0
    9.4942   40.2139   34.4678 P   0  0  0  0  0  0  0  0  0  0  0  0
    9.7311   40.1724   36.1289 O   0  0  0  0  0  0  0  0  0  0  0  0
    8.7506   44.1348   33.7741 C   0  0  1  0  0  0  0  0  0  0  0  0
    9.2963   45.3820   34.3133 N   0  0  0  0  0  0  0  0  0  0  0  0
    8.8893   44.0527   32.2358 C   0  0  0  0  0  0  0  0  0  0  0  0
    8.2028   45.1823   31.4615 C   0  0  0  0  0  0  0  0  0  0  0  0
    6.6653   45.1046   31.4855 C   0  0  0  0  0  0  0  0  0  0  0  0
    6.0270   46.3226   30.8105 C   0  0  0  0  0  0  0  0  0  0  0  0
    6.5064   47.5640   31.4180 N   0  0  0  0  0  0  0  0  0  0  0  0
    7.2434   48.5393   30.6834 C   0  0  0  0  0  0  0  0  0  0  0  0
    7.5913   49.7408   31.3057 O   0  0  0  0  0  0  0  0  0  0  0  0
    7.5935   48.3118   29.4937 O   0  0  0  0  0  0  0  0  0  0  0  0
    8.3326   50.7632   30.6466 C   0  0  0  0  0  0  0  0  0  0  0  0
    8.5085   51.9417   31.5715 C   0  0  0  0  0  0  0  0  0  0  0  0
    9.8139   52.3693   31.8786 C   0  0  0  0  0  0  0  0  0  0  0  0
    7.4031   52.6032   32.1730 C   0  0  0  0  0  0  0  0  0  0  0  0
   10.0289   53.4219   32.7689 C   0  0  0  0  0  0  0  0  0  0  0  0
    7.6444   53.6525   33.0793 C   0  0  0  0  0  0  0  0  0  0  0  0
    6.0432   52.2177   31.8982 N   0  0  0  0  0  0  0  0  0  0  0  0
    8.9467   54.0597   33.3708 C   0  0  0  0  0  0  0  0  0  0  0  0
    5.6512   51.8776   30.6247 O   0  0  0  0  0  0  0  0  0  0  0  0
    5.1682   52.3419   32.7802 O   0  0  0  0  0  0  0  0  0  0  0  0
    8.5370   39.1382   34.0122 O   0  0  0  0  0  0  0  0  0  0  0  0
   10.9795   40.0869   33.6827 O   0  0  0  0  0  0  0  0  0  0  0  0
   10.7997   40.0898   32.2830 C   0  0  0  0  0  0  0  0  0  0  0  0
   11.5968   38.9273   31.6962 C   0  0  0  0  0  0  0  0  0  0  0  0
   12.9242   38.9425   32.1784 O   0  0  0  0  0  0  0  0  0  0  0  0
   11.0086   37.5713   32.0780 C   0  0  0  0  0  0  0  0  0  0  0  0
   13.3528   37.5929   32.2623 C   0  0  0  0  0  0  0  0  0  0  0  0
    9.9098   37.1770   31.2925 O   0  0  0  0  0  0  0  0  0  0  0  0
   12.1943   36.6683   31.8995 C   0  0  0  0  0  0  0  0  0  0  0  0
   13.8019   37.2950   33.6199 N   0  0  0  0  0  0  0  0  0  0  0  0
   12.3027   36.2773   30.5558 O   0  0  0  0  0  0  0  0  0  0  0  0
   14.7926   36.4715   33.9864 C   0  0  0  0  0  0  0  0  0  0  0  0
   13.2749   37.7286   34.7946 C   0  0  0  0  0  0  0  0  0  0  0  0
   15.6239   35.7577   33.1860 N   0  0  0  0  0  0  0  0  0  0  0  0
   14.8727   36.4403   35.3332 C   0  0  0  0  0  0  0  0  0  0  0  0
   13.9210   37.2257   35.8811 N   0  0  0  0  0  0  0  0  0  0  0  0
   16.5873   34.9921   33.7802 C   0  0  0  0  0  0  0  0  0  0  0  0
   15.8579   35.6714   35.9444 C   0  0  0  0  0  0  0  0  0  0  0  0
   16.7028   34.9583   35.1439 N   0  0  0  0  0  0  0  0  0  0  0  0
   16.0104   35.6381   37.3564 N   0  0  0  0  0  0  0  0  0  0  0  0
    7.6770   44.0706   34.0504 H   0  0  0  0  0  0  0  0  0  0  0  0
   10.3192   45.4406   34.1000 H   0  0  0  0  0  0  0  0  0  0  0  0
    9.1827   45.3820   35.3535 H   0  0  0  0  0  0  0  0  0  0  0  0
    8.4816   43.0851   31.8668 H   0  0  0  0  0  0  0  0  0  0  0  0
    9.9711   44.0681   31.9739 H   0  0  0  0  0  0  0  0  0  0  0  0
    8.5384   45.1363   30.4022 H   0  0  0  0  0  0  0  0  0  0  0  0
    8.5552   46.1510   31.8743 H   0  0  0  0  0  0  0  0  0  0  0  0
    6.3020   45.0643   32.5334 H   0  0  0  0  0  0  0  0  0  0  0  0
    6.3296   44.1800   30.9678 H   0  0  0  0  0  0  0  0  0  0  0  0
    6.2465   46.2898   29.7217 H   0  0  0  0  0  0  0  0  0  0  0  0
    4.9236   46.2674   30.9265 H   0  0  0  0  0  0  0  0  0  0  0  0
    6.2816   47.7535   32.4207 H   0  0  0  0  0  0  0  0  0  0  0  0
    9.3170   50.3491   30.3357 H   0  0  0  0  0  0  0  0  0  0  0  0
    7.8080   51.0867   29.7233 H   0  0  0  0  0  0  0  0  0  0  0  0
   10.6730   51.8819   31.4342 H   0  0  0  0  0  0  0  0  0  0  0  0
   11.0382   53.7395   32.9972 H   0  0  0  0  0  0  0  0  0  0  0  0
    6.8181   54.1682   33.5522 H   0  0  0  0  0  0  0  0  0  0  0  0
    9.1165   54.8734   34.0641 H   0  0  0  0  0  0  0  0  0  0  0  0
   11.2096   41.0418   31.8830 H   0  0  0  0  0  0  0  0  0  0  0  0
    9.7449   40.0145   31.9263 H   0  0  0  0  0  0  0  0  0  0  0  0
   11.6265   39.0456   30.5888 H   0  0  0  0  0  0  0  0  0  0  0  0
   10.7064   37.5573   33.1484 H   0  0  0  0  0  0  0  0  0  0  0  0
   14.2021   37.4484   31.5574 H   0  0  0  0  0  0  0  0  0  0  0  0
   10.0952   37.3990   30.3433 H   0  0  0  0  0  0  0  0  0  0  0  0
   12.1163   35.7744   32.5633 H   0  0  0  0  0  0  0  0  0  0  0  0
   12.9615   35.5349   30.5312 H   0  0  0  0  0  0  0  0  0  0  0  0
   12.4321   38.3982   34.8705 H   0  0  0  0  0  0  0  0  0  0  0  0
   17.2669   34.4143   33.1690 H   0  0  0  0  0  0  0  0  0  0  0  0
   15.3761   36.1862   37.9792 H   0  0  0  0  0  0  0  0  0  0  0  0
   16.7641   35.0598   37.7896 H   0  0  0  0  0  0  0  0  0  0  0  0
  1  2  2  0
  1  3  1  0
  3  4  1  0
  4  5  1  0
  6  1  1  0
  7  6  1  0
  6  8  1  0
  8  9  1  0
  9 10  1  0
 10 11  1  0
 11 12  1  0
 12 13  1  0
 13 14  1  0
 13 15  2  0
 14 16  1  0
 16 17  1  0
 17 18  2  0
 19 17  1  0
 18 20  1  0
 21 19  2  0
 19 22  1  0
 20 23  2  0
 23 21  1  0
 22 24  1  0
 22 25  2  0
  4 26  2  0
  4 27  1  0
 28 27  1  0
 28 29  1  0
 29 30  1  0
 29 31  1  0
 30 32  1  0
 31 33  1  0
 31 34  1  0
 34 32  1  0
 32 35  1  0
 34 36  1  0
 37 35  1  0
 38 35  1  0
 39 37  2  0
 37 40  1  0
 41 38  2  0
 42 39  1  0
 40 43  2  0
 40 41  1  0
 44 42  2  0
 44 43  1  0
 43 45  1  0
  6 46  1  6
  7 47  1  0
  7 48  1  0
  8 49  1  0
  8 50  1  0
  9 51  1  0
  9 52  1  0
 10 53  1  0
 10 54  1  0
 11 55  1  0
 11 56  1  0
 12 57  1  0
 16 58  1  0
 16 59  1  0
 18 60  1  0
 20 61  1  0
 21 62  1  0
 23 63  1  0
 28 64  1  0
 28 65  1  0
 29 66  1  0
 31 67  1  0
 32 68  1  0
 33 69  1  0
 34 70  1  0
 36 71  1  0
 38 72  1  0
 42 73  1  0
 45 74  1  0
 45 75  1  0
M  CHG  3   5  -1  22   1  24  -1
M  END
>  <EmbedRMS>  (516) 
0.074595472641

$$$$

     RDKit          3D

 75 78  0  0  0  0  0  0  0  0999 V2000
    9.4311   42.9416   34.3439 C   0  0  0  0  0  0  0  0  0  0  0  0
   10.4885   43.0414   35.0293 O   0  0  0  0  0  0  0  0  0  0  0  0
    8.8558   41.7133   34.0295 O   0  0  0  0  0  0  0  0  0  0  0  0
    9.4932   40.2165   34.4701 P   0  0  0  0  0  0  0  0  0  0  0  0
    9.7295   40.1745   36.1311 O   0  0  0  0  0  0  0  0  0  0  0  0
    8.7483   44.1368   33.7722 C   0  0  1  0  0  0  0  0  0  0  0  0
    9.3039   45.3675   34.3388 N   0  0  0  0  0  0  0  0  0  0  0  0
    8.8890   44.0529   32.2310 C   0  0  0  0  0  0  0  0  0  0  0  0
    8.2012   45.1737   31.4443 C   0  0  0  0  0  0  0  0  0  0  0  0
    6.6639   45.1066   31.4865 C   0  0  0  0  0  0  0  0  0  0  0  0
    6.0269   46.3229   30.8071 C   0  0  0  0  0  0  0  0  0  0  0  0
    6.5007   47.5639   31.4197 N   0  0  0  0  0  0  0  0  0  0  0  0
    7.2636   48.5327   30.6901 C   0  0  0  0  0  0  0  0  0  0  0  0
    7.7124   49.7137   31.2923 O   0  0  0  0  0  0  0  0  0  0  0  0
    7.5814   48.3123   29.4923 O   0  0  0  0  0  0  0  0  0  0  0  0
    7.4784   50.0492   32.6562 C   0  0  0  0  0  0  0  0  0  0  0  0
    8.1907   51.3351   32.9829 C   0  0  0  0  0  0  0  0  0  0  0  0
    7.4620   52.5373   32.9354 C   0  0  0  0  0  0  0  0  0  0  0  0
    9.5600   51.3663   33.3604 C   0  0  0  0  0  0  0  0  0  0  0  0
    8.0647   53.7492   33.2746 C   0  0  0  0  0  0  0  0  0  0  0  0
   10.1432   52.5975   33.7136 C   0  0  0  0  0  0  0  0  0  0  0  0
   10.3644   50.1727   33.4037 N   0  0  0  0  0  0  0  0  0  0  0  0
    9.4011   53.7785   33.6680 C   0  0  0  0  0  0  0  0  0  0  0  0
   10.2376   49.2036   32.4358 O   0  0  0  0  0  0  0  0  0  0  0  0
   11.2991   50.0782   34.2261 O   0  0  0  0  0  0  0  0  0  0  0  0
    8.5368   39.1402   34.0138 O   0  0  0  0  0  0  0  0  0  0  0  0
   10.9789   40.0875   33.6872 O   0  0  0  0  0  0  0  0  0  0  0  0
   10.7992   40.0947   32.2884 C   0  0  0  0  0  0  0  0  0  0  0  0
   11.5957   38.9352   31.6994 C   0  0  0  0  0  0  0  0  0  0  0  0
   12.9257   38.9478   32.1799 O   0  0  0  0  0  0  0  0  0  0  0  0
   11.0070   37.5758   32.0732 C   0  0  0  0  0  0  0  0  0  0  0  0
   13.3571   37.5980   32.2612 C   0  0  0  0  0  0  0  0  0  0  0  0
    9.9093   37.1808   31.2875 O   0  0  0  0  0  0  0  0  0  0  0  0
   12.1967   36.6764   31.8894 C   0  0  0  0  0  0  0  0  0  0  0  0
   13.8018   37.2956   33.6197 N   0  0  0  0  0  0  0  0  0  0  0  0
   12.3048   36.2360   30.5555 O   0  0  0  0  0  0  0  0  0  0  0  0
   14.7922   36.4716   33.9864 C   0  0  0  0  0  0  0  0  0  0  0  0
   13.2747   37.7291   34.7944 C   0  0  0  0  0  0  0  0  0  0  0  0
   15.6239   35.7581   33.1861 N   0  0  0  0  0  0  0  0  0  0  0  0
   14.8721   36.4402   35.3331 C   0  0  0  0  0  0  0  0  0  0  0  0
   13.9206   37.2257   35.8810 N   0  0  0  0  0  0  0  0  0  0  0  0
   16.5873   34.9924   33.7802 C   0  0  0  0  0  0  0  0  0  0  0  0
   15.8576   35.6714   35.9444 C   0  0  0  0  0  0  0  0  0  0  0  0
   16.7026   34.9585   35.1439 N   0  0  0  0  0  0  0  0  0  0  0  0
   16.0102   35.6382   37.3564 N   0  0  0  0  0  0  0  0  0  0  0  0
    7.6762   44.0646   34.0546 H   0  0  0  0  0  0  0  0  0  0  0  0
    8.6467   46.1571   34.1440 H   0  0  0  0  0  0  0  0  0  0  0  0
   10.2148   45.5897   33.8741 H   0  0  0  0  0  0  0  0  0  0  0  0
    9.9706   44.0655   31.9681 H   0  0  0  0  0  0  0  0  0  0  0  0
    8.4828   43.0829   31.8666 H   0  0  0  0  0  0  0  0  0  0  0  0
    8.5216   45.0994   30.3820 H   0  0  0  0  0  0  0  0  0  0  0  0
    8.5691   46.1504   31.8203 H   0  0  0  0  0  0  0  0  0  0  0  0
    6.3117   45.0784   32.5385 H   0  0  0  0  0  0  0  0  0  0  0  0
    6.3165   44.1795   30.9810 H   0  0  0  0  0  0  0  0  0  0  0  0
    6.2522   46.2902   29.7196 H   0  0  0  0  0  0  0  0  0  0  0  0
    4.9229   46.2657   30.9169 H   0  0  0  0  0  0  0  0  0  0  0  0
    6.2559   47.7303   32.4204 H   0  0  0  0  0  0  0  0  0  0  0  0
    7.8353   49.2380   33.3268 H   0  0  0  0  0  0  0  0  0  0  0  0
    6.3842   50.1587   32.8223 H   0  0  0  0  0  0  0  0  0  0  0  0
    6.4195   52.5367   32.6408 H   0  0  0  0  0  0  0  0  0  0  0  0
    7.4923   54.6671   33.2370 H   0  0  0  0  0  0  0  0  0  0  0  0
   11.1836   52.6456   34.0094 H   0  0  0  0  0  0  0  0  0  0  0  0
    9.8653   54.7194   33.9341 H   0  0  0  0  0  0  0  0  0  0  0  0
    9.7448   40.0201   31.9304 H   0  0  0  0  0  0  0  0  0  0  0  0
   11.2092   41.0481   31.8916 H   0  0  0  0  0  0  0  0  0  0  0  0
   11.6207   39.0685   30.5943 H   0  0  0  0  0  0  0  0  0  0  0  0
   10.7059   37.5565   33.1439 H   0  0  0  0  0  0  0  0  0  0  0  0
   14.2095   37.4544   31.5601 H   0  0  0  0  0  0  0  0  0  0  0  0
   10.0864   37.4210   30.3414 H   0  0  0  0  0  0  0  0  0  0  0  0
   12.1275   35.7873   32.5550 H   0  0  0  0  0  0  0  0  0  0  0  0
   12.5030   37.0109   29.9673 H   0  0  0  0  0  0  0  0  0  0  0  0
   12.4328   38.3997   34.8703 H   0  0  0  0  0  0  0  0  0  0  0  0
   17.2670   34.4148   33.1690 H   0  0  0  0  0  0  0  0  0  0  0  0
   15.3758   36.1862   37.9792 H   0  0  0  0  0  0  0  0  0  0  0  0
   16.7640   35.0601   37.7896 H   0  0  0  0  0  0  0  0  0  0  0  0
  1  2  2  0
  1  3  1  0
  3  4  1  0
  4  5  1  0
  6  1  1  0
  7  6  1  0
  6  8  1  0
  8  9  1  0
  9 10  1  0
 10 11  1  0
 11 12  1  0
 12 13  1  0
 13 14  1  0
 13 15  2  0
 14 16  1  0
 16 17  1  0
 17 18  2  0
 19 17  1  0
 18 20  1  0
 21 19  2  0
 19 22  1  0
 20 23  2  0
 23 21  1  0
 22 24  1  0
 22 25  2  0
  4 26  2  0
  4 27  1  0
 28 27  1  0
 28 29  1  0
 29 30  1  0
 29 31  1  0
 30 32  1  0
 31 33  1  0
 31 34  1  0
 34 32  1  0
 32 35  1  0
 34 36  1  0
 37 35  1  0
 38 35  1  0
 39 37  2  0
 37 40  1  0
 41 38  2  0
 42 39  1  0
 40 43  2  0
 40 41  1  0
 44 42  2  0
 44 43  1  0
 43 45  1  0
  6 46  1  6
  7 47  1  0
  7 48  1  0
  8 49  1  0
  8 50  1  0
  9 51  1  0
  9 52  1  0
 10 53  1  0
 10 54  1  0
 11 55  1  0
 11 56  1  0
 12 57  1  0
 16 58  1  0
 16 59  1  0
 18 60  1  0
 20 61  1  0
 21 62  1  0
 23 63  1  0
 28 64  1  0
 28 65  1  0
 29 66  1  0
 31 67  1  0
 32 68  1  0
 33 69  1  0
 34 70  1  0
 36 71  1  0
 38 72  1  0
 42 73  1  0
 45 74  1  0
 45 75  1  0
M  CHG  3   5  -1  22   1  24  -1
M  END
>  <EmbedRMS>  (517) 
0.0758791989763

$$$$

     RDKit          3D

 75 78  0  0  0  0  0  0  0  0999 V2000
    9.4301   42.9393   34.3434 C   0  0  0  0  0  0  0  0  0  0  0  0
   10.4913   43.0378   35.0235 O   0  0  0  0  0  0  0  0  0  0  0  0
    8.8550   41.7115   34.0282 O   0  0  0  0  0  0  0  0  0  0  0  0
    9.4941   40.2153   34.4674 P   0  0  0  0  0  0  0  0  0  0  0  0
    9.7310   40.1738   36.1285 O   0  0  0  0  0  0  0  0  0  0  0  0
    8.7413   44.1376   33.7786 C   0  0  1  0  0  0  0  0  0  0  0  0
    9.3016   45.3717   34.3326 N   0  0  0  0  0  0  0  0  0  0  0  0
    8.8963   44.0592   32.2399 C   0  0  0  0  0  0  0  0  0  0  0  0
    8.2026   45.1687   31.4401 C   0  0  0  0  0  0  0  0  0  0  0  0
    6.6653   45.1062   31.4910 C   0  0  0  0  0  0  0  0  0  0  0  0
    6.0275   46.3222   30.8122 C   0  0  0  0  0  0  0  0  0  0  0  0
    6.5072   47.5640   31.4184 N   0  0  0  0  0  0  0  0  0  0  0  0
    7.2442   48.5389   30.6833 C   0  0  0  0  0  0  0  0  0  0  0  0
    7.5972   49.7385   31.3068 O   0  0  0  0  0  0  0  0  0  0  0  0
    7.5928   48.3116   29.4931 O   0  0  0  0  0  0  0  0  0  0  0  0
    8.3502   50.7561   30.6507 C   0  0  0  0  0  0  0  0  0  0  0  0
    8.6114   51.9337   31.5649 C   0  0  0  0  0  0  0  0  0  0  0  0
    8.4811   51.7860   32.9616 C   0  0  0  0  0  0  0  0  0  0  0  0
    8.9833   53.2007   31.0392 C   0  0  0  0  0  0  0  0  0  0  0  0
    8.6733   52.8728   33.8153 C   0  0  0  0  0  0  0  0  0  0  0  0
    9.1554   54.2862   31.9179 C   0  0  0  0  0  0  0  0  0  0  0  0
    9.1861   53.4053   29.6286 N   0  0  0  0  0  0  0  0  0  0  0  0
    9.0015   54.1218   33.2943 C   0  0  0  0  0  0  0  0  0  0  0  0
    9.8175   52.4504   28.8657 O   0  0  0  0  0  0  0  0  0  0  0  0
    8.9444   54.5179   29.1163 O   0  0  0  0  0  0  0  0  0  0  0  0
    8.5373   39.1389   34.0124 O   0  0  0  0  0  0  0  0  0  0  0  0
   10.9794   40.0877   33.6824 O   0  0  0  0  0  0  0  0  0  0  0  0
   10.7996   40.0900   32.2828 C   0  0  0  0  0  0  0  0  0  0  0  0
   11.5968   38.9274   31.6962 C   0  0  0  0  0  0  0  0  0  0  0  0
   12.9242   38.9426   32.1785 O   0  0  0  0  0  0  0  0  0  0  0  0
   11.0086   37.5713   32.0780 C   0  0  0  0  0  0  0  0  0  0  0  0
   13.3528   37.5929   32.2623 C   0  0  0  0  0  0  0  0  0  0  0  0
    9.9098   37.1771   31.2926 O   0  0  0  0  0  0  0  0  0  0  0  0
   12.1943   36.6683   31.8995 C   0  0  0  0  0  0  0  0  0  0  0  0
   13.8019   37.2950   33.6199 N   0  0  0  0  0  0  0  0  0  0  0  0
   12.3027   36.2773   30.5559 O   0  0  0  0  0  0  0  0  0  0  0  0
   14.7926   36.4715   33.9865 C   0  0  0  0  0  0  0  0  0  0  0  0
   13.2749   37.7286   34.7946 C   0  0  0  0  0  0  0  0  0  0  0  0
   15.6239   35.7577   33.1860 N   0  0  0  0  0  0  0  0  0  0  0  0
   14.8727   36.4403   35.3332 C   0  0  0  0  0  0  0  0  0  0  0  0
   13.9210   37.2257   35.8812 N   0  0  0  0  0  0  0  0  0  0  0  0
   16.5873   34.9921   33.7802 C   0  0  0  0  0  0  0  0  0  0  0  0
   15.8579   35.6714   35.9444 C   0  0  0  0  0  0  0  0  0  0  0  0
   16.7028   34.9583   35.1439 N   0  0  0  0  0  0  0  0  0  0  0  0
   16.0104   35.6381   37.3564 N   0  0  0  0  0  0  0  0  0  0  0  0
    7.6669   44.0651   34.0548 H   0  0  0  0  0  0  0  0  0  0  0  0
    9.2335   45.3272   35.3760 H   0  0  0  0  0  0  0  0  0  0  0  0
    8.6810   46.1667   34.0588 H   0  0  0  0  0  0  0  0  0  0  0  0
    8.5085   43.0839   31.8695 H   0  0  0  0  0  0  0  0  0  0  0  0
    9.9810   44.0907   31.9915 H   0  0  0  0  0  0  0  0  0  0  0  0
    8.5157   45.0756   30.3771 H   0  0  0  0  0  0  0  0  0  0  0  0
    8.5767   46.1513   31.7922 H   0  0  0  0  0  0  0  0  0  0  0  0
    6.3125   44.1780   30.9913 H   0  0  0  0  0  0  0  0  0  0  0  0
    6.3181   45.0836   32.5446 H   0  0  0  0  0  0  0  0  0  0  0  0
    6.2470   46.2873   29.7235 H   0  0  0  0  0  0  0  0  0  0  0  0
    4.9240   46.2676   30.9288 H   0  0  0  0  0  0  0  0  0  0  0  0
    6.2849   47.7532   32.4217 H   0  0  0  0  0  0  0  0  0  0  0  0
    7.7697   51.0981   29.7664 H   0  0  0  0  0  0  0  0  0  0  0  0
    9.3229   50.3373   30.3141 H   0  0  0  0  0  0  0  0  0  0  0  0
    8.2272   50.8299   33.4009 H   0  0  0  0  0  0  0  0  0  0  0  0
    8.5643   52.7460   34.8848 H   0  0  0  0  0  0  0  0  0  0  0  0
    9.4310   55.2613   31.5363 H   0  0  0  0  0  0  0  0  0  0  0  0
    9.1468   54.9635   33.9593 H   0  0  0  0  0  0  0  0  0  0  0  0
   11.2095   41.0419   31.8824 H   0  0  0  0  0  0  0  0  0  0  0  0
    9.7449   40.0145   31.9261 H   0  0  0  0  0  0  0  0  0  0  0  0
   11.6266   39.0455   30.5888 H   0  0  0  0  0  0  0  0  0  0  0  0
   10.7064   37.5575   33.1485 H   0  0  0  0  0  0  0  0  0  0  0  0
   14.2021   37.4484   31.5574 H   0  0  0  0  0  0  0  0  0  0  0  0
   10.0952   37.3990   30.3433 H   0  0  0  0  0  0  0  0  0  0  0  0
   12.1163   35.7745   32.5634 H   0  0  0  0  0  0  0  0  0  0  0  0
   12.9614   35.5349   30.5312 H   0  0  0  0  0  0  0  0  0  0  0  0
   12.4321   38.3982   34.8705 H   0  0  0  0  0  0  0  0  0  0  0  0
   17.2669   34.4144   33.1690 H   0  0  0  0  0  0  0  0  0  0  0  0
   15.3761   36.1862   37.9792 H   0  0  0  0  0  0  0  0  0  0  0  0
   16.7641   35.0599   37.7896 H   0  0  0  0  0  0  0  0  0  0  0  0
  1  2  2  0
  1  3  1  0
  3  4  1  0
  4  5  1  0
  6  1  1  0
  7  6  1  0
  6  8  1  0
  8  9  1  0
  9 10  1  0
 10 11  1  0
 11 12  1  0
 12 13  1  0
 13 14  1  0
 13 15  2  0
 14 16  1  0
 16 17  1  0
 17 18  2  0
 19 17  1  0
 18 20  1  0
 21 19  2  0
 19 22  1  0
 20 23  2  0
 23 21  1  0
 22 24  1  0
 22 25  2  0
  4 26  2  0
  4 27  1  0
 28 27  1  0
 28 29  1  0
 29 30  1  0
 29 31  1  0
 30 32  1  0
 31 33  1  0
 31 34  1  0
 34 32  1  0
 32 35  1  0
 34 36  1  0
 37 35  1  0
 38 35  1  0
 39 37  2  0
 37 40  1  0
 41 38  2  0
 42 39  1  0
 40 43  2  0
 40 41  1  0
 44 42  2  0
 44 43  1  0
 43 45  1  0
  6 46  1  6
  7 47  1  0
  7 48  1  0
  8 49  1  0
  8 50  1  0
  9 51  1  0
  9 52  1  0
 10 53  1  0
 10 54  1  0
 11 55  1  0
 11 56  1  0
 12 57  1  0
 16 58  1  0
 16 59  1  0
 18 60  1  0
 20 61  1  0
 21 62  1  0
 23 63  1  0
 28 64  1  0
 28 65  1  0
 29 66  1  0
 31 67  1  0
 32 68  1  0
 33 69  1  0
 34 70  1  0
 36 71  1  0
 38 72  1  0
 42 73  1  0
 45 74  1  0
 45 75  1  0
M  CHG  3   5  -1  22   1  24  -1
M  END
>  <EmbedRMS>  (518) 
0.0739436120294

$$$$

     RDKit          3D

 75 78  0  0  0  0  0  0  0  0999 V2000
    9.4299   42.9392   34.3434 C   0  0  0  0  0  0  0  0  0  0  0  0
   10.4910   43.0386   35.0236 O   0  0  0  0  0  0  0  0  0  0  0  0
    8.8547   41.7112   34.0294 O   0  0  0  0  0  0  0  0  0  0  0  0
    9.4931   40.2155   34.4706 P   0  0  0  0  0  0  0  0  0  0  0  0
    9.7289   40.1743   36.1316 O   0  0  0  0  0  0  0  0  0  0  0  0
    8.7409   44.1362   33.7775 C   0  0  1  0  0  0  0  0  0  0  0  0
    9.2996   45.3701   34.3306 N   0  0  0  0  0  0  0  0  0  0  0  0
    8.8969   44.0585   32.2391 C   0  0  0  0  0  0  0  0  0  0  0  0
    8.2038   45.1685   31.4392 C   0  0  0  0  0  0  0  0  0  0  0  0
    6.6667   45.1070   31.4913 C   0  0  0  0  0  0  0  0  0  0  0  0
    6.0298   46.3245   30.8150 C   0  0  0  0  0  0  0  0  0  0  0  0
    6.5108   47.5651   31.4241 N   0  0  0  0  0  0  0  0  0  0  0  0
    7.2286   48.5520   30.6737 C   0  0  0  0  0  0  0  0  0  0  0  0
    7.5266   49.8123   31.2088 O   0  0  0  0  0  0  0  0  0  0  0  0
    7.6016   48.2990   29.4986 O   0  0  0  0  0  0  0  0  0  0  0  0
    7.1383   50.2582   32.5076 C   0  0  0  0  0  0  0  0  0  0  0  0
    8.0173   49.6488   33.5778 C   0  0  0  0  0  0  0  0  0  0  0  0
    9.4097   49.6377   33.3749 C   0  0  0  0  0  0  0  0  0  0  0  0
    7.4910   49.0997   34.7769 C   0  0  0  0  0  0  0  0  0  0  0  0
   10.2633   49.0614   34.3167 C   0  0  0  0  0  0  0  0  0  0  0  0
    8.3650   48.5114   35.7065 C   0  0  0  0  0  0  0  0  0  0  0  0
    6.0896   49.1502   35.0833 N   0  0  0  0  0  0  0  0  0  0  0  0
    9.7417   48.4960   35.4787 C   0  0  0  0  0  0  0  0  0  0  0  0
    5.4912   48.0857   35.7168 O   0  0  0  0  0  0  0  0  0  0  0  0
    5.4709   50.2316   35.0071 O   0  0  0  0  0  0  0  0  0  0  0  0
    8.5371   39.1391   34.0143 O   0  0  0  0  0  0  0  0  0  0  0  0
   10.9795   40.0882   33.6888 O   0  0  0  0  0  0  0  0  0  0  0  0
   10.8017   40.0949   32.2900 C   0  0  0  0  0  0  0  0  0  0  0  0
   11.5885   38.9266   31.7041 C   0  0  0  0  0  0  0  0  0  0  0  0
   12.9237   38.9445   32.1722 O   0  0  0  0  0  0  0  0  0  0  0  0
   11.0029   37.5726   32.0908 C   0  0  0  0  0  0  0  0  0  0  0  0
   13.3555   37.5960   32.2595 C   0  0  0  0  0  0  0  0  0  0  0  0
    9.9379   37.1846   31.2657 O   0  0  0  0  0  0  0  0  0  0  0  0
   12.1931   36.6769   31.8952 C   0  0  0  0  0  0  0  0  0  0  0  0
   13.8028   37.2977   33.6186 N   0  0  0  0  0  0  0  0  0  0  0  0
   12.2918   36.2396   30.5587 O   0  0  0  0  0  0  0  0  0  0  0  0
   14.7926   36.4727   33.9858 C   0  0  0  0  0  0  0  0  0  0  0  0
   13.2750   37.7302   34.7935 C   0  0  0  0  0  0  0  0  0  0  0  0
   15.6241   35.7586   33.1857 N   0  0  0  0  0  0  0  0  0  0  0  0
   14.8721   36.4408   35.3326 C   0  0  0  0  0  0  0  0  0  0  0  0
   13.9204   37.2263   35.8802 N   0  0  0  0  0  0  0  0  0  0  0  0
   16.5870   34.9924   33.7800 C   0  0  0  0  0  0  0  0  0  0  0  0
   15.8572   35.6717   35.9441 C   0  0  0  0  0  0  0  0  0  0  0  0
   16.7022   34.9585   35.1437 N   0  0  0  0  0  0  0  0  0  0  0  0
   16.0097   35.6384   37.3561 N   0  0  0  0  0  0  0  0  0  0  0  0
    7.6663   44.0631   34.0530 H   0  0  0  0  0  0  0  0  0  0  0  0
    8.6820   46.1618   34.0430 H   0  0  0  0  0  0  0  0  0  0  0  0
    9.2184   45.3322   35.3733 H   0  0  0  0  0  0  0  0  0  0  0  0
    8.5093   43.0833   31.8681 H   0  0  0  0  0  0  0  0  0  0  0  0
    9.9817   44.0902   31.9914 H   0  0  0  0  0  0  0  0  0  0  0  0
    8.5157   45.0740   30.3760 H   0  0  0  0  0  0  0  0  0  0  0  0
    8.5792   46.1517   31.7889 H   0  0  0  0  0  0  0  0  0  0  0  0
    6.3204   45.0836   32.5452 H   0  0  0  0  0  0  0  0  0  0  0  0
    6.3126   44.1798   30.9907 H   0  0  0  0  0  0  0  0  0  0  0  0
    4.9265   46.2702   30.9337 H   0  0  0  0  0  0  0  0  0  0  0  0
    6.2465   46.2908   29.7258 H   0  0  0  0  0  0  0  0  0  0  0  0
    6.2901   47.7254   32.4309 H   0  0  0  0  0  0  0  0  0  0  0  0
    6.0594   50.0513   32.6534 H   0  0  0  0  0  0  0  0  0  0  0  0
    7.2692   51.3597   32.5462 H   0  0  0  0  0  0  0  0  0  0  0  0
    9.8363   50.0692   32.4777 H   0  0  0  0  0  0  0  0  0  0  0  0
   11.3317   49.0514   34.1437 H   0  0  0  0  0  0  0  0  0  0  0  0
    7.9794   48.0830   36.6230 H   0  0  0  0  0  0  0  0  0  0  0  0
   10.4053   48.0467   36.2062 H   0  0  0  0  0  0  0  0  0  0  0  0
   11.2241   41.0428   31.8929 H   0  0  0  0  0  0  0  0  0  0  0  0
    9.7472   40.0378   31.9303 H   0  0  0  0  0  0  0  0  0  0  0  0
   11.5927   39.0433   30.5965 H   0  0  0  0  0  0  0  0  0  0  0  0
   10.7003   37.5443   33.1640 H   0  0  0  0  0  0  0  0  0  0  0  0
   14.2051   37.4477   31.5560 H   0  0  0  0  0  0  0  0  0  0  0  0
    9.1374   37.6722   31.5905 H   0  0  0  0  0  0  0  0  0  0  0  0
   12.1305   35.7856   32.5586 H   0  0  0  0  0  0  0  0  0  0  0  0
   12.4606   37.0186   29.9674 H   0  0  0  0  0  0  0  0  0  0  0  0
   12.4327   38.4001   34.8694 H   0  0  0  0  0  0  0  0  0  0  0  0
   17.2666   34.4146   33.1690 H   0  0  0  0  0  0  0  0  0  0  0  0
   16.7634   35.0601   37.7894 H   0  0  0  0  0  0  0  0  0  0  0  0
   15.3754   36.1866   37.9788 H   0  0  0  0  0  0  0  0  0  0  0  0
  1  2  2  0
  1  3  1  0
  3  4  1  0
  4  5  1  0
  6  1  1  0
  7  6  1  0
  6  8  1  0
  8  9  1  0
  9 10  1  0
 10 11  1  0
 11 12  1  0
 12 13  1  0
 13 14  1  0
 13 15  2  0
 14 16  1  0
 16 17  1  0
 17 18  2  0
 19 17  1  0
 18 20  1  0
 21 19  2  0
 19 22  1  0
 20 23  2  0
 23 21  1  0
 22 24  1  0
 22 25  2  0
  4 26  2  0
  4 27  1  0
 28 27  1  0
 28 29  1  0
 29 30  1  0
 29 31  1  0
 30 32  1  0
 31 33  1  0
 31 34  1  0
 34 32  1  0
 32 35  1  0
 34 36  1  0
 37 35  1  0
 38 35  1  0
 39 37  2  0
 37 40  1  0
 41 38  2  0
 42 39  1  0
 40 43  2  0
 40 41  1  0
 44 42  2  0
 44 43  1  0
 43 45  1  0
  6 46  1  6
  7 47  1  0
  7 48  1  0
  8 49  1  0
  8 50  1  0
  9 51  1  0
  9 52  1  0
 10 53  1  0
 10 54  1  0
 11 55  1  0
 11 56  1  0
 12 57  1  0
 16 58  1  0
 16 59  1  0
 18 60  1  0
 20 61  1  0
 21 62  1  0
 23 63  1  0
 28 64  1  0
 28 65  1  0
 29 66  1  0
 31 67  1  0
 32 68  1  0
 33 69  1  0
 34 70  1  0
 36 71  1  0
 38 72  1  0
 42 73  1  0
 45 74  1  0
 45 75  1  0
M  CHG  3   5  -1  22   1  24  -1
M  END
>  <EmbedRMS>  (519) 
0.0749198838156

$$$$

     RDKit          3D

 75 78  0  0  0  0  0  0  0  0999 V2000
    9.4330   42.9357   34.3459 C   0  0  0  0  0  0  0  0  0  0  0  0
   10.4907   43.0325   35.0313 O   0  0  0  0  0  0  0  0  0  0  0  0
    8.8553   41.7097   34.0307 O   0  0  0  0  0  0  0  0  0  0  0  0
    9.4930   40.2139   34.4706 P   0  0  0  0  0  0  0  0  0  0  0  0
    9.7296   40.1726   36.1315 O   0  0  0  0  0  0  0  0  0  0  0  0
    8.7503   44.1335   33.7738 C   0  0  1  0  0  0  0  0  0  0  0  0
    9.2955   45.3793   34.3141 N   0  0  0  0  0  0  0  0  0  0  0  0
    8.8900   44.0533   32.2358 C   0  0  0  0  0  0  0  0  0  0  0  0
    8.2042   45.1846   31.4637 C   0  0  0  0  0  0  0  0  0  0  0  0
    6.6670   45.1054   31.4855 C   0  0  0  0  0  0  0  0  0  0  0  0
    6.0295   46.3245   30.8124 C   0  0  0  0  0  0  0  0  0  0  0  0
    6.5097   47.5648   31.4224 N   0  0  0  0  0  0  0  0  0  0  0  0
    7.2295   48.5514   30.6732 C   0  0  0  0  0  0  0  0  0  0  0  0
    7.5341   49.8091   31.2109 O   0  0  0  0  0  0  0  0  0  0  0  0
    7.5990   48.3002   29.4966 O   0  0  0  0  0  0  0  0  0  0  0  0
    7.1906   50.2362   32.5282 C   0  0  0  0  0  0  0  0  0  0  0  0
    8.1010   49.6003   33.5552 C   0  0  0  0  0  0  0  0  0  0  0  0
    9.4883   49.6225   33.3213 C   0  0  0  0  0  0  0  0  0  0  0  0
    7.6105   48.9842   34.7366 C   0  0  0  0  0  0  0  0  0  0  0  0
   10.3722   49.0163   34.2150 C   0  0  0  0  0  0  0  0  0  0  0  0
    8.5145   48.3655   35.6161 C   0  0  0  0  0  0  0  0  0  0  0  0
    6.2159   48.9950   35.0753 N   0  0  0  0  0  0  0  0  0  0  0  0
    9.8859   48.3860   35.3585 C   0  0  0  0  0  0  0  0  0  0  0  0
    5.6481   47.8875   35.6616 O   0  0  0  0  0  0  0  0  0  0  0  0
    5.5801   50.0692   35.0741 O   0  0  0  0  0  0  0  0  0  0  0  0
    8.5367   39.1378   34.0140 O   0  0  0  0  0  0  0  0  0  0  0  0
   10.9785   40.0881   33.6869 O   0  0  0  0  0  0  0  0  0  0  0  0
   10.7974   40.0895   32.2883 C   0  0  0  0  0  0  0  0  0  0  0  0
   11.5882   38.9234   31.7042 C   0  0  0  0  0  0  0  0  0  0  0  0
   12.9230   38.9440   32.1728 O   0  0  0  0  0  0  0  0  0  0  0  0
   11.0048   37.5703   32.0916 C   0  0  0  0  0  0  0  0  0  0  0  0
   13.3570   37.5960   32.2595 C   0  0  0  0  0  0  0  0  0  0  0  0
    9.9332   37.1986   31.2676 O   0  0  0  0  0  0  0  0  0  0  0  0
   12.1965   36.6751   31.8949 C   0  0  0  0  0  0  0  0  0  0  0  0
   13.8037   37.2979   33.6187 N   0  0  0  0  0  0  0  0  0  0  0  0
   12.2934   36.2389   30.5581 O   0  0  0  0  0  0  0  0  0  0  0  0
   14.7929   36.4726   33.9860 C   0  0  0  0  0  0  0  0  0  0  0  0
   13.2755   37.7304   34.7934 C   0  0  0  0  0  0  0  0  0  0  0  0
   15.6244   35.7585   33.1859 N   0  0  0  0  0  0  0  0  0  0  0  0
   14.8722   36.4406   35.3328 C   0  0  0  0  0  0  0  0  0  0  0  0
   13.9205   37.2262   35.8803 N   0  0  0  0  0  0  0  0  0  0  0  0
   16.5872   34.9923   33.7802 C   0  0  0  0  0  0  0  0  0  0  0  0
   15.8573   35.6715   35.9442 C   0  0  0  0  0  0  0  0  0  0  0  0
   16.7023   34.9584   35.1439 N   0  0  0  0  0  0  0  0  0  0  0  0
   16.0098   35.6384   37.3563 N   0  0  0  0  0  0  0  0  0  0  0  0
    7.6766   44.0695   34.0497 H   0  0  0  0  0  0  0  0  0  0  0  0
    9.1866   45.3745   35.3547 H   0  0  0  0  0  0  0  0  0  0  0  0
   10.3172   45.4419   34.0965 H   0  0  0  0  0  0  0  0  0  0  0  0
    8.4823   43.0862   31.8653 H   0  0  0  0  0  0  0  0  0  0  0  0
    9.9719   44.0691   31.9746 H   0  0  0  0  0  0  0  0  0  0  0  0
    8.5416   45.1421   30.4049 H   0  0  0  0  0  0  0  0  0  0  0  0
    8.5551   46.1527   31.8802 H   0  0  0  0  0  0  0  0  0  0  0  0
    6.3325   44.1816   30.9655 H   0  0  0  0  0  0  0  0  0  0  0  0
    6.3026   45.0631   32.5329 H   0  0  0  0  0  0  0  0  0  0  0  0
    6.2467   46.2924   29.7232 H   0  0  0  0  0  0  0  0  0  0  0  0
    4.9262   46.2693   30.9300 H   0  0  0  0  0  0  0  0  0  0  0  0
    6.2845   47.7253   32.4280 H   0  0  0  0  0  0  0  0  0  0  0  0
    6.1153   50.0367   32.7051 H   0  0  0  0  0  0  0  0  0  0  0  0
    7.3315   51.3359   32.5814 H   0  0  0  0  0  0  0  0  0  0  0  0
    9.8869   50.1023   32.4358 H   0  0  0  0  0  0  0  0  0  0  0  0
   11.4364   49.0329   34.0184 H   0  0  0  0  0  0  0  0  0  0  0  0
    8.1566   47.8859   36.5183 H   0  0  0  0  0  0  0  0  0  0  0  0
   10.5728   47.9133   36.0486 H   0  0  0  0  0  0  0  0  0  0  0  0
    9.7422   40.0186   31.9315 H   0  0  0  0  0  0  0  0  0  0  0  0
   11.2114   41.0390   31.8863 H   0  0  0  0  0  0  0  0  0  0  0  0
   11.5931   39.0396   30.5966 H   0  0  0  0  0  0  0  0  0  0  0  0
   10.6986   37.5585   33.1639 H   0  0  0  0  0  0  0  0  0  0  0  0
   14.2072   37.4492   31.5564 H   0  0  0  0  0  0  0  0  0  0  0  0
    9.5321   36.3881   31.6771 H   0  0  0  0  0  0  0  0  0  0  0  0
   12.1344   35.7837   32.5582 H   0  0  0  0  0  0  0  0  0  0  0  0
   12.4642   37.0179   29.9674 H   0  0  0  0  0  0  0  0  0  0  0  0
   12.4333   38.4005   34.8692 H   0  0  0  0  0  0  0  0  0  0  0  0
   17.2668   34.4144   33.1692 H   0  0  0  0  0  0  0  0  0  0  0  0
   15.3755   36.1866   37.9789 H   0  0  0  0  0  0  0  0  0  0  0  0
   16.7634   35.0600   37.7896 H   0  0  0  0  0  0  0  0  0  0  0  0
  1  2  2  0
  1  3  1  0
  3  4  1  0
  4  5  1  0
  6  1  1  0
  7  6  1  0
  6  8  1  0
  8  9  1  0
  9 10  1  0
 10 11  1  0
 11 12  1  0
 12 13  1  0
 13 14  1  0
 13 15  2  0
 14 16  1  0
 16 17  1  0
 17 18  2  0
 19 17  1  0
 18 20  1  0
 21 19  2  0
 19 22  1  0
 20 23  2  0
 23 21  1  0
 22 24  1  0
 22 25  2  0
  4 26  2  0
  4 27  1  0
 28 27  1  0
 28 29  1  0
 29 30  1  0
 29 31  1  0
 30 32  1  0
 31 33  1  0
 31 34  1  0
 34 32  1  0
 32 35  1  0
 34 36  1  0
 37 35  1  0
 38 35  1  0
 39 37  2  0
 37 40  1  0
 41 38  2  0
 42 39  1  0
 40 43  2  0
 40 41  1  0
 44 42  2  0
 44 43  1  0
 43 45  1  0
  6 46  1  6
  7 47  1  0
  7 48  1  0
  8 49  1  0
  8 50  1  0
  9 51  1  0
  9 52  1  0
 10 53  1  0
 10 54  1  0
 11 55  1  0
 11 56  1  0
 12 57  1  0
 16 58  1  0
 16 59  1  0
 18 60  1  0
 20 61  1  0
 21 62  1  0
 23 63  1  0
 28 64  1  0
 28 65  1  0
 29 66  1  0
 31 67  1  0
 32 68  1  0
 33 69  1  0
 34 70  1  0
 36 71  1  0
 38 72  1  0
 42 73  1  0
 45 74  1  0
 45 75  1  0
M  CHG  3   5  -1  22   1  24  -1
M  END
>  <EmbedRMS>  (520) 
0.0757937755888

$$$$

     RDKit          3D

 75 78  0  0  0  0  0  0  0  0999 V2000
    9.4310   42.9412   34.3437 C   0  0  0  0  0  0  0  0  0  0  0  0
   10.4884   43.0411   35.0293 O   0  0  0  0  0  0  0  0  0  0  0  0
    8.8561   41.7128   34.0287 O   0  0  0  0  0  0  0  0  0  0  0  0
    9.4945   40.2161   34.4677 P   0  0  0  0  0  0  0  0  0  0  0  0
    9.7312   40.1740   36.1288 O   0  0  0  0  0  0  0  0  0  0  0  0
    8.7481   44.1361   33.7720 C   0  0  1  0  0  0  0  0  0  0  0  0
    9.3034   45.3667   34.3386 N   0  0  0  0  0  0  0  0  0  0  0  0
    8.8891   44.0518   32.2307 C   0  0  0  0  0  0  0  0  0  0  0  0
    8.2018   45.1721   31.4431 C   0  0  0  0  0  0  0  0  0  0  0  0
    6.6645   45.1051   31.4848 C   0  0  0  0  0  0  0  0  0  0  0  0
    6.0271   46.3253   30.8128 C   0  0  0  0  0  0  0  0  0  0  0  0
    6.5118   47.5629   31.4237 N   0  0  0  0  0  0  0  0  0  0  0  0
    7.2393   48.5469   30.6794 C   0  0  0  0  0  0  0  0  0  0  0  0
    7.5910   49.7827   31.2393 O   0  0  0  0  0  0  0  0  0  0  0  0
    7.5939   48.3043   29.4964 O   0  0  0  0  0  0  0  0  0  0  0  0
    7.1962   50.2354   32.5342 C   0  0  0  0  0  0  0  0  0  0  0  0
    5.7088   50.5033   32.5882 C   0  0  0  0  0  0  0  0  0  0  0  0
    4.9502   49.8872   33.6009 C   0  0  0  0  0  0  0  0  0  0  0  0
    5.0517   51.3259   31.6338 C   0  0  0  0  0  0  0  0  0  0  0  0
    3.5662   50.0540   33.6567 C   0  0  0  0  0  0  0  0  0  0  0  0
    3.6532   51.4678   31.6999 C   0  0  0  0  0  0  0  0  0  0  0  0
    5.7744   52.0082   30.5928 N   0  0  0  0  0  0  0  0  0  0  0  0
    2.9182   50.8378   32.7047 C   0  0  0  0  0  0  0  0  0  0  0  0
    6.9864   52.6035   30.8543 O   0  0  0  0  0  0  0  0  0  0  0  0
    5.2346   52.2094   29.4852 O   0  0  0  0  0  0  0  0  0  0  0  0
    8.5374   39.1400   34.0124 O   0  0  0  0  0  0  0  0  0  0  0  0
   10.9799   40.0879   33.6828 O   0  0  0  0  0  0  0  0  0  0  0  0
   10.8002   40.0907   32.2831 C   0  0  0  0  0  0  0  0  0  0  0  0
   11.5958   38.9271   31.6964 C   0  0  0  0  0  0  0  0  0  0  0  0
   12.9239   38.9409   32.1767 O   0  0  0  0  0  0  0  0  0  0  0  0
   11.0062   37.5720   32.0794 C   0  0  0  0  0  0  0  0  0  0  0  0
   13.3506   37.5906   32.2614 C   0  0  0  0  0  0  0  0  0  0  0  0
    9.9064   37.1793   31.2946 O   0  0  0  0  0  0  0  0  0  0  0  0
   12.1920   36.6672   31.9004 C   0  0  0  0  0  0  0  0  0  0  0  0
   13.8017   37.2948   33.6193 N   0  0  0  0  0  0  0  0  0  0  0  0
   12.3133   36.2788   30.5561 O   0  0  0  0  0  0  0  0  0  0  0  0
   14.7927   36.4716   33.9862 C   0  0  0  0  0  0  0  0  0  0  0  0
   13.2746   37.7284   34.7941 C   0  0  0  0  0  0  0  0  0  0  0  0
   15.6240   35.7576   33.1859 N   0  0  0  0  0  0  0  0  0  0  0  0
   14.8728   36.4406   35.3330 C   0  0  0  0  0  0  0  0  0  0  0  0
   13.9209   37.2258   35.8808 N   0  0  0  0  0  0  0  0  0  0  0  0
   16.5874   34.9920   33.7802 C   0  0  0  0  0  0  0  0  0  0  0  0
   15.8579   35.6716   35.9443 C   0  0  0  0  0  0  0  0  0  0  0  0
   16.7028   34.9584   35.1439 N   0  0  0  0  0  0  0  0  0  0  0  0
   16.0103   35.6383   37.3563 N   0  0  0  0  0  0  0  0  0  0  0  0
    7.6760   44.0635   34.0544 H   0  0  0  0  0  0  0  0  0  0  0  0
   10.2143   45.5887   33.8741 H   0  0  0  0  0  0  0  0  0  0  0  0
    8.6458   46.1559   34.1436 H   0  0  0  0  0  0  0  0  0  0  0  0
    8.4828   43.0817   31.8665 H   0  0  0  0  0  0  0  0  0  0  0  0
    9.9707   44.0639   31.9680 H   0  0  0  0  0  0  0  0  0  0  0  0
    8.5705   46.1485   31.8186 H   0  0  0  0  0  0  0  0  0  0  0  0
    8.5223   45.0973   30.3808 H   0  0  0  0  0  0  0  0  0  0  0  0
    6.3166   44.1808   30.9747 H   0  0  0  0  0  0  0  0  0  0  0  0
    6.3124   45.0713   32.5367 H   0  0  0  0  0  0  0  0  0  0  0  0
    4.9241   46.2726   30.9348 H   0  0  0  0  0  0  0  0  0  0  0  0
    6.2408   46.2945   29.7230 H   0  0  0  0  0  0  0  0  0  0  0  0
    6.3152   47.7071   32.4374 H   0  0  0  0  0  0  0  0  0  0  0  0
    7.5181   49.4975   33.3009 H   0  0  0  0  0  0  0  0  0  0  0  0
    7.7386   51.1742   32.7668 H   0  0  0  0  0  0  0  0  0  0  0  0
    5.4291   49.2631   34.3453 H   0  0  0  0  0  0  0  0  0  0  0  0
    2.9941   49.5690   34.4372 H   0  0  0  0  0  0  0  0  0  0  0  0
    3.1310   52.0842   30.9790 H   0  0  0  0  0  0  0  0  0  0  0  0
    1.8439   50.9624   32.7480 H   0  0  0  0  0  0  0  0  0  0  0  0
    9.7454   40.0168   31.9263 H   0  0  0  0  0  0  0  0  0  0  0  0
   11.2114   41.0421   31.8829 H   0  0  0  0  0  0  0  0  0  0  0  0
   11.6246   39.0449   30.5889 H   0  0  0  0  0  0  0  0  0  0  0  0
   10.7050   37.5581   33.1500 H   0  0  0  0  0  0  0  0  0  0  0  0
   14.1984   37.4426   31.5553 H   0  0  0  0  0  0  0  0  0  0  0  0
   10.0893   37.4058   30.3459 H   0  0  0  0  0  0  0  0  0  0  0  0
   12.1337   35.7754   32.5703 H   0  0  0  0  0  0  0  0  0  0  0  0
   11.7934   35.4394   30.4514 H   0  0  0  0  0  0  0  0  0  0  0  0
   12.4314   38.3973   34.8700 H   0  0  0  0  0  0  0  0  0  0  0  0
   17.2669   34.4141   33.1691 H   0  0  0  0  0  0  0  0  0  0  0  0
   15.3759   36.1865   37.9790 H   0  0  0  0  0  0  0  0  0  0  0  0
   16.7638   35.0599   37.7897 H   0  0  0  0  0  0  0  0  0  0  0  0
  1  2  2  0
  1  3  1  0
  3  4  1  0
  4  5  1  0
  6  1  1  0
  7  6  1  0
  6  8  1  0
  8  9  1  0
  9 10  1  0
 10 11  1  0
 11 12  1  0
 12 13  1  0
 13 14  1  0
 13 15  2  0
 14 16  1  0
 16 17  1  0
 17 18  2  0
 19 17  1  0
 18 20  1  0
 21 19  2  0
 19 22  1  0
 20 23  2  0
 23 21  1  0
 22 24  1  0
 22 25  2  0
  4 26  2  0
  4 27  1  0
 28 27  1  0
 28 29  1  0
 29 30  1  0
 29 31  1  0
 30 32  1  0
 31 33  1  0
 31 34  1  0
 34 32  1  0
 32 35  1  0
 34 36  1  0
 37 35  1  0
 38 35  1  0
 39 37  2  0
 37 40  1  0
 41 38  2  0
 42 39  1  0
 40 43  2  0
 40 41  1  0
 44 42  2  0
 44 43  1  0
 43 45  1  0
  6 46  1  6
  7 47  1  0
  7 48  1  0
  8 49  1  0
  8 50  1  0
  9 51  1  0
  9 52  1  0
 10 53  1  0
 10 54  1  0
 11 55  1  0
 11 56  1  0
 12 57  1  0
 16 58  1  0
 16 59  1  0
 18 60  1  0
 20 61  1  0
 21 62  1  0
 23 63  1  0
 28 64  1  0
 28 65  1  0
 29 66  1  0
 31 67  1  0
 32 68  1  0
 33 69  1  0
 34 70  1  0
 36 71  1  0
 38 72  1  0
 42 73  1  0
 45 74  1  0
 45 75  1  0
M  CHG  3   5  -1  22   1  24  -1
M  END
>  <EmbedRMS>  (521) 
0.0737226874836

$$$$

     RDKit          3D

 75 78  0  0  0  0  0  0  0  0999 V2000
    9.4311   42.9417   34.3440 C   0  0  0  0  0  0  0  0  0  0  0  0
   10.4885   43.0415   35.0294 O   0  0  0  0  0  0  0  0  0  0  0  0
    8.8558   41.7133   34.0297 O   0  0  0  0  0  0  0  0  0  0  0  0
    9.4932   40.2167   34.4707 P   0  0  0  0  0  0  0  0  0  0  0  0
    9.7290   40.1747   36.1316 O   0  0  0  0  0  0  0  0  0  0  0  0
    8.7483   44.1368   33.7722 C   0  0  1  0  0  0  0  0  0  0  0  0
    9.3039   45.3675   34.3387 N   0  0  0  0  0  0  0  0  0  0  0  0
    8.8890   44.0528   32.2310 C   0  0  0  0  0  0  0  0  0  0  0  0
    8.2012   45.1736   31.4443 C   0  0  0  0  0  0  0  0  0  0  0  0
    6.6639   45.1066   31.4864 C   0  0  0  0  0  0  0  0  0  0  0  0
    6.0270   46.3230   30.8073 C   0  0  0  0  0  0  0  0  0  0  0  0
    6.5010   47.5639   31.4198 N   0  0  0  0  0  0  0  0  0  0  0  0
    7.2629   48.5331   30.6897 C   0  0  0  0  0  0  0  0  0  0  0  0
    7.7085   49.7161   31.2907 O   0  0  0  0  0  0  0  0  0  0  0  0
    7.5817   48.3121   29.4923 O   0  0  0  0  0  0  0  0  0  0  0  0
    7.4719   50.0535   32.6537 C   0  0  0  0  0  0  0  0  0  0  0  0
    8.1808   51.3421   32.9800 C   0  0  0  0  0  0  0  0  0  0  0  0
    7.4353   52.5351   32.9872 C   0  0  0  0  0  0  0  0  0  0  0  0
    9.5650   51.3850   33.3038 C   0  0  0  0  0  0  0  0  0  0  0  0
    8.0357   53.7481   33.3262 C   0  0  0  0  0  0  0  0  0  0  0  0
   10.1449   52.6167   33.6578 C   0  0  0  0  0  0  0  0  0  0  0  0
   10.3906   50.2047   33.3013 N   0  0  0  0  0  0  0  0  0  0  0  0
    9.3864   53.7880   33.6654 C   0  0  0  0  0  0  0  0  0  0  0  0
   11.4830   50.1296   34.1348 O   0  0  0  0  0  0  0  0  0  0  0  0
   10.2314   49.3133   32.4427 O   0  0  0  0  0  0  0  0  0  0  0  0
    8.5368   39.1406   34.0143 O   0  0  0  0  0  0  0  0  0  0  0  0
   10.9795   40.0884   33.6888 O   0  0  0  0  0  0  0  0  0  0  0  0
   10.8017   40.0950   32.2900 C   0  0  0  0  0  0  0  0  0  0  0  0
   11.5885   38.9267   31.7042 C   0  0  0  0  0  0  0  0  0  0  0  0
   12.9237   38.9446   32.1722 O   0  0  0  0  0  0  0  0  0  0  0  0
   11.0029   37.5727   32.0908 C   0  0  0  0  0  0  0  0  0  0  0  0
   13.3555   37.5960   32.2595 C   0  0  0  0  0  0  0  0  0  0  0  0
    9.9379   37.1847   31.2657 O   0  0  0  0  0  0  0  0  0  0  0  0
   12.1931   36.6770   31.8952 C   0  0  0  0  0  0  0  0  0  0  0  0
   13.8028   37.2977   33.6186 N   0  0  0  0  0  0  0  0  0  0  0  0
   12.2918   36.2396   30.5587 O   0  0  0  0  0  0  0  0  0  0  0  0
   14.7926   36.4727   33.9858 C   0  0  0  0  0  0  0  0  0  0  0  0
   13.2750   37.7302   34.7935 C   0  0  0  0  0  0  0  0  0  0  0  0
   15.6241   35.7586   33.1857 N   0  0  0  0  0  0  0  0  0  0  0  0
   14.8721   36.4408   35.3326 C   0  0  0  0  0  0  0  0  0  0  0  0
   13.9204   37.2263   35.8802 N   0  0  0  0  0  0  0  0  0  0  0  0
   16.5870   34.9925   33.7800 C   0  0  0  0  0  0  0  0  0  0  0  0
   15.8572   35.6717   35.9441 C   0  0  0  0  0  0  0  0  0  0  0  0
   16.7022   34.9586   35.1437 N   0  0  0  0  0  0  0  0  0  0  0  0
   16.0097   35.6384   37.3561 N   0  0  0  0  0  0  0  0  0  0  0  0
    7.6762   44.0647   34.0547 H   0  0  0  0  0  0  0  0  0  0  0  0
    8.6467   46.1571   34.1439 H   0  0  0  0  0  0  0  0  0  0  0  0
   10.2148   45.5896   33.8740 H   0  0  0  0  0  0  0  0  0  0  0  0
    8.4827   43.0828   31.8667 H   0  0  0  0  0  0  0  0  0  0  0  0
    9.9705   44.0653   31.9681 H   0  0  0  0  0  0  0  0  0  0  0  0
    8.5216   45.0992   30.3819 H   0  0  0  0  0  0  0  0  0  0  0  0
    8.5692   46.1503   31.8202 H   0  0  0  0  0  0  0  0  0  0  0  0
    6.3117   45.0783   32.5385 H   0  0  0  0  0  0  0  0  0  0  0  0
    6.3164   44.1795   30.9809 H   0  0  0  0  0  0  0  0  0  0  0  0
    6.2520   46.2903   29.7197 H   0  0  0  0  0  0  0  0  0  0  0  0
    4.9230   46.2658   30.9173 H   0  0  0  0  0  0  0  0  0  0  0  0
    6.2568   47.7302   32.4207 H   0  0  0  0  0  0  0  0  0  0  0  0
    7.8313   49.2455   33.3269 H   0  0  0  0  0  0  0  0  0  0  0  0
    6.3767   50.1586   32.8166 H   0  0  0  0  0  0  0  0  0  0  0  0
    6.3819   52.5269   32.7350 H   0  0  0  0  0  0  0  0  0  0  0  0
    7.4505   54.6587   33.3304 H   0  0  0  0  0  0  0  0  0  0  0  0
   11.1953   52.6742   33.9134 H   0  0  0  0  0  0  0  0  0  0  0  0
    9.8487   54.7298   33.9315 H   0  0  0  0  0  0  0  0  0  0  0  0
    9.7472   40.0379   31.9304 H   0  0  0  0  0  0  0  0  0  0  0  0
   11.2240   41.0429   31.8929 H   0  0  0  0  0  0  0  0  0  0  0  0
   11.5927   39.0434   30.5966 H   0  0  0  0  0  0  0  0  0  0  0  0
   10.7003   37.5444   33.1641 H   0  0  0  0  0  0  0  0  0  0  0  0
   14.2051   37.4477   31.5560 H   0  0  0  0  0  0  0  0  0  0  0  0
    9.1373   37.6722   31.5906 H   0  0  0  0  0  0  0  0  0  0  0  0
   12.1305   35.7856   32.5586 H   0  0  0  0  0  0  0  0  0  0  0  0
   12.4606   37.0186   29.9674 H   0  0  0  0  0  0  0  0  0  0  0  0
   12.4327   38.4001   34.8694 H   0  0  0  0  0  0  0  0  0  0  0  0
   17.2666   34.4146   33.1690 H   0  0  0  0  0  0  0  0  0  0  0  0
   16.7634   35.0601   37.7894 H   0  0  0  0  0  0  0  0  0  0  0  0
   15.3754   36.1866   37.9788 H   0  0  0  0  0  0  0  0  0  0  0  0
  1  2  2  0
  1  3  1  0
  3  4  1  0
  4  5  1  0
  6  1  1  0
  7  6  1  0
  6  8  1  0
  8  9  1  0
  9 10  1  0
 10 11  1  0
 11 12  1  0
 12 13  1  0
 13 14  1  0
 13 15  2  0
 14 16  1  0
 16 17  1  0
 17 18  2  0
 19 17  1  0
 18 20  1  0
 21 19  2  0
 19 22  1  0
 20 23  2  0
 23 21  1  0
 22 24  1  0
 22 25  2  0
  4 26  2  0
  4 27  1  0
 28 27  1  0
 28 29  1  0
 29 30  1  0
 29 31  1  0
 30 32  1  0
 31 33  1  0
 31 34  1  0
 34 32  1  0
 32 35  1  0
 34 36  1  0
 37 35  1  0
 38 35  1  0
 39 37  2  0
 37 40  1  0
 41 38  2  0
 42 39  1  0
 40 43  2  0
 40 41  1  0
 44 42  2  0
 44 43  1  0
 43 45  1  0
  6 46  1  6
  7 47  1  0
  7 48  1  0
  8 49  1  0
  8 50  1  0
  9 51  1  0
  9 52  1  0
 10 53  1  0
 10 54  1  0
 11 55  1  0
 11 56  1  0
 12 57  1  0
 16 58  1  0
 16 59  1  0
 18 60  1  0
 20 61  1  0
 21 62  1  0
 23 63  1  0
 28 64  1  0
 28 65  1  0
 29 66  1  0
 31 67  1  0
 32 68  1  0
 33 69  1  0
 34 70  1  0
 36 71  1  0
 38 72  1  0
 42 73  1  0
 45 74  1  0
 45 75  1  0
M  CHG  3   5  -1  22   1  24  -1
M  END
>  <EmbedRMS>  (522) 
0.0753790866876

$$$$

     RDKit          3D

 75 78  0  0  0  0  0  0  0  0999 V2000
    9.4310   42.9413   34.3439 C   0  0  0  0  0  0  0  0  0  0  0  0
   10.4884   43.0412   35.0294 O   0  0  0  0  0  0  0  0  0  0  0  0
    8.8561   41.7129   34.0287 O   0  0  0  0  0  0  0  0  0  0  0  0
    9.4944   40.2162   34.4677 P   0  0  0  0  0  0  0  0  0  0  0  0
    9.7313   40.1740   36.1288 O   0  0  0  0  0  0  0  0  0  0  0  0
    8.7480   44.1363   33.7724 C   0  0  1  0  0  0  0  0  0  0  0  0
    9.3032   45.3670   34.3391 N   0  0  0  0  0  0  0  0  0  0  0  0
    8.8890   44.0521   32.2312 C   0  0  0  0  0  0  0  0  0  0  0  0
    8.2015   45.1726   31.4443 C   0  0  0  0  0  0  0  0  0  0  0  0
    6.6642   45.1063   31.4869 C   0  0  0  0  0  0  0  0  0  0  0  0
    6.0289   46.3233   30.8081 C   0  0  0  0  0  0  0  0  0  0  0  0
    6.5054   47.5631   31.4209 N   0  0  0  0  0  0  0  0  0  0  0  0
    7.2571   48.5375   30.6868 C   0  0  0  0  0  0  0  0  0  0  0  0
    7.6635   49.7454   31.2727 O   0  0  0  0  0  0  0  0  0  0  0  0
    7.5816   48.3124   29.4917 O   0  0  0  0  0  0  0  0  0  0  0  0
    7.5382   50.0541   32.6619 C   0  0  0  0  0  0  0  0  0  0  0  0
    6.1470   50.5224   33.0533 C   0  0  0  0  0  0  0  0  0  0  0  0
    5.1204   50.6199   32.0888 C   0  0  0  0  0  0  0  0  0  0  0  0
    5.8741   50.9406   34.3848 C   0  0  0  0  0  0  0  0  0  0  0  0
    3.8556   51.0965   32.4351 C   0  0  0  0  0  0  0  0  0  0  0  0
    4.5963   51.4325   34.7066 C   0  0  0  0  0  0  0  0  0  0  0  0
    6.8813   50.9065   35.4117 N   0  0  0  0  0  0  0  0  0  0  0  0
    3.5938   51.5017   33.7406 C   0  0  0  0  0  0  0  0  0  0  0  0
    7.6679   49.7921   35.5851 O   0  0  0  0  0  0  0  0  0  0  0  0
    6.9201   51.8071   36.2755 O   0  0  0  0  0  0  0  0  0  0  0  0
    8.5372   39.1401   34.0125 O   0  0  0  0  0  0  0  0  0  0  0  0
   10.9796   40.0878   33.6826 O   0  0  0  0  0  0  0  0  0  0  0  0
   10.7996   40.0901   32.2829 C   0  0  0  0  0  0  0  0  0  0  0  0
   11.5968   38.9274   31.6963 C   0  0  0  0  0  0  0  0  0  0  0  0
   12.9242   38.9426   32.1785 O   0  0  0  0  0  0  0  0  0  0  0  0
   11.0085   37.5714   32.0780 C   0  0  0  0  0  0  0  0  0  0  0  0
   13.3528   37.5929   32.2623 C   0  0  0  0  0  0  0  0  0  0  0  0
    9.9098   37.1771   31.2926 O   0  0  0  0  0  0  0  0  0  0  0  0
   12.1942   36.6683   31.8995 C   0  0  0  0  0  0  0  0  0  0  0  0
   13.8019   37.2950   33.6199 N   0  0  0  0  0  0  0  0  0  0  0  0
   12.3026   36.2773   30.5559 O   0  0  0  0  0  0  0  0  0  0  0  0
   14.7926   36.4715   33.9865 C   0  0  0  0  0  0  0  0  0  0  0  0
   13.2749   37.7286   34.7946 C   0  0  0  0  0  0  0  0  0  0  0  0
   15.6239   35.7577   33.1860 N   0  0  0  0  0  0  0  0  0  0  0  0
   14.8727   36.4403   35.3332 C   0  0  0  0  0  0  0  0  0  0  0  0
   13.9210   37.2257   35.8812 N   0  0  0  0  0  0  0  0  0  0  0  0
   16.5873   34.9921   33.7802 C   0  0  0  0  0  0  0  0  0  0  0  0
   15.8579   35.6714   35.9444 C   0  0  0  0  0  0  0  0  0  0  0  0
   16.7028   34.9583   35.1439 N   0  0  0  0  0  0  0  0  0  0  0  0
   16.0104   35.6381   37.3564 N   0  0  0  0  0  0  0  0  0  0  0  0
    7.6759   44.0637   34.0547 H   0  0  0  0  0  0  0  0  0  0  0  0
   10.2139   45.5894   33.8743 H   0  0  0  0  0  0  0  0  0  0  0  0
    8.6455   46.1562   34.1447 H   0  0  0  0  0  0  0  0  0  0  0  0
    8.4827   43.0822   31.8668 H   0  0  0  0  0  0  0  0  0  0  0  0
    9.9706   44.0645   31.9684 H   0  0  0  0  0  0  0  0  0  0  0  0
    8.5216   45.0977   30.3819 H   0  0  0  0  0  0  0  0  0  0  0  0
    8.5700   46.1492   31.8198 H   0  0  0  0  0  0  0  0  0  0  0  0
    6.3121   45.0785   32.5390 H   0  0  0  0  0  0  0  0  0  0  0  0
    6.3159   44.1797   30.9812 H   0  0  0  0  0  0  0  0  0  0  0  0
    6.2537   46.2904   29.7205 H   0  0  0  0  0  0  0  0  0  0  0  0
    4.9248   46.2682   30.9184 H   0  0  0  0  0  0  0  0  0  0  0  0
    6.2479   47.7352   32.4173 H   0  0  0  0  0  0  0  0  0  0  0  0
    8.2543   50.8705   32.8933 H   0  0  0  0  0  0  0  0  0  0  0  0
    7.8405   49.1670   33.2548 H   0  0  0  0  0  0  0  0  0  0  0  0
    5.2870   50.3435   31.0575 H   0  0  0  0  0  0  0  0  0  0  0  0
    3.0784   51.1615   31.6844 H   0  0  0  0  0  0  0  0  0  0  0  0
    4.3733   51.7546   35.7160 H   0  0  0  0  0  0  0  0  0  0  0  0
    2.6130   51.8761   34.0042 H   0  0  0  0  0  0  0  0  0  0  0  0
   11.2094   41.0420   31.8824 H   0  0  0  0  0  0  0  0  0  0  0  0
    9.7449   40.0145   31.9264 H   0  0  0  0  0  0  0  0  0  0  0  0
   11.6265   39.0456   30.5889 H   0  0  0  0  0  0  0  0  0  0  0  0
   10.7064   37.5575   33.1485 H   0  0  0  0  0  0  0  0  0  0  0  0
   14.2020   37.4484   31.5574 H   0  0  0  0  0  0  0  0  0  0  0  0
   10.0952   37.3991   30.3433 H   0  0  0  0  0  0  0  0  0  0  0  0
   12.1162   35.7745   32.5634 H   0  0  0  0  0  0  0  0  0  0  0  0
   12.9614   35.5349   30.5312 H   0  0  0  0  0  0  0  0  0  0  0  0
   12.4321   38.3982   34.8705 H   0  0  0  0  0  0  0  0  0  0  0  0
   17.2669   34.4143   33.1690 H   0  0  0  0  0  0  0  0  0  0  0  0
   16.7641   35.0598   37.7896 H   0  0  0  0  0  0  0  0  0  0  0  0
   15.3761   36.1862   37.9792 H   0  0  0  0  0  0  0  0  0  0  0  0
  1  2  2  0
  1  3  1  0
  3  4  1  0
  4  5  1  0
  6  1  1  0
  7  6  1  0
  6  8  1  0
  8  9  1  0
  9 10  1  0
 10 11  1  0
 11 12  1  0
 12 13  1  0
 13 14  1  0
 13 15  2  0
 14 16  1  0
 16 17  1  0
 17 18  2  0
 19 17  1  0
 18 20  1  0
 21 19  2  0
 19 22  1  0
 20 23  2  0
 23 21  1  0
 22 24  1  0
 22 25  2  0
  4 26  2  0
  4 27  1  0
 28 27  1  0
 28 29  1  0
 29 30  1  0
 29 31  1  0
 30 32  1  0
 31 33  1  0
 31 34  1  0
 34 32  1  0
 32 35  1  0
 34 36  1  0
 37 35  1  0
 38 35  1  0
 39 37  2  0
 37 40  1  0
 41 38  2  0
 42 39  1  0
 40 43  2  0
 40 41  1  0
 44 42  2  0
 44 43  1  0
 43 45  1  0
  6 46  1  6
  7 47  1  0
  7 48  1  0
  8 49  1  0
  8 50  1  0
  9 51  1  0
  9 52  1  0
 10 53  1  0
 10 54  1  0
 11 55  1  0
 11 56  1  0
 12 57  1  0
 16 58  1  0
 16 59  1  0
 18 60  1  0
 20 61  1  0
 21 62  1  0
 23 63  1  0
 28 64  1  0
 28 65  1  0
 29 66  1  0
 31 67  1  0
 32 68  1  0
 33 69  1  0
 34 70  1  0
 36 71  1  0
 38 72  1  0
 42 73  1  0
 45 74  1  0
 45 75  1  0
M  CHG  3   5  -1  22   1  24  -1
M  END
>  <EmbedRMS>  (523) 
0.0740449580752

$$$$

     RDKit          3D

 75 78  0  0  0  0  0  0  0  0999 V2000
    9.4333   42.9364   34.3461 C   0  0  0  0  0  0  0  0  0  0  0  0
   10.4907   43.0329   35.0319 O   0  0  0  0  0  0  0  0  0  0  0  0
    8.8563   41.7103   34.0295 O   0  0  0  0  0  0  0  0  0  0  0  0
    9.4943   40.2139   34.4679 P   0  0  0  0  0  0  0  0  0  0  0  0
    9.7310   40.1724   36.1290 O   0  0  0  0  0  0  0  0  0  0  0  0
    8.7506   44.1348   33.7741 C   0  0  1  0  0  0  0  0  0  0  0  0
    9.2963   45.3820   34.3133 N   0  0  0  0  0  0  0  0  0  0  0  0
    8.8893   44.0528   32.2358 C   0  0  0  0  0  0  0  0  0  0  0  0
    8.2028   45.1824   31.4615 C   0  0  0  0  0  0  0  0  0  0  0  0
    6.6653   45.1046   31.4855 C   0  0  0  0  0  0  0  0  0  0  0  0
    6.0269   46.3225   30.8104 C   0  0  0  0  0  0  0  0  0  0  0  0
    6.5061   47.5640   31.4179 N   0  0  0  0  0  0  0  0  0  0  0  0
    7.2438   48.5391   30.6837 C   0  0  0  0  0  0  0  0  0  0  0  0
    7.5950   49.7393   31.3072 O   0  0  0  0  0  0  0  0  0  0  0  0
    7.5934   48.3118   29.4937 O   0  0  0  0  0  0  0  0  0  0  0  0
    8.3479   50.7567   30.6523 C   0  0  0  0  0  0  0  0  0  0  0  0
    8.5215   51.9351   31.5798 C   0  0  0  0  0  0  0  0  0  0  0  0
    7.3741   52.4731   32.1911 C   0  0  0  0  0  0  0  0  0  0  0  0
    9.7913   52.4953   31.8817 C   0  0  0  0  0  0  0  0  0  0  0  0
    7.4801   53.5108   33.1184 C   0  0  0  0  0  0  0  0  0  0  0  0
    9.8796   53.5252   32.8338 C   0  0  0  0  0  0  0  0  0  0  0  0
   10.9897   52.0608   31.2214 N   0  0  0  0  0  0  0  0  0  0  0  0
    8.7315   54.0286   33.4472 C   0  0  0  0  0  0  0  0  0  0  0  0
   12.1689   51.9877   31.9263 O   0  0  0  0  0  0  0  0  0  0  0  0
   11.0284   51.9982   29.9753 O   0  0  0  0  0  0  0  0  0  0  0  0
    8.5372   39.1382   34.0121 O   0  0  0  0  0  0  0  0  0  0  0  0
   10.9798   40.0870   33.6829 O   0  0  0  0  0  0  0  0  0  0  0  0
   10.8002   40.0905   32.2833 C   0  0  0  0  0  0  0  0  0  0  0  0
   11.5958   38.9271   31.6963 C   0  0  0  0  0  0  0  0  0  0  0  0
   12.9239   38.9408   32.1766 O   0  0  0  0  0  0  0  0  0  0  0  0
   11.0062   37.5719   32.0793 C   0  0  0  0  0  0  0  0  0  0  0  0
   13.3507   37.5905   32.2614 C   0  0  0  0  0  0  0  0  0  0  0  0
    9.9064   37.1792   31.2946 O   0  0  0  0  0  0  0  0  0  0  0  0
   12.1920   36.6671   31.9003 C   0  0  0  0  0  0  0  0  0  0  0  0
   13.8017   37.2947   33.6193 N   0  0  0  0  0  0  0  0  0  0  0  0
   12.3133   36.2787   30.5560 O   0  0  0  0  0  0  0  0  0  0  0  0
   14.7927   36.4716   33.9861 C   0  0  0  0  0  0  0  0  0  0  0  0
   13.2746   37.7284   34.7941 C   0  0  0  0  0  0  0  0  0  0  0  0
   15.6240   35.7576   33.1859 N   0  0  0  0  0  0  0  0  0  0  0  0
   14.8728   36.4406   35.3330 C   0  0  0  0  0  0  0  0  0  0  0  0
   13.9209   37.2258   35.8807 N   0  0  0  0  0  0  0  0  0  0  0  0
   16.5874   34.9920   33.7802 C   0  0  0  0  0  0  0  0  0  0  0  0
   15.8579   35.6716   35.9443 C   0  0  0  0  0  0  0  0  0  0  0  0
   16.7028   34.9584   35.1439 N   0  0  0  0  0  0  0  0  0  0  0  0
   16.0103   35.6383   37.3563 N   0  0  0  0  0  0  0  0  0  0  0  0
    7.6771   44.0706   34.0504 H   0  0  0  0  0  0  0  0  0  0  0  0
    9.1828   45.3820   35.3535 H   0  0  0  0  0  0  0  0  0  0  0  0
   10.3192   45.4407   34.1000 H   0  0  0  0  0  0  0  0  0  0  0  0
    8.4817   43.0851   31.8668 H   0  0  0  0  0  0  0  0  0  0  0  0
    9.9711   44.0683   31.9739 H   0  0  0  0  0  0  0  0  0  0  0  0
    8.5551   46.1511   31.8743 H   0  0  0  0  0  0  0  0  0  0  0  0
    8.5385   45.1364   30.4023 H   0  0  0  0  0  0  0  0  0  0  0  0
    6.3297   44.1799   30.9678 H   0  0  0  0  0  0  0  0  0  0  0  0
    6.3020   45.0643   32.5333 H   0  0  0  0  0  0  0  0  0  0  0  0
    6.2465   46.2897   29.7216 H   0  0  0  0  0  0  0  0  0  0  0  0
    4.9235   46.2671   30.9263 H   0  0  0  0  0  0  0  0  0  0  0  0
    6.2818   47.7530   32.4208 H   0  0  0  0  0  0  0  0  0  0  0  0
    9.3182   50.3221   30.3406 H   0  0  0  0  0  0  0  0  0  0  0  0
    7.8030   51.0942   29.7442 H   0  0  0  0  0  0  0  0  0  0  0  0
    6.3936   52.0735   31.9619 H   0  0  0  0  0  0  0  0  0  0  0  0
    6.5902   53.9086   33.5890 H   0  0  0  0  0  0  0  0  0  0  0  0
   10.8403   53.9590   33.0811 H   0  0  0  0  0  0  0  0  0  0  0  0
    8.8118   54.8302   34.1701 H   0  0  0  0  0  0  0  0  0  0  0  0
   11.2116   41.0420   31.8835 H   0  0  0  0  0  0  0  0  0  0  0  0
    9.7455   40.0167   31.9263 H   0  0  0  0  0  0  0  0  0  0  0  0
   11.6245   39.0449   30.5888 H   0  0  0  0  0  0  0  0  0  0  0  0
   10.7050   37.5579   33.1499 H   0  0  0  0  0  0  0  0  0  0  0  0
   14.1985   37.4426   31.5553 H   0  0  0  0  0  0  0  0  0  0  0  0
   10.0893   37.4056   30.3459 H   0  0  0  0  0  0  0  0  0  0  0  0
   12.1337   35.7754   32.5703 H   0  0  0  0  0  0  0  0  0  0  0  0
   11.7934   35.4394   30.4513 H   0  0  0  0  0  0  0  0  0  0  0  0
   12.4314   38.3972   34.8700 H   0  0  0  0  0  0  0  0  0  0  0  0
   17.2669   34.4142   33.1692 H   0  0  0  0  0  0  0  0  0  0  0  0
   16.7638   35.0599   37.7897 H   0  0  0  0  0  0  0  0  0  0  0  0
   15.3759   36.1865   37.9790 H   0  0  0  0  0  0  0  0  0  0  0  0
  1  2  2  0
  1  3  1  0
  3  4  1  0
  4  5  1  0
  6  1  1  0
  7  6  1  0
  6  8  1  0
  8  9  1  0
  9 10  1  0
 10 11  1  0
 11 12  1  0
 12 13  1  0
 13 14  1  0
 13 15  2  0
 14 16  1  0
 16 17  1  0
 17 18  2  0
 19 17  1  0
 18 20  1  0
 21 19  2  0
 19 22  1  0
 20 23  2  0
 23 21  1  0
 22 24  1  0
 22 25  2  0
  4 26  2  0
  4 27  1  0
 28 27  1  0
 28 29  1  0
 29 30  1  0
 29 31  1  0
 30 32  1  0
 31 33  1  0
 31 34  1  0
 34 32  1  0
 32 35  1  0
 34 36  1  0
 37 35  1  0
 38 35  1  0
 39 37  2  0
 37 40  1  0
 41 38  2  0
 42 39  1  0
 40 43  2  0
 40 41  1  0
 44 42  2  0
 44 43  1  0
 43 45  1  0
  6 46  1  6
  7 47  1  0
  7 48  1  0
  8 49  1  0
  8 50  1  0
  9 51  1  0
  9 52  1  0
 10 53  1  0
 10 54  1  0
 11 55  1  0
 11 56  1  0
 12 57  1  0
 16 58  1  0
 16 59  1  0
 18 60  1  0
 20 61  1  0
 21 62  1  0
 23 63  1  0
 28 64  1  0
 28 65  1  0
 29 66  1  0
 31 67  1  0
 32 68  1  0
 33 69  1  0
 34 70  1  0
 36 71  1  0
 38 72  1  0
 42 73  1  0
 45 74  1  0
 45 75  1  0
M  CHG  3   5  -1  22   1  24  -1
M  END
>  <EmbedRMS>  (524) 
0.0747999444748

$$$$

     RDKit          3D

 75 78  0  0  0  0  0  0  0  0999 V2000
    9.4303   42.9396   34.3428 C   0  0  0  0  0  0  0  0  0  0  0  0
   10.4914   43.0382   35.0230 O   0  0  0  0  0  0  0  0  0  0  0  0
    8.8551   41.7117   34.0279 O   0  0  0  0  0  0  0  0  0  0  0  0
    9.4942   40.2157   34.4674 P   0  0  0  0  0  0  0  0  0  0  0  0
    9.7308   40.1742   36.1286 O   0  0  0  0  0  0  0  0  0  0  0  0
    8.7413   44.1379   33.7782 C   0  0  1  0  0  0  0  0  0  0  0  0
    9.3002   45.3720   34.3329 N   0  0  0  0  0  0  0  0  0  0  0  0
    8.8970   44.0614   32.2395 C   0  0  0  0  0  0  0  0  0  0  0  0
    8.2029   45.1719   31.4411 C   0  0  0  0  0  0  0  0  0  0  0  0
    6.6653   45.1076   31.4910 C   0  0  0  0  0  0  0  0  0  0  0  0
    6.0250   46.3220   30.8108 C   0  0  0  0  0  0  0  0  0  0  0  0
    6.5006   47.5656   31.4167 N   0  0  0  0  0  0  0  0  0  0  0  0
    7.2577   48.5301   30.6888 C   0  0  0  0  0  0  0  0  0  0  0  0
    7.6717   49.6993   31.3350 O   0  0  0  0  0  0  0  0  0  0  0  0
    7.5882   48.3107   29.4920 O   0  0  0  0  0  0  0  0  0  0  0  0
    8.5810   50.6317   30.7532 C   0  0  0  0  0  0  0  0  0  0  0  0
    9.9558   50.0178   30.6111 C   0  0  0  0  0  0  0  0  0  0  0  0
   10.5483   49.9856   29.3351 C   0  0  0  0  0  0  0  0  0  0  0  0
   10.6366   49.4208   31.7072 C   0  0  0  0  0  0  0  0  0  0  0  0
   11.7822   49.3653   29.1372 C   0  0  0  0  0  0  0  0  0  0  0  0
   11.8724   48.7866   31.4807 C   0  0  0  0  0  0  0  0  0  0  0  0
   10.0892   49.4279   33.0390 N   0  0  0  0  0  0  0  0  0  0  0  0
   12.4406   48.7629   30.2067 C   0  0  0  0  0  0  0  0  0  0  0  0
    9.4346   50.5355   33.5248 O   0  0  0  0  0  0  0  0  0  0  0  0
   10.3454   48.4925   33.8251 O   0  0  0  0  0  0  0  0  0  0  0  0
    8.5374   39.1394   34.0126 O   0  0  0  0  0  0  0  0  0  0  0  0
   10.9801   40.0886   33.6832 O   0  0  0  0  0  0  0  0  0  0  0  0
   10.8020   40.0896   32.2834 C   0  0  0  0  0  0  0  0  0  0  0  0
   11.5900   38.9179   31.7006 C   0  0  0  0  0  0  0  0  0  0  0  0
   12.9224   38.9391   32.1711 O   0  0  0  0  0  0  0  0  0  0  0  0
   11.0052   37.5677   32.0966 C   0  0  0  0  0  0  0  0  0  0  0  0
   13.3518   37.5910   32.2610 C   0  0  0  0  0  0  0  0  0  0  0  0
    9.9381   37.1795   31.2733 O   0  0  0  0  0  0  0  0  0  0  0  0
   12.1912   36.6690   31.9043 C   0  0  0  0  0  0  0  0  0  0  0  0
   13.8027   37.2968   33.6192 N   0  0  0  0  0  0  0  0  0  0  0  0
   12.2877   36.2853   30.5568 O   0  0  0  0  0  0  0  0  0  0  0  0
   14.7928   36.4724   33.9861 C   0  0  0  0  0  0  0  0  0  0  0  0
   13.2751   37.7297   34.7941 C   0  0  0  0  0  0  0  0  0  0  0  0
   15.6239   35.7581   33.1859 N   0  0  0  0  0  0  0  0  0  0  0  0
   14.8726   36.4408   35.3329 C   0  0  0  0  0  0  0  0  0  0  0  0
   13.9209   37.2262   35.8807 N   0  0  0  0  0  0  0  0  0  0  0  0
   16.5870   34.9922   33.7801 C   0  0  0  0  0  0  0  0  0  0  0  0
   15.8576   35.6716   35.9442 C   0  0  0  0  0  0  0  0  0  0  0  0
   16.7024   34.9584   35.1438 N   0  0  0  0  0  0  0  0  0  0  0  0
   16.0101   35.6383   37.3563 N   0  0  0  0  0  0  0  0  0  0  0  0
    7.6668   44.0644   34.0537 H   0  0  0  0  0  0  0  0  0  0  0  0
    8.6749   46.1648   34.0632 H   0  0  0  0  0  0  0  0  0  0  0  0
    9.2361   45.3257   35.3764 H   0  0  0  0  0  0  0  0  0  0  0  0
    8.5101   43.0862   31.8677 H   0  0  0  0  0  0  0  0  0  0  0  0
    9.9818   44.0944   31.9917 H   0  0  0  0  0  0  0  0  0  0  0  0
    8.5758   46.1546   31.7952 H   0  0  0  0  0  0  0  0  0  0  0  0
    8.5169   45.0814   30.3781 H   0  0  0  0  0  0  0  0  0  0  0  0
    6.3143   44.1785   30.9920 H   0  0  0  0  0  0  0  0  0  0  0  0
    6.3178   45.0852   32.5446 H   0  0  0  0  0  0  0  0  0  0  0  0
    4.9216   46.2647   30.9259 H   0  0  0  0  0  0  0  0  0  0  0  0
    6.2460   46.2869   29.7224 H   0  0  0  0  0  0  0  0  0  0  0  0
    6.2820   47.7522   32.4212 H   0  0  0  0  0  0  0  0  0  0  0  0
    8.1786   50.9718   29.7736 H   0  0  0  0  0  0  0  0  0  0  0  0
    8.6435   51.5331   31.3959 H   0  0  0  0  0  0  0  0  0  0  0  0
   10.0480   50.4309   28.4840 H   0  0  0  0  0  0  0  0  0  0  0  0
   12.2249   49.3448   28.1497 H   0  0  0  0  0  0  0  0  0  0  0  0
   12.4065   48.3199   32.2989 H   0  0  0  0  0  0  0  0  0  0  0  0
   13.3952   48.2776   30.0493 H   0  0  0  0  0  0  0  0  0  0  0  0
   11.2239   41.0358   31.8820 H   0  0  0  0  0  0  0  0  0  0  0  0
    9.7472   40.0310   31.9253 H   0  0  0  0  0  0  0  0  0  0  0  0
   11.6000   39.0158   30.5904 H   0  0  0  0  0  0  0  0  0  0  0  0
   10.7034   37.5451   33.1703 H   0  0  0  0  0  0  0  0  0  0  0  0
   14.1992   37.4424   31.5548 H   0  0  0  0  0  0  0  0  0  0  0  0
    9.1370   37.6635   31.6024 H   0  0  0  0  0  0  0  0  0  0  0  0
   12.1204   35.7713   32.5637 H   0  0  0  0  0  0  0  0  0  0  0  0
   12.9457   35.5426   30.5221 H   0  0  0  0  0  0  0  0  0  0  0  0
   12.4322   38.3989   34.8700 H   0  0  0  0  0  0  0  0  0  0  0  0
   17.2664   34.4142   33.1690 H   0  0  0  0  0  0  0  0  0  0  0  0
   15.3759   36.1865   37.9790 H   0  0  0  0  0  0  0  0  0  0  0  0
   16.7636   35.0598   37.7895 H   0  0  0  0  0  0  0  0  0  0  0  0
  1  2  2  0
  1  3  1  0
  3  4  1  0
  4  5  1  0
  6  1  1  0
  7  6  1  0
  6  8  1  0
  8  9  1  0
  9 10  1  0
 10 11  1  0
 11 12  1  0
 12 13  1  0
 13 14  1  0
 13 15  2  0
 14 16  1  0
 16 17  1  0
 17 18  2  0
 19 17  1  0
 18 20  1  0
 21 19  2  0
 19 22  1  0
 20 23  2  0
 23 21  1  0
 22 24  1  0
 22 25  2  0
  4 26  2  0
  4 27  1  0
 28 27  1  0
 28 29  1  0
 29 30  1  0
 29 31  1  0
 30 32  1  0
 31 33  1  0
 31 34  1  0
 34 32  1  0
 32 35  1  0
 34 36  1  0
 37 35  1  0
 38 35  1  0
 39 37  2  0
 37 40  1  0
 41 38  2  0
 42 39  1  0
 40 43  2  0
 40 41  1  0
 44 42  2  0
 44 43  1  0
 43 45  1  0
  6 46  1  6
  7 47  1  0
  7 48  1  0
  8 49  1  0
  8 50  1  0
  9 51  1  0
  9 52  1  0
 10 53  1  0
 10 54  1  0
 11 55  1  0
 11 56  1  0
 12 57  1  0
 16 58  1  0
 16 59  1  0
 18 60  1  0
 20 61  1  0
 21 62  1  0
 23 63  1  0
 28 64  1  0
 28 65  1  0
 29 66  1  0
 31 67  1  0
 32 68  1  0
 33 69  1  0
 34 70  1  0
 36 71  1  0
 38 72  1  0
 42 73  1  0
 45 74  1  0
 45 75  1  0
M  CHG  3   5  -1  22   1  24  -1
M  END
>  <EmbedRMS>  (525) 
0.0738145629393

$$$$

     RDKit          3D

 75 78  0  0  0  0  0  0  0  0999 V2000
    9.4310   42.9413   34.3440 C   0  0  0  0  0  0  0  0  0  0  0  0
   10.4885   43.0412   35.0294 O   0  0  0  0  0  0  0  0  0  0  0  0
    8.8557   41.7130   34.0296 O   0  0  0  0  0  0  0  0  0  0  0  0
    9.4933   40.2163   34.4702 P   0  0  0  0  0  0  0  0  0  0  0  0
    9.7295   40.1743   36.1311 O   0  0  0  0  0  0  0  0  0  0  0  0
    8.7482   44.1362   33.7722 C   0  0  1  0  0  0  0  0  0  0  0  0
    9.3036   45.3669   34.3388 N   0  0  0  0  0  0  0  0  0  0  0  0
    8.8891   44.0521   32.2310 C   0  0  0  0  0  0  0  0  0  0  0  0
    8.2017   45.1726   31.4438 C   0  0  0  0  0  0  0  0  0  0  0  0
    6.6644   45.1060   31.4863 C   0  0  0  0  0  0  0  0  0  0  0  0
    6.0277   46.3240   30.8100 C   0  0  0  0  0  0  0  0  0  0  0  0
    6.5061   47.5638   31.4218 N   0  0  0  0  0  0  0  0  0  0  0  0
    7.2504   48.5408   30.6839 C   0  0  0  0  0  0  0  0  0  0  0  0
    7.6419   49.7533   31.2634 O   0  0  0  0  0  0  0  0  0  0  0  0
    7.5877   48.3086   29.4938 O   0  0  0  0  0  0  0  0  0  0  0  0
    7.3536   50.1224   32.6087 C   0  0  0  0  0  0  0  0  0  0  0  0
    7.8948   51.5033   32.8840 C   0  0  0  0  0  0  0  0  0  0  0  0
    8.8239   51.6680   33.9286 C   0  0  0  0  0  0  0  0  0  0  0  0
    7.5288   52.6302   32.0981 C   0  0  0  0  0  0  0  0  0  0  0  0
    9.3905   52.9161   34.1892 C   0  0  0  0  0  0  0  0  0  0  0  0
    8.1246   53.8760   32.3697 C   0  0  0  0  0  0  0  0  0  0  0  0
    6.5815   52.5307   31.0181 N   0  0  0  0  0  0  0  0  0  0  0  0
    9.0444   54.0169   33.4091 C   0  0  0  0  0  0  0  0  0  0  0  0
    5.4524   51.7553   31.1407 O   0  0  0  0  0  0  0  0  0  0  0  0
    6.6919   53.2727   30.0200 O   0  0  0  0  0  0  0  0  0  0  0  0
    8.5368   39.1400   34.0139 O   0  0  0  0  0  0  0  0  0  0  0  0
   10.9789   40.0875   33.6872 O   0  0  0  0  0  0  0  0  0  0  0  0
   10.7992   40.0946   32.2884 C   0  0  0  0  0  0  0  0  0  0  0  0
   11.5957   38.9351   31.6994 C   0  0  0  0  0  0  0  0  0  0  0  0
   12.9257   38.9478   32.1799 O   0  0  0  0  0  0  0  0  0  0  0  0
   11.0070   37.5758   32.0732 C   0  0  0  0  0  0  0  0  0  0  0  0
   13.3571   37.5980   32.2612 C   0  0  0  0  0  0  0  0  0  0  0  0
    9.9093   37.1808   31.2875 O   0  0  0  0  0  0  0  0  0  0  0  0
   12.1967   36.6764   31.8894 C   0  0  0  0  0  0  0  0  0  0  0  0
   13.8018   37.2956   33.6197 N   0  0  0  0  0  0  0  0  0  0  0  0
   12.3048   36.2360   30.5555 O   0  0  0  0  0  0  0  0  0  0  0  0
   14.7922   36.4716   33.9864 C   0  0  0  0  0  0  0  0  0  0  0  0
   13.2747   37.7291   34.7944 C   0  0  0  0  0  0  0  0  0  0  0  0
   15.6240   35.7582   33.1861 N   0  0  0  0  0  0  0  0  0  0  0  0
   14.8721   36.4401   35.3331 C   0  0  0  0  0  0  0  0  0  0  0  0
   13.9206   37.2257   35.8810 N   0  0  0  0  0  0  0  0  0  0  0  0
   16.5873   34.9924   33.7802 C   0  0  0  0  0  0  0  0  0  0  0  0
   15.8576   35.6714   35.9444 C   0  0  0  0  0  0  0  0  0  0  0  0
   16.7026   34.9585   35.1439 N   0  0  0  0  0  0  0  0  0  0  0  0
   16.0102   35.6383   37.3564 N   0  0  0  0  0  0  0  0  0  0  0  0
    7.6761   44.0638   34.0546 H   0  0  0  0  0  0  0  0  0  0  0  0
   10.2147   45.5887   33.8745 H   0  0  0  0  0  0  0  0  0  0  0  0
    8.6463   46.1563   34.1437 H   0  0  0  0  0  0  0  0  0  0  0  0
    8.4829   43.0820   31.8667 H   0  0  0  0  0  0  0  0  0  0  0  0
    9.9708   44.0644   31.9682 H   0  0  0  0  0  0  0  0  0  0  0  0
    8.5702   46.1492   31.8191 H   0  0  0  0  0  0  0  0  0  0  0  0
    8.5217   45.0976   30.3814 H   0  0  0  0  0  0  0  0  0  0  0  0
    6.3163   44.1801   30.9791 H   0  0  0  0  0  0  0  0  0  0  0  0
    6.3125   45.0758   32.5383 H   0  0  0  0  0  0  0  0  0  0  0  0
    4.9241   46.2687   30.9244 H   0  0  0  0  0  0  0  0  0  0  0  0
    6.2484   46.2918   29.7215 H   0  0  0  0  0  0  0  0  0  0  0  0
    6.2767   47.7250   32.4271 H   0  0  0  0  0  0  0  0  0  0  0  0
    7.8119   49.3745   33.2927 H   0  0  0  0  0  0  0  0  0  0  0  0
    6.2585   50.1110   32.7883 H   0  0  0  0  0  0  0  0  0  0  0  0
    9.1196   50.8257   34.5420 H   0  0  0  0  0  0  0  0  0  0  0  0
   10.1048   53.0281   34.9948 H   0  0  0  0  0  0  0  0  0  0  0  0
    7.8638   54.7471   31.7818 H   0  0  0  0  0  0  0  0  0  0  0  0
    9.4886   54.9832   33.6110 H   0  0  0  0  0  0  0  0  0  0  0  0
    9.7448   40.0200   31.9304 H   0  0  0  0  0  0  0  0  0  0  0  0
   11.2092   41.0481   31.8916 H   0  0  0  0  0  0  0  0  0  0  0  0
   11.6207   39.0685   30.5942 H   0  0  0  0  0  0  0  0  0  0  0  0
   10.7059   37.5564   33.1439 H   0  0  0  0  0  0  0  0  0  0  0  0
   14.2095   37.4543   31.5601 H   0  0  0  0  0  0  0  0  0  0  0  0
   10.0864   37.4210   30.3414 H   0  0  0  0  0  0  0  0  0  0  0  0
   12.1275   35.7872   32.5550 H   0  0  0  0  0  0  0  0  0  0  0  0
   12.5030   37.0109   29.9673 H   0  0  0  0  0  0  0  0  0  0  0  0
   12.4328   38.3996   34.8703 H   0  0  0  0  0  0  0  0  0  0  0  0
   17.2670   34.4149   33.1690 H   0  0  0  0  0  0  0  0  0  0  0  0
   16.7640   35.0601   37.7896 H   0  0  0  0  0  0  0  0  0  0  0  0
   15.3758   36.1862   37.9791 H   0  0  0  0  0  0  0  0  0  0  0  0
  1  2  2  0
  1  3  1  0
  3  4  1  0
  4  5  1  0
  6  1  1  0
  7  6  1  0
  6  8  1  0
  8  9  1  0
  9 10  1  0
 10 11  1  0
 11 12  1  0
 12 13  1  0
 13 14  1  0
 13 15  2  0
 14 16  1  0
 16 17  1  0
 17 18  2  0
 19 17  1  0
 18 20  1  0
 21 19  2  0
 19 22  1  0
 20 23  2  0
 23 21  1  0
 22 24  1  0
 22 25  2  0
  4 26  2  0
  4 27  1  0
 28 27  1  0
 28 29  1  0
 29 30  1  0
 29 31  1  0
 30 32  1  0
 31 33  1  0
 31 34  1  0
 34 32  1  0
 32 35  1  0
 34 36  1  0
 37 35  1  0
 38 35  1  0
 39 37  2  0
 37 40  1  0
 41 38  2  0
 42 39  1  0
 40 43  2  0
 40 41  1  0
 44 42  2  0
 44 43  1  0
 43 45  1  0
  6 46  1  6
  7 47  1  0
  7 48  1  0
  8 49  1  0
  8 50  1  0
  9 51  1  0
  9 52  1  0
 10 53  1  0
 10 54  1  0
 11 55  1  0
 11 56  1  0
 12 57  1  0
 16 58  1  0
 16 59  1  0
 18 60  1  0
 20 61  1  0
 21 62  1  0
 23 63  1  0
 28 64  1  0
 28 65  1  0
 29 66  1  0
 31 67  1  0
 32 68  1  0
 33 69  1  0
 34 70  1  0
 36 71  1  0
 38 72  1  0
 42 73  1  0
 45 74  1  0
 45 75  1  0
M  CHG  3   5  -1  22   1  24  -1
M  END
>  <EmbedRMS>  (526) 
0.0754516653217

$$$$

     RDKit          3D

 75 78  0  0  0  0  0  0  0  0999 V2000
    9.4312   42.9416   34.3437 C   0  0  0  0  0  0  0  0  0  0  0  0
   10.4885   43.0414   35.0293 O   0  0  0  0  0  0  0  0  0  0  0  0
    8.8562   41.7133   34.0287 O   0  0  0  0  0  0  0  0  0  0  0  0
    9.4946   40.2166   34.4678 P   0  0  0  0  0  0  0  0  0  0  0  0
    9.7310   40.1744   36.1289 O   0  0  0  0  0  0  0  0  0  0  0  0
    8.7483   44.1368   33.7722 C   0  0  1  0  0  0  0  0  0  0  0  0
    9.3039   45.3675   34.3388 N   0  0  0  0  0  0  0  0  0  0  0  0
    8.8890   44.0529   32.2310 C   0  0  0  0  0  0  0  0  0  0  0  0
    8.2013   45.1737   31.4443 C   0  0  0  0  0  0  0  0  0  0  0  0
    6.6639   45.1066   31.4864 C   0  0  0  0  0  0  0  0  0  0  0  0
    6.0270   46.3230   30.8074 C   0  0  0  0  0  0  0  0  0  0  0  0
    6.5012   47.5639   31.4199 N   0  0  0  0  0  0  0  0  0  0  0  0
    7.2623   48.5335   30.6895 C   0  0  0  0  0  0  0  0  0  0  0  0
    7.7055   49.7178   31.2895 O   0  0  0  0  0  0  0  0  0  0  0  0
    7.5820   48.3119   29.4924 O   0  0  0  0  0  0  0  0  0  0  0  0
    7.4668   50.0565   32.6518 C   0  0  0  0  0  0  0  0  0  0  0  0
    8.1707   51.3482   32.9765 C   0  0  0  0  0  0  0  0  0  0  0  0
    7.4207   52.5384   32.9821 C   0  0  0  0  0  0  0  0  0  0  0  0
    9.5547   51.3968   33.3006 C   0  0  0  0  0  0  0  0  0  0  0  0
    8.0164   53.7541   33.3195 C   0  0  0  0  0  0  0  0  0  0  0  0
   10.1298   52.6312   33.6531 C   0  0  0  0  0  0  0  0  0  0  0  0
   10.3848   50.2197   33.2999 N   0  0  0  0  0  0  0  0  0  0  0  0
    9.3668   53.7997   33.6590 C   0  0  0  0  0  0  0  0  0  0  0  0
   11.4775   50.1501   34.1335 O   0  0  0  0  0  0  0  0  0  0  0  0
   10.2290   49.3263   32.4428 O   0  0  0  0  0  0  0  0  0  0  0  0
    8.5374   39.1406   34.0127 O   0  0  0  0  0  0  0  0  0  0  0  0
   10.9805   40.0890   33.6836 O   0  0  0  0  0  0  0  0  0  0  0  0
   10.8025   40.0902   32.2837 C   0  0  0  0  0  0  0  0  0  0  0  0
   11.5888   38.9175   31.7008 C   0  0  0  0  0  0  0  0  0  0  0  0
   12.9219   38.9373   32.1693 O   0  0  0  0  0  0  0  0  0  0  0  0
   11.0028   37.5683   32.0981 C   0  0  0  0  0  0  0  0  0  0  0  0
   13.3496   37.5886   32.2601 C   0  0  0  0  0  0  0  0  0  0  0  0
    9.9343   37.1823   31.2757 O   0  0  0  0  0  0  0  0  0  0  0  0
   12.1890   36.6677   31.9050 C   0  0  0  0  0  0  0  0  0  0  0  0
   13.8025   37.2965   33.6186 N   0  0  0  0  0  0  0  0  0  0  0  0
   12.2990   36.2868   30.5568 O   0  0  0  0  0  0  0  0  0  0  0  0
   14.7929   36.4725   33.9858 C   0  0  0  0  0  0  0  0  0  0  0  0
   13.2749   37.7294   34.7935 C   0  0  0  0  0  0  0  0  0  0  0  0
   15.6240   35.7580   33.1858 N   0  0  0  0  0  0  0  0  0  0  0  0
   14.8727   36.4411   35.3327 C   0  0  0  0  0  0  0  0  0  0  0  0
   13.9208   37.2263   35.8803 N   0  0  0  0  0  0  0  0  0  0  0  0
   16.5871   34.9921   33.7801 C   0  0  0  0  0  0  0  0  0  0  0  0
   15.8576   35.6718   35.9441 C   0  0  0  0  0  0  0  0  0  0  0  0
   16.7024   34.9585   35.1438 N   0  0  0  0  0  0  0  0  0  0  0  0
   16.0099   35.6384   37.3562 N   0  0  0  0  0  0  0  0  0  0  0  0
    7.6762   44.0645   34.0546 H   0  0  0  0  0  0  0  0  0  0  0  0
    8.6467   46.1571   34.1440 H   0  0  0  0  0  0  0  0  0  0  0  0
   10.2148   45.5896   33.8741 H   0  0  0  0  0  0  0  0  0  0  0  0
    9.9706   44.0655   31.9681 H   0  0  0  0  0  0  0  0  0  0  0  0
    8.4828   43.0829   31.8665 H   0  0  0  0  0  0  0  0  0  0  0  0
    8.5216   45.0994   30.3819 H   0  0  0  0  0  0  0  0  0  0  0  0
    8.5692   46.1503   31.8202 H   0  0  0  0  0  0  0  0  0  0  0  0
    6.3165   44.1796   30.9808 H   0  0  0  0  0  0  0  0  0  0  0  0
    6.3118   45.0782   32.5385 H   0  0  0  0  0  0  0  0  0  0  0  0
    6.2518   46.2903   29.7198 H   0  0  0  0  0  0  0  0  0  0  0  0
    4.9230   46.2659   30.9176 H   0  0  0  0  0  0  0  0  0  0  0  0
    6.2575   47.7300   32.4210 H   0  0  0  0  0  0  0  0  0  0  0  0
    6.3711   50.1580   32.8138 H   0  0  0  0  0  0  0  0  0  0  0  0
    7.8286   49.2509   33.3265 H   0  0  0  0  0  0  0  0  0  0  0  0
    6.3674   52.5259   32.7296 H   0  0  0  0  0  0  0  0  0  0  0  0
    7.4277   54.6624   33.3224 H   0  0  0  0  0  0  0  0  0  0  0  0
   11.1799   52.6931   33.9089 H   0  0  0  0  0  0  0  0  0  0  0  0
    9.8255   54.7436   33.9240 H   0  0  0  0  0  0  0  0  0  0  0  0
   11.2257   41.0358   31.8824 H   0  0  0  0  0  0  0  0  0  0  0  0
    9.7476   40.0332   31.9255 H   0  0  0  0  0  0  0  0  0  0  0  0
   11.5975   39.0148   30.5905 H   0  0  0  0  0  0  0  0  0  0  0  0
   10.7023   37.5457   33.1720 H   0  0  0  0  0  0  0  0  0  0  0  0
   14.1957   37.4366   31.5528 H   0  0  0  0  0  0  0  0  0  0  0  0
    9.1339   37.6659   31.6070 H   0  0  0  0  0  0  0  0  0  0  0  0
   12.1380   35.7717   32.5698 H   0  0  0  0  0  0  0  0  0  0  0  0
   11.7706   35.4530   30.4496 H   0  0  0  0  0  0  0  0  0  0  0  0
   12.4315   38.3981   34.8694 H   0  0  0  0  0  0  0  0  0  0  0  0
   17.2665   34.4140   33.1691 H   0  0  0  0  0  0  0  0  0  0  0  0
   15.3757   36.1868   37.9789 H   0  0  0  0  0  0  0  0  0  0  0  0
   16.7633   35.0598   37.7895 H   0  0  0  0  0  0  0  0  0  0  0  0
  1  2  2  0
  1  3  1  0
  3  4  1  0
  4  5  1  0
  6  1  1  0
  7  6  1  0
  6  8  1  0
  8  9  1  0
  9 10  1  0
 10 11  1  0
 11 12  1  0
 12 13  1  0
 13 14  1  0
 13 15  2  0
 14 16  1  0
 16 17  1  0
 17 18  2  0
 19 17  1  0
 18 20  1  0
 21 19  2  0
 19 22  1  0
 20 23  2  0
 23 21  1  0
 22 24  1  0
 22 25  2  0
  4 26  2  0
  4 27  1  0
 28 27  1  0
 28 29  1  0
 29 30  1  0
 29 31  1  0
 30 32  1  0
 31 33  1  0
 31 34  1  0
 34 32  1  0
 32 35  1  0
 34 36  1  0
 37 35  1  0
 38 35  1  0
 39 37  2  0
 37 40  1  0
 41 38  2  0
 42 39  1  0
 40 43  2  0
 40 41  1  0
 44 42  2  0
 44 43  1  0
 43 45  1  0
  6 46  1  6
  7 47  1  0
  7 48  1  0
  8 49  1  0
  8 50  1  0
  9 51  1  0
  9 52  1  0
 10 53  1  0
 10 54  1  0
 11 55  1  0
 11 56  1  0
 12 57  1  0
 16 58  1  0
 16 59  1  0
 18 60  1  0
 20 61  1  0
 21 62  1  0
 23 63  1  0
 28 64  1  0
 28 65  1  0
 29 66  1  0
 31 67  1  0
 32 68  1  0
 33 69  1  0
 34 70  1  0
 36 71  1  0
 38 72  1  0
 42 73  1  0
 45 74  1  0
 45 75  1  0
M  CHG  3   5  -1  22   1  24  -1
M  END
>  <EmbedRMS>  (527) 
0.0738632464216

$$$$

     RDKit          3D

 75 78  0  0  0  0  0  0  0  0999 V2000
    9.4333   42.9368   34.3463 C   0  0  0  0  0  0  0  0  0  0  0  0
   10.4908   43.0333   35.0318 O   0  0  0  0  0  0  0  0  0  0  0  0
    8.8559   41.7106   34.0305 O   0  0  0  0  0  0  0  0  0  0  0  0
    9.4931   40.2144   34.4708 P   0  0  0  0  0  0  0  0  0  0  0  0
    9.7288   40.1730   36.1318 O   0  0  0  0  0  0  0  0  0  0  0  0
    8.7507   44.1352   33.7741 C   0  0  1  0  0  0  0  0  0  0  0  0
    9.2964   45.3825   34.3132 N   0  0  0  0  0  0  0  0  0  0  0  0
    8.8893   44.0533   32.2358 C   0  0  0  0  0  0  0  0  0  0  0  0
    8.2026   45.1831   31.4617 C   0  0  0  0  0  0  0  0  0  0  0  0
    6.6651   45.1047   31.4852 C   0  0  0  0  0  0  0  0  0  0  0  0
    6.0261   46.3221   30.8094 C   0  0  0  0  0  0  0  0  0  0  0  0
    6.5036   47.5640   31.4171 N   0  0  0  0  0  0  0  0  0  0  0  0
    7.2499   48.5352   30.6866 C   0  0  0  0  0  0  0  0  0  0  0  0
    7.6301   49.7198   31.3220 O   0  0  0  0  0  0  0  0  0  0  0  0
    7.5910   48.3129   29.4932 O   0  0  0  0  0  0  0  0  0  0  0  0
    8.4270   50.7130   30.6857 C   0  0  0  0  0  0  0  0  0  0  0  0
    8.7201   51.8214   31.6624 C   0  0  0  0  0  0  0  0  0  0  0  0
    7.9323   52.9858   31.6131 C   0  0  0  0  0  0  0  0  0  0  0  0
    9.7777   51.7370   32.6075 C   0  0  0  0  0  0  0  0  0  0  0  0
    8.1927   54.0586   32.4664 C   0  0  0  0  0  0  0  0  0  0  0  0
   10.0322   52.8372   33.4477 C   0  0  0  0  0  0  0  0  0  0  0  0
   10.6055   50.5643   32.7206 N   0  0  0  0  0  0  0  0  0  0  0  0
    9.2436   53.9865   33.3784 C   0  0  0  0  0  0  0  0  0  0  0  0
   10.0601   49.3056   32.6202 O   0  0  0  0  0  0  0  0  0  0  0  0
   11.7977   50.6728   33.0753 O   0  0  0  0  0  0  0  0  0  0  0  0
    8.5366   39.1387   34.0140 O   0  0  0  0  0  0  0  0  0  0  0  0
   10.9794   40.0875   33.6890 O   0  0  0  0  0  0  0  0  0  0  0  0
   10.8017   40.0947   32.2902 C   0  0  0  0  0  0  0  0  0  0  0  0
   11.5885   38.9266   31.7041 C   0  0  0  0  0  0  0  0  0  0  0  0
   12.9237   38.9445   32.1721 O   0  0  0  0  0  0  0  0  0  0  0  0
   11.0029   37.5726   32.0908 C   0  0  0  0  0  0  0  0  0  0  0  0
   13.3555   37.5960   32.2594 C   0  0  0  0  0  0  0  0  0  0  0  0
    9.9380   37.1846   31.2656 O   0  0  0  0  0  0  0  0  0  0  0  0
   12.1932   36.6769   31.8952 C   0  0  0  0  0  0  0  0  0  0  0  0
   13.8028   37.2977   33.6186 N   0  0  0  0  0  0  0  0  0  0  0  0
   12.2918   36.2396   30.5587 O   0  0  0  0  0  0  0  0  0  0  0  0
   14.7926   36.4727   33.9858 C   0  0  0  0  0  0  0  0  0  0  0  0
   13.2750   37.7302   34.7935 C   0  0  0  0  0  0  0  0  0  0  0  0
   15.6241   35.7586   33.1857 N   0  0  0  0  0  0  0  0  0  0  0  0
   14.8721   36.4408   35.3326 C   0  0  0  0  0  0  0  0  0  0  0  0
   13.9204   37.2263   35.8802 N   0  0  0  0  0  0  0  0  0  0  0  0
   16.5870   34.9924   33.7800 C   0  0  0  0  0  0  0  0  0  0  0  0
   15.8572   35.6717   35.9441 C   0  0  0  0  0  0  0  0  0  0  0  0
   16.7022   34.9585   35.1437 N   0  0  0  0  0  0  0  0  0  0  0  0
   16.0097   35.6384   37.3561 N   0  0  0  0  0  0  0  0  0  0  0  0
    7.6771   44.0711   34.0504 H   0  0  0  0  0  0  0  0  0  0  0  0
    9.1835   45.3824   35.3534 H   0  0  0  0  0  0  0  0  0  0  0  0
   10.3191   45.4417   34.0991 H   0  0  0  0  0  0  0  0  0  0  0  0
    8.4817   43.0856   31.8668 H   0  0  0  0  0  0  0  0  0  0  0  0
    9.9711   44.0688   31.9739 H   0  0  0  0  0  0  0  0  0  0  0  0
    8.5386   45.1377   30.4026 H   0  0  0  0  0  0  0  0  0  0  0  0
    8.5545   46.1518   31.8750 H   0  0  0  0  0  0  0  0  0  0  0  0
    6.3300   44.1797   30.9678 H   0  0  0  0  0  0  0  0  0  0  0  0
    6.3015   45.0646   32.5330 H   0  0  0  0  0  0  0  0  0  0  0  0
    6.2466   46.2894   29.7208 H   0  0  0  0  0  0  0  0  0  0  0  0
    4.9226   46.2659   30.9244 H   0  0  0  0  0  0  0  0  0  0  0  0
    6.2816   47.7511   32.4208 H   0  0  0  0  0  0  0  0  0  0  0  0
    7.8789   51.1062   29.8013 H   0  0  0  0  0  0  0  0  0  0  0  0
    9.3756   50.2709   30.3114 H   0  0  0  0  0  0  0  0  0  0  0  0
    7.1154   53.0672   30.9064 H   0  0  0  0  0  0  0  0  0  0  0  0
    7.5809   54.9501   32.4167 H   0  0  0  0  0  0  0  0  0  0  0  0
   10.8356   52.7981   34.1725 H   0  0  0  0  0  0  0  0  0  0  0  0
    9.4458   54.8215   34.0368 H   0  0  0  0  0  0  0  0  0  0  0  0
   11.2242   41.0427   31.8934 H   0  0  0  0  0  0  0  0  0  0  0  0
    9.7472   40.0378   31.9304 H   0  0  0  0  0  0  0  0  0  0  0  0
   11.5927   39.0434   30.5965 H   0  0  0  0  0  0  0  0  0  0  0  0
   10.7003   37.5442   33.1640 H   0  0  0  0  0  0  0  0  0  0  0  0
   14.2052   37.4477   31.5560 H   0  0  0  0  0  0  0  0  0  0  0  0
    9.1374   37.6722   31.5905 H   0  0  0  0  0  0  0  0  0  0  0  0
   12.1305   35.7855   32.5585 H   0  0  0  0  0  0  0  0  0  0  0  0
   12.4606   37.0186   29.9674 H   0  0  0  0  0  0  0  0  0  0  0  0
   12.4327   38.4001   34.8694 H   0  0  0  0  0  0  0  0  0  0  0  0
   17.2666   34.4146   33.1690 H   0  0  0  0  0  0  0  0  0  0  0  0
   15.3754   36.1866   37.9788 H   0  0  0  0  0  0  0  0  0  0  0  0
   16.7634   35.0601   37.7894 H   0  0  0  0  0  0  0  0  0  0  0  0
  1  2  2  0
  1  3  1  0
  3  4  1  0
  4  5  1  0
  6  1  1  0
  7  6  1  0
  6  8  1  0
  8  9  1  0
  9 10  1  0
 10 11  1  0
 11 12  1  0
 12 13  1  0
 13 14  1  0
 13 15  2  0
 14 16  1  0
 16 17  1  0
 17 18  2  0
 19 17  1  0
 18 20  1  0
 21 19  2  0
 19 22  1  0
 20 23  2  0
 23 21  1  0
 22 24  1  0
 22 25  2  0
  4 26  2  0
  4 27  1  0
 28 27  1  0
 28 29  1  0
 29 30  1  0
 29 31  1  0
 30 32  1  0
 31 33  1  0
 31 34  1  0
 34 32  1  0
 32 35  1  0
 34 36  1  0
 37 35  1  0
 38 35  1  0
 39 37  2  0
 37 40  1  0
 41 38  2  0
 42 39  1  0
 40 43  2  0
 40 41  1  0
 44 42  2  0
 44 43  1  0
 43 45  1  0
  6 46  1  6
  7 47  1  0
  7 48  1  0
  8 49  1  0
  8 50  1  0
  9 51  1  0
  9 52  1  0
 10 53  1  0
 10 54  1  0
 11 55  1  0
 11 56  1  0
 12 57  1  0
 16 58  1  0
 16 59  1  0
 18 60  1  0
 20 61  1  0
 21 62  1  0
 23 63  1  0
 28 64  1  0
 28 65  1  0
 29 66  1  0
 31 67  1  0
 32 68  1  0
 33 69  1  0
 34 70  1  0
 36 71  1  0
 38 72  1  0
 42 73  1  0
 45 74  1  0
 45 75  1  0
M  CHG  3   5  -1  22   1  24  -1
M  END
>  <EmbedRMS>  (528) 
0.0758649132332

$$$$

     RDKit          3D

 75 78  0  0  0  0  0  0  0  0999 V2000
    9.4312   42.9413   34.3440 C   0  0  0  0  0  0  0  0  0  0  0  0
   10.4886   43.0411   35.0294 O   0  0  0  0  0  0  0  0  0  0  0  0
    8.8558   41.7130   34.0298 O   0  0  0  0  0  0  0  0  0  0  0  0
    9.4933   40.2165   34.4707 P   0  0  0  0  0  0  0  0  0  0  0  0
    9.7290   40.1745   36.1317 O   0  0  0  0  0  0  0  0  0  0  0  0
    8.7484   44.1361   33.7722 C   0  0  1  0  0  0  0  0  0  0  0  0
    9.3039   45.3667   34.3388 N   0  0  0  0  0  0  0  0  0  0  0  0
    8.8892   44.0519   32.2309 C   0  0  0  0  0  0  0  0  0  0  0  0
    8.2014   45.1722   31.4436 C   0  0  0  0  0  0  0  0  0  0  0  0
    6.6642   45.1065   31.4886 C   0  0  0  0  0  0  0  0  0  0  0  0
    6.0264   46.3233   30.8118 C   0  0  0  0  0  0  0  0  0  0  0  0
    6.5071   47.5644   31.4185 N   0  0  0  0  0  0  0  0  0  0  0  0
    7.2455   48.5387   30.6839 C   0  0  0  0  0  0  0  0  0  0  0  0
    7.6028   49.7361   31.3091 O   0  0  0  0  0  0  0  0  0  0  0  0
    7.5925   48.3119   29.4931 O   0  0  0  0  0  0  0  0  0  0  0  0
    8.3593   50.7513   30.6553 C   0  0  0  0  0  0  0  0  0  0  0  0
    8.6368   51.8777   31.6209 C   0  0  0  0  0  0  0  0  0  0  0  0
    9.1915   51.5582   32.8738 C   0  0  0  0  0  0  0  0  0  0  0  0
    8.3313   53.2321   31.3261 C   0  0  0  0  0  0  0  0  0  0  0  0
    9.3974   52.5482   33.8359 C   0  0  0  0  0  0  0  0  0  0  0  0
    8.5274   54.2123   32.3150 C   0  0  0  0  0  0  0  0  0  0  0  0
    7.8613   53.6346   30.0305 N   0  0  0  0  0  0  0  0  0  0  0  0
    9.0560   53.8712   33.5608 C   0  0  0  0  0  0  0  0  0  0  0  0
    8.5424   53.2413   28.9015 O   0  0  0  0  0  0  0  0  0  0  0  0
    6.9945   54.5273   29.9311 O   0  0  0  0  0  0  0  0  0  0  0  0
    8.5369   39.1403   34.0143 O   0  0  0  0  0  0  0  0  0  0  0  0
   10.9795   40.0883   33.6889 O   0  0  0  0  0  0  0  0  0  0  0  0
   10.8017   40.0949   32.2901 C   0  0  0  0  0  0  0  0  0  0  0  0
   11.5885   38.9267   31.7041 C   0  0  0  0  0  0  0  0  0  0  0  0
   12.9237   38.9445   32.1722 O   0  0  0  0  0  0  0  0  0  0  0  0
   11.0029   37.5726   32.0908 C   0  0  0  0  0  0  0  0  0  0  0  0
   13.3555   37.5960   32.2595 C   0  0  0  0  0  0  0  0  0  0  0  0
    9.9379   37.1847   31.2657 O   0  0  0  0  0  0  0  0  0  0  0  0
   12.1931   36.6769   31.8952 C   0  0  0  0  0  0  0  0  0  0  0  0
   13.8028   37.2977   33.6186 N   0  0  0  0  0  0  0  0  0  0  0  0
   12.2918   36.2396   30.5587 O   0  0  0  0  0  0  0  0  0  0  0  0
   14.7926   36.4727   33.9858 C   0  0  0  0  0  0  0  0  0  0  0  0
   13.2750   37.7302   34.7935 C   0  0  0  0  0  0  0  0  0  0  0  0
   15.6241   35.7586   33.1857 N   0  0  0  0  0  0  0  0  0  0  0  0
   14.8721   36.4408   35.3326 C   0  0  0  0  0  0  0  0  0  0  0  0
   13.9204   37.2263   35.8802 N   0  0  0  0  0  0  0  0  0  0  0  0
   16.5870   34.9925   33.7800 C   0  0  0  0  0  0  0  0  0  0  0  0
   15.8572   35.6717   35.9441 C   0  0  0  0  0  0  0  0  0  0  0  0
   16.7022   34.9585   35.1437 N   0  0  0  0  0  0  0  0  0  0  0  0
   16.0097   35.6384   37.3561 N   0  0  0  0  0  0  0  0  0  0  0  0
    7.6764   44.0636   34.0548 H   0  0  0  0  0  0  0  0  0  0  0  0
   10.2152   45.5881   33.8747 H   0  0  0  0  0  0  0  0  0  0  0  0
    8.6469   46.1561   34.1431 H   0  0  0  0  0  0  0  0  0  0  0  0
    8.4831   43.0818   31.8668 H   0  0  0  0  0  0  0  0  0  0  0  0
    9.9708   44.0644   31.9680 H   0  0  0  0  0  0  0  0  0  0  0  0
    8.5711   46.1489   31.8176 H   0  0  0  0  0  0  0  0  0  0  0  0
    8.5199   45.0961   30.3808 H   0  0  0  0  0  0  0  0  0  0  0  0
    6.3140   45.0785   32.5413 H   0  0  0  0  0  0  0  0  0  0  0  0
    6.3149   44.1798   30.9838 H   0  0  0  0  0  0  0  0  0  0  0  0
    4.9230   46.2690   30.9291 H   0  0  0  0  0  0  0  0  0  0  0  0
    6.2450   46.2893   29.7229 H   0  0  0  0  0  0  0  0  0  0  0  0
    6.2857   47.7529   32.4221 H   0  0  0  0  0  0  0  0  0  0  0  0
    7.7884   51.0913   29.7687 H   0  0  0  0  0  0  0  0  0  0  0  0
    9.3289   50.3289   30.3130 H   0  0  0  0  0  0  0  0  0  0  0  0
    9.4489   50.5334   33.1131 H   0  0  0  0  0  0  0  0  0  0  0  0
    9.8154   52.2872   34.7995 H   0  0  0  0  0  0  0  0  0  0  0  0
    8.2951   55.2497   32.1092 H   0  0  0  0  0  0  0  0  0  0  0  0
    9.2127   54.6366   34.3099 H   0  0  0  0  0  0  0  0  0  0  0  0
    9.7472   40.0378   31.9304 H   0  0  0  0  0  0  0  0  0  0  0  0
   11.2240   41.0428   31.8929 H   0  0  0  0  0  0  0  0  0  0  0  0
   11.5927   39.0434   30.5966 H   0  0  0  0  0  0  0  0  0  0  0  0
   10.7003   37.5444   33.1641 H   0  0  0  0  0  0  0  0  0  0  0  0
   14.2051   37.4477   31.5560 H   0  0  0  0  0  0  0  0  0  0  0  0
    9.1373   37.6722   31.5906 H   0  0  0  0  0  0  0  0  0  0  0  0
   12.1305   35.7856   32.5586 H   0  0  0  0  0  0  0  0  0  0  0  0
   12.4606   37.0187   29.9674 H   0  0  0  0  0  0  0  0  0  0  0  0
   12.4327   38.4001   34.8694 H   0  0  0  0  0  0  0  0  0  0  0  0
   17.2666   34.4146   33.1690 H   0  0  0  0  0  0  0  0  0  0  0  0
   15.3754   36.1866   37.9788 H   0  0  0  0  0  0  0  0  0  0  0  0
   16.7633   35.0601   37.7894 H   0  0  0  0  0  0  0  0  0  0  0  0
  1  2  2  0
  1  3  1  0
  3  4  1  0
  4  5  1  0
  6  1  1  0
  7  6  1  0
  6  8  1  0
  8  9  1  0
  9 10  1  0
 10 11  1  0
 11 12  1  0
 12 13  1  0
 13 14  1  0
 13 15  2  0
 14 16  1  0
 16 17  1  0
 17 18  2  0
 19 17  1  0
 18 20  1  0
 21 19  2  0
 19 22  1  0
 20 23  2  0
 23 21  1  0
 22 24  1  0
 22 25  2  0
  4 26  2  0
  4 27  1  0
 28 27  1  0
 28 29  1  0
 29 30  1  0
 29 31  1  0
 30 32  1  0
 31 33  1  0
 31 34  1  0
 34 32  1  0
 32 35  1  0
 34 36  1  0
 37 35  1  0
 38 35  1  0
 39 37  2  0
 37 40  1  0
 41 38  2  0
 42 39  1  0
 40 43  2  0
 40 41  1  0
 44 42  2  0
 44 43  1  0
 43 45  1  0
  6 46  1  6
  7 47  1  0
  7 48  1  0
  8 49  1  0
  8 50  1  0
  9 51  1  0
  9 52  1  0
 10 53  1  0
 10 54  1  0
 11 55  1  0
 11 56  1  0
 12 57  1  0
 16 58  1  0
 16 59  1  0
 18 60  1  0
 20 61  1  0
 21 62  1  0
 23 63  1  0
 28 64  1  0
 28 65  1  0
 29 66  1  0
 31 67  1  0
 32 68  1  0
 33 69  1  0
 34 70  1  0
 36 71  1  0
 38 72  1  0
 42 73  1  0
 45 74  1  0
 45 75  1  0
M  CHG  3   5  -1  22   1  24  -1
M  END
>  <EmbedRMS>  (529) 
0.0749274689737

$$$$

     RDKit          3D

 75 78  0  0  0  0  0  0  0  0999 V2000
    9.4332   42.9366   34.3464 C   0  0  0  0  0  0  0  0  0  0  0  0
   10.4908   43.0332   35.0319 O   0  0  0  0  0  0  0  0  0  0  0  0
    8.8559   41.7105   34.0306 O   0  0  0  0  0  0  0  0  0  0  0  0
    9.4931   40.2143   34.4709 P   0  0  0  0  0  0  0  0  0  0  0  0
    9.7288   40.1729   36.1318 O   0  0  0  0  0  0  0  0  0  0  0  0
    8.7506   44.1349   33.7741 C   0  0  1  0  0  0  0  0  0  0  0  0
    9.2963   45.3821   34.3133 N   0  0  0  0  0  0  0  0  0  0  0  0
    8.8893   44.0527   32.2359 C   0  0  0  0  0  0  0  0  0  0  0  0
    8.2028   45.1823   31.4615 C   0  0  0  0  0  0  0  0  0  0  0  0
    6.6653   45.1045   31.4855 C   0  0  0  0  0  0  0  0  0  0  0  0
    6.0270   46.3225   30.8105 C   0  0  0  0  0  0  0  0  0  0  0  0
    6.5062   47.5639   31.4180 N   0  0  0  0  0  0  0  0  0  0  0  0
    7.2440   48.5390   30.6837 C   0  0  0  0  0  0  0  0  0  0  0  0
    7.5962   49.7386   31.3075 O   0  0  0  0  0  0  0  0  0  0  0  0
    7.5932   48.3119   29.4936 O   0  0  0  0  0  0  0  0  0  0  0  0
    8.3492   50.7565   30.6519 C   0  0  0  0  0  0  0  0  0  0  0  0
    8.6085   51.9347   31.5657 C   0  0  0  0  0  0  0  0  0  0  0  0
    8.4759   51.7879   32.9623 C   0  0  0  0  0  0  0  0  0  0  0  0
    8.9808   53.2015   31.0398 C   0  0  0  0  0  0  0  0  0  0  0  0
    8.6663   52.8754   33.8156 C   0  0  0  0  0  0  0  0  0  0  0  0
    9.1511   54.2877   31.9181 C   0  0  0  0  0  0  0  0  0  0  0  0
    9.1859   53.4053   29.6294 N   0  0  0  0  0  0  0  0  0  0  0  0
    8.9949   54.1241   33.2944 C   0  0  0  0  0  0  0  0  0  0  0  0
    9.8186   52.4501   28.8680 O   0  0  0  0  0  0  0  0  0  0  0  0
    8.9448   54.5176   29.1161 O   0  0  0  0  0  0  0  0  0  0  0  0
    8.5366   39.1385   34.0140 O   0  0  0  0  0  0  0  0  0  0  0  0
   10.9795   40.0875   33.6890 O   0  0  0  0  0  0  0  0  0  0  0  0
   10.8017   40.0947   32.2902 C   0  0  0  0  0  0  0  0  0  0  0  0
   11.5885   38.9266   31.7041 C   0  0  0  0  0  0  0  0  0  0  0  0
   12.9237   38.9445   32.1721 O   0  0  0  0  0  0  0  0  0  0  0  0
   11.0029   37.5726   32.0907 C   0  0  0  0  0  0  0  0  0  0  0  0
   13.3555   37.5960   32.2594 C   0  0  0  0  0  0  0  0  0  0  0  0
    9.9380   37.1846   31.2656 O   0  0  0  0  0  0  0  0  0  0  0  0
   12.1932   36.6769   31.8952 C   0  0  0  0  0  0  0  0  0  0  0  0
   13.8028   37.2977   33.6186 N   0  0  0  0  0  0  0  0  0  0  0  0
   12.2918   36.2396   30.5587 O   0  0  0  0  0  0  0  0  0  0  0  0
   14.7926   36.4727   33.9858 C   0  0  0  0  0  0  0  0  0  0  0  0
   13.2750   37.7302   34.7935 C   0  0  0  0  0  0  0  0  0  0  0  0
   15.6241   35.7586   33.1857 N   0  0  0  0  0  0  0  0  0  0  0  0
   14.8721   36.4408   35.3326 C   0  0  0  0  0  0  0  0  0  0  0  0
   13.9204   37.2263   35.8802 N   0  0  0  0  0  0  0  0  0  0  0  0
   16.5870   34.9924   33.7800 C   0  0  0  0  0  0  0  0  0  0  0  0
   15.8572   35.6717   35.9441 C   0  0  0  0  0  0  0  0  0  0  0  0
   16.7022   34.9585   35.1437 N   0  0  0  0  0  0  0  0  0  0  0  0
   16.0097   35.6384   37.3561 N   0  0  0  0  0  0  0  0  0  0  0  0
    7.6770   44.0708   34.0504 H   0  0  0  0  0  0  0  0  0  0  0  0
    9.1827   45.3822   35.3534 H   0  0  0  0  0  0  0  0  0  0  0  0
   10.3192   45.4408   34.1000 H   0  0  0  0  0  0  0  0  0  0  0  0
    8.4817   43.0850   31.8670 H   0  0  0  0  0  0  0  0  0  0  0  0
    9.9711   44.0681   31.9740 H   0  0  0  0  0  0  0  0  0  0  0  0
    8.5385   45.1363   30.4023 H   0  0  0  0  0  0  0  0  0  0  0  0
    8.5552   46.1510   31.8742 H   0  0  0  0  0  0  0  0  0  0  0  0
    6.3020   45.0642   32.5333 H   0  0  0  0  0  0  0  0  0  0  0  0
    6.3297   44.1799   30.9678 H   0  0  0  0  0  0  0  0  0  0  0  0
    6.2465   46.2897   29.7217 H   0  0  0  0  0  0  0  0  0  0  0  0
    4.9235   46.2672   30.9264 H   0  0  0  0  0  0  0  0  0  0  0  0
    6.2825   47.7527   32.4210 H   0  0  0  0  0  0  0  0  0  0  0  0
    9.3225   50.3381   30.3165 H   0  0  0  0  0  0  0  0  0  0  0  0
    7.7695   51.0977   29.7667 H   0  0  0  0  0  0  0  0  0  0  0  0
    8.2215   50.8321   33.4017 H   0  0  0  0  0  0  0  0  0  0  0  0
    8.5554   52.7493   34.8850 H   0  0  0  0  0  0  0  0  0  0  0  0
    9.4269   55.2626   31.5363 H   0  0  0  0  0  0  0  0  0  0  0  0
    9.1388   54.9663   33.9590 H   0  0  0  0  0  0  0  0  0  0  0  0
    9.7472   40.0378   31.9304 H   0  0  0  0  0  0  0  0  0  0  0  0
   11.2242   41.0427   31.8935 H   0  0  0  0  0  0  0  0  0  0  0  0
   11.5927   39.0434   30.5965 H   0  0  0  0  0  0  0  0  0  0  0  0
   10.7003   37.5442   33.1640 H   0  0  0  0  0  0  0  0  0  0  0  0
   14.2052   37.4477   31.5560 H   0  0  0  0  0  0  0  0  0  0  0  0
    9.1374   37.6722   31.5905 H   0  0  0  0  0  0  0  0  0  0  0  0
   12.1305   35.7855   32.5585 H   0  0  0  0  0  0  0  0  0  0  0  0
   12.4607   37.0186   29.9673 H   0  0  0  0  0  0  0  0  0  0  0  0
   12.4327   38.4000   34.8694 H   0  0  0  0  0  0  0  0  0  0  0  0
   17.2666   34.4146   33.1690 H   0  0  0  0  0  0  0  0  0  0  0  0
   16.7634   35.0601   37.7894 H   0  0  0  0  0  0  0  0  0  0  0  0
   15.3754   36.1866   37.9788 H   0  0  0  0  0  0  0  0  0  0  0  0
  1  2  2  0
  1  3  1  0
  3  4  1  0
  4  5  1  0
  6  1  1  0
  7  6  1  0
  6  8  1  0
  8  9  1  0
  9 10  1  0
 10 11  1  0
 11 12  1  0
 12 13  1  0
 13 14  1  0
 13 15  2  0
 14 16  1  0
 16 17  1  0
 17 18  2  0
 19 17  1  0
 18 20  1  0
 21 19  2  0
 19 22  1  0
 20 23  2  0
 23 21  1  0
 22 24  1  0
 22 25  2  0
  4 26  2  0
  4 27  1  0
 28 27  1  0
 28 29  1  0
 29 30  1  0
 29 31  1  0
 30 32  1  0
 31 33  1  0
 31 34  1  0
 34 32  1  0
 32 35  1  0
 34 36  1  0
 37 35  1  0
 38 35  1  0
 39 37  2  0
 37 40  1  0
 41 38  2  0
 42 39  1  0
 40 43  2  0
 40 41  1  0
 44 42  2  0
 44 43  1  0
 43 45  1  0
  6 46  1  6
  7 47  1  0
  7 48  1  0
  8 49  1  0
  8 50  1  0
  9 51  1  0
  9 52  1  0
 10 53  1  0
 10 54  1  0
 11 55  1  0
 11 56  1  0
 12 57  1  0
 16 58  1  0
 16 59  1  0
 18 60  1  0
 20 61  1  0
 21 62  1  0
 23 63  1  0
 28 64  1  0
 28 65  1  0
 29 66  1  0
 31 67  1  0
 32 68  1  0
 33 69  1  0
 34 70  1  0
 36 71  1  0
 38 72  1  0
 42 73  1  0
 45 74  1  0
 45 75  1  0
M  CHG  3   5  -1  22   1  24  -1
M  END
>  <EmbedRMS>  (530) 
0.0757150626025

$$$$

     RDKit          3D

 75 78  0  0  0  0  0  0  0  0999 V2000
    9.4332   42.9370   34.3464 C   0  0  0  0  0  0  0  0  0  0  0  0
   10.4908   43.0335   35.0318 O   0  0  0  0  0  0  0  0  0  0  0  0
    8.8559   41.7107   34.0305 O   0  0  0  0  0  0  0  0  0  0  0  0
    9.4931   40.2145   34.4708 P   0  0  0  0  0  0  0  0  0  0  0  0
    9.7288   40.1731   36.1318 O   0  0  0  0  0  0  0  0  0  0  0  0
    8.7505   44.1354   33.7742 C   0  0  1  0  0  0  0  0  0  0  0  0
    9.2962   45.3827   34.3133 N   0  0  0  0  0  0  0  0  0  0  0  0
    8.8891   44.0535   32.2360 C   0  0  0  0  0  0  0  0  0  0  0  0
    8.2028   45.1836   31.4622 C   0  0  0  0  0  0  0  0  0  0  0  0
    6.6653   45.1045   31.4833 C   0  0  0  0  0  0  0  0  0  0  0  0
    6.0278   46.3225   30.8066 C   0  0  0  0  0  0  0  0  0  0  0  0
    6.5013   47.5635   31.4197 N   0  0  0  0  0  0  0  0  0  0  0  0
    7.2578   48.5357   30.6879 C   0  0  0  0  0  0  0  0  0  0  0  0
    7.6843   49.7290   31.2821 O   0  0  0  0  0  0  0  0  0  0  0  0
    7.5842   48.3109   29.4932 O   0  0  0  0  0  0  0  0  0  0  0  0
    7.4293   50.0772   32.6391 C   0  0  0  0  0  0  0  0  0  0  0  0
    8.1016   51.3882   32.9539 C   0  0  0  0  0  0  0  0  0  0  0  0
    7.3236   52.5604   32.9457 C   0  0  0  0  0  0  0  0  0  0  0  0
    9.4828   51.4727   33.2824 C   0  0  0  0  0  0  0  0  0  0  0  0
    7.8891   53.7930   33.2737 C   0  0  0  0  0  0  0  0  0  0  0  0
   10.0272   52.7237   33.6250 C   0  0  0  0  0  0  0  0  0  0  0  0
   10.3406   50.3158   33.2959 N   0  0  0  0  0  0  0  0  0  0  0  0
    9.2367   53.8737   33.6173 C   0  0  0  0  0  0  0  0  0  0  0  0
   11.4319   50.2803   34.1335 O   0  0  0  0  0  0  0  0  0  0  0  0
   10.2091   49.4107   32.4470 O   0  0  0  0  0  0  0  0  0  0  0  0
    8.5366   39.1387   34.0140 O   0  0  0  0  0  0  0  0  0  0  0  0
   10.9794   40.0875   33.6890 O   0  0  0  0  0  0  0  0  0  0  0  0
   10.8017   40.0947   32.2902 C   0  0  0  0  0  0  0  0  0  0  0  0
   11.5885   38.9266   31.7041 C   0  0  0  0  0  0  0  0  0  0  0  0
   12.9237   38.9445   32.1721 O   0  0  0  0  0  0  0  0  0  0  0  0
   11.0029   37.5726   32.0908 C   0  0  0  0  0  0  0  0  0  0  0  0
   13.3555   37.5960   32.2595 C   0  0  0  0  0  0  0  0  0  0  0  0
    9.9380   37.1846   31.2656 O   0  0  0  0  0  0  0  0  0  0  0  0
   12.1932   36.6769   31.8952 C   0  0  0  0  0  0  0  0  0  0  0  0
   13.8028   37.2977   33.6186 N   0  0  0  0  0  0  0  0  0  0  0  0
   12.2918   36.2396   30.5587 O   0  0  0  0  0  0  0  0  0  0  0  0
   14.7926   36.4727   33.9858 C   0  0  0  0  0  0  0  0  0  0  0  0
   13.2750   37.7302   34.7935 C   0  0  0  0  0  0  0  0  0  0  0  0
   15.6241   35.7586   33.1857 N   0  0  0  0  0  0  0  0  0  0  0  0
   14.8721   36.4408   35.3326 C   0  0  0  0  0  0  0  0  0  0  0  0
   13.9204   37.2263   35.8802 N   0  0  0  0  0  0  0  0  0  0  0  0
   16.5870   34.9924   33.7800 C   0  0  0  0  0  0  0  0  0  0  0  0
   15.8572   35.6717   35.9441 C   0  0  0  0  0  0  0  0  0  0  0  0
   16.7022   34.9585   35.1437 N   0  0  0  0  0  0  0  0  0  0  0  0
   16.0097   35.6384   37.3561 N   0  0  0  0  0  0  0  0  0  0  0  0
    7.6769   44.0714   34.0503 H   0  0  0  0  0  0  0  0  0  0  0  0
    9.1830   45.3828   35.3535 H   0  0  0  0  0  0  0  0  0  0  0  0
   10.3189   45.4420   34.0994 H   0  0  0  0  0  0  0  0  0  0  0  0
    8.4813   43.0860   31.8668 H   0  0  0  0  0  0  0  0  0  0  0  0
    9.9709   44.0689   31.9741 H   0  0  0  0  0  0  0  0  0  0  0  0
    8.5534   46.1523   31.8769 H   0  0  0  0  0  0  0  0  0  0  0  0
    8.5404   45.1395   30.4035 H   0  0  0  0  0  0  0  0  0  0  0  0
    6.2999   45.0636   32.5305 H   0  0  0  0  0  0  0  0  0  0  0  0
    6.3314   44.1798   30.9646 H   0  0  0  0  0  0  0  0  0  0  0  0
    4.9238   46.2646   30.9164 H   0  0  0  0  0  0  0  0  0  0  0  0
    6.2525   46.2910   29.7190 H   0  0  0  0  0  0  0  0  0  0  0  0
    6.2588   47.7287   32.4212 H   0  0  0  0  0  0  0  0  0  0  0  0
    6.3307   50.1560   32.7932 H   0  0  0  0  0  0  0  0  0  0  0  0
    7.8047   49.2870   33.3245 H   0  0  0  0  0  0  0  0  0  0  0  0
    6.2718   52.5206   32.6899 H   0  0  0  0  0  0  0  0  0  0  0  0
    7.2790   54.6870   33.2661 H   0  0  0  0  0  0  0  0  0  0  0  0
   11.0746   52.8130   33.8838 H   0  0  0  0  0  0  0  0  0  0  0  0
    9.6720   54.8307   33.8750 H   0  0  0  0  0  0  0  0  0  0  0  0
   11.2242   41.0427   31.8934 H   0  0  0  0  0  0  0  0  0  0  0  0
    9.7472   40.0378   31.9304 H   0  0  0  0  0  0  0  0  0  0  0  0
   11.5927   39.0434   30.5965 H   0  0  0  0  0  0  0  0  0  0  0  0
   10.7003   37.5442   33.1640 H   0  0  0  0  0  0  0  0  0  0  0  0
   14.2052   37.4477   31.5560 H   0  0  0  0  0  0  0  0  0  0  0  0
    9.1374   37.6722   31.5905 H   0  0  0  0  0  0  0  0  0  0  0  0
   12.1305   35.7855   32.5585 H   0  0  0  0  0  0  0  0  0  0  0  0
   12.4606   37.0186   29.9674 H   0  0  0  0  0  0  0  0  0  0  0  0
   12.4326   38.4000   34.8694 H   0  0  0  0  0  0  0  0  0  0  0  0
   17.2666   34.4146   33.1690 H   0  0  0  0  0  0  0  0  0  0  0  0
   15.3754   36.1866   37.9788 H   0  0  0  0  0  0  0  0  0  0  0  0
   16.7633   35.0601   37.7894 H   0  0  0  0  0  0  0  0  0  0  0  0
  1  2  2  0
  1  3  1  0
  3  4  1  0
  4  5  1  0
  6  1  1  0
  7  6  1  0
  6  8  1  0
  8  9  1  0
  9 10  1  0
 10 11  1  0
 11 12  1  0
 12 13  1  0
 13 14  1  0
 13 15  2  0
 14 16  1  0
 16 17  1  0
 17 18  2  0
 19 17  1  0
 18 20  1  0
 21 19  2  0
 19 22  1  0
 20 23  2  0
 23 21  1  0
 22 24  1  0
 22 25  2  0
  4 26  2  0
  4 27  1  0
 28 27  1  0
 28 29  1  0
 29 30  1  0
 29 31  1  0
 30 32  1  0
 31 33  1  0
 31 34  1  0
 34 32  1  0
 32 35  1  0
 34 36  1  0
 37 35  1  0
 38 35  1  0
 39 37  2  0
 37 40  1  0
 41 38  2  0
 42 39  1  0
 40 43  2  0
 40 41  1  0
 44 42  2  0
 44 43  1  0
 43 45  1  0
  6 46  1  6
  7 47  1  0
  7 48  1  0
  8 49  1  0
  8 50  1  0
  9 51  1  0
  9 52  1  0
 10 53  1  0
 10 54  1  0
 11 55  1  0
 11 56  1  0
 12 57  1  0
 16 58  1  0
 16 59  1  0
 18 60  1  0
 20 61  1  0
 21 62  1  0
 23 63  1  0
 28 64  1  0
 28 65  1  0
 29 66  1  0
 31 67  1  0
 32 68  1  0
 33 69  1  0
 34 70  1  0
 36 71  1  0
 38 72  1  0
 42 73  1  0
 45 74  1  0
 45 75  1  0
M  CHG  3   5  -1  22   1  24  -1
M  END
>  <EmbedRMS>  (531) 
0.0760537830204

$$$$

     RDKit          3D

 75 78  0  0  0  0  0  0  0  0999 V2000
    9.4299   42.9395   34.3434 C   0  0  0  0  0  0  0  0  0  0  0  0
   10.4912   43.0381   35.0235 O   0  0  0  0  0  0  0  0  0  0  0  0
    8.8550   41.7116   34.0282 O   0  0  0  0  0  0  0  0  0  0  0  0
    9.4942   40.2154   34.4674 P   0  0  0  0  0  0  0  0  0  0  0  0
    9.7309   40.1738   36.1286 O   0  0  0  0  0  0  0  0  0  0  0  0
    8.7411   44.1379   33.7787 C   0  0  1  0  0  0  0  0  0  0  0  0
    9.3014   45.3720   34.3326 N   0  0  0  0  0  0  0  0  0  0  0  0
    8.8962   44.0594   32.2400 C   0  0  0  0  0  0  0  0  0  0  0  0
    8.2029   45.1691   31.4403 C   0  0  0  0  0  0  0  0  0  0  0  0
    6.6654   45.1057   31.4886 C   0  0  0  0  0  0  0  0  0  0  0  0
    6.0287   46.3228   30.8102 C   0  0  0  0  0  0  0  0  0  0  0  0
    6.5058   47.5634   31.4215 N   0  0  0  0  0  0  0  0  0  0  0  0
    7.2500   48.5405   30.6838 C   0  0  0  0  0  0  0  0  0  0  0  0
    7.6413   49.7531   31.2635 O   0  0  0  0  0  0  0  0  0  0  0  0
    7.5876   48.3085   29.4937 O   0  0  0  0  0  0  0  0  0  0  0  0
    7.3546   50.1204   32.6089 C   0  0  0  0  0  0  0  0  0  0  0  0
    7.9205   51.4887   32.8854 C   0  0  0  0  0  0  0  0  0  0  0  0
    9.1759   51.5811   33.5137 C   0  0  0  0  0  0  0  0  0  0  0  0
    7.2182   52.6793   32.5577 C   0  0  0  0  0  0  0  0  0  0  0  0
    9.7222   52.8243   33.8344 C   0  0  0  0  0  0  0  0  0  0  0  0
    7.7808   53.9219   32.9045 C   0  0  0  0  0  0  0  0  0  0  0  0
    5.9426   52.6504   31.8910 N   0  0  0  0  0  0  0  0  0  0  0  0
    9.0236   53.9922   33.5353 C   0  0  0  0  0  0  0  0  0  0  0  0
    5.6986   51.7504   30.8800 O   0  0  0  0  0  0  0  0  0  0  0  0
    5.1032   53.5489   32.1078 O   0  0  0  0  0  0  0  0  0  0  0  0
    8.5375   39.1390   34.0122 O   0  0  0  0  0  0  0  0  0  0  0  0
   10.9797   40.0879   33.6827 O   0  0  0  0  0  0  0  0  0  0  0  0
   10.8002   40.0907   32.2830 C   0  0  0  0  0  0  0  0  0  0  0  0
   11.5958   38.9271   31.6963 C   0  0  0  0  0  0  0  0  0  0  0  0
   12.9239   38.9409   32.1767 O   0  0  0  0  0  0  0  0  0  0  0  0
   11.0062   37.5719   32.0794 C   0  0  0  0  0  0  0  0  0  0  0  0
   13.3506   37.5905   32.2614 C   0  0  0  0  0  0  0  0  0  0  0  0
    9.9064   37.1793   31.2946 O   0  0  0  0  0  0  0  0  0  0  0  0
   12.1920   36.6672   31.9003 C   0  0  0  0  0  0  0  0  0  0  0  0
   13.8017   37.2948   33.6193 N   0  0  0  0  0  0  0  0  0  0  0  0
   12.3133   36.2788   30.5561 O   0  0  0  0  0  0  0  0  0  0  0  0
   14.7927   36.4717   33.9862 C   0  0  0  0  0  0  0  0  0  0  0  0
   13.2746   37.7284   34.7941 C   0  0  0  0  0  0  0  0  0  0  0  0
   15.6240   35.7576   33.1859 N   0  0  0  0  0  0  0  0  0  0  0  0
   14.8728   36.4406   35.3330 C   0  0  0  0  0  0  0  0  0  0  0  0
   13.9209   37.2258   35.8808 N   0  0  0  0  0  0  0  0  0  0  0  0
   16.5874   34.9920   33.7802 C   0  0  0  0  0  0  0  0  0  0  0  0
   15.8579   35.6716   35.9443 C   0  0  0  0  0  0  0  0  0  0  0  0
   16.7028   34.9584   35.1439 N   0  0  0  0  0  0  0  0  0  0  0  0
   16.0103   35.6383   37.3563 N   0  0  0  0  0  0  0  0  0  0  0  0
    7.6666   44.0655   34.0546 H   0  0  0  0  0  0  0  0  0  0  0  0
    8.6807   46.1672   34.0591 H   0  0  0  0  0  0  0  0  0  0  0  0
    9.2335   45.3275   35.3760 H   0  0  0  0  0  0  0  0  0  0  0  0
    9.9809   44.0908   31.9917 H   0  0  0  0  0  0  0  0  0  0  0  0
    8.5082   43.0842   31.8695 H   0  0  0  0  0  0  0  0  0  0  0  0
    8.5758   46.1517   31.7936 H   0  0  0  0  0  0  0  0  0  0  0  0
    8.5175   45.0771   30.3776 H   0  0  0  0  0  0  0  0  0  0  0  0
    6.3166   45.0810   32.5417 H   0  0  0  0  0  0  0  0  0  0  0  0
    6.3140   44.1782   30.9868 H   0  0  0  0  0  0  0  0  0  0  0  0
    4.9250   46.2670   30.9236 H   0  0  0  0  0  0  0  0  0  0  0  0
    6.2507   46.2896   29.7220 H   0  0  0  0  0  0  0  0  0  0  0  0
    6.2748   47.7254   32.4264 H   0  0  0  0  0  0  0  0  0  0  0  0
    7.8077   49.3719   33.2959 H   0  0  0  0  0  0  0  0  0  0  0  0
    6.2583   50.1152   32.7904 H   0  0  0  0  0  0  0  0  0  0  0  0
    9.7326   50.6860   33.7634 H   0  0  0  0  0  0  0  0  0  0  0  0
   10.6875   52.8817   34.3206 H   0  0  0  0  0  0  0  0  0  0  0  0
    7.2618   54.8426   32.6693 H   0  0  0  0  0  0  0  0  0  0  0  0
    9.4480   54.9553   33.7883 H   0  0  0  0  0  0  0  0  0  0  0  0
   11.2115   41.0420   31.8828 H   0  0  0  0  0  0  0  0  0  0  0  0
    9.7454   40.0168   31.9261 H   0  0  0  0  0  0  0  0  0  0  0  0
   11.6246   39.0448   30.5888 H   0  0  0  0  0  0  0  0  0  0  0  0
   10.7050   37.5581   33.1500 H   0  0  0  0  0  0  0  0  0  0  0  0
   14.1985   37.4426   31.5553 H   0  0  0  0  0  0  0  0  0  0  0  0
   10.0893   37.4057   30.3459 H   0  0  0  0  0  0  0  0  0  0  0  0
   12.1337   35.7754   32.5703 H   0  0  0  0  0  0  0  0  0  0  0  0
   11.7934   35.4394   30.4514 H   0  0  0  0  0  0  0  0  0  0  0  0
   12.4314   38.3973   34.8699 H   0  0  0  0  0  0  0  0  0  0  0  0
   17.2669   34.4141   33.1692 H   0  0  0  0  0  0  0  0  0  0  0  0
   15.3759   36.1865   37.9790 H   0  0  0  0  0  0  0  0  0  0  0  0
   16.7638   35.0599   37.7896 H   0  0  0  0  0  0  0  0  0  0  0  0
  1  2  2  0
  1  3  1  0
  3  4  1  0
  4  5  1  0
  6  1  1  0
  7  6  1  0
  6  8  1  0
  8  9  1  0
  9 10  1  0
 10 11  1  0
 11 12  1  0
 12 13  1  0
 13 14  1  0
 13 15  2  0
 14 16  1  0
 16 17  1  0
 17 18  2  0
 19 17  1  0
 18 20  1  0
 21 19  2  0
 19 22  1  0
 20 23  2  0
 23 21  1  0
 22 24  1  0
 22 25  2  0
  4 26  2  0
  4 27  1  0
 28 27  1  0
 28 29  1  0
 29 30  1  0
 29 31  1  0
 30 32  1  0
 31 33  1  0
 31 34  1  0
 34 32  1  0
 32 35  1  0
 34 36  1  0
 37 35  1  0
 38 35  1  0
 39 37  2  0
 37 40  1  0
 41 38  2  0
 42 39  1  0
 40 43  2  0
 40 41  1  0
 44 42  2  0
 44 43  1  0
 43 45  1  0
  6 46  1  6
  7 47  1  0
  7 48  1  0
  8 49  1  0
  8 50  1  0
  9 51  1  0
  9 52  1  0
 10 53  1  0
 10 54  1  0
 11 55  1  0
 11 56  1  0
 12 57  1  0
 16 58  1  0
 16 59  1  0
 18 60  1  0
 20 61  1  0
 21 62  1  0
 23 63  1  0
 28 64  1  0
 28 65  1  0
 29 66  1  0
 31 67  1  0
 32 68  1  0
 33 69  1  0
 34 70  1  0
 36 71  1  0
 38 72  1  0
 42 73  1  0
 45 74  1  0
 45 75  1  0
M  CHG  3   5  -1  22   1  24  -1
M  END
>  <EmbedRMS>  (532) 
0.0742106816668

$$$$

     RDKit          3D

 75 78  0  0  0  0  0  0  0  0999 V2000
    9.4311   42.9415   34.3436 C   0  0  0  0  0  0  0  0  0  0  0  0
   10.4885   43.0412   35.0292 O   0  0  0  0  0  0  0  0  0  0  0  0
    8.8558   41.7132   34.0290 O   0  0  0  0  0  0  0  0  0  0  0  0
    9.4945   40.2165   34.4675 P   0  0  0  0  0  0  0  0  0  0  0  0
    9.7318   40.1741   36.1285 O   0  0  0  0  0  0  0  0  0  0  0  0
    8.7485   44.1368   33.7721 C   0  0  1  0  0  0  0  0  0  0  0  0
    9.3043   45.3673   34.3387 N   0  0  0  0  0  0  0  0  0  0  0  0
    8.8891   44.0529   32.2308 C   0  0  0  0  0  0  0  0  0  0  0  0
    8.2009   45.1735   31.4440 C   0  0  0  0  0  0  0  0  0  0  0  0
    6.6636   45.1067   31.4880 C   0  0  0  0  0  0  0  0  0  0  0  0
    6.0247   46.3225   30.8098 C   0  0  0  0  0  0  0  0  0  0  0  0
    6.5026   47.5643   31.4169 N   0  0  0  0  0  0  0  0  0  0  0  0
    7.2572   48.5312   30.6895 C   0  0  0  0  0  0  0  0  0  0  0  0
    7.6680   49.6982   31.3373 O   0  0  0  0  0  0  0  0  0  0  0  0
    7.5877   48.3147   29.4921 O   0  0  0  0  0  0  0  0  0  0  0  0
    8.4969   50.6754   30.7160 C   0  0  0  0  0  0  0  0  0  0  0  0
    8.8943   51.7190   31.7297 C   0  0  0  0  0  0  0  0  0  0  0  0
    8.5617   53.0634   31.4797 C   0  0  0  0  0  0  0  0  0  0  0  0
    9.5553   51.3818   32.9441 C   0  0  0  0  0  0  0  0  0  0  0  0
    8.8634   54.0575   32.4110 C   0  0  0  0  0  0  0  0  0  0  0  0
    9.8347   52.3988   33.8746 C   0  0  0  0  0  0  0  0  0  0  0  0
    9.9269   50.0278   33.2658 N   0  0  0  0  0  0  0  0  0  0  0  0
    9.4950   53.7254   33.6074 C   0  0  0  0  0  0  0  0  0  0  0  0
    9.9819   49.6251   34.5804 O   0  0  0  0  0  0  0  0  0  0  0  0
   10.3531   49.2534   32.3850 O   0  0  0  0  0  0  0  0  0  0  0  0
    8.5374   39.1403   34.0124 O   0  0  0  0  0  0  0  0  0  0  0  0
   10.9796   40.0898   33.6814 O   0  0  0  0  0  0  0  0  0  0  0  0
   10.7982   40.0851   32.2818 C   0  0  0  0  0  0  0  0  0  0  0  0
   11.5886   38.9143   31.7009 C   0  0  0  0  0  0  0  0  0  0  0  0
   12.9213   38.9368   32.1699 O   0  0  0  0  0  0  0  0  0  0  0  0
   11.0047   37.5661   32.0991 C   0  0  0  0  0  0  0  0  0  0  0  0
   13.3510   37.5885   32.2602 C   0  0  0  0  0  0  0  0  0  0  0  0
    9.9296   37.1962   31.2780 O   0  0  0  0  0  0  0  0  0  0  0  0
   12.1923   36.6659   31.9047 C   0  0  0  0  0  0  0  0  0  0  0  0
   13.8033   37.2967   33.6188 N   0  0  0  0  0  0  0  0  0  0  0  0
   12.3006   36.2865   30.5562 O   0  0  0  0  0  0  0  0  0  0  0  0
   14.7933   36.4724   33.9860 C   0  0  0  0  0  0  0  0  0  0  0  0
   13.2753   37.7296   34.7935 C   0  0  0  0  0  0  0  0  0  0  0  0
   15.6243   35.7579   33.1860 N   0  0  0  0  0  0  0  0  0  0  0  0
   14.8728   36.4410   35.3328 C   0  0  0  0  0  0  0  0  0  0  0  0
   13.9209   37.2263   35.8804 N   0  0  0  0  0  0  0  0  0  0  0  0
   16.5873   34.9919   33.7803 C   0  0  0  0  0  0  0  0  0  0  0  0
   15.8577   35.6717   35.9443 C   0  0  0  0  0  0  0  0  0  0  0  0
   16.7025   34.9583   35.1440 N   0  0  0  0  0  0  0  0  0  0  0  0
   16.0100   35.6384   37.3563 N   0  0  0  0  0  0  0  0  0  0  0  0
    7.6765   44.0646   34.0548 H   0  0  0  0  0  0  0  0  0  0  0  0
    8.6474   46.1571   34.1437 H   0  0  0  0  0  0  0  0  0  0  0  0
   10.2153   45.5892   33.8743 H   0  0  0  0  0  0  0  0  0  0  0  0
    9.9706   44.0657   31.9678 H   0  0  0  0  0  0  0  0  0  0  0  0
    8.4830   43.0829   31.8665 H   0  0  0  0  0  0  0  0  0  0  0  0
    8.5697   46.1502   31.8189 H   0  0  0  0  0  0  0  0  0  0  0  0
    8.5201   45.0984   30.3813 H   0  0  0  0  0  0  0  0  0  0  0  0
    6.3129   45.0789   32.5405 H   0  0  0  0  0  0  0  0  0  0  0  0
    6.3154   44.1794   30.9835 H   0  0  0  0  0  0  0  0  0  0  0  0
    4.9213   46.2667   30.9252 H   0  0  0  0  0  0  0  0  0  0  0  0
    6.2453   46.2887   29.7212 H   0  0  0  0  0  0  0  0  0  0  0  0
    6.2844   47.7495   32.4218 H   0  0  0  0  0  0  0  0  0  0  0  0
    7.9418   51.1286   29.8656 H   0  0  0  0  0  0  0  0  0  0  0  0
    9.4092   50.2002   30.2974 H   0  0  0  0  0  0  0  0  0  0  0  0
    8.0586   53.3460   30.5630 H   0  0  0  0  0  0  0  0  0  0  0  0
    8.6007   55.0875   32.2068 H   0  0  0  0  0  0  0  0  0  0  0  0
   10.3329   52.1658   34.8071 H   0  0  0  0  0  0  0  0  0  0  0  0
    9.7240   54.4983   34.3298 H   0  0  0  0  0  0  0  0  0  0  0  0
   11.2130   41.0321   31.8751 H   0  0  0  0  0  0  0  0  0  0  0  0
    9.7426   40.0141   31.9266 H   0  0  0  0  0  0  0  0  0  0  0  0
   11.5980   39.0108   30.5905 H   0  0  0  0  0  0  0  0  0  0  0  0
   10.7008   37.5604   33.1721 H   0  0  0  0  0  0  0  0  0  0  0  0
   14.1976   37.4380   31.5532 H   0  0  0  0  0  0  0  0  0  0  0  0
    9.5180   36.3962   31.6978 H   0  0  0  0  0  0  0  0  0  0  0  0
   12.1418   35.7698   32.5692 H   0  0  0  0  0  0  0  0  0  0  0  0
   11.7729   35.4524   30.4489 H   0  0  0  0  0  0  0  0  0  0  0  0
   12.4321   38.3985   34.8692 H   0  0  0  0  0  0  0  0  0  0  0  0
   17.2667   34.4138   33.1694 H   0  0  0  0  0  0  0  0  0  0  0  0
   15.3757   36.1867   37.9790 H   0  0  0  0  0  0  0  0  0  0  0  0
   16.7634   35.0598   37.7897 H   0  0  0  0  0  0  0  0  0  0  0  0
  1  2  2  0
  1  3  1  0
  3  4  1  0
  4  5  1  0
  6  1  1  0
  7  6  1  0
  6  8  1  0
  8  9  1  0
  9 10  1  0
 10 11  1  0
 11 12  1  0
 12 13  1  0
 13 14  1  0
 13 15  2  0
 14 16  1  0
 16 17  1  0
 17 18  2  0
 19 17  1  0
 18 20  1  0
 21 19  2  0
 19 22  1  0
 20 23  2  0
 23 21  1  0
 22 24  1  0
 22 25  2  0
  4 26  2  0
  4 27  1  0
 28 27  1  0
 28 29  1  0
 29 30  1  0
 29 31  1  0
 30 32  1  0
 31 33  1  0
 31 34  1  0
 34 32  1  0
 32 35  1  0
 34 36  1  0
 37 35  1  0
 38 35  1  0
 39 37  2  0
 37 40  1  0
 41 38  2  0
 42 39  1  0
 40 43  2  0
 40 41  1  0
 44 42  2  0
 44 43  1  0
 43 45  1  0
  6 46  1  6
  7 47  1  0
  7 48  1  0
  8 49  1  0
  8 50  1  0
  9 51  1  0
  9 52  1  0
 10 53  1  0
 10 54  1  0
 11 55  1  0
 11 56  1  0
 12 57  1  0
 16 58  1  0
 16 59  1  0
 18 60  1  0
 20 61  1  0
 21 62  1  0
 23 63  1  0
 28 64  1  0
 28 65  1  0
 29 66  1  0
 31 67  1  0
 32 68  1  0
 33 69  1  0
 34 70  1  0
 36 71  1  0
 38 72  1  0
 42 73  1  0
 45 74  1  0
 45 75  1  0
M  CHG  3   5  -1  22   1  24  -1
M  END
>  <EmbedRMS>  (533) 
0.0739300656822

$$$$

     RDKit          3D

 75 78  0  0  0  0  0  0  0  0999 V2000
    9.4336   42.9379   34.3446 C   0  0  0  0  0  0  0  0  0  0  0  0
   10.4908   43.0338   35.0309 O   0  0  0  0  0  0  0  0  0  0  0  0
    8.8560   41.7117   34.0287 O   0  0  0  0  0  0  0  0  0  0  0  0
    9.4940   40.2151   34.4673 P   0  0  0  0  0  0  0  0  0  0  0  0
    9.7314   40.1732   36.1283 O   0  0  0  0  0  0  0  0  0  0  0  0
    8.7516   44.1374   33.7729 C   0  0  1  0  0  0  0  0  0  0  0  0
    9.2972   45.3840   34.3138 N   0  0  0  0  0  0  0  0  0  0  0  0
    8.8911   44.0595   32.2345 C   0  0  0  0  0  0  0  0  0  0  0  0
    8.2018   45.1906   31.4631 C   0  0  0  0  0  0  0  0  0  0  0  0
    6.6637   45.1083   31.4850 C   0  0  0  0  0  0  0  0  0  0  0  0
    6.0174   46.3205   30.8032 C   0  0  0  0  0  0  0  0  0  0  0  0
    6.4792   47.5684   31.4098 N   0  0  0  0  0  0  0  0  0  0  0  0
    7.2929   48.5030   30.7058 C   0  0  0  0  0  0  0  0  0  0  0  0
    7.8687   49.5623   31.4114 O   0  0  0  0  0  0  0  0  0  0  0  0
    7.5799   48.3153   29.4926 O   0  0  0  0  0  0  0  0  0  0  0  0
    9.1359   50.1168   31.0668 C   0  0  0  0  0  0  0  0  0  0  0  0
   10.2218   49.0841   31.2709 C   0  0  0  0  0  0  0  0  0  0  0  0
   10.7462   48.4308   30.1402 C   0  0  0  0  0  0  0  0  0  0  0  0
   10.7104   48.7377   32.5604 C   0  0  0  0  0  0  0  0  0  0  0  0
   11.7297   47.4506   30.2743 C   0  0  0  0  0  0  0  0  0  0  0  0
   11.7152   47.7582   32.6696 C   0  0  0  0  0  0  0  0  0  0  0  0
   10.2257   49.3733   33.7583 N   0  0  0  0  0  0  0  0  0  0  0  0
   12.2131   47.1148   31.5365 C   0  0  0  0  0  0  0  0  0  0  0  0
    8.8897   49.6562   33.9172 O   0  0  0  0  0  0  0  0  0  0  0  0
   10.9879   49.5252   34.7355 O   0  0  0  0  0  0  0  0  0  0  0  0
    8.5369   39.1390   34.0122 O   0  0  0  0  0  0  0  0  0  0  0  0
   10.9791   40.0889   33.6813 O   0  0  0  0  0  0  0  0  0  0  0  0
   10.7978   40.0844   32.2816 C   0  0  0  0  0  0  0  0  0  0  0  0
   11.5898   38.9147   31.7008 C   0  0  0  0  0  0  0  0  0  0  0  0
   12.9218   38.9385   32.1717 O   0  0  0  0  0  0  0  0  0  0  0  0
   11.0070   37.5655   32.0975 C   0  0  0  0  0  0  0  0  0  0  0  0
   13.3533   37.5910   32.2610 C   0  0  0  0  0  0  0  0  0  0  0  0
    9.9333   37.1935   31.2754 O   0  0  0  0  0  0  0  0  0  0  0  0
   12.1945   36.6672   31.9040 C   0  0  0  0  0  0  0  0  0  0  0  0
   13.8036   37.2970   33.6193 N   0  0  0  0  0  0  0  0  0  0  0  0
   12.2893   36.2849   30.5563 O   0  0  0  0  0  0  0  0  0  0  0  0
   14.7931   36.4723   33.9863 C   0  0  0  0  0  0  0  0  0  0  0  0
   13.2756   37.7298   34.7940 C   0  0  0  0  0  0  0  0  0  0  0  0
   15.6242   35.7580   33.1861 N   0  0  0  0  0  0  0  0  0  0  0  0
   14.8727   36.4407   35.3331 C   0  0  0  0  0  0  0  0  0  0  0  0
   13.9210   37.2262   35.8808 N   0  0  0  0  0  0  0  0  0  0  0  0
   16.5872   34.9920   33.7803 C   0  0  0  0  0  0  0  0  0  0  0  0
   15.8577   35.6715   35.9444 C   0  0  0  0  0  0  0  0  0  0  0  0
   16.7025   34.9582   35.1440 N   0  0  0  0  0  0  0  0  0  0  0  0
   16.0101   35.6382   37.3564 N   0  0  0  0  0  0  0  0  0  0  0  0
    7.6777   44.0734   34.0481 H   0  0  0  0  0  0  0  0  0  0  0  0
    9.1814   45.3841   35.3537 H   0  0  0  0  0  0  0  0  0  0  0  0
   10.3205   45.4412   34.1030 H   0  0  0  0  0  0  0  0  0  0  0  0
    9.9731   44.0800   31.9735 H   0  0  0  0  0  0  0  0  0  0  0  0
    8.4867   43.0917   31.8626 H   0  0  0  0  0  0  0  0  0  0  0  0
    8.5399   45.1509   30.4045 H   0  0  0  0  0  0  0  0  0  0  0  0
    8.5499   46.1594   31.8801 H   0  0  0  0  0  0  0  0  0  0  0  0
    6.2997   45.0704   32.5326 H   0  0  0  0  0  0  0  0  0  0  0  0
    6.3328   44.1799   30.9711 H   0  0  0  0  0  0  0  0  0  0  0  0
    6.2443   46.2874   29.7159 H   0  0  0  0  0  0  0  0  0  0  0  0
    4.9137   46.2547   30.9111 H   0  0  0  0  0  0  0  0  0  0  0  0
    6.2636   47.7482   32.4163 H   0  0  0  0  0  0  0  0  0  0  0  0
    9.3372   51.0066   31.6991 H   0  0  0  0  0  0  0  0  0  0  0  0
    9.1089   50.4742   30.0138 H   0  0  0  0  0  0  0  0  0  0  0  0
   10.3859   48.6738   29.1482 H   0  0  0  0  0  0  0  0  0  0  0  0
   12.1182   46.9506   29.3965 H   0  0  0  0  0  0  0  0  0  0  0  0
   12.1025   47.4775   33.6409 H   0  0  0  0  0  0  0  0  0  0  0  0
   12.9763   46.3540   31.6380 H   0  0  0  0  0  0  0  0  0  0  0  0
   11.2114   41.0321   31.8753 H   0  0  0  0  0  0  0  0  0  0  0  0
    9.7424   40.0120   31.9264 H   0  0  0  0  0  0  0  0  0  0  0  0
   11.6005   39.0120   30.5904 H   0  0  0  0  0  0  0  0  0  0  0  0
   10.7015   37.5594   33.1701 H   0  0  0  0  0  0  0  0  0  0  0  0
   14.2012   37.4438   31.5551 H   0  0  0  0  0  0  0  0  0  0  0  0
    9.5289   36.3870   31.6895 H   0  0  0  0  0  0  0  0  0  0  0  0
   12.1243   35.7694   32.5633 H   0  0  0  0  0  0  0  0  0  0  0  0
   12.9478   35.5427   30.5202 H   0  0  0  0  0  0  0  0  0  0  0  0
   12.4328   38.3994   34.8697 H   0  0  0  0  0  0  0  0  0  0  0  0
   17.2666   34.4140   33.1692 H   0  0  0  0  0  0  0  0  0  0  0  0
   16.7637   35.0597   37.7897 H   0  0  0  0  0  0  0  0  0  0  0  0
   15.3759   36.1865   37.9791 H   0  0  0  0  0  0  0  0  0  0  0  0
  1  2  2  0
  1  3  1  0
  3  4  1  0
  4  5  1  0
  6  1  1  0
  7  6  1  0
  6  8  1  0
  8  9  1  0
  9 10  1  0
 10 11  1  0
 11 12  1  0
 12 13  1  0
 13 14  1  0
 13 15  2  0
 14 16  1  0
 16 17  1  0
 17 18  2  0
 19 17  1  0
 18 20  1  0
 21 19  2  0
 19 22  1  0
 20 23  2  0
 23 21  1  0
 22 24  1  0
 22 25  2  0
  4 26  2  0
  4 27  1  0
 28 27  1  0
 28 29  1  0
 29 30  1  0
 29 31  1  0
 30 32  1  0
 31 33  1  0
 31 34  1  0
 34 32  1  0
 32 35  1  0
 34 36  1  0
 37 35  1  0
 38 35  1  0
 39 37  2  0
 37 40  1  0
 41 38  2  0
 42 39  1  0
 40 43  2  0
 40 41  1  0
 44 42  2  0
 44 43  1  0
 43 45  1  0
  6 46  1  6
  7 47  1  0
  7 48  1  0
  8 49  1  0
  8 50  1  0
  9 51  1  0
  9 52  1  0
 10 53  1  0
 10 54  1  0
 11 55  1  0
 11 56  1  0
 12 57  1  0
 16 58  1  0
 16 59  1  0
 18 60  1  0
 20 61  1  0
 21 62  1  0
 23 63  1  0
 28 64  1  0
 28 65  1  0
 29 66  1  0
 31 67  1  0
 32 68  1  0
 33 69  1  0
 34 70  1  0
 36 71  1  0
 38 72  1  0
 42 73  1  0
 45 74  1  0
 45 75  1  0
M  CHG  3   5  -1  22   1  24  -1
M  END
>  <EmbedRMS>  (534) 
0.0765868981938

$$$$

     RDKit          3D

 75 78  0  0  0  0  0  0  0  0999 V2000
    9.4311   42.9411   34.3438 C   0  0  0  0  0  0  0  0  0  0  0  0
   10.4885   43.0409   35.0293 O   0  0  0  0  0  0  0  0  0  0  0  0
    8.8558   41.7128   34.0292 O   0  0  0  0  0  0  0  0  0  0  0  0
    9.4946   40.2162   34.4676 P   0  0  0  0  0  0  0  0  0  0  0  0
    9.7319   40.1739   36.1286 O   0  0  0  0  0  0  0  0  0  0  0  0
    8.7483   44.1360   33.7721 C   0  0  1  0  0  0  0  0  0  0  0  0
    9.3039   45.3664   34.3388 N   0  0  0  0  0  0  0  0  0  0  0  0
    8.8892   44.0518   32.2308 C   0  0  0  0  0  0  0  0  0  0  0  0
    8.2015   45.1721   31.4435 C   0  0  0  0  0  0  0  0  0  0  0  0
    6.6642   45.1066   31.4886 C   0  0  0  0  0  0  0  0  0  0  0  0
    6.0267   46.3237   30.8123 C   0  0  0  0  0  0  0  0  0  0  0  0
    6.5083   47.5645   31.4190 N   0  0  0  0  0  0  0  0  0  0  0  0
    7.2421   48.5406   30.6825 C   0  0  0  0  0  0  0  0  0  0  0  0
    7.5845   49.7469   31.3027 O   0  0  0  0  0  0  0  0  0  0  0  0
    7.5940   48.3105   29.4938 O   0  0  0  0  0  0  0  0  0  0  0  0
    8.2913   50.7942   30.6404 C   0  0  0  0  0  0  0  0  0  0  0  0
    7.4275   51.4394   29.5808 C   0  0  0  0  0  0  0  0  0  0  0  0
    7.9023   51.4756   28.2566 C   0  0  0  0  0  0  0  0  0  0  0  0
    6.1384   51.9634   29.8698 C   0  0  0  0  0  0  0  0  0  0  0  0
    7.1182   52.0073   27.2323 C   0  0  0  0  0  0  0  0  0  0  0  0
    5.3590   52.4810   28.8186 C   0  0  0  0  0  0  0  0  0  0  0  0
    5.5979   51.9613   31.2041 N   0  0  0  0  0  0  0  0  0  0  0  0
    5.8477   52.5053   27.5119 C   0  0  0  0  0  0  0  0  0  0  0  0
    6.3936   52.2582   32.2858 O   0  0  0  0  0  0  0  0  0  0  0  0
    4.3671   51.8472   31.3797 O   0  0  0  0  0  0  0  0  0  0  0  0
    8.5375   39.1400   34.0125 O   0  0  0  0  0  0  0  0  0  0  0  0
   10.9796   40.0897   33.6814 O   0  0  0  0  0  0  0  0  0  0  0  0
   10.7982   40.0850   32.2818 C   0  0  0  0  0  0  0  0  0  0  0  0
   11.5886   38.9143   31.7009 C   0  0  0  0  0  0  0  0  0  0  0  0
   12.9214   38.9368   32.1699 O   0  0  0  0  0  0  0  0  0  0  0  0
   11.0047   37.5661   32.0991 C   0  0  0  0  0  0  0  0  0  0  0  0
   13.3510   37.5885   32.2602 C   0  0  0  0  0  0  0  0  0  0  0  0
    9.9296   37.1962   31.2780 O   0  0  0  0  0  0  0  0  0  0  0  0
   12.1923   36.6659   31.9047 C   0  0  0  0  0  0  0  0  0  0  0  0
   13.8033   37.2967   33.6188 N   0  0  0  0  0  0  0  0  0  0  0  0
   12.3006   36.2865   30.5562 O   0  0  0  0  0  0  0  0  0  0  0  0
   14.7933   36.4724   33.9860 C   0  0  0  0  0  0  0  0  0  0  0  0
   13.2753   37.7296   34.7935 C   0  0  0  0  0  0  0  0  0  0  0  0
   15.6243   35.7579   33.1860 N   0  0  0  0  0  0  0  0  0  0  0  0
   14.8728   36.4410   35.3328 C   0  0  0  0  0  0  0  0  0  0  0  0
   13.9209   37.2263   35.8804 N   0  0  0  0  0  0  0  0  0  0  0  0
   16.5873   34.9919   33.7803 C   0  0  0  0  0  0  0  0  0  0  0  0
   15.8577   35.6717   35.9443 C   0  0  0  0  0  0  0  0  0  0  0  0
   16.7025   34.9583   35.1440 N   0  0  0  0  0  0  0  0  0  0  0  0
   16.0100   35.6384   37.3563 N   0  0  0  0  0  0  0  0  0  0  0  0
    7.6763   44.0635   34.0547 H   0  0  0  0  0  0  0  0  0  0  0  0
   10.2153   45.5878   33.8748 H   0  0  0  0  0  0  0  0  0  0  0  0
    8.6469   46.1559   34.1431 H   0  0  0  0  0  0  0  0  0  0  0  0
    9.9708   44.0642   31.9679 H   0  0  0  0  0  0  0  0  0  0  0  0
    8.4830   43.0818   31.8667 H   0  0  0  0  0  0  0  0  0  0  0  0
    8.5714   46.1487   31.8173 H   0  0  0  0  0  0  0  0  0  0  0  0
    8.5198   45.0958   30.3807 H   0  0  0  0  0  0  0  0  0  0  0  0
    6.3147   44.1801   30.9835 H   0  0  0  0  0  0  0  0  0  0  0  0
    6.3141   45.0783   32.5413 H   0  0  0  0  0  0  0  0  0  0  0  0
    6.2448   46.2897   29.7232 H   0  0  0  0  0  0  0  0  0  0  0  0
    4.9234   46.2700   30.9300 H   0  0  0  0  0  0  0  0  0  0  0  0
    6.2848   47.7545   32.4218 H   0  0  0  0  0  0  0  0  0  0  0  0
    8.5943   51.5587   31.3841 H   0  0  0  0  0  0  0  0  0  0  0  0
    9.2327   50.3855   30.2115 H   0  0  0  0  0  0  0  0  0  0  0  0
    8.8805   51.0809   28.0109 H   0  0  0  0  0  0  0  0  0  0  0  0
    7.4947   52.0267   26.2176 H   0  0  0  0  0  0  0  0  0  0  0  0
    4.3723   52.8815   29.0147 H   0  0  0  0  0  0  0  0  0  0  0  0
    5.2398   52.9133   26.7147 H   0  0  0  0  0  0  0  0  0  0  0  0
    9.7426   40.0141   31.9266 H   0  0  0  0  0  0  0  0  0  0  0  0
   11.2130   41.0321   31.8752 H   0  0  0  0  0  0  0  0  0  0  0  0
   11.5980   39.0108   30.5905 H   0  0  0  0  0  0  0  0  0  0  0  0
   10.7008   37.5603   33.1721 H   0  0  0  0  0  0  0  0  0  0  0  0
   14.1976   37.4380   31.5532 H   0  0  0  0  0  0  0  0  0  0  0  0
    9.5180   36.3962   31.6978 H   0  0  0  0  0  0  0  0  0  0  0  0
   12.1418   35.7698   32.5693 H   0  0  0  0  0  0  0  0  0  0  0  0
   11.7729   35.4524   30.4489 H   0  0  0  0  0  0  0  0  0  0  0  0
   12.4321   38.3985   34.8692 H   0  0  0  0  0  0  0  0  0  0  0  0
   17.2667   34.4138   33.1693 H   0  0  0  0  0  0  0  0  0  0  0  0
   16.7634   35.0598   37.7897 H   0  0  0  0  0  0  0  0  0  0  0  0
   15.3757   36.1867   37.9790 H   0  0  0  0  0  0  0  0  0  0  0  0
  1  2  2  0
  1  3  1  0
  3  4  1  0
  4  5  1  0
  6  1  1  0
  7  6  1  0
  6  8  1  0
  8  9  1  0
  9 10  1  0
 10 11  1  0
 11 12  1  0
 12 13  1  0
 13 14  1  0
 13 15  2  0
 14 16  1  0
 16 17  1  0
 17 18  2  0
 19 17  1  0
 18 20  1  0
 21 19  2  0
 19 22  1  0
 20 23  2  0
 23 21  1  0
 22 24  1  0
 22 25  2  0
  4 26  2  0
  4 27  1  0
 28 27  1  0
 28 29  1  0
 29 30  1  0
 29 31  1  0
 30 32  1  0
 31 33  1  0
 31 34  1  0
 34 32  1  0
 32 35  1  0
 34 36  1  0
 37 35  1  0
 38 35  1  0
 39 37  2  0
 37 40  1  0
 41 38  2  0
 42 39  1  0
 40 43  2  0
 40 41  1  0
 44 42  2  0
 44 43  1  0
 43 45  1  0
  6 46  1  6
  7 47  1  0
  7 48  1  0
  8 49  1  0
  8 50  1  0
  9 51  1  0
  9 52  1  0
 10 53  1  0
 10 54  1  0
 11 55  1  0
 11 56  1  0
 12 57  1  0
 16 58  1  0
 16 59  1  0
 18 60  1  0
 20 61  1  0
 21 62  1  0
 23 63  1  0
 28 64  1  0
 28 65  1  0
 29 66  1  0
 31 67  1  0
 32 68  1  0
 33 69  1  0
 34 70  1  0
 36 71  1  0
 38 72  1  0
 42 73  1  0
 45 74  1  0
 45 75  1  0
M  CHG  3   5  -1  22   1  24  -1
M  END
>  <EmbedRMS>  (535) 
0.0735325592244

$$$$

     RDKit          3D

 75 78  0  0  0  0  0  0  0  0999 V2000
    9.4332   42.9356   34.3455 C   0  0  0  0  0  0  0  0  0  0  0  0
   10.4906   43.0323   35.0313 O   0  0  0  0  0  0  0  0  0  0  0  0
    8.8561   41.7096   34.0292 O   0  0  0  0  0  0  0  0  0  0  0  0
    9.4943   40.2135   34.4678 P   0  0  0  0  0  0  0  0  0  0  0  0
    9.7310   40.1723   36.1289 O   0  0  0  0  0  0  0  0  0  0  0  0
    8.7503   44.1334   33.7737 C   0  0  1  0  0  0  0  0  0  0  0  0
    9.2954   45.3792   34.3141 N   0  0  0  0  0  0  0  0  0  0  0  0
    8.8900   44.0534   32.2357 C   0  0  0  0  0  0  0  0  0  0  0  0
    8.2042   45.1848   31.4637 C   0  0  0  0  0  0  0  0  0  0  0  0
    6.6670   45.1054   31.4855 C   0  0  0  0  0  0  0  0  0  0  0  0
    6.0295   46.3245   30.8124 C   0  0  0  0  0  0  0  0  0  0  0  0
    6.5097   47.5649   31.4225 N   0  0  0  0  0  0  0  0  0  0  0  0
    7.2296   48.5513   30.6732 C   0  0  0  0  0  0  0  0  0  0  0  0
    7.5345   49.8089   31.2110 O   0  0  0  0  0  0  0  0  0  0  0  0
    7.5989   48.3002   29.4966 O   0  0  0  0  0  0  0  0  0  0  0  0
    7.1918   50.2359   32.5286 C   0  0  0  0  0  0  0  0  0  0  0  0
    8.1011   49.5988   33.5554 C   0  0  0  0  0  0  0  0  0  0  0  0
    9.4883   49.6127   33.3202 C   0  0  0  0  0  0  0  0  0  0  0  0
    7.6078   48.9895   34.7379 C   0  0  0  0  0  0  0  0  0  0  0  0
   10.3695   49.0051   34.2157 C   0  0  0  0  0  0  0  0  0  0  0  0
    8.5093   48.3702   35.6207 C   0  0  0  0  0  0  0  0  0  0  0  0
    6.2127   49.0177   35.0747 N   0  0  0  0  0  0  0  0  0  0  0  0
    9.8807   48.3823   35.3622 C   0  0  0  0  0  0  0  0  0  0  0  0
    5.5298   50.2121   35.0726 O   0  0  0  0  0  0  0  0  0  0  0  0
    5.6763   48.0166   35.5927 O   0  0  0  0  0  0  0  0  0  0  0  0
    8.5371   39.1377   34.0123 O   0  0  0  0  0  0  0  0  0  0  0  0
   10.9796   40.0867   33.6827 O   0  0  0  0  0  0  0  0  0  0  0  0
   10.7997   40.0898   32.2830 C   0  0  0  0  0  0  0  0  0  0  0  0
   11.5968   38.9273   31.6962 C   0  0  0  0  0  0  0  0  0  0  0  0
   12.9243   38.9425   32.1784 O   0  0  0  0  0  0  0  0  0  0  0  0
   11.0086   37.5713   32.0780 C   0  0  0  0  0  0  0  0  0  0  0  0
   13.3529   37.5929   32.2623 C   0  0  0  0  0  0  0  0  0  0  0  0
    9.9098   37.1770   31.2925 O   0  0  0  0  0  0  0  0  0  0  0  0
   12.1943   36.6683   31.8994 C   0  0  0  0  0  0  0  0  0  0  0  0
   13.8019   37.2950   33.6199 N   0  0  0  0  0  0  0  0  0  0  0  0
   12.3027   36.2773   30.5558 O   0  0  0  0  0  0  0  0  0  0  0  0
   14.7926   36.4715   33.9865 C   0  0  0  0  0  0  0  0  0  0  0  0
   13.2749   37.7286   34.7946 C   0  0  0  0  0  0  0  0  0  0  0  0
   15.6239   35.7577   33.1860 N   0  0  0  0  0  0  0  0  0  0  0  0
   14.8727   36.4403   35.3332 C   0  0  0  0  0  0  0  0  0  0  0  0
   13.9210   37.2257   35.8811 N   0  0  0  0  0  0  0  0  0  0  0  0
   16.5873   34.9921   33.7802 C   0  0  0  0  0  0  0  0  0  0  0  0
   15.8579   35.6714   35.9444 C   0  0  0  0  0  0  0  0  0  0  0  0
   16.7028   34.9583   35.1439 N   0  0  0  0  0  0  0  0  0  0  0  0
   16.0104   35.6381   37.3564 N   0  0  0  0  0  0  0  0  0  0  0  0
    7.6767   44.0692   34.0497 H   0  0  0  0  0  0  0  0  0  0  0  0
    9.1863   45.3743   35.3548 H   0  0  0  0  0  0  0  0  0  0  0  0
   10.3172   45.4418   34.0968 H   0  0  0  0  0  0  0  0  0  0  0  0
    8.4824   43.0864   31.8650 H   0  0  0  0  0  0  0  0  0  0  0  0
    9.9720   44.0693   31.9745 H   0  0  0  0  0  0  0  0  0  0  0  0
    8.5416   45.1423   30.4049 H   0  0  0  0  0  0  0  0  0  0  0  0
    8.5550   46.1528   31.8804 H   0  0  0  0  0  0  0  0  0  0  0  0
    6.3325   44.1817   30.9654 H   0  0  0  0  0  0  0  0  0  0  0  0
    6.3026   45.0631   32.5329 H   0  0  0  0  0  0  0  0  0  0  0  0
    4.9261   46.2693   30.9301 H   0  0  0  0  0  0  0  0  0  0  0  0
    6.2466   46.2925   29.7233 H   0  0  0  0  0  0  0  0  0  0  0  0
    6.2847   47.7252   32.4281 H   0  0  0  0  0  0  0  0  0  0  0  0
    7.3334   51.3355   32.5822 H   0  0  0  0  0  0  0  0  0  0  0  0
    6.1167   50.0358   32.7067 H   0  0  0  0  0  0  0  0  0  0  0  0
    9.8887   50.0873   32.4327 H   0  0  0  0  0  0  0  0  0  0  0  0
   11.4336   49.0153   34.0183 H   0  0  0  0  0  0  0  0  0  0  0  0
    8.1492   47.8970   36.5256 H   0  0  0  0  0  0  0  0  0  0  0  0
   10.5656   47.9091   36.0540 H   0  0  0  0  0  0  0  0  0  0  0  0
    9.7450   40.0145   31.9263 H   0  0  0  0  0  0  0  0  0  0  0  0
   11.2097   41.0418   31.8831 H   0  0  0  0  0  0  0  0  0  0  0  0
   11.6265   39.0456   30.5888 H   0  0  0  0  0  0  0  0  0  0  0  0
   10.7064   37.5573   33.1484 H   0  0  0  0  0  0  0  0  0  0  0  0
   14.2021   37.4484   31.5574 H   0  0  0  0  0  0  0  0  0  0  0  0
   10.0952   37.3990   30.3433 H   0  0  0  0  0  0  0  0  0  0  0  0
   12.1163   35.7744   32.5633 H   0  0  0  0  0  0  0  0  0  0  0  0
   12.9615   35.5349   30.5311 H   0  0  0  0  0  0  0  0  0  0  0  0
   12.4321   38.3982   34.8705 H   0  0  0  0  0  0  0  0  0  0  0  0
   17.2669   34.4143   33.1690 H   0  0  0  0  0  0  0  0  0  0  0  0
   15.3761   36.1862   37.9792 H   0  0  0  0  0  0  0  0  0  0  0  0
   16.7641   35.0598   37.7896 H   0  0  0  0  0  0  0  0  0  0  0  0
  1  2  2  0
  1  3  1  0
  3  4  1  0
  4  5  1  0
  6  1  1  0
  7  6  1  0
  6  8  1  0
  8  9  1  0
  9 10  1  0
 10 11  1  0
 11 12  1  0
 12 13  1  0
 13 14  1  0
 13 15  2  0
 14 16  1  0
 16 17  1  0
 17 18  2  0
 19 17  1  0
 18 20  1  0
 21 19  2  0
 19 22  1  0
 20 23  2  0
 23 21  1  0
 22 24  1  0
 22 25  2  0
  4 26  2  0
  4 27  1  0
 28 27  1  0
 28 29  1  0
 29 30  1  0
 29 31  1  0
 30 32  1  0
 31 33  1  0
 31 34  1  0
 34 32  1  0
 32 35  1  0
 34 36  1  0
 37 35  1  0
 38 35  1  0
 39 37  2  0
 37 40  1  0
 41 38  2  0
 42 39  1  0
 40 43  2  0
 40 41  1  0
 44 42  2  0
 44 43  1  0
 43 45  1  0
  6 46  1  6
  7 47  1  0
  7 48  1  0
  8 49  1  0
  8 50  1  0
  9 51  1  0
  9 52  1  0
 10 53  1  0
 10 54  1  0
 11 55  1  0
 11 56  1  0
 12 57  1  0
 16 58  1  0
 16 59  1  0
 18 60  1  0
 20 61  1  0
 21 62  1  0
 23 63  1  0
 28 64  1  0
 28 65  1  0
 29 66  1  0
 31 67  1  0
 32 68  1  0
 33 69  1  0
 34 70  1  0
 36 71  1  0
 38 72  1  0
 42 73  1  0
 45 74  1  0
 45 75  1  0
M  CHG  3   5  -1  22   1  24  -1
M  END
>  <EmbedRMS>  (536) 
0.0745088777978

$$$$

     RDKit          3D

 75 78  0  0  0  0  0  0  0  0999 V2000
    9.4331   42.9365   34.3462 C   0  0  0  0  0  0  0  0  0  0  0  0
   10.4907   43.0329   35.0317 O   0  0  0  0  0  0  0  0  0  0  0  0
    8.8558   41.7103   34.0299 O   0  0  0  0  0  0  0  0  0  0  0  0
    9.4944   40.2141   34.4677 P   0  0  0  0  0  0  0  0  0  0  0  0
    9.7317   40.1723   36.1287 O   0  0  0  0  0  0  0  0  0  0  0  0
    8.7506   44.1348   33.7741 C   0  0  1  0  0  0  0  0  0  0  0  0
    9.2963   45.3820   34.3133 N   0  0  0  0  0  0  0  0  0  0  0  0
    8.8893   44.0527   32.2358 C   0  0  0  0  0  0  0  0  0  0  0  0
    8.2029   45.1823   31.4614 C   0  0  0  0  0  0  0  0  0  0  0  0
    6.6654   45.1047   31.4854 C   0  0  0  0  0  0  0  0  0  0  0  0
    6.0272   46.3228   30.8105 C   0  0  0  0  0  0  0  0  0  0  0  0
    6.5068   47.5642   31.4180 N   0  0  0  0  0  0  0  0  0  0  0  0
    7.2422   48.5403   30.6828 C   0  0  0  0  0  0  0  0  0  0  0  0
    7.5826   49.7466   31.3039 O   0  0  0  0  0  0  0  0  0  0  0  0
    7.5939   48.3102   29.4948 O   0  0  0  0  0  0  0  0  0  0  0  0
    8.3225   50.7859   30.6637 C   0  0  0  0  0  0  0  0  0  0  0  0
    7.5087   51.4302   29.5642 C   0  0  0  0  0  0  0  0  0  0  0  0
    6.2437   51.9479   29.8971 C   0  0  0  0  0  0  0  0  0  0  0  0
    8.0011   51.6055   28.2442 C   0  0  0  0  0  0  0  0  0  0  0  0
    5.4741   52.6187   28.9456 C   0  0  0  0  0  0  0  0  0  0  0  0
    7.2184   52.2992   27.3048 C   0  0  0  0  0  0  0  0  0  0  0  0
    9.2848   51.1053   27.8415 N   0  0  0  0  0  0  0  0  0  0  0  0
    5.9618   52.7966   27.6524 C   0  0  0  0  0  0  0  0  0  0  0  0
    9.5801   49.7701   27.9874 O   0  0  0  0  0  0  0  0  0  0  0  0
   10.0319   51.8127   27.1347 O   0  0  0  0  0  0  0  0  0  0  0  0
    8.5373   39.1382   34.0122 O   0  0  0  0  0  0  0  0  0  0  0  0
   10.9795   40.0889   33.6815 O   0  0  0  0  0  0  0  0  0  0  0  0
   10.7982   40.0848   32.2819 C   0  0  0  0  0  0  0  0  0  0  0  0
   11.5886   38.9142   31.7009 C   0  0  0  0  0  0  0  0  0  0  0  0
   12.9214   38.9367   32.1698 O   0  0  0  0  0  0  0  0  0  0  0  0
   11.0047   37.5660   32.0990 C   0  0  0  0  0  0  0  0  0  0  0  0
   13.3511   37.5885   32.2601 C   0  0  0  0  0  0  0  0  0  0  0  0
    9.9296   37.1961   31.2780 O   0  0  0  0  0  0  0  0  0  0  0  0
   12.1923   36.6658   31.9047 C   0  0  0  0  0  0  0  0  0  0  0  0
   13.8033   37.2966   33.6188 N   0  0  0  0  0  0  0  0  0  0  0  0
   12.3007   36.2864   30.5561 O   0  0  0  0  0  0  0  0  0  0  0  0
   14.7933   36.4724   33.9860 C   0  0  0  0  0  0  0  0  0  0  0  0
   13.2753   37.7296   34.7935 C   0  0  0  0  0  0  0  0  0  0  0  0
   15.6243   35.7579   33.1860 N   0  0  0  0  0  0  0  0  0  0  0  0
   14.8728   36.4410   35.3328 C   0  0  0  0  0  0  0  0  0  0  0  0
   13.9209   37.2263   35.8804 N   0  0  0  0  0  0  0  0  0  0  0  0
   16.5873   34.9919   33.7803 C   0  0  0  0  0  0  0  0  0  0  0  0
   15.8577   35.6716   35.9443 C   0  0  0  0  0  0  0  0  0  0  0  0
   16.7025   34.9583   35.1440 N   0  0  0  0  0  0  0  0  0  0  0  0
   16.0100   35.6384   37.3563 N   0  0  0  0  0  0  0  0  0  0  0  0
    7.6770   44.0707   34.0503 H   0  0  0  0  0  0  0  0  0  0  0  0
    9.1827   45.3820   35.3535 H   0  0  0  0  0  0  0  0  0  0  0  0
   10.3192   45.4406   34.1000 H   0  0  0  0  0  0  0  0  0  0  0  0
    8.4816   43.0851   31.8668 H   0  0  0  0  0  0  0  0  0  0  0  0
    9.9711   44.0681   31.9739 H   0  0  0  0  0  0  0  0  0  0  0  0
    8.5554   46.1510   31.8740 H   0  0  0  0  0  0  0  0  0  0  0  0
    8.5385   45.1363   30.4021 H   0  0  0  0  0  0  0  0  0  0  0  0
    6.3021   45.0644   32.5333 H   0  0  0  0  0  0  0  0  0  0  0  0
    6.3296   44.1802   30.9677 H   0  0  0  0  0  0  0  0  0  0  0  0
    4.9238   46.2677   30.9267 H   0  0  0  0  0  0  0  0  0  0  0  0
    6.2464   46.2900   29.7217 H   0  0  0  0  0  0  0  0  0  0  0  0
    6.2814   47.7539   32.4205 H   0  0  0  0  0  0  0  0  0  0  0  0
    8.5504   51.5635   31.4227 H   0  0  0  0  0  0  0  0  0  0  0  0
    9.2977   50.3917   30.3189 H   0  0  0  0  0  0  0  0  0  0  0  0
    5.8559   51.8389   30.9027 H   0  0  0  0  0  0  0  0  0  0  0  0
    4.5015   53.0099   29.2150 H   0  0  0  0  0  0  0  0  0  0  0  0
    7.5799   52.4427   26.2941 H   0  0  0  0  0  0  0  0  0  0  0  0
    5.3657   53.3221   26.9175 H   0  0  0  0  0  0  0  0  0  0  0  0
   11.2131   41.0320   31.8757 H   0  0  0  0  0  0  0  0  0  0  0  0
    9.7427   40.0140   31.9266 H   0  0  0  0  0  0  0  0  0  0  0  0
   11.5980   39.0108   30.5904 H   0  0  0  0  0  0  0  0  0  0  0  0
   10.7009   37.5601   33.1721 H   0  0  0  0  0  0  0  0  0  0  0  0
   14.1977   37.4380   31.5532 H   0  0  0  0  0  0  0  0  0  0  0  0
    9.5181   36.3960   31.6977 H   0  0  0  0  0  0  0  0  0  0  0  0
   12.1419   35.7697   32.5692 H   0  0  0  0  0  0  0  0  0  0  0  0
   11.7730   35.4523   30.4488 H   0  0  0  0  0  0  0  0  0  0  0  0
   12.4321   38.3984   34.8692 H   0  0  0  0  0  0  0  0  0  0  0  0
   17.2667   34.4138   33.1694 H   0  0  0  0  0  0  0  0  0  0  0  0
   16.7634   35.0598   37.7897 H   0  0  0  0  0  0  0  0  0  0  0  0
   15.3757   36.1867   37.9790 H   0  0  0  0  0  0  0  0  0  0  0  0
  1  2  2  0
  1  3  1  0
  3  4  1  0
  4  5  1  0
  6  1  1  0
  7  6  1  0
  6  8  1  0
  8  9  1  0
  9 10  1  0
 10 11  1  0
 11 12  1  0
 12 13  1  0
 13 14  1  0
 13 15  2  0
 14 16  1  0
 16 17  1  0
 17 18  2  0
 19 17  1  0
 18 20  1  0
 21 19  2  0
 19 22  1  0
 20 23  2  0
 23 21  1  0
 22 24  1  0
 22 25  2  0
  4 26  2  0
  4 27  1  0
 28 27  1  0
 28 29  1  0
 29 30  1  0
 29 31  1  0
 30 32  1  0
 31 33  1  0
 31 34  1  0
 34 32  1  0
 32 35  1  0
 34 36  1  0
 37 35  1  0
 38 35  1  0
 39 37  2  0
 37 40  1  0
 41 38  2  0
 42 39  1  0
 40 43  2  0
 40 41  1  0
 44 42  2  0
 44 43  1  0
 43 45  1  0
  6 46  1  6
  7 47  1  0
  7 48  1  0
  8 49  1  0
  8 50  1  0
  9 51  1  0
  9 52  1  0
 10 53  1  0
 10 54  1  0
 11 55  1  0
 11 56  1  0
 12 57  1  0
 16 58  1  0
 16 59  1  0
 18 60  1  0
 20 61  1  0
 21 62  1  0
 23 63  1  0
 28 64  1  0
 28 65  1  0
 29 66  1  0
 31 67  1  0
 32 68  1  0
 33 69  1  0
 34 70  1  0
 36 71  1  0
 38 72  1  0
 42 73  1  0
 45 74  1  0
 45 75  1  0
M  CHG  3   5  -1  22   1  24  -1
M  END
>  <EmbedRMS>  (537) 
0.0743632816381

$$$$

     RDKit          3D

 75 78  0  0  0  0  0  0  0  0999 V2000
    9.4334   42.9368   34.3456 C   0  0  0  0  0  0  0  0  0  0  0  0
   10.4908   43.0332   35.0315 O   0  0  0  0  0  0  0  0  0  0  0  0
    8.8559   41.7106   34.0299 O   0  0  0  0  0  0  0  0  0  0  0  0
    9.4930   40.2143   34.4702 P   0  0  0  0  0  0  0  0  0  0  0  0
    9.7292   40.1730   36.1311 O   0  0  0  0  0  0  0  0  0  0  0  0
    8.7510   44.1354   33.7737 C   0  0  1  0  0  0  0  0  0  0  0  0
    9.2967   45.3821   34.3137 N   0  0  0  0  0  0  0  0  0  0  0  0
    8.8900   44.0553   32.2354 C   0  0  0  0  0  0  0  0  0  0  0  0
    8.2028   45.1860   31.4625 C   0  0  0  0  0  0  0  0  0  0  0  0
    6.6652   45.1062   31.4856 C   0  0  0  0  0  0  0  0  0  0  0  0
    6.0239   46.3220   30.8083 C   0  0  0  0  0  0  0  0  0  0  0  0
    6.4971   47.5658   31.4155 N   0  0  0  0  0  0  0  0  0  0  0  0
    7.2578   48.5292   30.6899 C   0  0  0  0  0  0  0  0  0  0  0  0
    7.6755   49.6954   31.3388 O   0  0  0  0  0  0  0  0  0  0  0  0
    7.5903   48.3102   29.4935 O   0  0  0  0  0  0  0  0  0  0  0  0
    8.6298   50.5970   30.7814 C   0  0  0  0  0  0  0  0  0  0  0  0
    9.9917   49.9443   30.7024 C   0  0  0  0  0  0  0  0  0  0  0  0
   10.6342   49.8775   29.4524 C   0  0  0  0  0  0  0  0  0  0  0  0
   10.6077   49.3403   31.8321 C   0  0  0  0  0  0  0  0  0  0  0  0
   11.8547   49.2159   29.3127 C   0  0  0  0  0  0  0  0  0  0  0  0
   11.8301   48.6635   31.6643 C   0  0  0  0  0  0  0  0  0  0  0  0
   10.0065   49.3823   33.1396 N   0  0  0  0  0  0  0  0  0  0  0  0
   12.4488   48.6057   30.4151 C   0  0  0  0  0  0  0  0  0  0  0  0
    9.3779   50.5203   33.5881 O   0  0  0  0  0  0  0  0  0  0  0  0
   10.1896   48.4442   33.9427 O   0  0  0  0  0  0  0  0  0  0  0  0
    8.5365   39.1383   34.0135 O   0  0  0  0  0  0  0  0  0  0  0  0
   10.9788   40.0866   33.6873 O   0  0  0  0  0  0  0  0  0  0  0  0
   10.7993   40.0944   32.2885 C   0  0  0  0  0  0  0  0  0  0  0  0
   11.5957   38.9351   31.6994 C   0  0  0  0  0  0  0  0  0  0  0  0
   12.9257   38.9478   32.1798 O   0  0  0  0  0  0  0  0  0  0  0  0
   11.0070   37.5757   32.0732 C   0  0  0  0  0  0  0  0  0  0  0  0
   13.3571   37.5980   32.2612 C   0  0  0  0  0  0  0  0  0  0  0  0
    9.9093   37.1807   31.2874 O   0  0  0  0  0  0  0  0  0  0  0  0
   12.1967   36.6764   31.8894 C   0  0  0  0  0  0  0  0  0  0  0  0
   13.8018   37.2956   33.6197 N   0  0  0  0  0  0  0  0  0  0  0  0
   12.3049   36.2360   30.5555 O   0  0  0  0  0  0  0  0  0  0  0  0
   14.7922   36.4716   33.9864 C   0  0  0  0  0  0  0  0  0  0  0  0
   13.2747   37.7291   34.7944 C   0  0  0  0  0  0  0  0  0  0  0  0
   15.6239   35.7581   33.1861 N   0  0  0  0  0  0  0  0  0  0  0  0
   14.8721   36.4402   35.3331 C   0  0  0  0  0  0  0  0  0  0  0  0
   13.9206   37.2257   35.8810 N   0  0  0  0  0  0  0  0  0  0  0  0
   16.5873   34.9924   33.7802 C   0  0  0  0  0  0  0  0  0  0  0  0
   15.8576   35.6714   35.9444 C   0  0  0  0  0  0  0  0  0  0  0  0
   16.7026   34.9585   35.1439 N   0  0  0  0  0  0  0  0  0  0  0  0
   16.0102   35.6382   37.3564 N   0  0  0  0  0  0  0  0  0  0  0  0
    7.6773   44.0714   34.0497 H   0  0  0  0  0  0  0  0  0  0  0  0
    9.1839   45.3817   35.3539 H   0  0  0  0  0  0  0  0  0  0  0  0
   10.3194   45.4413   34.0993 H   0  0  0  0  0  0  0  0  0  0  0  0
    9.9719   44.0721   31.9738 H   0  0  0  0  0  0  0  0  0  0  0  0
    8.4832   43.0878   31.8652 H   0  0  0  0  0  0  0  0  0  0  0  0
    8.5538   46.1548   31.8770 H   0  0  0  0  0  0  0  0  0  0  0  0
    8.5394   45.1425   30.4035 H   0  0  0  0  0  0  0  0  0  0  0  0
    6.3314   44.1802   30.9692 H   0  0  0  0  0  0  0  0  0  0  0  0
    6.3016   45.0667   32.5334 H   0  0  0  0  0  0  0  0  0  0  0  0
    6.2458   46.2889   29.7200 H   0  0  0  0  0  0  0  0  0  0  0  0
    4.9204   46.2630   30.9217 H   0  0  0  0  0  0  0  0  0  0  0  0
    6.2762   47.7521   32.4196 H   0  0  0  0  0  0  0  0  0  0  0  0
    8.6911   51.5046   31.4154 H   0  0  0  0  0  0  0  0  0  0  0  0
    8.2756   50.9340   29.7824 H   0  0  0  0  0  0  0  0  0  0  0  0
   10.1830   50.3269   28.5763 H   0  0  0  0  0  0  0  0  0  0  0  0
   12.3364   49.1687   28.3445 H   0  0  0  0  0  0  0  0  0  0  0  0
   12.3142   48.1899   32.5091 H   0  0  0  0  0  0  0  0  0  0  0  0
   13.3926   48.0880   30.3026 H   0  0  0  0  0  0  0  0  0  0  0  0
   11.2095   41.0480   31.8922 H   0  0  0  0  0  0  0  0  0  0  0  0
    9.7449   40.0201   31.9303 H   0  0  0  0  0  0  0  0  0  0  0  0
   11.6207   39.0685   30.5942 H   0  0  0  0  0  0  0  0  0  0  0  0
   10.7059   37.5563   33.1438 H   0  0  0  0  0  0  0  0  0  0  0  0
   14.2095   37.4543   31.5601 H   0  0  0  0  0  0  0  0  0  0  0  0
   10.0865   37.4210   30.3413 H   0  0  0  0  0  0  0  0  0  0  0  0
   12.1276   35.7872   32.5550 H   0  0  0  0  0  0  0  0  0  0  0  0
   12.5031   37.0109   29.9672 H   0  0  0  0  0  0  0  0  0  0  0  0
   12.4328   38.3996   34.8703 H   0  0  0  0  0  0  0  0  0  0  0  0
   17.2670   34.4149   33.1690 H   0  0  0  0  0  0  0  0  0  0  0  0
   16.7640   35.0601   37.7896 H   0  0  0  0  0  0  0  0  0  0  0  0
   15.3757   36.1862   37.9791 H   0  0  0  0  0  0  0  0  0  0  0  0
  1  2  2  0
  1  3  1  0
  3  4  1  0
  4  5  1  0
  6  1  1  0
  7  6  1  0
  6  8  1  0
  8  9  1  0
  9 10  1  0
 10 11  1  0
 11 12  1  0
 12 13  1  0
 13 14  1  0
 13 15  2  0
 14 16  1  0
 16 17  1  0
 17 18  2  0
 19 17  1  0
 18 20  1  0
 21 19  2  0
 19 22  1  0
 20 23  2  0
 23 21  1  0
 22 24  1  0
 22 25  2  0
  4 26  2  0
  4 27  1  0
 28 27  1  0
 28 29  1  0
 29 30  1  0
 29 31  1  0
 30 32  1  0
 31 33  1  0
 31 34  1  0
 34 32  1  0
 32 35  1  0
 34 36  1  0
 37 35  1  0
 38 35  1  0
 39 37  2  0
 37 40  1  0
 41 38  2  0
 42 39  1  0
 40 43  2  0
 40 41  1  0
 44 42  2  0
 44 43  1  0
 43 45  1  0
  6 46  1  6
  7 47  1  0
  7 48  1  0
  8 49  1  0
  8 50  1  0
  9 51  1  0
  9 52  1  0
 10 53  1  0
 10 54  1  0
 11 55  1  0
 11 56  1  0
 12 57  1  0
 16 58  1  0
 16 59  1  0
 18 60  1  0
 20 61  1  0
 21 62  1  0
 23 63  1  0
 28 64  1  0
 28 65  1  0
 29 66  1  0
 31 67  1  0
 32 68  1  0
 33 69  1  0
 34 70  1  0
 36 71  1  0
 38 72  1  0
 42 73  1  0
 45 74  1  0
 45 75  1  0
M  CHG  3   5  -1  22   1  24  -1
M  END
>  <EmbedRMS>  (538) 
0.0766902114746

$$$$

     RDKit          3D

 75 78  0  0  0  0  0  0  0  0999 V2000
    9.4296   42.9396   34.3436 C   0  0  0  0  0  0  0  0  0  0  0  0
   10.4910   43.0382   35.0234 O   0  0  0  0  0  0  0  0  0  0  0  0
    8.8544   41.7117   34.0287 O   0  0  0  0  0  0  0  0  0  0  0  0
    9.4941   40.2156   34.4673 P   0  0  0  0  0  0  0  0  0  0  0  0
    9.7317   40.1738   36.1283 O   0  0  0  0  0  0  0  0  0  0  0  0
    8.7407   44.1379   33.7786 C   0  0  1  0  0  0  0  0  0  0  0  0
    9.3005   45.3723   34.3325 N   0  0  0  0  0  0  0  0  0  0  0  0
    8.8961   44.0591   32.2400 C   0  0  0  0  0  0  0  0  0  0  0  0
    8.2029   45.1685   31.4399 C   0  0  0  0  0  0  0  0  0  0  0  0
    6.6654   45.1047   31.4871 C   0  0  0  0  0  0  0  0  0  0  0  0
    6.0287   46.3235   30.8118 C   0  0  0  0  0  0  0  0  0  0  0  0
    6.5114   47.5615   31.4230 N   0  0  0  0  0  0  0  0  0  0  0  0
    7.2459   48.5435   30.6821 C   0  0  0  0  0  0  0  0  0  0  0  0
    7.6228   49.7668   31.2538 O   0  0  0  0  0  0  0  0  0  0  0  0
    7.5878   48.3080   29.4939 O   0  0  0  0  0  0  0  0  0  0  0  0
    7.3160   50.1694   32.5886 C   0  0  0  0  0  0  0  0  0  0  0  0
    5.8376   50.4518   32.7424 C   0  0  0  0  0  0  0  0  0  0  0  0
    5.2058   51.2552   31.7757 C   0  0  0  0  0  0  0  0  0  0  0  0
    5.0650   49.9103   33.8024 C   0  0  0  0  0  0  0  0  0  0  0  0
    3.8290   51.4785   31.8242 C   0  0  0  0  0  0  0  0  0  0  0  0
    3.6765   50.1297   33.8233 C   0  0  0  0  0  0  0  0  0  0  0  0
    5.6692   49.1648   34.8705 N   0  0  0  0  0  0  0  0  0  0  0  0
    3.0640   50.9078   32.8399 C   0  0  0  0  0  0  0  0  0  0  0  0
    6.7620   49.6752   35.5326 O   0  0  0  0  0  0  0  0  0  0  0  0
    5.0814   48.1738   35.3507 O   0  0  0  0  0  0  0  0  0  0  0  0
    8.5374   39.1390   34.0125 O   0  0  0  0  0  0  0  0  0  0  0  0
   10.9792   40.0896   33.6811 O   0  0  0  0  0  0  0  0  0  0  0  0
   10.7976   40.0844   32.2815 C   0  0  0  0  0  0  0  0  0  0  0  0
   11.5897   38.9147   31.7008 C   0  0  0  0  0  0  0  0  0  0  0  0
   12.9218   38.9385   32.1718 O   0  0  0  0  0  0  0  0  0  0  0  0
   11.0070   37.5655   32.0975 C   0  0  0  0  0  0  0  0  0  0  0  0
   13.3533   37.5910   32.2611 C   0  0  0  0  0  0  0  0  0  0  0  0
    9.9333   37.1935   31.2754 O   0  0  0  0  0  0  0  0  0  0  0  0
   12.1945   36.6672   31.9041 C   0  0  0  0  0  0  0  0  0  0  0  0
   13.8036   37.2970   33.6193 N   0  0  0  0  0  0  0  0  0  0  0  0
   12.2893   36.2849   30.5563 O   0  0  0  0  0  0  0  0  0  0  0  0
   14.7931   36.4723   33.9863 C   0  0  0  0  0  0  0  0  0  0  0  0
   13.2756   37.7298   34.7940 C   0  0  0  0  0  0  0  0  0  0  0  0
   15.6242   35.7580   33.1861 N   0  0  0  0  0  0  0  0  0  0  0  0
   14.8727   36.4407   35.3331 C   0  0  0  0  0  0  0  0  0  0  0  0
   13.9210   37.2262   35.8807 N   0  0  0  0  0  0  0  0  0  0  0  0
   16.5872   34.9920   33.7803 C   0  0  0  0  0  0  0  0  0  0  0  0
   15.8577   35.6715   35.9444 C   0  0  0  0  0  0  0  0  0  0  0  0
   16.7025   34.9582   35.1440 N   0  0  0  0  0  0  0  0  0  0  0  0
   16.0101   35.6382   37.3564 N   0  0  0  0  0  0  0  0  0  0  0  0
    7.6661   44.0653   34.0544 H   0  0  0  0  0  0  0  0  0  0  0  0
    9.2332   45.3275   35.3759 H   0  0  0  0  0  0  0  0  0  0  0  0
    8.6787   46.1669   34.0598 H   0  0  0  0  0  0  0  0  0  0  0  0
    9.9808   44.0904   31.9920 H   0  0  0  0  0  0  0  0  0  0  0  0
    8.5082   43.0838   31.8696 H   0  0  0  0  0  0  0  0  0  0  0  0
    8.5183   45.0768   30.3774 H   0  0  0  0  0  0  0  0  0  0  0  0
    8.5759   46.1509   31.7937 H   0  0  0  0  0  0  0  0  0  0  0  0
    6.3160   45.0774   32.5400 H   0  0  0  0  0  0  0  0  0  0  0  0
    6.3143   44.1784   30.9829 H   0  0  0  0  0  0  0  0  0  0  0  0
    4.9254   46.2704   30.9309 H   0  0  0  0  0  0  0  0  0  0  0  0
    6.2456   46.2915   29.7226 H   0  0  0  0  0  0  0  0  0  0  0  0
    6.3059   47.7078   32.4346 H   0  0  0  0  0  0  0  0  0  0  0  0
    7.8710   51.1061   32.8045 H   0  0  0  0  0  0  0  0  0  0  0  0
    7.6894   49.3964   33.2892 H   0  0  0  0  0  0  0  0  0  0  0  0
    5.7797   51.6940   30.9686 H   0  0  0  0  0  0  0  0  0  0  0  0
    3.3533   52.0890   31.0675 H   0  0  0  0  0  0  0  0  0  0  0  0
    3.0705   49.7172   34.6202 H   0  0  0  0  0  0  0  0  0  0  0  0
    1.9957   51.0786   32.8728 H   0  0  0  0  0  0  0  0  0  0  0  0
    9.7421   40.0118   31.9264 H   0  0  0  0  0  0  0  0  0  0  0  0
   11.2110   41.0320   31.8747 H   0  0  0  0  0  0  0  0  0  0  0  0
   11.6005   39.0119   30.5904 H   0  0  0  0  0  0  0  0  0  0  0  0
   10.7015   37.5594   33.1702 H   0  0  0  0  0  0  0  0  0  0  0  0
   14.2012   37.4439   31.5552 H   0  0  0  0  0  0  0  0  0  0  0  0
    9.5289   36.3869   31.6895 H   0  0  0  0  0  0  0  0  0  0  0  0
   12.1243   35.7694   32.5633 H   0  0  0  0  0  0  0  0  0  0  0  0
   12.9478   35.5427   30.5202 H   0  0  0  0  0  0  0  0  0  0  0  0
   12.4328   38.3993   34.8697 H   0  0  0  0  0  0  0  0  0  0  0  0
   17.2667   34.4140   33.1692 H   0  0  0  0  0  0  0  0  0  0  0  0
   15.3759   36.1865   37.9791 H   0  0  0  0  0  0  0  0  0  0  0  0
   16.7636   35.0598   37.7897 H   0  0  0  0  0  0  0  0  0  0  0  0
  1  2  2  0
  1  3  1  0
  3  4  1  0
  4  5  1  0
  6  1  1  0
  7  6  1  0
  6  8  1  0
  8  9  1  0
  9 10  1  0
 10 11  1  0
 11 12  1  0
 12 13  1  0
 13 14  1  0
 13 15  2  0
 14 16  1  0
 16 17  1  0
 17 18  2  0
 19 17  1  0
 18 20  1  0
 21 19  2  0
 19 22  1  0
 20 23  2  0
 23 21  1  0
 22 24  1  0
 22 25  2  0
  4 26  2  0
  4 27  1  0
 28 27  1  0
 28 29  1  0
 29 30  1  0
 29 31  1  0
 30 32  1  0
 31 33  1  0
 31 34  1  0
 34 32  1  0
 32 35  1  0
 34 36  1  0
 37 35  1  0
 38 35  1  0
 39 37  2  0
 37 40  1  0
 41 38  2  0
 42 39  1  0
 40 43  2  0
 40 41  1  0
 44 42  2  0
 44 43  1  0
 43 45  1  0
  6 46  1  6
  7 47  1  0
  7 48  1  0
  8 49  1  0
  8 50  1  0
  9 51  1  0
  9 52  1  0
 10 53  1  0
 10 54  1  0
 11 55  1  0
 11 56  1  0
 12 57  1  0
 16 58  1  0
 16 59  1  0
 18 60  1  0
 20 61  1  0
 21 62  1  0
 23 63  1  0
 28 64  1  0
 28 65  1  0
 29 66  1  0
 31 67  1  0
 32 68  1  0
 33 69  1  0
 34 70  1  0
 36 71  1  0
 38 72  1  0
 42 73  1  0
 45 74  1  0
 45 75  1  0
M  CHG  3   5  -1  22   1  24  -1
M  END
>  <EmbedRMS>  (539) 
0.0734247557876

$$$$

     RDKit          3D

 75 78  0  0  0  0  0  0  0  0999 V2000
    9.4315   42.9413   34.3430 C   0  0  0  0  0  0  0  0  0  0  0  0
   10.4886   43.0411   35.0290 O   0  0  0  0  0  0  0  0  0  0  0  0
    8.8563   41.7130   34.0283 O   0  0  0  0  0  0  0  0  0  0  0  0
    9.4945   40.2162   34.4676 P   0  0  0  0  0  0  0  0  0  0  0  0
    9.7311   40.1742   36.1287 O   0  0  0  0  0  0  0  0  0  0  0  0
    8.7486   44.1363   33.7716 C   0  0  1  0  0  0  0  0  0  0  0  0
    9.3035   45.3665   34.3392 N   0  0  0  0  0  0  0  0  0  0  0  0
    8.8898   44.0541   32.2303 C   0  0  0  0  0  0  0  0  0  0  0  0
    8.2015   45.1755   31.4445 C   0  0  0  0  0  0  0  0  0  0  0  0
    6.6641   45.1081   31.4889 C   0  0  0  0  0  0  0  0  0  0  0  0
    6.0238   46.3231   30.8105 C   0  0  0  0  0  0  0  0  0  0  0  0
    6.4998   47.5662   31.4167 N   0  0  0  0  0  0  0  0  0  0  0  0
    7.2566   48.5308   30.6887 C   0  0  0  0  0  0  0  0  0  0  0  0
    7.6655   49.7030   31.3328 O   0  0  0  0  0  0  0  0  0  0  0  0
    7.5903   48.3097   29.4930 O   0  0  0  0  0  0  0  0  0  0  0  0
    8.5941   50.6221   30.7607 C   0  0  0  0  0  0  0  0  0  0  0  0
    9.9689   49.9989   30.6694 C   0  0  0  0  0  0  0  0  0  0  0  0
   10.5937   49.9313   29.4105 C   0  0  0  0  0  0  0  0  0  0  0  0
   10.6166   49.4243   31.7971 C   0  0  0  0  0  0  0  0  0  0  0  0
   11.8275   49.2976   29.2599 C   0  0  0  0  0  0  0  0  0  0  0  0
   11.8527   48.7755   31.6183 C   0  0  0  0  0  0  0  0  0  0  0  0
   10.0355   49.4689   33.1140 N   0  0  0  0  0  0  0  0  0  0  0  0
   12.4532   48.7165   30.3604 C   0  0  0  0  0  0  0  0  0  0  0  0
    9.3762   50.5924   33.5546 O   0  0  0  0  0  0  0  0  0  0  0  0
   10.2665   48.5532   33.9305 O   0  0  0  0  0  0  0  0  0  0  0  0
    8.5374   39.1401   34.0124 O   0  0  0  0  0  0  0  0  0  0  0  0
   10.9799   40.0879   33.6828 O   0  0  0  0  0  0  0  0  0  0  0  0
   10.8003   40.0907   32.2831 C   0  0  0  0  0  0  0  0  0  0  0  0
   11.5958   38.9272   31.6964 C   0  0  0  0  0  0  0  0  0  0  0  0
   12.9239   38.9409   32.1767 O   0  0  0  0  0  0  0  0  0  0  0  0
   11.0062   37.5720   32.0794 C   0  0  0  0  0  0  0  0  0  0  0  0
   13.3506   37.5906   32.2614 C   0  0  0  0  0  0  0  0  0  0  0  0
    9.9064   37.1793   31.2946 O   0  0  0  0  0  0  0  0  0  0  0  0
   12.1919   36.6672   31.9004 C   0  0  0  0  0  0  0  0  0  0  0  0
   13.8017   37.2948   33.6193 N   0  0  0  0  0  0  0  0  0  0  0  0
   12.3133   36.2788   30.5561 O   0  0  0  0  0  0  0  0  0  0  0  0
   14.7927   36.4717   33.9862 C   0  0  0  0  0  0  0  0  0  0  0  0
   13.2746   37.7284   34.7941 C   0  0  0  0  0  0  0  0  0  0  0  0
   15.6240   35.7576   33.1859 N   0  0  0  0  0  0  0  0  0  0  0  0
   14.8728   36.4406   35.3330 C   0  0  0  0  0  0  0  0  0  0  0  0
   13.9209   37.2258   35.8808 N   0  0  0  0  0  0  0  0  0  0  0  0
   16.5874   34.9920   33.7802 C   0  0  0  0  0  0  0  0  0  0  0  0
   15.8579   35.6716   35.9443 C   0  0  0  0  0  0  0  0  0  0  0  0
   16.7028   34.9584   35.1439 N   0  0  0  0  0  0  0  0  0  0  0  0
   16.0103   35.6383   37.3563 N   0  0  0  0  0  0  0  0  0  0  0  0
    7.6765   44.0632   34.0537 H   0  0  0  0  0  0  0  0  0  0  0  0
   10.2132   45.5904   33.8731 H   0  0  0  0  0  0  0  0  0  0  0  0
    8.6441   46.1546   34.1463 H   0  0  0  0  0  0  0  0  0  0  0  0
    9.9715   44.0679   31.9677 H   0  0  0  0  0  0  0  0  0  0  0  0
    8.4845   43.0842   31.8648 H   0  0  0  0  0  0  0  0  0  0  0  0
    8.5207   45.1018   30.3818 H   0  0  0  0  0  0  0  0  0  0  0  0
    8.5701   46.1523   31.8202 H   0  0  0  0  0  0  0  0  0  0  0  0
    6.3164   44.1803   30.9850 H   0  0  0  0  0  0  0  0  0  0  0  0
    6.3139   45.0806   32.5415 H   0  0  0  0  0  0  0  0  0  0  0  0
    4.9205   46.2659   30.9260 H   0  0  0  0  0  0  0  0  0  0  0  0
    6.2440   46.2888   29.7219 H   0  0  0  0  0  0  0  0  0  0  0  0
    6.2806   47.7531   32.4211 H   0  0  0  0  0  0  0  0  0  0  0  0
    8.6421   51.5348   31.3883 H   0  0  0  0  0  0  0  0  0  0  0  0
    8.2216   50.9464   29.7641 H   0  0  0  0  0  0  0  0  0  0  0  0
   10.1187   50.3586   28.5359 H   0  0  0  0  0  0  0  0  0  0  0  0
   12.2953   49.2496   28.2850 H   0  0  0  0  0  0  0  0  0  0  0  0
   12.3617   48.3249   32.4610 H   0  0  0  0  0  0  0  0  0  0  0  0
   13.4077   48.2205   30.2396 H   0  0  0  0  0  0  0  0  0  0  0  0
   11.2116   41.0421   31.8829 H   0  0  0  0  0  0  0  0  0  0  0  0
    9.7455   40.0169   31.9263 H   0  0  0  0  0  0  0  0  0  0  0  0
   11.6246   39.0449   30.5889 H   0  0  0  0  0  0  0  0  0  0  0  0
   10.7050   37.5582   33.1500 H   0  0  0  0  0  0  0  0  0  0  0  0
   14.1985   37.4426   31.5553 H   0  0  0  0  0  0  0  0  0  0  0  0
   10.0893   37.4058   30.3459 H   0  0  0  0  0  0  0  0  0  0  0  0
   12.1336   35.7755   32.5703 H   0  0  0  0  0  0  0  0  0  0  0  0
   11.7933   35.4394   30.4514 H   0  0  0  0  0  0  0  0  0  0  0  0
   12.4314   38.3973   34.8700 H   0  0  0  0  0  0  0  0  0  0  0  0
   17.2669   34.4142   33.1691 H   0  0  0  0  0  0  0  0  0  0  0  0
   15.3759   36.1865   37.9790 H   0  0  0  0  0  0  0  0  0  0  0  0
   16.7638   35.0599   37.7896 H   0  0  0  0  0  0  0  0  0  0  0  0
  1  2  2  0
  1  3  1  0
  3  4  1  0
  4  5  1  0
  6  1  1  0
  7  6  1  0
  6  8  1  0
  8  9  1  0
  9 10  1  0
 10 11  1  0
 11 12  1  0
 12 13  1  0
 13 14  1  0
 13 15  2  0
 14 16  1  0
 16 17  1  0
 17 18  2  0
 19 17  1  0
 18 20  1  0
 21 19  2  0
 19 22  1  0
 20 23  2  0
 23 21  1  0
 22 24  1  0
 22 25  2  0
  4 26  2  0
  4 27  1  0
 28 27  1  0
 28 29  1  0
 29 30  1  0
 29 31  1  0
 30 32  1  0
 31 33  1  0
 31 34  1  0
 34 32  1  0
 32 35  1  0
 34 36  1  0
 37 35  1  0
 38 35  1  0
 39 37  2  0
 37 40  1  0
 41 38  2  0
 42 39  1  0
 40 43  2  0
 40 41  1  0
 44 42  2  0
 44 43  1  0
 43 45  1  0
  6 46  1  6
  7 47  1  0
  7 48  1  0
  8 49  1  0
  8 50  1  0
  9 51  1  0
  9 52  1  0
 10 53  1  0
 10 54  1  0
 11 55  1  0
 11 56  1  0
 12 57  1  0
 16 58  1  0
 16 59  1  0
 18 60  1  0
 20 61  1  0
 21 62  1  0
 23 63  1  0
 28 64  1  0
 28 65  1  0
 29 66  1  0
 31 67  1  0
 32 68  1  0
 33 69  1  0
 34 70  1  0
 36 71  1  0
 38 72  1  0
 42 73  1  0
 45 74  1  0
 45 75  1  0
M  CHG  3   5  -1  22   1  24  -1
M  END
>  <EmbedRMS>  (540) 
0.0743892509568

$$$$

     RDKit          3D

 75 78  0  0  0  0  0  0  0  0999 V2000
    9.4329   42.9368   34.3466 C   0  0  0  0  0  0  0  0  0  0  0  0
   10.4906   43.0334   35.0319 O   0  0  0  0  0  0  0  0  0  0  0  0
    8.8558   41.7106   34.0307 O   0  0  0  0  0  0  0  0  0  0  0  0
    9.4931   40.2144   34.4709 P   0  0  0  0  0  0  0  0  0  0  0  0
    9.7288   40.1730   36.1318 O   0  0  0  0  0  0  0  0  0  0  0  0
    8.7502   44.1350   33.7741 C   0  0  1  0  0  0  0  0  0  0  0  0
    9.2956   45.3824   34.3132 N   0  0  0  0  0  0  0  0  0  0  0  0
    8.8891   44.0525   32.2359 C   0  0  0  0  0  0  0  0  0  0  0  0
    8.2032   45.1822   31.4613 C   0  0  0  0  0  0  0  0  0  0  0  0
    6.6656   45.1032   31.4819 C   0  0  0  0  0  0  0  0  0  0  0  0
    6.0281   46.3239   30.8102 C   0  0  0  0  0  0  0  0  0  0  0  0
    6.5100   47.5618   31.4225 N   0  0  0  0  0  0  0  0  0  0  0  0
    7.2429   48.5448   30.6813 C   0  0  0  0  0  0  0  0  0  0  0  0
    7.6084   49.7733   31.2494 O   0  0  0  0  0  0  0  0  0  0  0  0
    7.5905   48.3072   29.4952 O   0  0  0  0  0  0  0  0  0  0  0  0
    7.2759   50.1874   32.5744 C   0  0  0  0  0  0  0  0  0  0  0  0
    5.7930   50.4602   32.6997 C   0  0  0  0  0  0  0  0  0  0  0  0
    5.1724   51.2490   31.7139 C   0  0  0  0  0  0  0  0  0  0  0  0
    5.0057   49.9232   33.7511 C   0  0  0  0  0  0  0  0  0  0  0  0
    3.7932   51.4620   31.7356 C   0  0  0  0  0  0  0  0  0  0  0  0
    3.6154   50.1318   33.7451 C   0  0  0  0  0  0  0  0  0  0  0  0
    5.5966   49.1939   34.8377 N   0  0  0  0  0  0  0  0  0  0  0  0
    3.0146   50.8953   32.7432 C   0  0  0  0  0  0  0  0  0  0  0  0
    6.6735   49.7199   35.5133 O   0  0  0  0  0  0  0  0  0  0  0  0
    5.0074   48.2041   35.3188 O   0  0  0  0  0  0  0  0  0  0  0  0
    8.5366   39.1386   34.0140 O   0  0  0  0  0  0  0  0  0  0  0  0
   10.9794   40.0875   33.6890 O   0  0  0  0  0  0  0  0  0  0  0  0
   10.8017   40.0947   32.2902 C   0  0  0  0  0  0  0  0  0  0  0  0
   11.5885   38.9266   31.7041 C   0  0  0  0  0  0  0  0  0  0  0  0
   12.9237   38.9445   32.1721 O   0  0  0  0  0  0  0  0  0  0  0  0
   11.0029   37.5726   32.0908 C   0  0  0  0  0  0  0  0  0  0  0  0
   13.3555   37.5960   32.2594 C   0  0  0  0  0  0  0  0  0  0  0  0
    9.9379   37.1846   31.2656 O   0  0  0  0  0  0  0  0  0  0  0  0
   12.1932   36.6769   31.8952 C   0  0  0  0  0  0  0  0  0  0  0  0
   13.8028   37.2977   33.6186 N   0  0  0  0  0  0  0  0  0  0  0  0
   12.2918   36.2396   30.5587 O   0  0  0  0  0  0  0  0  0  0  0  0
   14.7926   36.4727   33.9858 C   0  0  0  0  0  0  0  0  0  0  0  0
   13.2750   37.7302   34.7935 C   0  0  0  0  0  0  0  0  0  0  0  0
   15.6241   35.7586   33.1857 N   0  0  0  0  0  0  0  0  0  0  0  0
   14.8721   36.4408   35.3326 C   0  0  0  0  0  0  0  0  0  0  0  0
   13.9204   37.2263   35.8802 N   0  0  0  0  0  0  0  0  0  0  0  0
   16.5870   34.9924   33.7800 C   0  0  0  0  0  0  0  0  0  0  0  0
   15.8572   35.6717   35.9441 C   0  0  0  0  0  0  0  0  0  0  0  0
   16.7022   34.9585   35.1437 N   0  0  0  0  0  0  0  0  0  0  0  0
   16.0097   35.6384   37.3561 N   0  0  0  0  0  0  0  0  0  0  0  0
    7.6765   44.0710   34.0501 H   0  0  0  0  0  0  0  0  0  0  0  0
    9.1809   45.3832   35.3532 H   0  0  0  0  0  0  0  0  0  0  0  0
   10.3187   45.4409   34.1008 H   0  0  0  0  0  0  0  0  0  0  0  0
    8.4814   43.0849   31.8670 H   0  0  0  0  0  0  0  0  0  0  0  0
    9.9710   44.0677   31.9743 H   0  0  0  0  0  0  0  0  0  0  0  0
    8.5543   46.1506   31.8758 H   0  0  0  0  0  0  0  0  0  0  0  0
    8.5409   45.1375   30.4027 H   0  0  0  0  0  0  0  0  0  0  0  0
    6.3314   44.1804   30.9600 H   0  0  0  0  0  0  0  0  0  0  0  0
    6.3002   45.0586   32.5289 H   0  0  0  0  0  0  0  0  0  0  0  0
    6.2449   46.2939   29.7210 H   0  0  0  0  0  0  0  0  0  0  0  0
    4.9249   46.2698   30.9289 H   0  0  0  0  0  0  0  0  0  0  0  0
    6.3028   47.7086   32.4337 H   0  0  0  0  0  0  0  0  0  0  0  0
    7.6429   49.4248   33.2895 H   0  0  0  0  0  0  0  0  0  0  0  0
    7.8203   51.1305   32.7899 H   0  0  0  0  0  0  0  0  0  0  0  0
    5.7572   51.6843   30.9128 H   0  0  0  0  0  0  0  0  0  0  0  0
    3.3264   52.0612   30.9645 H   0  0  0  0  0  0  0  0  0  0  0  0
    2.9985   49.7226   34.5352 H   0  0  0  0  0  0  0  0  0  0  0  0
    1.9446   51.0579   32.7553 H   0  0  0  0  0  0  0  0  0  0  0  0
    9.7472   40.0378   31.9304 H   0  0  0  0  0  0  0  0  0  0  0  0
   11.2241   41.0427   31.8934 H   0  0  0  0  0  0  0  0  0  0  0  0
   11.5927   39.0434   30.5965 H   0  0  0  0  0  0  0  0  0  0  0  0
   10.7003   37.5442   33.1640 H   0  0  0  0  0  0  0  0  0  0  0  0
   14.2052   37.4477   31.5560 H   0  0  0  0  0  0  0  0  0  0  0  0
    9.1374   37.6722   31.5905 H   0  0  0  0  0  0  0  0  0  0  0  0
   12.1305   35.7855   32.5585 H   0  0  0  0  0  0  0  0  0  0  0  0
   12.4606   37.0186   29.9674 H   0  0  0  0  0  0  0  0  0  0  0  0
   12.4327   38.4001   34.8694 H   0  0  0  0  0  0  0  0  0  0  0  0
   17.2666   34.4146   33.1690 H   0  0  0  0  0  0  0  0  0  0  0  0
   15.3754   36.1866   37.9788 H   0  0  0  0  0  0  0  0  0  0  0  0
   16.7634   35.0601   37.7894 H   0  0  0  0  0  0  0  0  0  0  0  0
  1  2  2  0
  1  3  1  0
  3  4  1  0
  4  5  1  0
  6  1  1  0
  7  6  1  0
  6  8  1  0
  8  9  1  0
  9 10  1  0
 10 11  1  0
 11 12  1  0
 12 13  1  0
 13 14  1  0
 13 15  2  0
 14 16  1  0
 16 17  1  0
 17 18  2  0
 19 17  1  0
 18 20  1  0
 21 19  2  0
 19 22  1  0
 20 23  2  0
 23 21  1  0
 22 24  1  0
 22 25  2  0
  4 26  2  0
  4 27  1  0
 28 27  1  0
 28 29  1  0
 29 30  1  0
 29 31  1  0
 30 32  1  0
 31 33  1  0
 31 34  1  0
 34 32  1  0
 32 35  1  0
 34 36  1  0
 37 35  1  0
 38 35  1  0
 39 37  2  0
 37 40  1  0
 41 38  2  0
 42 39  1  0
 40 43  2  0
 40 41  1  0
 44 42  2  0
 44 43  1  0
 43 45  1  0
  6 46  1  6
  7 47  1  0
  7 48  1  0
  8 49  1  0
  8 50  1  0
  9 51  1  0
  9 52  1  0
 10 53  1  0
 10 54  1  0
 11 55  1  0
 11 56  1  0
 12 57  1  0
 16 58  1  0
 16 59  1  0
 18 60  1  0
 20 61  1  0
 21 62  1  0
 23 63  1  0
 28 64  1  0
 28 65  1  0
 29 66  1  0
 31 67  1  0
 32 68  1  0
 33 69  1  0
 34 70  1  0
 36 71  1  0
 38 72  1  0
 42 73  1  0
 45 74  1  0
 45 75  1  0
M  CHG  3   5  -1  22   1  24  -1
M  END
>  <EmbedRMS>  (541) 
0.0755381980657

$$$$

     RDKit          3D

 75 78  0  0  0  0  0  0  0  0999 V2000
    9.4332   42.9369   34.3461 C   0  0  0  0  0  0  0  0  0  0  0  0
   10.4907   43.0332   35.0317 O   0  0  0  0  0  0  0  0  0  0  0  0
    8.8559   41.7107   34.0298 O   0  0  0  0  0  0  0  0  0  0  0  0
    9.4944   40.2143   34.4677 P   0  0  0  0  0  0  0  0  0  0  0  0
    9.7316   40.1725   36.1287 O   0  0  0  0  0  0  0  0  0  0  0  0
    8.7506   44.1354   33.7741 C   0  0  1  0  0  0  0  0  0  0  0  0
    9.2963   45.3827   34.3133 N   0  0  0  0  0  0  0  0  0  0  0  0
    8.8892   44.0536   32.2358 C   0  0  0  0  0  0  0  0  0  0  0  0
    8.2024   45.1835   31.4619 C   0  0  0  0  0  0  0  0  0  0  0  0
    6.6649   45.1047   31.4849 C   0  0  0  0  0  0  0  0  0  0  0  0
    6.0255   46.3219   30.8087 C   0  0  0  0  0  0  0  0  0  0  0  0
    6.5024   47.5638   31.4166 N   0  0  0  0  0  0  0  0  0  0  0  0
    7.2544   48.5324   30.6886 C   0  0  0  0  0  0  0  0  0  0  0  0
    7.6545   49.7055   31.3326 O   0  0  0  0  0  0  0  0  0  0  0  0
    7.5888   48.3143   29.4926 O   0  0  0  0  0  0  0  0  0  0  0  0
    8.4700   50.6903   30.7057 C   0  0  0  0  0  0  0  0  0  0  0  0
    8.8449   51.7516   31.7094 C   0  0  0  0  0  0  0  0  0  0  0  0
    8.5089   53.0902   31.4339 C   0  0  0  0  0  0  0  0  0  0  0  0
    9.4877   51.4364   32.9379 C   0  0  0  0  0  0  0  0  0  0  0  0
    8.7908   54.1000   32.3546 C   0  0  0  0  0  0  0  0  0  0  0  0
    9.7483   52.4691   33.8577 C   0  0  0  0  0  0  0  0  0  0  0  0
    9.8600   50.0876   33.2791 N   0  0  0  0  0  0  0  0  0  0  0  0
    9.4058   53.7897   33.5654 C   0  0  0  0  0  0  0  0  0  0  0  0
   10.3882   49.2412   32.3324 O   0  0  0  0  0  0  0  0  0  0  0  0
    9.8535   49.7203   34.4723 O   0  0  0  0  0  0  0  0  0  0  0  0
    8.5372   39.1384   34.0122 O   0  0  0  0  0  0  0  0  0  0  0  0
   10.9795   40.0890   33.6815 O   0  0  0  0  0  0  0  0  0  0  0  0
   10.7982   40.0848   32.2819 C   0  0  0  0  0  0  0  0  0  0  0  0
   11.5886   38.9142   31.7009 C   0  0  0  0  0  0  0  0  0  0  0  0
   12.9214   38.9367   32.1698 O   0  0  0  0  0  0  0  0  0  0  0  0
   11.0047   37.5660   32.0990 C   0  0  0  0  0  0  0  0  0  0  0  0
   13.3511   37.5885   32.2601 C   0  0  0  0  0  0  0  0  0  0  0  0
    9.9296   37.1961   31.2780 O   0  0  0  0  0  0  0  0  0  0  0  0
   12.1923   36.6659   31.9047 C   0  0  0  0  0  0  0  0  0  0  0  0
   13.8033   37.2966   33.6188 N   0  0  0  0  0  0  0  0  0  0  0  0
   12.3007   36.2865   30.5561 O   0  0  0  0  0  0  0  0  0  0  0  0
   14.7933   36.4724   33.9860 C   0  0  0  0  0  0  0  0  0  0  0  0
   13.2753   37.7296   34.7935 C   0  0  0  0  0  0  0  0  0  0  0  0
   15.6243   35.7579   33.1860 N   0  0  0  0  0  0  0  0  0  0  0  0
   14.8728   36.4410   35.3328 C   0  0  0  0  0  0  0  0  0  0  0  0
   13.9209   37.2263   35.8804 N   0  0  0  0  0  0  0  0  0  0  0  0
   16.5873   34.9919   33.7803 C   0  0  0  0  0  0  0  0  0  0  0  0
   15.8577   35.6717   35.9443 C   0  0  0  0  0  0  0  0  0  0  0  0
   16.7025   34.9583   35.1440 N   0  0  0  0  0  0  0  0  0  0  0  0
   16.0100   35.6384   37.3563 N   0  0  0  0  0  0  0  0  0  0  0  0
    7.6770   44.0713   34.0503 H   0  0  0  0  0  0  0  0  0  0  0  0
    9.1835   45.3826   35.3535 H   0  0  0  0  0  0  0  0  0  0  0  0
   10.3190   45.4420   34.0990 H   0  0  0  0  0  0  0  0  0  0  0  0
    9.9710   44.0693   31.9738 H   0  0  0  0  0  0  0  0  0  0  0  0
    8.4817   43.0860   31.8666 H   0  0  0  0  0  0  0  0  0  0  0  0
    8.5539   46.1522   31.8756 H   0  0  0  0  0  0  0  0  0  0  0  0
    8.5387   45.1385   30.4028 H   0  0  0  0  0  0  0  0  0  0  0  0
    6.3010   45.0646   32.5326 H   0  0  0  0  0  0  0  0  0  0  0  0
    6.3302   44.1796   30.9675 H   0  0  0  0  0  0  0  0  0  0  0  0
    6.2466   46.2893   29.7203 H   0  0  0  0  0  0  0  0  0  0  0  0
    4.9220   46.2653   30.9233 H   0  0  0  0  0  0  0  0  0  0  0  0
    6.2820   47.7496   32.4210 H   0  0  0  0  0  0  0  0  0  0  0  0
    9.3919   50.2265   30.2960 H   0  0  0  0  0  0  0  0  0  0  0  0
    7.9119   51.1257   29.8480 H   0  0  0  0  0  0  0  0  0  0  0  0
    8.0190   53.3561   30.5052 H   0  0  0  0  0  0  0  0  0  0  0  0
    8.5258   55.1253   32.1307 H   0  0  0  0  0  0  0  0  0  0  0  0
   10.2332   52.2520   34.8012 H   0  0  0  0  0  0  0  0  0  0  0  0
    9.6196   54.5746   34.2795 H   0  0  0  0  0  0  0  0  0  0  0  0
   11.2131   41.0320   31.8757 H   0  0  0  0  0  0  0  0  0  0  0  0
    9.7427   40.0141   31.9266 H   0  0  0  0  0  0  0  0  0  0  0  0
   11.5980   39.0108   30.5904 H   0  0  0  0  0  0  0  0  0  0  0  0
   10.7009   37.5602   33.1721 H   0  0  0  0  0  0  0  0  0  0  0  0
   14.1977   37.4380   31.5532 H   0  0  0  0  0  0  0  0  0  0  0  0
    9.5180   36.3961   31.6977 H   0  0  0  0  0  0  0  0  0  0  0  0
   12.1419   35.7697   32.5692 H   0  0  0  0  0  0  0  0  0  0  0  0
   11.7730   35.4523   30.4488 H   0  0  0  0  0  0  0  0  0  0  0  0
   12.4321   38.3984   34.8692 H   0  0  0  0  0  0  0  0  0  0  0  0
   17.2667   34.4138   33.1693 H   0  0  0  0  0  0  0  0  0  0  0  0
   16.7634   35.0598   37.7897 H   0  0  0  0  0  0  0  0  0  0  0  0
   15.3757   36.1867   37.9790 H   0  0  0  0  0  0  0  0  0  0  0  0
  1  2  2  0
  1  3  1  0
  3  4  1  0
  4  5  1  0
  6  1  1  0
  7  6  1  0
  6  8  1  0
  8  9  1  0
  9 10  1  0
 10 11  1  0
 11 12  1  0
 12 13  1  0
 13 14  1  0
 13 15  2  0
 14 16  1  0
 16 17  1  0
 17 18  2  0
 19 17  1  0
 18 20  1  0
 21 19  2  0
 19 22  1  0
 20 23  2  0
 23 21  1  0
 22 24  1  0
 22 25  2  0
  4 26  2  0
  4 27  1  0
 28 27  1  0
 28 29  1  0
 29 30  1  0
 29 31  1  0
 30 32  1  0
 31 33  1  0
 31 34  1  0
 34 32  1  0
 32 35  1  0
 34 36  1  0
 37 35  1  0
 38 35  1  0
 39 37  2  0
 37 40  1  0
 41 38  2  0
 42 39  1  0
 40 43  2  0
 40 41  1  0
 44 42  2  0
 44 43  1  0
 43 45  1  0
  6 46  1  6
  7 47  1  0
  7 48  1  0
  8 49  1  0
  8 50  1  0
  9 51  1  0
  9 52  1  0
 10 53  1  0
 10 54  1  0
 11 55  1  0
 11 56  1  0
 12 57  1  0
 16 58  1  0
 16 59  1  0
 18 60  1  0
 20 61  1  0
 21 62  1  0
 23 63  1  0
 28 64  1  0
 28 65  1  0
 29 66  1  0
 31 67  1  0
 32 68  1  0
 33 69  1  0
 34 70  1  0
 36 71  1  0
 38 72  1  0
 42 73  1  0
 45 74  1  0
 45 75  1  0
M  CHG  3   5  -1  22   1  24  -1
M  END
>  <EmbedRMS>  (542) 
0.0746739265485

$$$$

     RDKit          3D

 75 78  0  0  0  0  0  0  0  0999 V2000
    9.4332   42.9365   34.3463 C   0  0  0  0  0  0  0  0  0  0  0  0
   10.4908   43.0330   35.0319 O   0  0  0  0  0  0  0  0  0  0  0  0
    8.8559   41.7104   34.0304 O   0  0  0  0  0  0  0  0  0  0  0  0
    9.4931   40.2141   34.4703 P   0  0  0  0  0  0  0  0  0  0  0  0
    9.7293   40.1727   36.1313 O   0  0  0  0  0  0  0  0  0  0  0  0
    8.7506   44.1349   33.7741 C   0  0  1  0  0  0  0  0  0  0  0  0
    9.2963   45.3821   34.3133 N   0  0  0  0  0  0  0  0  0  0  0  0
    8.8893   44.0528   32.2358 C   0  0  0  0  0  0  0  0  0  0  0  0
    8.2028   45.1824   31.4615 C   0  0  0  0  0  0  0  0  0  0  0  0
    6.6653   45.1045   31.4854 C   0  0  0  0  0  0  0  0  0  0  0  0
    6.0268   46.3225   30.8103 C   0  0  0  0  0  0  0  0  0  0  0  0
    6.5059   47.5639   31.4179 N   0  0  0  0  0  0  0  0  0  0  0  0
    7.2450   48.5384   30.6842 C   0  0  0  0  0  0  0  0  0  0  0  0
    7.6020   49.7356   31.3101 O   0  0  0  0  0  0  0  0  0  0  0  0
    7.5927   48.3122   29.4935 O   0  0  0  0  0  0  0  0  0  0  0  0
    8.3590   50.7511   30.6571 C   0  0  0  0  0  0  0  0  0  0  0  0
    8.6364   51.8769   31.6234 C   0  0  0  0  0  0  0  0  0  0  0  0
    9.1904   51.5565   32.8765 C   0  0  0  0  0  0  0  0  0  0  0  0
    8.3318   53.2315   31.3291 C   0  0  0  0  0  0  0  0  0  0  0  0
    9.3963   52.5460   33.8391 C   0  0  0  0  0  0  0  0  0  0  0  0
    8.5280   54.2112   32.3186 C   0  0  0  0  0  0  0  0  0  0  0  0
    7.8629   53.6348   30.0334 N   0  0  0  0  0  0  0  0  0  0  0  0
    9.0558   53.8693   33.5644 C   0  0  0  0  0  0  0  0  0  0  0  0
    8.5443   53.2416   28.9046 O   0  0  0  0  0  0  0  0  0  0  0  0
    6.9965   54.5281   29.9339 O   0  0  0  0  0  0  0  0  0  0  0  0
    8.5366   39.1382   34.0136 O   0  0  0  0  0  0  0  0  0  0  0  0
   10.9788   40.0866   33.6873 O   0  0  0  0  0  0  0  0  0  0  0  0
   10.7993   40.0944   32.2886 C   0  0  0  0  0  0  0  0  0  0  0  0
   11.5957   38.9351   31.6994 C   0  0  0  0  0  0  0  0  0  0  0  0
   12.9257   38.9477   32.1798 O   0  0  0  0  0  0  0  0  0  0  0  0
   11.0070   37.5757   32.0732 C   0  0  0  0  0  0  0  0  0  0  0  0
   13.3571   37.5979   32.2612 C   0  0  0  0  0  0  0  0  0  0  0  0
    9.9093   37.1807   31.2875 O   0  0  0  0  0  0  0  0  0  0  0  0
   12.1968   36.6763   31.8894 C   0  0  0  0  0  0  0  0  0  0  0  0
   13.8018   37.2956   33.6197 N   0  0  0  0  0  0  0  0  0  0  0  0
   12.3049   36.2360   30.5555 O   0  0  0  0  0  0  0  0  0  0  0  0
   14.7922   36.4716   33.9864 C   0  0  0  0  0  0  0  0  0  0  0  0
   13.2747   37.7291   34.7944 C   0  0  0  0  0  0  0  0  0  0  0  0
   15.6240   35.7581   33.1861 N   0  0  0  0  0  0  0  0  0  0  0  0
   14.8721   36.4402   35.3331 C   0  0  0  0  0  0  0  0  0  0  0  0
   13.9206   37.2257   35.8810 N   0  0  0  0  0  0  0  0  0  0  0  0
   16.5873   34.9924   33.7802 C   0  0  0  0  0  0  0  0  0  0  0  0
   15.8576   35.6714   35.9444 C   0  0  0  0  0  0  0  0  0  0  0  0
   16.7026   34.9585   35.1439 N   0  0  0  0  0  0  0  0  0  0  0  0
   16.0102   35.6383   37.3564 N   0  0  0  0  0  0  0  0  0  0  0  0
    7.6770   44.0708   34.0504 H   0  0  0  0  0  0  0  0  0  0  0  0
   10.3192   45.4408   34.0999 H   0  0  0  0  0  0  0  0  0  0  0  0
    9.1827   45.3822   35.3535 H   0  0  0  0  0  0  0  0  0  0  0  0
    9.9711   44.0682   31.9739 H   0  0  0  0  0  0  0  0  0  0  0  0
    8.4816   43.0851   31.8669 H   0  0  0  0  0  0  0  0  0  0  0  0
    8.5551   46.1511   31.8744 H   0  0  0  0  0  0  0  0  0  0  0  0
    8.5385   45.1365   30.4023 H   0  0  0  0  0  0  0  0  0  0  0  0
    6.3019   45.0642   32.5332 H   0  0  0  0  0  0  0  0  0  0  0  0
    6.3297   44.1799   30.9677 H   0  0  0  0  0  0  0  0  0  0  0  0
    4.9234   46.2670   30.9261 H   0  0  0  0  0  0  0  0  0  0  0  0
    6.2465   46.2897   29.7215 H   0  0  0  0  0  0  0  0  0  0  0  0
    6.2825   47.7524   32.4210 H   0  0  0  0  0  0  0  0  0  0  0  0
    7.7883   51.0917   29.7706 H   0  0  0  0  0  0  0  0  0  0  0  0
    9.3285   50.3287   30.3149 H   0  0  0  0  0  0  0  0  0  0  0  0
    9.4471   50.5315   33.1154 H   0  0  0  0  0  0  0  0  0  0  0  0
    9.8138   52.2843   34.8029 H   0  0  0  0  0  0  0  0  0  0  0  0
    8.2964   55.2488   32.1130 H   0  0  0  0  0  0  0  0  0  0  0  0
    9.2127   54.6343   34.3139 H   0  0  0  0  0  0  0  0  0  0  0  0
   11.2094   41.0479   31.8922 H   0  0  0  0  0  0  0  0  0  0  0  0
    9.7448   40.0200   31.9304 H   0  0  0  0  0  0  0  0  0  0  0  0
   11.6206   39.0685   30.5942 H   0  0  0  0  0  0  0  0  0  0  0  0
   10.7059   37.5563   33.1438 H   0  0  0  0  0  0  0  0  0  0  0  0
   14.2095   37.4543   31.5601 H   0  0  0  0  0  0  0  0  0  0  0  0
   10.0865   37.4209   30.3413 H   0  0  0  0  0  0  0  0  0  0  0  0
   12.1276   35.7872   32.5549 H   0  0  0  0  0  0  0  0  0  0  0  0
   12.5031   37.0109   29.9672 H   0  0  0  0  0  0  0  0  0  0  0  0
   12.4328   38.3996   34.8703 H   0  0  0  0  0  0  0  0  0  0  0  0
   17.2670   34.4149   33.1691 H   0  0  0  0  0  0  0  0  0  0  0  0
   16.7640   35.0601   37.7896 H   0  0  0  0  0  0  0  0  0  0  0  0
   15.3758   36.1862   37.9792 H   0  0  0  0  0  0  0  0  0  0  0  0
  1  2  2  0
  1  3  1  0
  3  4  1  0
  4  5  1  0
  6  1  1  0
  7  6  1  0
  6  8  1  0
  8  9  1  0
  9 10  1  0
 10 11  1  0
 11 12  1  0
 12 13  1  0
 13 14  1  0
 13 15  2  0
 14 16  1  0
 16 17  1  0
 17 18  2  0
 19 17  1  0
 18 20  1  0
 21 19  2  0
 19 22  1  0
 20 23  2  0
 23 21  1  0
 22 24  1  0
 22 25  2  0
  4 26  2  0
  4 27  1  0
 28 27  1  0
 28 29  1  0
 29 30  1  0
 29 31  1  0
 30 32  1  0
 31 33  1  0
 31 34  1  0
 34 32  1  0
 32 35  1  0
 34 36  1  0
 37 35  1  0
 38 35  1  0
 39 37  2  0
 37 40  1  0
 41 38  2  0
 42 39  1  0
 40 43  2  0
 40 41  1  0
 44 42  2  0
 44 43  1  0
 43 45  1  0
  6 46  1  6
  7 47  1  0
  7 48  1  0
  8 49  1  0
  8 50  1  0
  9 51  1  0
  9 52  1  0
 10 53  1  0
 10 54  1  0
 11 55  1  0
 11 56  1  0
 12 57  1  0
 16 58  1  0
 16 59  1  0
 18 60  1  0
 20 61  1  0
 21 62  1  0
 23 63  1  0
 28 64  1  0
 28 65  1  0
 29 66  1  0
 31 67  1  0
 32 68  1  0
 33 69  1  0
 34 70  1  0
 36 71  1  0
 38 72  1  0
 42 73  1  0
 45 74  1  0
 45 75  1  0
M  CHG  3   5  -1  22   1  24  -1
M  END
>  <EmbedRMS>  (543) 
0.0762026515642

$$$$

     RDKit          3D

 75 78  0  0  0  0  0  0  0  0999 V2000
    9.4311   42.9412   34.3437 C   0  0  0  0  0  0  0  0  0  0  0  0
   10.4884   43.0411   35.0293 O   0  0  0  0  0  0  0  0  0  0  0  0
    8.8562   41.7129   34.0287 O   0  0  0  0  0  0  0  0  0  0  0  0
    9.4945   40.2162   34.4677 P   0  0  0  0  0  0  0  0  0  0  0  0
    9.7312   40.1740   36.1288 O   0  0  0  0  0  0  0  0  0  0  0  0
    8.7482   44.1362   33.7722 C   0  0  1  0  0  0  0  0  0  0  0  0
    9.3036   45.3668   34.3389 N   0  0  0  0  0  0  0  0  0  0  0  0
    8.8891   44.0521   32.2309 C   0  0  0  0  0  0  0  0  0  0  0  0
    8.2016   45.1727   31.4438 C   0  0  0  0  0  0  0  0  0  0  0  0
    6.6644   45.1060   31.4863 C   0  0  0  0  0  0  0  0  0  0  0  0
    6.0277   46.3240   30.8100 C   0  0  0  0  0  0  0  0  0  0  0  0
    6.5061   47.5638   31.4218 N   0  0  0  0  0  0  0  0  0  0  0  0
    7.2505   48.5407   30.6839 C   0  0  0  0  0  0  0  0  0  0  0  0
    7.6423   49.7531   31.2635 O   0  0  0  0  0  0  0  0  0  0  0  0
    7.5877   48.3086   29.4938 O   0  0  0  0  0  0  0  0  0  0  0  0
    7.3540   50.1223   32.6088 C   0  0  0  0  0  0  0  0  0  0  0  0
    7.8958   51.5029   32.8842 C   0  0  0  0  0  0  0  0  0  0  0  0
    8.8246   51.6670   33.9293 C   0  0  0  0  0  0  0  0  0  0  0  0
    7.5309   52.6300   32.0981 C   0  0  0  0  0  0  0  0  0  0  0  0
    9.3918   52.9148   34.1901 C   0  0  0  0  0  0  0  0  0  0  0  0
    8.1272   53.8755   32.3700 C   0  0  0  0  0  0  0  0  0  0  0  0
    6.5840   52.5311   31.0178 N   0  0  0  0  0  0  0  0  0  0  0  0
    9.0467   54.0159   33.4099 C   0  0  0  0  0  0  0  0  0  0  0  0
    5.4544   51.7563   31.1399 O   0  0  0  0  0  0  0  0  0  0  0  0
    6.6952   53.2729   30.0197 O   0  0  0  0  0  0  0  0  0  0  0  0
    8.5374   39.1401   34.0124 O   0  0  0  0  0  0  0  0  0  0  0  0
   10.9799   40.0879   33.6828 O   0  0  0  0  0  0  0  0  0  0  0  0
   10.8002   40.0907   32.2831 C   0  0  0  0  0  0  0  0  0  0  0  0
   11.5958   38.9271   31.6964 C   0  0  0  0  0  0  0  0  0  0  0  0
   12.9239   38.9409   32.1767 O   0  0  0  0  0  0  0  0  0  0  0  0
   11.0062   37.5720   32.0794 C   0  0  0  0  0  0  0  0  0  0  0  0
   13.3506   37.5906   32.2614 C   0  0  0  0  0  0  0  0  0  0  0  0
    9.9064   37.1793   31.2946 O   0  0  0  0  0  0  0  0  0  0  0  0
   12.1920   36.6672   31.9004 C   0  0  0  0  0  0  0  0  0  0  0  0
   13.8017   37.2948   33.6193 N   0  0  0  0  0  0  0  0  0  0  0  0
   12.3133   36.2788   30.5561 O   0  0  0  0  0  0  0  0  0  0  0  0
   14.7927   36.4717   33.9862 C   0  0  0  0  0  0  0  0  0  0  0  0
   13.2746   37.7284   34.7941 C   0  0  0  0  0  0  0  0  0  0  0  0
   15.6240   35.7576   33.1859 N   0  0  0  0  0  0  0  0  0  0  0  0
   14.8728   36.4406   35.3330 C   0  0  0  0  0  0  0  0  0  0  0  0
   13.9209   37.2258   35.8808 N   0  0  0  0  0  0  0  0  0  0  0  0
   16.5874   34.9920   33.7802 C   0  0  0  0  0  0  0  0  0  0  0  0
   15.8579   35.6716   35.9443 C   0  0  0  0  0  0  0  0  0  0  0  0
   16.7028   34.9584   35.1439 N   0  0  0  0  0  0  0  0  0  0  0  0
   16.0103   35.6383   37.3563 N   0  0  0  0  0  0  0  0  0  0  0  0
    7.6761   44.0637   34.0546 H   0  0  0  0  0  0  0  0  0  0  0  0
   10.2147   45.5887   33.8746 H   0  0  0  0  0  0  0  0  0  0  0  0
    8.6463   46.1562   34.1438 H   0  0  0  0  0  0  0  0  0  0  0  0
    8.4829   43.0821   31.8666 H   0  0  0  0  0  0  0  0  0  0  0  0
    9.9707   44.0645   31.9682 H   0  0  0  0  0  0  0  0  0  0  0  0
    8.5701   46.1492   31.8192 H   0  0  0  0  0  0  0  0  0  0  0  0
    8.5217   45.0978   30.3814 H   0  0  0  0  0  0  0  0  0  0  0  0
    6.3164   44.1801   30.9791 H   0  0  0  0  0  0  0  0  0  0  0  0
    6.3125   45.0758   32.5383 H   0  0  0  0  0  0  0  0  0  0  0  0
    6.2484   46.2918   29.7215 H   0  0  0  0  0  0  0  0  0  0  0  0
    4.9240   46.2687   30.9244 H   0  0  0  0  0  0  0  0  0  0  0  0
    6.2766   47.7251   32.4271 H   0  0  0  0  0  0  0  0  0  0  0  0
    6.2587   50.1116   32.7881 H   0  0  0  0  0  0  0  0  0  0  0  0
    7.8116   49.3741   33.2928 H   0  0  0  0  0  0  0  0  0  0  0  0
    9.1196   50.8246   34.5428 H   0  0  0  0  0  0  0  0  0  0  0  0
   10.1058   53.0264   34.9960 H   0  0  0  0  0  0  0  0  0  0  0  0
    7.8672   54.7468   31.7820 H   0  0  0  0  0  0  0  0  0  0  0  0
    9.4913   54.9819   33.6119 H   0  0  0  0  0  0  0  0  0  0  0  0
   11.2114   41.0421   31.8829 H   0  0  0  0  0  0  0  0  0  0  0  0
    9.7454   40.0168   31.9263 H   0  0  0  0  0  0  0  0  0  0  0  0
   11.6246   39.0449   30.5889 H   0  0  0  0  0  0  0  0  0  0  0  0
   10.7050   37.5581   33.1500 H   0  0  0  0  0  0  0  0  0  0  0  0
   14.1984   37.4426   31.5553 H   0  0  0  0  0  0  0  0  0  0  0  0
   10.0893   37.4058   30.3459 H   0  0  0  0  0  0  0  0  0  0  0  0
   12.1337   35.7754   32.5703 H   0  0  0  0  0  0  0  0  0  0  0  0
   11.7934   35.4394   30.4514 H   0  0  0  0  0  0  0  0  0  0  0  0
   12.4314   38.3973   34.8700 H   0  0  0  0  0  0  0  0  0  0  0  0
   17.2669   34.4142   33.1691 H   0  0  0  0  0  0  0  0  0  0  0  0
   15.3759   36.1865   37.9790 H   0  0  0  0  0  0  0  0  0  0  0  0
   16.7638   35.0599   37.7896 H   0  0  0  0  0  0  0  0  0  0  0  0
  1  2  2  0
  1  3  1  0
  3  4  1  0
  4  5  1  0
  6  1  1  0
  7  6  1  0
  6  8  1  0
  8  9  1  0
  9 10  1  0
 10 11  1  0
 11 12  1  0
 12 13  1  0
 13 14  1  0
 13 15  2  0
 14 16  1  0
 16 17  1  0
 17 18  2  0
 19 17  1  0
 18 20  1  0
 21 19  2  0
 19 22  1  0
 20 23  2  0
 23 21  1  0
 22 24  1  0
 22 25  2  0
  4 26  2  0
  4 27  1  0
 28 27  1  0
 28 29  1  0
 29 30  1  0
 29 31  1  0
 30 32  1  0
 31 33  1  0
 31 34  1  0
 34 32  1  0
 32 35  1  0
 34 36  1  0
 37 35  1  0
 38 35  1  0
 39 37  2  0
 37 40  1  0
 41 38  2  0
 42 39  1  0
 40 43  2  0
 40 41  1  0
 44 42  2  0
 44 43  1  0
 43 45  1  0
  6 46  1  6
  7 47  1  0
  7 48  1  0
  8 49  1  0
  8 50  1  0
  9 51  1  0
  9 52  1  0
 10 53  1  0
 10 54  1  0
 11 55  1  0
 11 56  1  0
 12 57  1  0
 16 58  1  0
 16 59  1  0
 18 60  1  0
 20 61  1  0
 21 62  1  0
 23 63  1  0
 28 64  1  0
 28 65  1  0
 29 66  1  0
 31 67  1  0
 32 68  1  0
 33 69  1  0
 34 70  1  0
 36 71  1  0
 38 72  1  0
 42 73  1  0
 45 74  1  0
 45 75  1  0
M  CHG  3   5  -1  22   1  24  -1
M  END
>  <EmbedRMS>  (544) 
0.0740557987891

$$$$

     RDKit          3D

 75 78  0  0  0  0  0  0  0  0999 V2000
    9.4315   42.9405   34.3432 C   0  0  0  0  0  0  0  0  0  0  0  0
   10.4885   43.0412   35.0291 O   0  0  0  0  0  0  0  0  0  0  0  0
    8.8565   41.7122   34.0288 O   0  0  0  0  0  0  0  0  0  0  0  0
    9.4947   40.2157   34.4679 P   0  0  0  0  0  0  0  0  0  0  0  0
    9.7314   40.1738   36.1290 O   0  0  0  0  0  0  0  0  0  0  0  0
    8.7479   44.1339   33.7707 C   0  0  1  0  0  0  0  0  0  0  0  0
    9.2992   45.3652   34.3374 N   0  0  0  0  0  0  0  0  0  0  0  0
    8.8902   44.0516   32.2298 C   0  0  0  0  0  0  0  0  0  0  0  0
    8.2028   45.1727   31.4432 C   0  0  0  0  0  0  0  0  0  0  0  0
    6.6658   45.1075   31.4891 C   0  0  0  0  0  0  0  0  0  0  0  0
    6.0286   46.3263   30.8158 C   0  0  0  0  0  0  0  0  0  0  0  0
    6.5119   47.5661   31.4248 N   0  0  0  0  0  0  0  0  0  0  0  0
    7.2298   48.5520   30.6732 C   0  0  0  0  0  0  0  0  0  0  0  0
    7.5310   49.8119   31.2076 O   0  0  0  0  0  0  0  0  0  0  0  0
    7.6007   48.2985   29.4976 O   0  0  0  0  0  0  0  0  0  0  0  0
    7.1532   50.2560   32.5100 C   0  0  0  0  0  0  0  0  0  0  0  0
    8.0377   49.6432   33.5739 C   0  0  0  0  0  0  0  0  0  0  0  0
    9.4262   49.5981   33.3492 C   0  0  0  0  0  0  0  0  0  0  0  0
    7.5193   49.1274   34.7911 C   0  0  0  0  0  0  0  0  0  0  0  0
   10.2822   49.0190   34.2870 C   0  0  0  0  0  0  0  0  0  0  0  0
    8.3956   48.5368   35.7172 C   0  0  0  0  0  0  0  0  0  0  0  0
    6.1247   49.2158   35.1196 N   0  0  0  0  0  0  0  0  0  0  0  0
    9.7676   48.4863   35.4673 C   0  0  0  0  0  0  0  0  0  0  0  0
    5.5150   48.1811   35.7908 O   0  0  0  0  0  0  0  0  0  0  0  0
    5.5265   50.3071   35.0233 O   0  0  0  0  0  0  0  0  0  0  0  0
    8.5374   39.1397   34.0126 O   0  0  0  0  0  0  0  0  0  0  0  0
   10.9798   40.0876   33.6826 O   0  0  0  0  0  0  0  0  0  0  0  0
   10.7997   40.0900   32.2830 C   0  0  0  0  0  0  0  0  0  0  0  0
   11.5968   38.9274   31.6963 C   0  0  0  0  0  0  0  0  0  0  0  0
   12.9243   38.9426   32.1784 O   0  0  0  0  0  0  0  0  0  0  0  0
   11.0086   37.5714   32.0780 C   0  0  0  0  0  0  0  0  0  0  0  0
   13.3528   37.5929   32.2623 C   0  0  0  0  0  0  0  0  0  0  0  0
    9.9098   37.1771   31.2926 O   0  0  0  0  0  0  0  0  0  0  0  0
   12.1943   36.6683   31.8995 C   0  0  0  0  0  0  0  0  0  0  0  0
   13.8019   37.2950   33.6199 N   0  0  0  0  0  0  0  0  0  0  0  0
   12.3027   36.2773   30.5559 O   0  0  0  0  0  0  0  0  0  0  0  0
   14.7926   36.4715   33.9865 C   0  0  0  0  0  0  0  0  0  0  0  0
   13.2749   37.7286   34.7946 C   0  0  0  0  0  0  0  0  0  0  0  0
   15.6239   35.7577   33.1860 N   0  0  0  0  0  0  0  0  0  0  0  0
   14.8727   36.4403   35.3332 C   0  0  0  0  0  0  0  0  0  0  0  0
   13.9210   37.2257   35.8812 N   0  0  0  0  0  0  0  0  0  0  0  0
   16.5873   34.9921   33.7802 C   0  0  0  0  0  0  0  0  0  0  0  0
   15.8579   35.6714   35.9444 C   0  0  0  0  0  0  0  0  0  0  0  0
   16.7028   34.9583   35.1439 N   0  0  0  0  0  0  0  0  0  0  0  0
   16.0104   35.6381   37.3564 N   0  0  0  0  0  0  0  0  0  0  0  0
    7.6757   44.0592   34.0522 H   0  0  0  0  0  0  0  0  0  0  0  0
   10.2130   45.5869   33.8784 H   0  0  0  0  0  0  0  0  0  0  0  0
    8.6410   46.1491   34.1273 H   0  0  0  0  0  0  0  0  0  0  0  0
    9.9721   44.0650   31.9681 H   0  0  0  0  0  0  0  0  0  0  0  0
    8.4849   43.0817   31.8643 H   0  0  0  0  0  0  0  0  0  0  0  0
    8.5736   46.1496   31.8159 H   0  0  0  0  0  0  0  0  0  0  0  0
    8.5203   45.0961   30.3801 H   0  0  0  0  0  0  0  0  0  0  0  0
    6.3165   45.0779   32.5421 H   0  0  0  0  0  0  0  0  0  0  0  0
    6.3154   44.1821   30.9827 H   0  0  0  0  0  0  0  0  0  0  0  0
    4.9256   46.2727   30.9367 H   0  0  0  0  0  0  0  0  0  0  0  0
    6.2429   46.2933   29.7261 H   0  0  0  0  0  0  0  0  0  0  0  0
    6.2944   47.7260   32.4325 H   0  0  0  0  0  0  0  0  0  0  0  0
    7.2866   51.3572   32.5496 H   0  0  0  0  0  0  0  0  0  0  0  0
    6.0751   50.0497   32.6635 H   0  0  0  0  0  0  0  0  0  0  0  0
    9.8480   50.0051   32.4384 H   0  0  0  0  0  0  0  0  0  0  0  0
   11.3471   48.9820   34.0969 H   0  0  0  0  0  0  0  0  0  0  0  0
    8.0161   48.1342   36.6479 H   0  0  0  0  0  0  0  0  0  0  0  0
   10.4332   48.0353   36.1920 H   0  0  0  0  0  0  0  0  0  0  0  0
    9.7449   40.0145   31.9265 H   0  0  0  0  0  0  0  0  0  0  0  0
   11.2095   41.0419   31.8825 H   0  0  0  0  0  0  0  0  0  0  0  0
   11.6265   39.0456   30.5888 H   0  0  0  0  0  0  0  0  0  0  0  0
   10.7064   37.5575   33.1485 H   0  0  0  0  0  0  0  0  0  0  0  0
   14.2021   37.4484   31.5574 H   0  0  0  0  0  0  0  0  0  0  0  0
   10.0952   37.3991   30.3433 H   0  0  0  0  0  0  0  0  0  0  0  0
   12.1163   35.7745   32.5634 H   0  0  0  0  0  0  0  0  0  0  0  0
   12.9614   35.5349   30.5312 H   0  0  0  0  0  0  0  0  0  0  0  0
   12.4321   38.3982   34.8705 H   0  0  0  0  0  0  0  0  0  0  0  0
   17.2669   34.4143   33.1690 H   0  0  0  0  0  0  0  0  0  0  0  0
   15.3761   36.1862   37.9792 H   0  0  0  0  0  0  0  0  0  0  0  0
   16.7641   35.0598   37.7896 H   0  0  0  0  0  0  0  0  0  0  0  0
  1  2  2  0
  1  3  1  0
  3  4  1  0
  4  5  1  0
  6  1  1  0
  7  6  1  0
  6  8  1  0
  8  9  1  0
  9 10  1  0
 10 11  1  0
 11 12  1  0
 12 13  1  0
 13 14  1  0
 13 15  2  0
 14 16  1  0
 16 17  1  0
 17 18  2  0
 19 17  1  0
 18 20  1  0
 21 19  2  0
 19 22  1  0
 20 23  2  0
 23 21  1  0
 22 24  1  0
 22 25  2  0
  4 26  2  0
  4 27  1  0
 28 27  1  0
 28 29  1  0
 29 30  1  0
 29 31  1  0
 30 32  1  0
 31 33  1  0
 31 34  1  0
 34 32  1  0
 32 35  1  0
 34 36  1  0
 37 35  1  0
 38 35  1  0
 39 37  2  0
 37 40  1  0
 41 38  2  0
 42 39  1  0
 40 43  2  0
 40 41  1  0
 44 42  2  0
 44 43  1  0
 43 45  1  0
  6 46  1  6
  7 47  1  0
  7 48  1  0
  8 49  1  0
  8 50  1  0
  9 51  1  0
  9 52  1  0
 10 53  1  0
 10 54  1  0
 11 55  1  0
 11 56  1  0
 12 57  1  0
 16 58  1  0
 16 59  1  0
 18 60  1  0
 20 61  1  0
 21 62  1  0
 23 63  1  0
 28 64  1  0
 28 65  1  0
 29 66  1  0
 31 67  1  0
 32 68  1  0
 33 69  1  0
 34 70  1  0
 36 71  1  0
 38 72  1  0
 42 73  1  0
 45 74  1  0
 45 75  1  0
M  CHG  3   5  -1  22   1  24  -1
M  END
>  <EmbedRMS>  (545) 
0.0735943655205

$$$$

     RDKit          3D

 75 78  0  0  0  0  0  0  0  0999 V2000
    9.4331   42.9365   34.3462 C   0  0  0  0  0  0  0  0  0  0  0  0
   10.4907   43.0329   35.0318 O   0  0  0  0  0  0  0  0  0  0  0  0
    8.8558   41.7103   34.0299 O   0  0  0  0  0  0  0  0  0  0  0  0
    9.4944   40.2141   34.4677 P   0  0  0  0  0  0  0  0  0  0  0  0
    9.7317   40.1723   36.1287 O   0  0  0  0  0  0  0  0  0  0  0  0
    8.7506   44.1348   33.7741 C   0  0  1  0  0  0  0  0  0  0  0  0
    9.2963   45.3820   34.3133 N   0  0  0  0  0  0  0  0  0  0  0  0
    8.8893   44.0527   32.2358 C   0  0  0  0  0  0  0  0  0  0  0  0
    8.2029   45.1822   31.4614 C   0  0  0  0  0  0  0  0  0  0  0  0
    6.6654   45.1046   31.4854 C   0  0  0  0  0  0  0  0  0  0  0  0
    6.0272   46.3228   30.8107 C   0  0  0  0  0  0  0  0  0  0  0  0
    6.5072   47.5640   31.4182 N   0  0  0  0  0  0  0  0  0  0  0  0
    7.2415   48.5406   30.6827 C   0  0  0  0  0  0  0  0  0  0  0  0
    7.5871   49.7445   31.3060 O   0  0  0  0  0  0  0  0  0  0  0  0
    7.5942   48.3105   29.4945 O   0  0  0  0  0  0  0  0  0  0  0  0
    8.2813   50.8029   30.6479 C   0  0  0  0  0  0  0  0  0  0  0  0
    7.3790   51.5014   29.6571 C   0  0  0  0  0  0  0  0  0  0  0  0
    7.5796   51.2621   28.2849 C   0  0  0  0  0  0  0  0  0  0  0  0
    6.3687   52.4186   30.0612 C   0  0  0  0  0  0  0  0  0  0  0  0
    6.8001   51.9091   27.3260 C   0  0  0  0  0  0  0  0  0  0  0  0
    5.6050   53.0696   29.0751 C   0  0  0  0  0  0  0  0  0  0  0  0
    6.1213   52.7319   31.4454 N   0  0  0  0  0  0  0  0  0  0  0  0
    5.8160   52.8122   27.7202 C   0  0  0  0  0  0  0  0  0  0  0  0
    5.6112   53.9628   31.7895 O   0  0  0  0  0  0  0  0  0  0  0  0
    6.2155   51.8570   32.3297 O   0  0  0  0  0  0  0  0  0  0  0  0
    8.5373   39.1382   34.0122 O   0  0  0  0  0  0  0  0  0  0  0  0
   10.9795   40.0889   33.6815 O   0  0  0  0  0  0  0  0  0  0  0  0
   10.7982   40.0848   32.2819 C   0  0  0  0  0  0  0  0  0  0  0  0
   11.5886   38.9142   31.7009 C   0  0  0  0  0  0  0  0  0  0  0  0
   12.9214   38.9367   32.1698 O   0  0  0  0  0  0  0  0  0  0  0  0
   11.0047   37.5660   32.0990 C   0  0  0  0  0  0  0  0  0  0  0  0
   13.3510   37.5885   32.2601 C   0  0  0  0  0  0  0  0  0  0  0  0
    9.9296   37.1961   31.2780 O   0  0  0  0  0  0  0  0  0  0  0  0
   12.1923   36.6658   31.9047 C   0  0  0  0  0  0  0  0  0  0  0  0
   13.8033   37.2966   33.6188 N   0  0  0  0  0  0  0  0  0  0  0  0
   12.3007   36.2864   30.5561 O   0  0  0  0  0  0  0  0  0  0  0  0
   14.7933   36.4724   33.9860 C   0  0  0  0  0  0  0  0  0  0  0  0
   13.2753   37.7296   34.7935 C   0  0  0  0  0  0  0  0  0  0  0  0
   15.6243   35.7579   33.1860 N   0  0  0  0  0  0  0  0  0  0  0  0
   14.8728   36.4410   35.3328 C   0  0  0  0  0  0  0  0  0  0  0  0
   13.9209   37.2263   35.8804 N   0  0  0  0  0  0  0  0  0  0  0  0
   16.5873   34.9920   33.7803 C   0  0  0  0  0  0  0  0  0  0  0  0
   15.8577   35.6717   35.9443 C   0  0  0  0  0  0  0  0  0  0  0  0
   16.7025   34.9583   35.1440 N   0  0  0  0  0  0  0  0  0  0  0  0
   16.0100   35.6384   37.3563 N   0  0  0  0  0  0  0  0  0  0  0  0
    7.6770   44.0707   34.0503 H   0  0  0  0  0  0  0  0  0  0  0  0
    9.1827   45.3820   35.3535 H   0  0  0  0  0  0  0  0  0  0  0  0
   10.3192   45.4405   34.1000 H   0  0  0  0  0  0  0  0  0  0  0  0
    9.9711   44.0680   31.9739 H   0  0  0  0  0  0  0  0  0  0  0  0
    8.4816   43.0850   31.8668 H   0  0  0  0  0  0  0  0  0  0  0  0
    8.5385   45.1361   30.4021 H   0  0  0  0  0  0  0  0  0  0  0  0
    8.5554   46.1509   31.8740 H   0  0  0  0  0  0  0  0  0  0  0  0
    6.3020   45.0641   32.5332 H   0  0  0  0  0  0  0  0  0  0  0  0
    6.3296   44.1801   30.9674 H   0  0  0  0  0  0  0  0  0  0  0  0
    4.9238   46.2679   30.9271 H   0  0  0  0  0  0  0  0  0  0  0  0
    6.2463   46.2901   29.7218 H   0  0  0  0  0  0  0  0  0  0  0  0
    6.2826   47.7534   32.4209 H   0  0  0  0  0  0  0  0  0  0  0  0
    9.1905   50.3952   30.1530 H   0  0  0  0  0  0  0  0  0  0  0  0
    8.6401   51.5335   31.4028 H   0  0  0  0  0  0  0  0  0  0  0  0
    8.3462   50.5728   27.9527 H   0  0  0  0  0  0  0  0  0  0  0  0
    6.9639   51.7136   26.2741 H   0  0  0  0  0  0  0  0  0  0  0  0
    4.8317   53.7730   29.3567 H   0  0  0  0  0  0  0  0  0  0  0  0
    5.2150   53.3158   26.9740 H   0  0  0  0  0  0  0  0  0  0  0  0
   11.2131   41.0320   31.8757 H   0  0  0  0  0  0  0  0  0  0  0  0
    9.7427   40.0140   31.9266 H   0  0  0  0  0  0  0  0  0  0  0  0
   11.5980   39.0107   30.5904 H   0  0  0  0  0  0  0  0  0  0  0  0
   10.7009   37.5601   33.1721 H   0  0  0  0  0  0  0  0  0  0  0  0
   14.1977   37.4379   31.5532 H   0  0  0  0  0  0  0  0  0  0  0  0
    9.5181   36.3960   31.6977 H   0  0  0  0  0  0  0  0  0  0  0  0
   12.1419   35.7697   32.5692 H   0  0  0  0  0  0  0  0  0  0  0  0
   11.7730   35.4523   30.4488 H   0  0  0  0  0  0  0  0  0  0  0  0
   12.4320   38.3984   34.8692 H   0  0  0  0  0  0  0  0  0  0  0  0
   17.2667   34.4139   33.1694 H   0  0  0  0  0  0  0  0  0  0  0  0
   16.7634   35.0598   37.7897 H   0  0  0  0  0  0  0  0  0  0  0  0
   15.3757   36.1867   37.9790 H   0  0  0  0  0  0  0  0  0  0  0  0
  1  2  2  0
  1  3  1  0
  3  4  1  0
  4  5  1  0
  6  1  1  0
  7  6  1  0
  6  8  1  0
  8  9  1  0
  9 10  1  0
 10 11  1  0
 11 12  1  0
 12 13  1  0
 13 14  1  0
 13 15  2  0
 14 16  1  0
 16 17  1  0
 17 18  2  0
 19 17  1  0
 18 20  1  0
 21 19  2  0
 19 22  1  0
 20 23  2  0
 23 21  1  0
 22 24  1  0
 22 25  2  0
  4 26  2  0
  4 27  1  0
 28 27  1  0
 28 29  1  0
 29 30  1  0
 29 31  1  0
 30 32  1  0
 31 33  1  0
 31 34  1  0
 34 32  1  0
 32 35  1  0
 34 36  1  0
 37 35  1  0
 38 35  1  0
 39 37  2  0
 37 40  1  0
 41 38  2  0
 42 39  1  0
 40 43  2  0
 40 41  1  0
 44 42  2  0
 44 43  1  0
 43 45  1  0
  6 46  1  6
  7 47  1  0
  7 48  1  0
  8 49  1  0
  8 50  1  0
  9 51  1  0
  9 52  1  0
 10 53  1  0
 10 54  1  0
 11 55  1  0
 11 56  1  0
 12 57  1  0
 16 58  1  0
 16 59  1  0
 18 60  1  0
 20 61  1  0
 21 62  1  0
 23 63  1  0
 28 64  1  0
 28 65  1  0
 29 66  1  0
 31 67  1  0
 32 68  1  0
 33 69  1  0
 34 70  1  0
 36 71  1  0
 38 72  1  0
 42 73  1  0
 45 74  1  0
 45 75  1  0
M  CHG  3   5  -1  22   1  24  -1
M  END
>  <EmbedRMS>  (546) 
0.0743459906989

$$$$

     RDKit          3D

 75 78  0  0  0  0  0  0  0  0999 V2000
    9.4309   42.9414   34.3439 C   0  0  0  0  0  0  0  0  0  0  0  0
   10.4886   43.0412   35.0289 O   0  0  0  0  0  0  0  0  0  0  0  0
    8.8560   41.7130   34.0291 O   0  0  0  0  0  0  0  0  0  0  0  0
    9.4946   40.2164   34.4681 P   0  0  0  0  0  0  0  0  0  0  0  0
    9.7305   40.1739   36.1293 O   0  0  0  0  0  0  0  0  0  0  0  0
    8.7481   44.1365   33.7724 C   0  0  1  0  0  0  0  0  0  0  0  0
    9.3041   45.3668   34.3394 N   0  0  0  0  0  0  0  0  0  0  0  0
    8.8890   44.0528   32.2312 C   0  0  0  0  0  0  0  0  0  0  0  0
    8.2013   45.1737   31.4445 C   0  0  0  0  0  0  0  0  0  0  0  0
    6.6641   45.1071   31.4872 C   0  0  0  0  0  0  0  0  0  0  0  0
    6.0268   46.3239   30.8089 C   0  0  0  0  0  0  0  0  0  0  0  0
    6.5026   47.5647   31.4202 N   0  0  0  0  0  0  0  0  0  0  0  0
    7.2585   48.5358   30.6865 C   0  0  0  0  0  0  0  0  0  0  0  0
    7.6853   49.7302   31.2784 O   0  0  0  0  0  0  0  0  0  0  0  0
    7.5847   48.3091   29.4921 O   0  0  0  0  0  0  0  0  0  0  0  0
    7.4272   50.0841   32.6330 C   0  0  0  0  0  0  0  0  0  0  0  0
    8.0965   51.3978   32.9415 C   0  0  0  0  0  0  0  0  0  0  0  0
    7.3310   52.5761   32.8676 C   0  0  0  0  0  0  0  0  0  0  0  0
    9.4617   51.4785   33.3262 C   0  0  0  0  0  0  0  0  0  0  0  0
    7.8937   53.8126   33.1882 C   0  0  0  0  0  0  0  0  0  0  0  0
   10.0042   52.7332   33.6609 C   0  0  0  0  0  0  0  0  0  0  0  0
   10.3031   50.3115   33.3931 N   0  0  0  0  0  0  0  0  0  0  0  0
    9.2261   53.8900   33.5895 C   0  0  0  0  0  0  0  0  0  0  0  0
   10.2185   49.3275   32.4358 O   0  0  0  0  0  0  0  0  0  0  0  0
   11.2321   50.2569   34.2259 O   0  0  0  0  0  0  0  0  0  0  0  0
    8.5374   39.1407   34.0125 O   0  0  0  0  0  0  0  0  0  0  0  0
   10.9807   40.0888   33.6841 O   0  0  0  0  0  0  0  0  0  0  0  0
   10.8028   40.0904   32.2842 C   0  0  0  0  0  0  0  0  0  0  0  0
   11.5888   38.9175   31.7009 C   0  0  0  0  0  0  0  0  0  0  0  0
   12.9221   38.9374   32.1689 O   0  0  0  0  0  0  0  0  0  0  0  0
   11.0028   37.5681   32.0981 C   0  0  0  0  0  0  0  0  0  0  0  0
   13.3496   37.5885   32.2599 C   0  0  0  0  0  0  0  0  0  0  0  0
    9.9346   37.1818   31.2755 O   0  0  0  0  0  0  0  0  0  0  0  0
   12.1891   36.6677   31.9048 C   0  0  0  0  0  0  0  0  0  0  0  0
   13.8022   37.2964   33.6184 N   0  0  0  0  0  0  0  0  0  0  0  0
   12.2992   36.2867   30.5566 O   0  0  0  0  0  0  0  0  0  0  0  0
   14.7928   36.4724   33.9856 C   0  0  0  0  0  0  0  0  0  0  0  0
   13.2746   37.7296   34.7932 C   0  0  0  0  0  0  0  0  0  0  0  0
   15.6242   35.7579   33.1856 N   0  0  0  0  0  0  0  0  0  0  0  0
   14.8726   36.4413   35.3325 C   0  0  0  0  0  0  0  0  0  0  0  0
   13.9206   37.2265   35.8800 N   0  0  0  0  0  0  0  0  0  0  0  0
   16.5874   34.9923   33.7802 C   0  0  0  0  0  0  0  0  0  0  0  0
   15.8575   35.6722   35.9441 C   0  0  0  0  0  0  0  0  0  0  0  0
   16.7024   34.9588   35.1439 N   0  0  0  0  0  0  0  0  0  0  0  0
   16.0095   35.6386   37.3563 N   0  0  0  0  0  0  0  0  0  0  0  0
    7.6757   44.0640   34.0543 H   0  0  0  0  0  0  0  0  0  0  0  0
   10.2148   45.5892   33.8746 H   0  0  0  0  0  0  0  0  0  0  0  0
    8.6472   46.1566   34.1451 H   0  0  0  0  0  0  0  0  0  0  0  0
    8.4827   43.0829   31.8668 H   0  0  0  0  0  0  0  0  0  0  0  0
    9.9706   44.0647   31.9684 H   0  0  0  0  0  0  0  0  0  0  0  0
    8.5211   45.0992   30.3820 H   0  0  0  0  0  0  0  0  0  0  0  0
    8.5699   46.1502   31.8199 H   0  0  0  0  0  0  0  0  0  0  0  0
    6.3123   45.0779   32.5393 H   0  0  0  0  0  0  0  0  0  0  0  0
    6.3165   44.1807   30.9811 H   0  0  0  0  0  0  0  0  0  0  0  0
    4.9230   46.2676   30.9212 H   0  0  0  0  0  0  0  0  0  0  0  0
    6.2494   46.2912   29.7209 H   0  0  0  0  0  0  0  0  0  0  0  0
    6.2627   47.7307   32.4222 H   0  0  0  0  0  0  0  0  0  0  0  0
    6.3284   50.1645   32.7855 H   0  0  0  0  0  0  0  0  0  0  0  0
    7.8011   49.2964   33.3222 H   0  0  0  0  0  0  0  0  0  0  0  0
    6.2910   52.5377   32.5666 H   0  0  0  0  0  0  0  0  0  0  0  0
    7.2930   54.7118   33.1303 H   0  0  0  0  0  0  0  0  0  0  0  0
   11.0410   52.8184   33.9616 H   0  0  0  0  0  0  0  0  0  0  0  0
    9.6594   54.8497   33.8418 H   0  0  0  0  0  0  0  0  0  0  0  0
    9.7482   40.0338   31.9259 H   0  0  0  0  0  0  0  0  0  0  0  0
   11.2253   41.0365   31.8834 H   0  0  0  0  0  0  0  0  0  0  0  0
   11.5970   39.0150   30.5907 H   0  0  0  0  0  0  0  0  0  0  0  0
   10.7020   37.5448   33.1720 H   0  0  0  0  0  0  0  0  0  0  0  0
   14.1958   37.4363   31.5527 H   0  0  0  0  0  0  0  0  0  0  0  0
    9.1343   37.6655   31.6065 H   0  0  0  0  0  0  0  0  0  0  0  0
   12.1381   35.7719   32.5698 H   0  0  0  0  0  0  0  0  0  0  0  0
   11.7709   35.4529   30.4491 H   0  0  0  0  0  0  0  0  0  0  0  0
   12.4313   38.3986   34.8691 H   0  0  0  0  0  0  0  0  0  0  0  0
   17.2672   34.4139   33.1697 H   0  0  0  0  0  0  0  0  0  0  0  0
   15.3757   36.1868   37.9794 H   0  0  0  0  0  0  0  0  0  0  0  0
   16.7630   35.0604   37.7900 H   0  0  0  0  0  0  0  0  0  0  0  0
  1  2  2  0
  1  3  1  0
  3  4  1  0
  4  5  1  0
  6  1  1  0
  7  6  1  0
  6  8  1  0
  8  9  1  0
  9 10  1  0
 10 11  1  0
 11 12  1  0
 12 13  1  0
 13 14  1  0
 13 15  2  0
 14 16  1  0
 16 17  1  0
 17 18  2  0
 19 17  1  0
 18 20  1  0
 21 19  2  0
 19 22  1  0
 20 23  2  0
 23 21  1  0
 22 24  1  0
 22 25  2  0
  4 26  2  0
  4 27  1  0
 28 27  1  0
 28 29  1  0
 29 30  1  0
 29 31  1  0
 30 32  1  0
 31 33  1  0
 31 34  1  0
 34 32  1  0
 32 35  1  0
 34 36  1  0
 37 35  1  0
 38 35  1  0
 39 37  2  0
 37 40  1  0
 41 38  2  0
 42 39  1  0
 40 43  2  0
 40 41  1  0
 44 42  2  0
 44 43  1  0
 43 45  1  0
  6 46  1  6
  7 47  1  0
  7 48  1  0
  8 49  1  0
  8 50  1  0
  9 51  1  0
  9 52  1  0
 10 53  1  0
 10 54  1  0
 11 55  1  0
 11 56  1  0
 12 57  1  0
 16 58  1  0
 16 59  1  0
 18 60  1  0
 20 61  1  0
 21 62  1  0
 23 63  1  0
 28 64  1  0
 28 65  1  0
 29 66  1  0
 31 67  1  0
 32 68  1  0
 33 69  1  0
 34 70  1  0
 36 71  1  0
 38 72  1  0
 42 73  1  0
 45 74  1  0
 45 75  1  0
M  CHG  3   5  -1  22   1  24  -1
M  END
>  <EmbedRMS>  (547) 
0.0737518509695

$$$$

     RDKit          3D

 75 78  0  0  0  0  0  0  0  0999 V2000
    9.4299   42.9398   34.3434 C   0  0  0  0  0  0  0  0  0  0  0  0
   10.4912   43.0381   35.0234 O   0  0  0  0  0  0  0  0  0  0  0  0
    8.8545   41.7119   34.0285 O   0  0  0  0  0  0  0  0  0  0  0  0
    9.4942   40.2158   34.4672 P   0  0  0  0  0  0  0  0  0  0  0  0
    9.7315   40.1739   36.1283 O   0  0  0  0  0  0  0  0  0  0  0  0
    8.7414   44.1384   33.7786 C   0  0  1  0  0  0  0  0  0  0  0  0
    9.3023   45.3723   34.3325 N   0  0  0  0  0  0  0  0  0  0  0  0
    8.8962   44.0601   32.2399 C   0  0  0  0  0  0  0  0  0  0  0  0
    8.2022   45.1697   31.4403 C   0  0  0  0  0  0  0  0  0  0  0  0
    6.6647   45.1064   31.4904 C   0  0  0  0  0  0  0  0  0  0  0  0
    6.0260   46.3214   30.8102 C   0  0  0  0  0  0  0  0  0  0  0  0
    6.5029   47.5638   31.4169 N   0  0  0  0  0  0  0  0  0  0  0  0
    7.2549   48.5321   30.6886 C   0  0  0  0  0  0  0  0  0  0  0  0
    7.6576   49.7037   31.3335 O   0  0  0  0  0  0  0  0  0  0  0  0
    7.5884   48.3142   29.4923 O   0  0  0  0  0  0  0  0  0  0  0  0
    8.4802   50.6846   30.7098 C   0  0  0  0  0  0  0  0  0  0  0  0
    8.8602   51.7411   31.7165 C   0  0  0  0  0  0  0  0  0  0  0  0
    8.5360   53.0829   31.4423 C   0  0  0  0  0  0  0  0  0  0  0  0
    9.4962   51.4185   32.9466 C   0  0  0  0  0  0  0  0  0  0  0  0
    8.8230   54.0887   32.3658 C   0  0  0  0  0  0  0  0  0  0  0  0
    9.7621   52.4473   33.8692 C   0  0  0  0  0  0  0  0  0  0  0  0
    9.8563   50.0660   33.2865 N   0  0  0  0  0  0  0  0  0  0  0  0
    9.4313   53.7712   33.5781 C   0  0  0  0  0  0  0  0  0  0  0  0
   10.3817   49.2174   32.3403 O   0  0  0  0  0  0  0  0  0  0  0  0
    9.8410   49.6961   34.4789 O   0  0  0  0  0  0  0  0  0  0  0  0
    8.5375   39.1392   34.0123 O   0  0  0  0  0  0  0  0  0  0  0  0
   10.9794   40.0898   33.6813 O   0  0  0  0  0  0  0  0  0  0  0  0
   10.7981   40.0850   32.2816 C   0  0  0  0  0  0  0  0  0  0  0  0
   11.5886   38.9142   31.7009 C   0  0  0  0  0  0  0  0  0  0  0  0
   12.9213   38.9368   32.1699 O   0  0  0  0  0  0  0  0  0  0  0  0
   11.0047   37.5661   32.0991 C   0  0  0  0  0  0  0  0  0  0  0  0
   13.3510   37.5885   32.2602 C   0  0  0  0  0  0  0  0  0  0  0  0
    9.9296   37.1961   31.2780 O   0  0  0  0  0  0  0  0  0  0  0  0
   12.1923   36.6659   31.9047 C   0  0  0  0  0  0  0  0  0  0  0  0
   13.8033   37.2967   33.6188 N   0  0  0  0  0  0  0  0  0  0  0  0
   12.3007   36.2865   30.5562 O   0  0  0  0  0  0  0  0  0  0  0  0
   14.7933   36.4724   33.9860 C   0  0  0  0  0  0  0  0  0  0  0  0
   13.2753   37.7296   34.7935 C   0  0  0  0  0  0  0  0  0  0  0  0
   15.6243   35.7579   33.1860 N   0  0  0  0  0  0  0  0  0  0  0  0
   14.8728   36.4410   35.3328 C   0  0  0  0  0  0  0  0  0  0  0  0
   13.9209   37.2263   35.8804 N   0  0  0  0  0  0  0  0  0  0  0  0
   16.5873   34.9919   33.7803 C   0  0  0  0  0  0  0  0  0  0  0  0
   15.8577   35.6717   35.9443 C   0  0  0  0  0  0  0  0  0  0  0  0
   16.7025   34.9583   35.1440 N   0  0  0  0  0  0  0  0  0  0  0  0
   16.0100   35.6384   37.3564 N   0  0  0  0  0  0  0  0  0  0  0  0
    7.6670   44.0664   34.0548 H   0  0  0  0  0  0  0  0  0  0  0  0
    9.2332   45.3285   35.3758 H   0  0  0  0  0  0  0  0  0  0  0  0
    8.6833   46.1683   34.0576 H   0  0  0  0  0  0  0  0  0  0  0  0
    8.5085   43.0848   31.8694 H   0  0  0  0  0  0  0  0  0  0  0  0
    9.9808   44.0919   31.9914 H   0  0  0  0  0  0  0  0  0  0  0  0
    8.5756   46.1525   31.7928 H   0  0  0  0  0  0  0  0  0  0  0  0
    8.5158   45.0773   30.3773 H   0  0  0  0  0  0  0  0  0  0  0  0
    6.3130   44.1775   30.9913 H   0  0  0  0  0  0  0  0  0  0  0  0
    6.3172   45.0841   32.5439 H   0  0  0  0  0  0  0  0  0  0  0  0
    6.2475   46.2867   29.7219 H   0  0  0  0  0  0  0  0  0  0  0  0
    4.9224   46.2653   30.9250 H   0  0  0  0  0  0  0  0  0  0  0  0
    6.2837   47.7498   32.4214 H   0  0  0  0  0  0  0  0  0  0  0  0
    7.9262   51.1252   29.8521 H   0  0  0  0  0  0  0  0  0  0  0  0
    9.4000   50.2158   30.3012 H   0  0  0  0  0  0  0  0  0  0  0  0
    8.0515   53.3544   30.5124 H   0  0  0  0  0  0  0  0  0  0  0  0
    8.5671   55.1166   32.1429 H   0  0  0  0  0  0  0  0  0  0  0  0
   10.2419   52.2246   34.8140 H   0  0  0  0  0  0  0  0  0  0  0  0
    9.6490   54.5530   34.2944 H   0  0  0  0  0  0  0  0  0  0  0  0
    9.7426   40.0141   31.9263 H   0  0  0  0  0  0  0  0  0  0  0  0
   11.2130   41.0321   31.8750 H   0  0  0  0  0  0  0  0  0  0  0  0
   11.5981   39.0107   30.5904 H   0  0  0  0  0  0  0  0  0  0  0  0
   10.7008   37.5603   33.1721 H   0  0  0  0  0  0  0  0  0  0  0  0
   14.1976   37.4380   31.5532 H   0  0  0  0  0  0  0  0  0  0  0  0
    9.5180   36.3961   31.6978 H   0  0  0  0  0  0  0  0  0  0  0  0
   12.1418   35.7698   32.5692 H   0  0  0  0  0  0  0  0  0  0  0  0
   11.7729   35.4524   30.4489 H   0  0  0  0  0  0  0  0  0  0  0  0
   12.4321   38.3985   34.8692 H   0  0  0  0  0  0  0  0  0  0  0  0
   17.2667   34.4138   33.1694 H   0  0  0  0  0  0  0  0  0  0  0  0
   15.3757   36.1867   37.9790 H   0  0  0  0  0  0  0  0  0  0  0  0
   16.7634   35.0598   37.7897 H   0  0  0  0  0  0  0  0  0  0  0  0
  1  2  2  0
  1  3  1  0
  3  4  1  0
  4  5  1  0
  6  1  1  0
  7  6  1  0
  6  8  1  0
  8  9  1  0
  9 10  1  0
 10 11  1  0
 11 12  1  0
 12 13  1  0
 13 14  1  0
 13 15  2  0
 14 16  1  0
 16 17  1  0
 17 18  2  0
 19 17  1  0
 18 20  1  0
 21 19  2  0
 19 22  1  0
 20 23  2  0
 23 21  1  0
 22 24  1  0
 22 25  2  0
  4 26  2  0
  4 27  1  0
 28 27  1  0
 28 29  1  0
 29 30  1  0
 29 31  1  0
 30 32  1  0
 31 33  1  0
 31 34  1  0
 34 32  1  0
 32 35  1  0
 34 36  1  0
 37 35  1  0
 38 35  1  0
 39 37  2  0
 37 40  1  0
 41 38  2  0
 42 39  1  0
 40 43  2  0
 40 41  1  0
 44 42  2  0
 44 43  1  0
 43 45  1  0
  6 46  1  6
  7 47  1  0
  7 48  1  0
  8 49  1  0
  8 50  1  0
  9 51  1  0
  9 52  1  0
 10 53  1  0
 10 54  1  0
 11 55  1  0
 11 56  1  0
 12 57  1  0
 16 58  1  0
 16 59  1  0
 18 60  1  0
 20 61  1  0
 21 62  1  0
 23 63  1  0
 28 64  1  0
 28 65  1  0
 29 66  1  0
 31 67  1  0
 32 68  1  0
 33 69  1  0
 34 70  1  0
 36 71  1  0
 38 72  1  0
 42 73  1  0
 45 74  1  0
 45 75  1  0
M  CHG  3   5  -1  22   1  24  -1
M  END
>  <EmbedRMS>  (548) 
0.0740378410546

$$$$

     RDKit          3D

 75 78  0  0  0  0  0  0  0  0999 V2000
    9.4331   42.9369   34.3461 C   0  0  0  0  0  0  0  0  0  0  0  0
   10.4906   43.0333   35.0317 O   0  0  0  0  0  0  0  0  0  0  0  0
    8.8559   41.7107   34.0298 O   0  0  0  0  0  0  0  0  0  0  0  0
    9.4944   40.2143   34.4677 P   0  0  0  0  0  0  0  0  0  0  0  0
    9.7316   40.1725   36.1287 O   0  0  0  0  0  0  0  0  0  0  0  0
    8.7505   44.1354   33.7741 C   0  0  1  0  0  0  0  0  0  0  0  0
    9.2962   45.3827   34.3133 N   0  0  0  0  0  0  0  0  0  0  0  0
    8.8891   44.0536   32.2359 C   0  0  0  0  0  0  0  0  0  0  0  0
    8.2027   45.1838   31.4623 C   0  0  0  0  0  0  0  0  0  0  0  0
    6.6652   45.1046   31.4833 C   0  0  0  0  0  0  0  0  0  0  0  0
    6.0277   46.3224   30.8063 C   0  0  0  0  0  0  0  0  0  0  0  0
    6.5007   47.5635   31.4195 N   0  0  0  0  0  0  0  0  0  0  0  0
    7.2592   48.5348   30.6885 C   0  0  0  0  0  0  0  0  0  0  0  0
    7.6917   49.7248   31.2852 O   0  0  0  0  0  0  0  0  0  0  0  0
    7.5836   48.3113   29.4931 O   0  0  0  0  0  0  0  0  0  0  0  0
    7.4402   50.0705   32.6433 C   0  0  0  0  0  0  0  0  0  0  0  0
    8.1223   51.3750   32.9610 C   0  0  0  0  0  0  0  0  0  0  0  0
    7.3679   52.5605   32.8966 C   0  0  0  0  0  0  0  0  0  0  0  0
    9.4881   51.4400   33.3467 C   0  0  0  0  0  0  0  0  0  0  0  0
    7.9419   53.7886   33.2271 C   0  0  0  0  0  0  0  0  0  0  0  0
   10.0421   52.6872   33.6909 C   0  0  0  0  0  0  0  0  0  0  0  0
   10.3182   50.2650   33.4070 N   0  0  0  0  0  0  0  0  0  0  0  0
    9.2747   53.8512   33.6286 C   0  0  0  0  0  0  0  0  0  0  0  0
   10.2192   49.2842   32.4477 O   0  0  0  0  0  0  0  0  0  0  0  0
   11.2494   50.1991   34.2361 O   0  0  0  0  0  0  0  0  0  0  0  0
    8.5372   39.1384   34.0122 O   0  0  0  0  0  0  0  0  0  0  0  0
   10.9795   40.0890   33.6815 O   0  0  0  0  0  0  0  0  0  0  0  0
   10.7982   40.0848   32.2819 C   0  0  0  0  0  0  0  0  0  0  0  0
   11.5886   38.9142   31.7009 C   0  0  0  0  0  0  0  0  0  0  0  0
   12.9213   38.9367   32.1698 O   0  0  0  0  0  0  0  0  0  0  0  0
   11.0047   37.5660   32.0990 C   0  0  0  0  0  0  0  0  0  0  0  0
   13.3510   37.5885   32.2601 C   0  0  0  0  0  0  0  0  0  0  0  0
    9.9296   37.1961   31.2780 O   0  0  0  0  0  0  0  0  0  0  0  0
   12.1923   36.6659   31.9047 C   0  0  0  0  0  0  0  0  0  0  0  0
   13.8033   37.2966   33.6187 N   0  0  0  0  0  0  0  0  0  0  0  0
   12.3007   36.2864   30.5561 O   0  0  0  0  0  0  0  0  0  0  0  0
   14.7933   36.4724   33.9860 C   0  0  0  0  0  0  0  0  0  0  0  0
   13.2753   37.7296   34.7935 C   0  0  0  0  0  0  0  0  0  0  0  0
   15.6243   35.7579   33.1860 N   0  0  0  0  0  0  0  0  0  0  0  0
   14.8728   36.4410   35.3328 C   0  0  0  0  0  0  0  0  0  0  0  0
   13.9209   37.2263   35.8804 N   0  0  0  0  0  0  0  0  0  0  0  0
   16.5873   34.9919   33.7803 C   0  0  0  0  0  0  0  0  0  0  0  0
   15.8577   35.6717   35.9443 C   0  0  0  0  0  0  0  0  0  0  0  0
   16.7025   34.9583   35.1440 N   0  0  0  0  0  0  0  0  0  0  0  0
   16.0100   35.6384   37.3563 N   0  0  0  0  0  0  0  0  0  0  0  0
    7.6768   44.0715   34.0502 H   0  0  0  0  0  0  0  0  0  0  0  0
    9.1831   45.3827   35.3535 H   0  0  0  0  0  0  0  0  0  0  0  0
   10.3188   45.4420   34.0993 H   0  0  0  0  0  0  0  0  0  0  0  0
    8.4814   43.0861   31.8666 H   0  0  0  0  0  0  0  0  0  0  0  0
    9.9709   44.0692   31.9741 H   0  0  0  0  0  0  0  0  0  0  0  0
    8.5532   46.1524   31.8772 H   0  0  0  0  0  0  0  0  0  0  0  0
    8.5404   45.1398   30.4036 H   0  0  0  0  0  0  0  0  0  0  0  0
    6.2998   45.0638   32.5304 H   0  0  0  0  0  0  0  0  0  0  0  0
    6.3315   44.1798   30.9647 H   0  0  0  0  0  0  0  0  0  0  0  0
    6.2529   46.2909   29.7187 H   0  0  0  0  0  0  0  0  0  0  0  0
    4.9236   46.2643   30.9156 H   0  0  0  0  0  0  0  0  0  0  0  0
    6.2569   47.7291   32.4206 H   0  0  0  0  0  0  0  0  0  0  0  0
    7.8085   49.2743   33.3254 H   0  0  0  0  0  0  0  0  0  0  0  0
    6.3426   50.1590   32.7999 H   0  0  0  0  0  0  0  0  0  0  0  0
    6.3277   52.5341   32.5955 H   0  0  0  0  0  0  0  0  0  0  0  0
    7.3498   54.6934   33.1766 H   0  0  0  0  0  0  0  0  0  0  0  0
   11.0793   52.7610   33.9927 H   0  0  0  0  0  0  0  0  0  0  0  0
    9.7165   54.8047   33.8880 H   0  0  0  0  0  0  0  0  0  0  0  0
   11.2131   41.0320   31.8757 H   0  0  0  0  0  0  0  0  0  0  0  0
    9.7427   40.0141   31.9266 H   0  0  0  0  0  0  0  0  0  0  0  0
   11.5980   39.0108   30.5904 H   0  0  0  0  0  0  0  0  0  0  0  0
   10.7008   37.5602   33.1721 H   0  0  0  0  0  0  0  0  0  0  0  0
   14.1977   37.4380   31.5532 H   0  0  0  0  0  0  0  0  0  0  0  0
    9.5181   36.3961   31.6977 H   0  0  0  0  0  0  0  0  0  0  0  0
   12.1418   35.7697   32.5692 H   0  0  0  0  0  0  0  0  0  0  0  0
   11.7730   35.4523   30.4488 H   0  0  0  0  0  0  0  0  0  0  0  0
   12.4321   38.3985   34.8692 H   0  0  0  0  0  0  0  0  0  0  0  0
   17.2667   34.4138   33.1694 H   0  0  0  0  0  0  0  0  0  0  0  0
   15.3757   36.1867   37.9790 H   0  0  0  0  0  0  0  0  0  0  0  0
   16.7634   35.0598   37.7897 H   0  0  0  0  0  0  0  0  0  0  0  0
  1  2  2  0
  1  3  1  0
  3  4  1  0
  4  5  1  0
  6  1  1  0
  7  6  1  0
  6  8  1  0
  8  9  1  0
  9 10  1  0
 10 11  1  0
 11 12  1  0
 12 13  1  0
 13 14  1  0
 13 15  2  0
 14 16  1  0
 16 17  1  0
 17 18  2  0
 19 17  1  0
 18 20  1  0
 21 19  2  0
 19 22  1  0
 20 23  2  0
 23 21  1  0
 22 24  1  0
 22 25  2  0
  4 26  2  0
  4 27  1  0
 28 27  1  0
 28 29  1  0
 29 30  1  0
 29 31  1  0
 30 32  1  0
 31 33  1  0
 31 34  1  0
 34 32  1  0
 32 35  1  0
 34 36  1  0
 37 35  1  0
 38 35  1  0
 39 37  2  0
 37 40  1  0
 41 38  2  0
 42 39  1  0
 40 43  2  0
 40 41  1  0
 44 42  2  0
 44 43  1  0
 43 45  1  0
  6 46  1  6
  7 47  1  0
  7 48  1  0
  8 49  1  0
  8 50  1  0
  9 51  1  0
  9 52  1  0
 10 53  1  0
 10 54  1  0
 11 55  1  0
 11 56  1  0
 12 57  1  0
 16 58  1  0
 16 59  1  0
 18 60  1  0
 20 61  1  0
 21 62  1  0
 23 63  1  0
 28 64  1  0
 28 65  1  0
 29 66  1  0
 31 67  1  0
 32 68  1  0
 33 69  1  0
 34 70  1  0
 36 71  1  0
 38 72  1  0
 42 73  1  0
 45 74  1  0
 45 75  1  0
M  CHG  3   5  -1  22   1  24  -1
M  END
>  <EmbedRMS>  (549) 
0.0748052232412

$$$$

     RDKit          3D

 75 78  0  0  0  0  0  0  0  0999 V2000
    9.4336   42.9371   34.3454 C   0  0  0  0  0  0  0  0  0  0  0  0
   10.4908   43.0334   35.0314 O   0  0  0  0  0  0  0  0  0  0  0  0
    8.8564   41.7109   34.0290 O   0  0  0  0  0  0  0  0  0  0  0  0
    9.4941   40.2143   34.4677 P   0  0  0  0  0  0  0  0  0  0  0  0
    9.7310   40.1728   36.1288 O   0  0  0  0  0  0  0  0  0  0  0  0
    8.7511   44.1360   33.7736 C   0  0  1  0  0  0  0  0  0  0  0  0
    9.2969   45.3831   34.3131 N   0  0  0  0  0  0  0  0  0  0  0  0
    8.8895   44.0552   32.2352 C   0  0  0  0  0  0  0  0  0  0  0  0
    8.2022   45.1857   31.4620 C   0  0  0  0  0  0  0  0  0  0  0  0
    6.6645   45.1061   31.4852 C   0  0  0  0  0  0  0  0  0  0  0  0
    6.0232   46.3216   30.8069 C   0  0  0  0  0  0  0  0  0  0  0  0
    6.4948   47.5656   31.4146 N   0  0  0  0  0  0  0  0  0  0  0  0
    7.2634   48.5258   30.6931 C   0  0  0  0  0  0  0  0  0  0  0  0
    7.7029   49.6776   31.3527 O   0  0  0  0  0  0  0  0  0  0  0  0
    7.5888   48.3115   29.4945 O   0  0  0  0  0  0  0  0  0  0  0  0
    8.6837   50.5643   30.8166 C   0  0  0  0  0  0  0  0  0  0  0  0
   10.0313   49.8805   30.7432 C   0  0  0  0  0  0  0  0  0  0  0  0
   10.5451   49.3114   31.9231 C   0  0  0  0  0  0  0  0  0  0  0  0
   10.8171   49.8439   29.5605 C   0  0  0  0  0  0  0  0  0  0  0  0
   11.8057   48.7133   31.9375 C   0  0  0  0  0  0  0  0  0  0  0  0
   12.0933   49.2574   29.6010 C   0  0  0  0  0  0  0  0  0  0  0  0
   10.3546   50.3992   28.3207 N   0  0  0  0  0  0  0  0  0  0  0  0
   12.5804   48.6902   30.7794 C   0  0  0  0  0  0  0  0  0  0  0  0
   11.2267   51.1092   27.5283 O   0  0  0  0  0  0  0  0  0  0  0  0
    9.2702   50.0220   27.8321 O   0  0  0  0  0  0  0  0  0  0  0  0
    8.5369   39.1386   34.0122 O   0  0  0  0  0  0  0  0  0  0  0  0
   10.9795   40.0870   33.6826 O   0  0  0  0  0  0  0  0  0  0  0  0
   10.7997   40.0899   32.2830 C   0  0  0  0  0  0  0  0  0  0  0  0
   11.5968   38.9274   31.6962 C   0  0  0  0  0  0  0  0  0  0  0  0
   12.9242   38.9425   32.1784 O   0  0  0  0  0  0  0  0  0  0  0  0
   11.0086   37.5713   32.0780 C   0  0  0  0  0  0  0  0  0  0  0  0
   13.3528   37.5929   32.2623 C   0  0  0  0  0  0  0  0  0  0  0  0
    9.9098   37.1770   31.2925 O   0  0  0  0  0  0  0  0  0  0  0  0
   12.1943   36.6683   31.8995 C   0  0  0  0  0  0  0  0  0  0  0  0
   13.8019   37.2950   33.6199 N   0  0  0  0  0  0  0  0  0  0  0  0
   12.3027   36.2773   30.5558 O   0  0  0  0  0  0  0  0  0  0  0  0
   14.7926   36.4715   33.9864 C   0  0  0  0  0  0  0  0  0  0  0  0
   13.2749   37.7286   34.7946 C   0  0  0  0  0  0  0  0  0  0  0  0
   15.6239   35.7577   33.1860 N   0  0  0  0  0  0  0  0  0  0  0  0
   14.8727   36.4403   35.3332 C   0  0  0  0  0  0  0  0  0  0  0  0
   13.9210   37.2257   35.8811 N   0  0  0  0  0  0  0  0  0  0  0  0
   16.5873   34.9921   33.7802 C   0  0  0  0  0  0  0  0  0  0  0  0
   15.8579   35.6714   35.9444 C   0  0  0  0  0  0  0  0  0  0  0  0
   16.7028   34.9583   35.1439 N   0  0  0  0  0  0  0  0  0  0  0  0
   16.0104   35.6381   37.3564 N   0  0  0  0  0  0  0  0  0  0  0  0
    7.6775   44.0720   34.0498 H   0  0  0  0  0  0  0  0  0  0  0  0
   10.3191   45.4437   34.0965 H   0  0  0  0  0  0  0  0  0  0  0  0
    9.1863   45.3819   35.3535 H   0  0  0  0  0  0  0  0  0  0  0  0
    8.4824   43.0877   31.8654 H   0  0  0  0  0  0  0  0  0  0  0  0
    9.9713   44.0717   31.9732 H   0  0  0  0  0  0  0  0  0  0  0  0
    8.5386   45.1418   30.4029 H   0  0  0  0  0  0  0  0  0  0  0  0
    8.5531   46.1546   31.8760 H   0  0  0  0  0  0  0  0  0  0  0  0
    6.3307   44.1798   30.9692 H   0  0  0  0  0  0  0  0  0  0  0  0
    6.3009   45.0671   32.5329 H   0  0  0  0  0  0  0  0  0  0  0  0
    6.2465   46.2887   29.7189 H   0  0  0  0  0  0  0  0  0  0  0  0
    4.9196   46.2619   30.9189 H   0  0  0  0  0  0  0  0  0  0  0  0
    6.2732   47.7508   32.4187 H   0  0  0  0  0  0  0  0  0  0  0  0
    8.7747   51.4332   31.5018 H   0  0  0  0  0  0  0  0  0  0  0  0
    8.3347   50.9661   29.8462 H   0  0  0  0  0  0  0  0  0  0  0  0
    9.9667   49.3354   32.8389 H   0  0  0  0  0  0  0  0  0  0  0  0
   12.1859   48.2749   32.8512 H   0  0  0  0  0  0  0  0  0  0  0  0
   12.7061   49.2242   28.7090 H   0  0  0  0  0  0  0  0  0  0  0  0
   13.5607   48.2315   30.7941 H   0  0  0  0  0  0  0  0  0  0  0  0
   11.2097   41.0419   31.8829 H   0  0  0  0  0  0  0  0  0  0  0  0
    9.7450   40.0146   31.9262 H   0  0  0  0  0  0  0  0  0  0  0  0
   11.6265   39.0456   30.5888 H   0  0  0  0  0  0  0  0  0  0  0  0
   10.7064   37.5574   33.1484 H   0  0  0  0  0  0  0  0  0  0  0  0
   14.2021   37.4484   31.5574 H   0  0  0  0  0  0  0  0  0  0  0  0
   10.0952   37.3990   30.3433 H   0  0  0  0  0  0  0  0  0  0  0  0
   12.1163   35.7745   32.5633 H   0  0  0  0  0  0  0  0  0  0  0  0
   12.9615   35.5349   30.5312 H   0  0  0  0  0  0  0  0  0  0  0  0
   12.4321   38.3982   34.8705 H   0  0  0  0  0  0  0  0  0  0  0  0
   17.2669   34.4143   33.1690 H   0  0  0  0  0  0  0  0  0  0  0  0
   15.3761   36.1862   37.9792 H   0  0  0  0  0  0  0  0  0  0  0  0
   16.7641   35.0598   37.7896 H   0  0  0  0  0  0  0  0  0  0  0  0
  1  2  2  0
  1  3  1  0
  3  4  1  0
  4  5  1  0
  6  1  1  0
  7  6  1  0
  6  8  1  0
  8  9  1  0
  9 10  1  0
 10 11  1  0
 11 12  1  0
 12 13  1  0
 13 14  1  0
 13 15  2  0
 14 16  1  0
 16 17  1  0
 17 18  2  0
 19 17  1  0
 18 20  1  0
 21 19  2  0
 19 22  1  0
 20 23  2  0
 23 21  1  0
 22 24  1  0
 22 25  2  0
  4 26  2  0
  4 27  1  0
 28 27  1  0
 28 29  1  0
 29 30  1  0
 29 31  1  0
 30 32  1  0
 31 33  1  0
 31 34  1  0
 34 32  1  0
 32 35  1  0
 34 36  1  0
 37 35  1  0
 38 35  1  0
 39 37  2  0
 37 40  1  0
 41 38  2  0
 42 39  1  0
 40 43  2  0
 40 41  1  0
 44 42  2  0
 44 43  1  0
 43 45  1  0
  6 46  1  6
  7 47  1  0
  7 48  1  0
  8 49  1  0
  8 50  1  0
  9 51  1  0
  9 52  1  0
 10 53  1  0
 10 54  1  0
 11 55  1  0
 11 56  1  0
 12 57  1  0
 16 58  1  0
 16 59  1  0
 18 60  1  0
 20 61  1  0
 21 62  1  0
 23 63  1  0
 28 64  1  0
 28 65  1  0
 29 66  1  0
 31 67  1  0
 32 68  1  0
 33 69  1  0
 34 70  1  0
 36 71  1  0
 38 72  1  0
 42 73  1  0
 45 74  1  0
 45 75  1  0
M  CHG  3   5  -1  22   1  24  -1
M  END
>  <EmbedRMS>  (550) 
0.0753082422927

$$$$

     RDKit          3D

 75 78  0  0  0  0  0  0  0  0999 V2000
    9.4301   42.9400   34.3429 C   0  0  0  0  0  0  0  0  0  0  0  0
   10.4912   43.0383   35.0233 O   0  0  0  0  0  0  0  0  0  0  0  0
    8.8550   41.7121   34.0279 O   0  0  0  0  0  0  0  0  0  0  0  0
    9.4941   40.2159   34.4674 P   0  0  0  0  0  0  0  0  0  0  0  0
    9.7307   40.1743   36.1285 O   0  0  0  0  0  0  0  0  0  0  0  0
    8.7416   44.1388   33.7783 C   0  0  1  0  0  0  0  0  0  0  0  0
    9.3025   45.3725   34.3325 N   0  0  0  0  0  0  0  0  0  0  0  0
    8.8966   44.0613   32.2395 C   0  0  0  0  0  0  0  0  0  0  0  0
    8.2023   45.1712   31.4403 C   0  0  0  0  0  0  0  0  0  0  0  0
    6.6647   45.1074   31.4907 C   0  0  0  0  0  0  0  0  0  0  0  0
    6.0246   46.3213   30.8093 C   0  0  0  0  0  0  0  0  0  0  0  0
    6.4982   47.5651   31.4157 N   0  0  0  0  0  0  0  0  0  0  0  0
    7.2602   48.5282   30.6912 C   0  0  0  0  0  0  0  0  0  0  0  0
    7.6795   49.6922   31.3431 O   0  0  0  0  0  0  0  0  0  0  0  0
    7.5883   48.3118   29.4933 O   0  0  0  0  0  0  0  0  0  0  0  0
    8.6352   50.5987   30.7965 C   0  0  0  0  0  0  0  0  0  0  0  0
   10.0084   49.9672   30.7669 C   0  0  0  0  0  0  0  0  0  0  0  0
   10.5282   49.5546   29.5258 C   0  0  0  0  0  0  0  0  0  0  0  0
   10.7972   49.7996   31.9398 C   0  0  0  0  0  0  0  0  0  0  0  0
   11.7980   48.9844   29.4376 C   0  0  0  0  0  0  0  0  0  0  0  0
   12.0804   49.2345   31.8233 C   0  0  0  0  0  0  0  0  0  0  0  0
   10.3434   50.2191   33.2412 N   0  0  0  0  0  0  0  0  0  0  0  0
   12.5729   48.8255   30.5837 C   0  0  0  0  0  0  0  0  0  0  0  0
   11.2585   50.5937   34.1983 O   0  0  0  0  0  0  0  0  0  0  0  0
    9.1466   50.1040   33.5735 O   0  0  0  0  0  0  0  0  0  0  0  0
    8.5373   39.1396   34.0126 O   0  0  0  0  0  0  0  0  0  0  0  0
   10.9800   40.0887   33.6832 O   0  0  0  0  0  0  0  0  0  0  0  0
   10.8020   40.0896   32.2834 C   0  0  0  0  0  0  0  0  0  0  0  0
   11.5900   38.9179   31.7006 C   0  0  0  0  0  0  0  0  0  0  0  0
   12.9224   38.9391   32.1711 O   0  0  0  0  0  0  0  0  0  0  0  0
   11.0052   37.5677   32.0966 C   0  0  0  0  0  0  0  0  0  0  0  0
   13.3518   37.5910   32.2610 C   0  0  0  0  0  0  0  0  0  0  0  0
    9.9381   37.1795   31.2733 O   0  0  0  0  0  0  0  0  0  0  0  0
   12.1912   36.6690   31.9043 C   0  0  0  0  0  0  0  0  0  0  0  0
   13.8027   37.2968   33.6192 N   0  0  0  0  0  0  0  0  0  0  0  0
   12.2877   36.2854   30.5568 O   0  0  0  0  0  0  0  0  0  0  0  0
   14.7928   36.4724   33.9861 C   0  0  0  0  0  0  0  0  0  0  0  0
   13.2751   37.7297   34.7941 C   0  0  0  0  0  0  0  0  0  0  0  0
   15.6239   35.7581   33.1859 N   0  0  0  0  0  0  0  0  0  0  0  0
   14.8726   36.4408   35.3329 C   0  0  0  0  0  0  0  0  0  0  0  0
   13.9209   37.2262   35.8807 N   0  0  0  0  0  0  0  0  0  0  0  0
   16.5870   34.9922   33.7801 C   0  0  0  0  0  0  0  0  0  0  0  0
   15.8576   35.6716   35.9442 C   0  0  0  0  0  0  0  0  0  0  0  0
   16.7024   34.9584   35.1438 N   0  0  0  0  0  0  0  0  0  0  0  0
   16.0101   35.6383   37.3563 N   0  0  0  0  0  0  0  0  0  0  0  0
    7.6672   44.0667   34.0543 H   0  0  0  0  0  0  0  0  0  0  0  0
    8.6838   46.1686   34.0573 H   0  0  0  0  0  0  0  0  0  0  0  0
    9.2328   45.3286   35.3758 H   0  0  0  0  0  0  0  0  0  0  0  0
    9.9813   44.0937   31.9911 H   0  0  0  0  0  0  0  0  0  0  0  0
    8.5094   43.0859   31.8685 H   0  0  0  0  0  0  0  0  0  0  0  0
    8.5158   45.0793   30.3772 H   0  0  0  0  0  0  0  0  0  0  0  0
    8.5753   46.1542   31.7926 H   0  0  0  0  0  0  0  0  0  0  0  0
    6.3134   44.1778   30.9926 H   0  0  0  0  0  0  0  0  0  0  0  0
    6.3175   45.0860   32.5443 H   0  0  0  0  0  0  0  0  0  0  0  0
    4.9210   46.2632   30.9225 H   0  0  0  0  0  0  0  0  0  0  0  0
    6.2474   46.2863   29.7213 H   0  0  0  0  0  0  0  0  0  0  0  0
    6.2775   47.7514   32.4199 H   0  0  0  0  0  0  0  0  0  0  0  0
    8.3074   50.9094   29.7799 H   0  0  0  0  0  0  0  0  0  0  0  0
    8.6633   51.5215   31.4129 H   0  0  0  0  0  0  0  0  0  0  0  0
    9.9481   49.6740   28.6190 H   0  0  0  0  0  0  0  0  0  0  0  0
   12.1835   48.6685   28.4767 H   0  0  0  0  0  0  0  0  0  0  0  0
   12.7001   49.0971   32.7002 H   0  0  0  0  0  0  0  0  0  0  0  0
   13.5591   48.3852   30.5122 H   0  0  0  0  0  0  0  0  0  0  0  0
    9.7472   40.0310   31.9252 H   0  0  0  0  0  0  0  0  0  0  0  0
   11.2238   41.0358   31.8820 H   0  0  0  0  0  0  0  0  0  0  0  0
   11.6000   39.0158   30.5904 H   0  0  0  0  0  0  0  0  0  0  0  0
   10.7034   37.5451   33.1703 H   0  0  0  0  0  0  0  0  0  0  0  0
   14.1992   37.4424   31.5548 H   0  0  0  0  0  0  0  0  0  0  0  0
    9.1370   37.6634   31.6024 H   0  0  0  0  0  0  0  0  0  0  0  0
   12.1204   35.7713   32.5637 H   0  0  0  0  0  0  0  0  0  0  0  0
   12.9457   35.5426   30.5221 H   0  0  0  0  0  0  0  0  0  0  0  0
   12.4322   38.3989   34.8700 H   0  0  0  0  0  0  0  0  0  0  0  0
   17.2664   34.4142   33.1690 H   0  0  0  0  0  0  0  0  0  0  0  0
   16.7636   35.0598   37.7895 H   0  0  0  0  0  0  0  0  0  0  0  0
   15.3759   36.1865   37.9790 H   0  0  0  0  0  0  0  0  0  0  0  0
  1  2  2  0
  1  3  1  0
  3  4  1  0
  4  5  1  0
  6  1  1  0
  7  6  1  0
  6  8  1  0
  8  9  1  0
  9 10  1  0
 10 11  1  0
 11 12  1  0
 12 13  1  0
 13 14  1  0
 13 15  2  0
 14 16  1  0
 16 17  1  0
 17 18  2  0
 19 17  1  0
 18 20  1  0
 21 19  2  0
 19 22  1  0
 20 23  2  0
 23 21  1  0
 22 24  1  0
 22 25  2  0
  4 26  2  0
  4 27  1  0
 28 27  1  0
 28 29  1  0
 29 30  1  0
 29 31  1  0
 30 32  1  0
 31 33  1  0
 31 34  1  0
 34 32  1  0
 32 35  1  0
 34 36  1  0
 37 35  1  0
 38 35  1  0
 39 37  2  0
 37 40  1  0
 41 38  2  0
 42 39  1  0
 40 43  2  0
 40 41  1  0
 44 42  2  0
 44 43  1  0
 43 45  1  0
  6 46  1  6
  7 47  1  0
  7 48  1  0
  8 49  1  0
  8 50  1  0
  9 51  1  0
  9 52  1  0
 10 53  1  0
 10 54  1  0
 11 55  1  0
 11 56  1  0
 12 57  1  0
 16 58  1  0
 16 59  1  0
 18 60  1  0
 20 61  1  0
 21 62  1  0
 23 63  1  0
 28 64  1  0
 28 65  1  0
 29 66  1  0
 31 67  1  0
 32 68  1  0
 33 69  1  0
 34 70  1  0
 36 71  1  0
 38 72  1  0
 42 73  1  0
 45 74  1  0
 45 75  1  0
M  CHG  3   5  -1  22   1  24  -1
M  END
>  <EmbedRMS>  (551) 
0.0739725848867

$$$$

     RDKit          3D

 75 78  0  0  0  0  0  0  0  0999 V2000
    9.4332   42.9365   34.3464 C   0  0  0  0  0  0  0  0  0  0  0  0
   10.4907   43.0330   35.0319 O   0  0  0  0  0  0  0  0  0  0  0  0
    8.8559   41.7103   34.0304 O   0  0  0  0  0  0  0  0  0  0  0  0
    9.4931   40.2140   34.4703 P   0  0  0  0  0  0  0  0  0  0  0  0
    9.7293   40.1727   36.1313 O   0  0  0  0  0  0  0  0  0  0  0  0
    8.7506   44.1348   33.7741 C   0  0  1  0  0  0  0  0  0  0  0  0
    9.2963   45.3820   34.3133 N   0  0  0  0  0  0  0  0  0  0  0  0
    8.8893   44.0526   32.2358 C   0  0  0  0  0  0  0  0  0  0  0  0
    8.2029   45.1822   31.4614 C   0  0  0  0  0  0  0  0  0  0  0  0
    6.6654   45.1046   31.4855 C   0  0  0  0  0  0  0  0  0  0  0  0
    6.0273   46.3227   30.8106 C   0  0  0  0  0  0  0  0  0  0  0  0
    6.5070   47.5640   31.4182 N   0  0  0  0  0  0  0  0  0  0  0  0
    7.2419   48.5403   30.6830 C   0  0  0  0  0  0  0  0  0  0  0  0
    7.5771   49.7507   31.3020 O   0  0  0  0  0  0  0  0  0  0  0  0
    7.5940   48.3109   29.4941 O   0  0  0  0  0  0  0  0  0  0  0  0
    8.3262   50.7826   30.6578 C   0  0  0  0  0  0  0  0  0  0  0  0
    7.4646   51.7162   29.8259 C   0  0  0  0  0  0  0  0  0  0  0  0
    6.0860   51.4635   29.6538 C   0  0  0  0  0  0  0  0  0  0  0  0
    8.0197   52.8944   29.2533 C   0  0  0  0  0  0  0  0  0  0  0  0
    5.2817   52.3436   28.9290 C   0  0  0  0  0  0  0  0  0  0  0  0
    7.1852   53.7738   28.5393 C   0  0  0  0  0  0  0  0  0  0  0  0
    9.4103   53.2330   29.4100 N   0  0  0  0  0  0  0  0  0  0  0  0
    5.8294   53.4962   28.3737 C   0  0  0  0  0  0  0  0  0  0  0  0
   10.3874   52.2747   29.2758 O   0  0  0  0  0  0  0  0  0  0  0  0
    9.7547   54.4299   29.4976 O   0  0  0  0  0  0  0  0  0  0  0  0
    8.5366   39.1381   34.0136 O   0  0  0  0  0  0  0  0  0  0  0  0
   10.9788   40.0866   33.6873 O   0  0  0  0  0  0  0  0  0  0  0  0
   10.7993   40.0944   32.2886 C   0  0  0  0  0  0  0  0  0  0  0  0
   11.5957   38.9351   31.6994 C   0  0  0  0  0  0  0  0  0  0  0  0
   12.9257   38.9477   32.1798 O   0  0  0  0  0  0  0  0  0  0  0  0
   11.0070   37.5757   32.0732 C   0  0  0  0  0  0  0  0  0  0  0  0
   13.3571   37.5979   32.2612 C   0  0  0  0  0  0  0  0  0  0  0  0
    9.9093   37.1807   31.2875 O   0  0  0  0  0  0  0  0  0  0  0  0
   12.1967   36.6763   31.8894 C   0  0  0  0  0  0  0  0  0  0  0  0
   13.8018   37.2956   33.6197 N   0  0  0  0  0  0  0  0  0  0  0  0
   12.3049   36.2360   30.5555 O   0  0  0  0  0  0  0  0  0  0  0  0
   14.7922   36.4716   33.9864 C   0  0  0  0  0  0  0  0  0  0  0  0
   13.2747   37.7291   34.7944 C   0  0  0  0  0  0  0  0  0  0  0  0
   15.6240   35.7581   33.1861 N   0  0  0  0  0  0  0  0  0  0  0  0
   14.8721   36.4401   35.3331 C   0  0  0  0  0  0  0  0  0  0  0  0
   13.9206   37.2257   35.8810 N   0  0  0  0  0  0  0  0  0  0  0  0
   16.5873   34.9924   33.7802 C   0  0  0  0  0  0  0  0  0  0  0  0
   15.8576   35.6714   35.9444 C   0  0  0  0  0  0  0  0  0  0  0  0
   16.7026   34.9585   35.1439 N   0  0  0  0  0  0  0  0  0  0  0  0
   16.0102   35.6382   37.3564 N   0  0  0  0  0  0  0  0  0  0  0  0
    7.6770   44.0707   34.0504 H   0  0  0  0  0  0  0  0  0  0  0  0
    9.1827   45.3821   35.3534 H   0  0  0  0  0  0  0  0  0  0  0  0
   10.3192   45.4406   34.1000 H   0  0  0  0  0  0  0  0  0  0  0  0
    9.9711   44.0679   31.9739 H   0  0  0  0  0  0  0  0  0  0  0  0
    8.4816   43.0849   31.8669 H   0  0  0  0  0  0  0  0  0  0  0  0
    8.5385   45.1360   30.4021 H   0  0  0  0  0  0  0  0  0  0  0  0
    8.5554   46.1508   31.8740 H   0  0  0  0  0  0  0  0  0  0  0  0
    6.3021   45.0643   32.5333 H   0  0  0  0  0  0  0  0  0  0  0  0
    6.3296   44.1801   30.9677 H   0  0  0  0  0  0  0  0  0  0  0  0
    4.9238   46.2678   30.9266 H   0  0  0  0  0  0  0  0  0  0  0  0
    6.2467   46.2900   29.7218 H   0  0  0  0  0  0  0  0  0  0  0  0
    6.2807   47.7542   32.4204 H   0  0  0  0  0  0  0  0  0  0  0  0
    9.1172   50.3241   30.0280 H   0  0  0  0  0  0  0  0  0  0  0  0
    8.8230   51.3808   31.4505 H   0  0  0  0  0  0  0  0  0  0  0  0
    5.6129   50.5936   30.0862 H   0  0  0  0  0  0  0  0  0  0  0  0
    4.2269   52.1344   28.8052 H   0  0  0  0  0  0  0  0  0  0  0  0
    7.5911   54.6756   28.0982 H   0  0  0  0  0  0  0  0  0  0  0  0
    5.2012   54.1789   27.8161 H   0  0  0  0  0  0  0  0  0  0  0  0
   11.2094   41.0479   31.8922 H   0  0  0  0  0  0  0  0  0  0  0  0
    9.7448   40.0200   31.9304 H   0  0  0  0  0  0  0  0  0  0  0  0
   11.6206   39.0685   30.5942 H   0  0  0  0  0  0  0  0  0  0  0  0
   10.7059   37.5563   33.1438 H   0  0  0  0  0  0  0  0  0  0  0  0
   14.2095   37.4543   31.5601 H   0  0  0  0  0  0  0  0  0  0  0  0
   10.0865   37.4209   30.3413 H   0  0  0  0  0  0  0  0  0  0  0  0
   12.1276   35.7872   32.5549 H   0  0  0  0  0  0  0  0  0  0  0  0
   12.5031   37.0109   29.9672 H   0  0  0  0  0  0  0  0  0  0  0  0
   12.4328   38.3996   34.8703 H   0  0  0  0  0  0  0  0  0  0  0  0
   17.2670   34.4149   33.1691 H   0  0  0  0  0  0  0  0  0  0  0  0
   15.3758   36.1862   37.9792 H   0  0  0  0  0  0  0  0  0  0  0  0
   16.7640   35.0601   37.7896 H   0  0  0  0  0  0  0  0  0  0  0  0
  1  2  2  0
  1  3  1  0
  3  4  1  0
  4  5  1  0
  6  1  1  0
  7  6  1  0
  6  8  1  0
  8  9  1  0
  9 10  1  0
 10 11  1  0
 11 12  1  0
 12 13  1  0
 13 14  1  0
 13 15  2  0
 14 16  1  0
 16 17  1  0
 17 18  2  0
 19 17  1  0
 18 20  1  0
 21 19  2  0
 19 22  1  0
 20 23  2  0
 23 21  1  0
 22 24  1  0
 22 25  2  0
  4 26  2  0
  4 27  1  0
 28 27  1  0
 28 29  1  0
 29 30  1  0
 29 31  1  0
 30 32  1  0
 31 33  1  0
 31 34  1  0
 34 32  1  0
 32 35  1  0
 34 36  1  0
 37 35  1  0
 38 35  1  0
 39 37  2  0
 37 40  1  0
 41 38  2  0
 42 39  1  0
 40 43  2  0
 40 41  1  0
 44 42  2  0
 44 43  1  0
 43 45  1  0
  6 46  1  6
  7 47  1  0
  7 48  1  0
  8 49  1  0
  8 50  1  0
  9 51  1  0
  9 52  1  0
 10 53  1  0
 10 54  1  0
 11 55  1  0
 11 56  1  0
 12 57  1  0
 16 58  1  0
 16 59  1  0
 18 60  1  0
 20 61  1  0
 21 62  1  0
 23 63  1  0
 28 64  1  0
 28 65  1  0
 29 66  1  0
 31 67  1  0
 32 68  1  0
 33 69  1  0
 34 70  1  0
 36 71  1  0
 38 72  1  0
 42 73  1  0
 45 74  1  0
 45 75  1  0
M  CHG  3   5  -1  22   1  24  -1
M  END
>  <EmbedRMS>  (552) 
0.0761358916336

$$$$

     RDKit          3D

 75 78  0  0  0  0  0  0  0  0999 V2000
    9.4331   42.9365   34.3462 C   0  0  0  0  0  0  0  0  0  0  0  0
   10.4907   43.0329   35.0318 O   0  0  0  0  0  0  0  0  0  0  0  0
    8.8558   41.7103   34.0299 O   0  0  0  0  0  0  0  0  0  0  0  0
    9.4943   40.2141   34.4677 P   0  0  0  0  0  0  0  0  0  0  0  0
    9.7317   40.1723   36.1287 O   0  0  0  0  0  0  0  0  0  0  0  0
    8.7506   44.1348   33.7741 C   0  0  1  0  0  0  0  0  0  0  0  0
    9.2963   45.3820   34.3133 N   0  0  0  0  0  0  0  0  0  0  0  0
    8.8893   44.0527   32.2358 C   0  0  0  0  0  0  0  0  0  0  0  0
    8.2028   45.1823   31.4615 C   0  0  0  0  0  0  0  0  0  0  0  0
    6.6653   45.1046   31.4855 C   0  0  0  0  0  0  0  0  0  0  0  0
    6.0270   46.3226   30.8105 C   0  0  0  0  0  0  0  0  0  0  0  0
    6.5064   47.5640   31.4180 N   0  0  0  0  0  0  0  0  0  0  0  0
    7.2433   48.5393   30.6834 C   0  0  0  0  0  0  0  0  0  0  0  0
    7.5913   49.7409   31.3057 O   0  0  0  0  0  0  0  0  0  0  0  0
    7.5935   48.3118   29.4937 O   0  0  0  0  0  0  0  0  0  0  0  0
    8.3331   50.7629   30.6468 C   0  0  0  0  0  0  0  0  0  0  0  0
    8.5094   51.9407   31.5731 C   0  0  0  0  0  0  0  0  0  0  0  0
    9.8157   52.3517   31.8989 C   0  0  0  0  0  0  0  0  0  0  0  0
    7.4032   52.6184   32.1581 C   0  0  0  0  0  0  0  0  0  0  0  0
   10.0313   53.4023   32.7912 C   0  0  0  0  0  0  0  0  0  0  0  0
    7.6458   53.6643   33.0668 C   0  0  0  0  0  0  0  0  0  0  0  0
    6.0400   52.2547   31.8694 N   0  0  0  0  0  0  0  0  0  0  0  0
    8.9489   54.0547   33.3767 C   0  0  0  0  0  0  0  0  0  0  0  0
    5.0606   52.4589   32.8142 O   0  0  0  0  0  0  0  0  0  0  0  0
    5.6992   51.9063   30.7208 O   0  0  0  0  0  0  0  0  0  0  0  0
    8.5371   39.1382   34.0123 O   0  0  0  0  0  0  0  0  0  0  0  0
   10.9793   40.0887   33.6814 O   0  0  0  0  0  0  0  0  0  0  0  0
   10.7976   40.0842   32.2817 C   0  0  0  0  0  0  0  0  0  0  0  0
   11.5897   38.9146   31.7008 C   0  0  0  0  0  0  0  0  0  0  0  0
   12.9218   38.9385   32.1717 O   0  0  0  0  0  0  0  0  0  0  0  0
   11.0071   37.5654   32.0975 C   0  0  0  0  0  0  0  0  0  0  0  0
   13.3533   37.5909   32.2610 C   0  0  0  0  0  0  0  0  0  0  0  0
    9.9333   37.1934   31.2754 O   0  0  0  0  0  0  0  0  0  0  0  0
   12.1945   36.6671   31.9040 C   0  0  0  0  0  0  0  0  0  0  0  0
   13.8036   37.2970   33.6193 N   0  0  0  0  0  0  0  0  0  0  0  0
   12.2893   36.2849   30.5562 O   0  0  0  0  0  0  0  0  0  0  0  0
   14.7931   36.4723   33.9863 C   0  0  0  0  0  0  0  0  0  0  0  0
   13.2756   37.7298   34.7940 C   0  0  0  0  0  0  0  0  0  0  0  0
   15.6242   35.7580   33.1861 N   0  0  0  0  0  0  0  0  0  0  0  0
   14.8727   36.4407   35.3331 C   0  0  0  0  0  0  0  0  0  0  0  0
   13.9210   37.2262   35.8808 N   0  0  0  0  0  0  0  0  0  0  0  0
   16.5872   34.9920   33.7803 C   0  0  0  0  0  0  0  0  0  0  0  0
   15.8577   35.6715   35.9444 C   0  0  0  0  0  0  0  0  0  0  0  0
   16.7025   34.9582   35.1440 N   0  0  0  0  0  0  0  0  0  0  0  0
   16.0101   35.6382   37.3564 N   0  0  0  0  0  0  0  0  0  0  0  0
    7.6770   44.0707   34.0504 H   0  0  0  0  0  0  0  0  0  0  0  0
   10.3192   45.4406   34.1000 H   0  0  0  0  0  0  0  0  0  0  0  0
    9.1827   45.3820   35.3535 H   0  0  0  0  0  0  0  0  0  0  0  0
    9.9711   44.0681   31.9740 H   0  0  0  0  0  0  0  0  0  0  0  0
    8.4817   43.0851   31.8668 H   0  0  0  0  0  0  0  0  0  0  0  0
    8.5385   45.1363   30.4022 H   0  0  0  0  0  0  0  0  0  0  0  0
    8.5552   46.1510   31.8742 H   0  0  0  0  0  0  0  0  0  0  0  0
    6.3296   44.1800   30.9678 H   0  0  0  0  0  0  0  0  0  0  0  0
    6.3020   45.0643   32.5334 H   0  0  0  0  0  0  0  0  0  0  0  0
    6.2465   46.2898   29.7217 H   0  0  0  0  0  0  0  0  0  0  0  0
    4.9236   46.2673   30.9265 H   0  0  0  0  0  0  0  0  0  0  0  0
    6.2816   47.7534   32.4207 H   0  0  0  0  0  0  0  0  0  0  0  0
    9.3172   50.3483   30.3358 H   0  0  0  0  0  0  0  0  0  0  0  0
    7.8085   51.0871   29.7235 H   0  0  0  0  0  0  0  0  0  0  0  0
   10.6749   51.8525   31.4679 H   0  0  0  0  0  0  0  0  0  0  0  0
   11.0412   53.7069   33.0339 H   0  0  0  0  0  0  0  0  0  0  0  0
    6.8203   54.1921   33.5273 H   0  0  0  0  0  0  0  0  0  0  0  0
    9.1193   54.8668   34.0718 H   0  0  0  0  0  0  0  0  0  0  0  0
   11.2111   41.0319   31.8753 H   0  0  0  0  0  0  0  0  0  0  0  0
    9.7422   40.0117   31.9267 H   0  0  0  0  0  0  0  0  0  0  0  0
   11.6004   39.0119   30.5904 H   0  0  0  0  0  0  0  0  0  0  0  0
   10.7015   37.5592   33.1701 H   0  0  0  0  0  0  0  0  0  0  0  0
   14.2012   37.4438   31.5552 H   0  0  0  0  0  0  0  0  0  0  0  0
    9.5289   36.3869   31.6895 H   0  0  0  0  0  0  0  0  0  0  0  0
   12.1244   35.7693   32.5633 H   0  0  0  0  0  0  0  0  0  0  0  0
   12.9478   35.5427   30.5201 H   0  0  0  0  0  0  0  0  0  0  0  0
   12.4328   38.3993   34.8697 H   0  0  0  0  0  0  0  0  0  0  0  0
   17.2667   34.4140   33.1692 H   0  0  0  0  0  0  0  0  0  0  0  0
   15.3759   36.1865   37.9791 H   0  0  0  0  0  0  0  0  0  0  0  0
   16.7637   35.0598   37.7897 H   0  0  0  0  0  0  0  0  0  0  0  0
  1  2  2  0
  1  3  1  0
  3  4  1  0
  4  5  1  0
  6  1  1  0
  7  6  1  0
  6  8  1  0
  8  9  1  0
  9 10  1  0
 10 11  1  0
 11 12  1  0
 12 13  1  0
 13 14  1  0
 13 15  2  0
 14 16  1  0
 16 17  1  0
 17 18  2  0
 19 17  1  0
 18 20  1  0
 21 19  2  0
 19 22  1  0
 20 23  2  0
 23 21  1  0
 22 24  1  0
 22 25  2  0
  4 26  2  0
  4 27  1  0
 28 27  1  0
 28 29  1  0
 29 30  1  0
 29 31  1  0
 30 32  1  0
 31 33  1  0
 31 34  1  0
 34 32  1  0
 32 35  1  0
 34 36  1  0
 37 35  1  0
 38 35  1  0
 39 37  2  0
 37 40  1  0
 41 38  2  0
 42 39  1  0
 40 43  2  0
 40 41  1  0
 44 42  2  0
 44 43  1  0
 43 45  1  0
  6 46  1  6
  7 47  1  0
  7 48  1  0
  8 49  1  0
  8 50  1  0
  9 51  1  0
  9 52  1  0
 10 53  1  0
 10 54  1  0
 11 55  1  0
 11 56  1  0
 12 57  1  0
 16 58  1  0
 16 59  1  0
 18 60  1  0
 20 61  1  0
 21 62  1  0
 23 63  1  0
 28 64  1  0
 28 65  1  0
 29 66  1  0
 31 67  1  0
 32 68  1  0
 33 69  1  0
 34 70  1  0
 36 71  1  0
 38 72  1  0
 42 73  1  0
 45 74  1  0
 45 75  1  0
M  CHG  3   5  -1  22   1  24  -1
M  END
>  <EmbedRMS>  (553) 
0.07425610431

$$$$

     RDKit          3D

 75 78  0  0  0  0  0  0  0  0999 V2000
    9.4335   42.9367   34.3454 C   0  0  0  0  0  0  0  0  0  0  0  0
   10.4907   43.0331   35.0315 O   0  0  0  0  0  0  0  0  0  0  0  0
    8.8563   41.7106   34.0290 O   0  0  0  0  0  0  0  0  0  0  0  0
    9.4942   40.2142   34.4677 P   0  0  0  0  0  0  0  0  0  0  0  0
    9.7309   40.1727   36.1288 O   0  0  0  0  0  0  0  0  0  0  0  0
    8.7510   44.1354   33.7737 C   0  0  1  0  0  0  0  0  0  0  0  0
    9.2967   45.3820   34.3137 N   0  0  0  0  0  0  0  0  0  0  0  0
    8.8900   44.0553   32.2354 C   0  0  0  0  0  0  0  0  0  0  0  0
    8.2028   45.1860   31.4625 C   0  0  0  0  0  0  0  0  0  0  0  0
    6.6652   45.1062   31.4856 C   0  0  0  0  0  0  0  0  0  0  0  0
    6.0239   46.3220   30.8083 C   0  0  0  0  0  0  0  0  0  0  0  0
    6.4971   47.5658   31.4155 N   0  0  0  0  0  0  0  0  0  0  0  0
    7.2578   48.5292   30.6899 C   0  0  0  0  0  0  0  0  0  0  0  0
    7.6755   49.6954   31.3389 O   0  0  0  0  0  0  0  0  0  0  0  0
    7.5903   48.3103   29.4935 O   0  0  0  0  0  0  0  0  0  0  0  0
    8.6303   50.5967   30.7818 C   0  0  0  0  0  0  0  0  0  0  0  0
    9.9921   49.9437   30.7038 C   0  0  0  0  0  0  0  0  0  0  0  0
   10.6354   49.8763   29.4543 C   0  0  0  0  0  0  0  0  0  0  0  0
   10.6073   49.3400   31.8342 C   0  0  0  0  0  0  0  0  0  0  0  0
   11.8558   49.2144   29.3156 C   0  0  0  0  0  0  0  0  0  0  0  0
   11.8296   48.6629   31.6675 C   0  0  0  0  0  0  0  0  0  0  0  0
   10.0053   49.3828   33.1413 N   0  0  0  0  0  0  0  0  0  0  0  0
   12.4491   48.6046   30.4187 C   0  0  0  0  0  0  0  0  0  0  0  0
    9.3774   50.5215   33.5891 O   0  0  0  0  0  0  0  0  0  0  0  0
   10.1872   48.4448   33.9447 O   0  0  0  0  0  0  0  0  0  0  0  0
    8.5371   39.1384   34.0121 O   0  0  0  0  0  0  0  0  0  0  0  0
   10.9797   40.0871   33.6829 O   0  0  0  0  0  0  0  0  0  0  0  0
   10.8003   40.0905   32.2832 C   0  0  0  0  0  0  0  0  0  0  0  0
   11.5958   38.9271   31.6963 C   0  0  0  0  0  0  0  0  0  0  0  0
   12.9239   38.9409   32.1766 O   0  0  0  0  0  0  0  0  0  0  0  0
   11.0062   37.5719   32.0793 C   0  0  0  0  0  0  0  0  0  0  0  0
   13.3507   37.5905   32.2614 C   0  0  0  0  0  0  0  0  0  0  0  0
    9.9064   37.1793   31.2946 O   0  0  0  0  0  0  0  0  0  0  0  0
   12.1920   36.6671   31.9003 C   0  0  0  0  0  0  0  0  0  0  0  0
   13.8017   37.2948   33.6193 N   0  0  0  0  0  0  0  0  0  0  0  0
   12.3133   36.2788   30.5560 O   0  0  0  0  0  0  0  0  0  0  0  0
   14.7927   36.4717   33.9861 C   0  0  0  0  0  0  0  0  0  0  0  0
   13.2746   37.7284   34.7941 C   0  0  0  0  0  0  0  0  0  0  0  0
   15.6240   35.7576   33.1859 N   0  0  0  0  0  0  0  0  0  0  0  0
   14.8728   36.4406   35.3330 C   0  0  0  0  0  0  0  0  0  0  0  0
   13.9209   37.2258   35.8807 N   0  0  0  0  0  0  0  0  0  0  0  0
   16.5874   34.9920   33.7802 C   0  0  0  0  0  0  0  0  0  0  0  0
   15.8579   35.6716   35.9443 C   0  0  0  0  0  0  0  0  0  0  0  0
   16.7028   34.9584   35.1439 N   0  0  0  0  0  0  0  0  0  0  0  0
   16.0103   35.6383   37.3563 N   0  0  0  0  0  0  0  0  0  0  0  0
    7.6773   44.0713   34.0497 H   0  0  0  0  0  0  0  0  0  0  0  0
    9.1839   45.3816   35.3539 H   0  0  0  0  0  0  0  0  0  0  0  0
   10.3193   45.4413   34.0993 H   0  0  0  0  0  0  0  0  0  0  0  0
    9.9718   44.0722   31.9738 H   0  0  0  0  0  0  0  0  0  0  0  0
    8.4832   43.0879   31.8650 H   0  0  0  0  0  0  0  0  0  0  0  0
    8.5394   45.1427   30.4035 H   0  0  0  0  0  0  0  0  0  0  0  0
    8.5537   46.1549   31.8770 H   0  0  0  0  0  0  0  0  0  0  0  0
    6.3015   45.0667   32.5334 H   0  0  0  0  0  0  0  0  0  0  0  0
    6.3314   44.1802   30.9691 H   0  0  0  0  0  0  0  0  0  0  0  0
    6.2458   46.2889   29.7200 H   0  0  0  0  0  0  0  0  0  0  0  0
    4.9204   46.2630   30.9217 H   0  0  0  0  0  0  0  0  0  0  0  0
    6.2761   47.7521   32.4195 H   0  0  0  0  0  0  0  0  0  0  0  0
    8.6914   51.5044   31.4156 H   0  0  0  0  0  0  0  0  0  0  0  0
    8.2768   50.9335   29.7824 H   0  0  0  0  0  0  0  0  0  0  0  0
   10.1849   50.3255   28.5778 H   0  0  0  0  0  0  0  0  0  0  0  0
   12.3382   49.1668   28.3478 H   0  0  0  0  0  0  0  0  0  0  0  0
   12.3130   48.1896   32.5128 H   0  0  0  0  0  0  0  0  0  0  0  0
   13.3929   48.0866   30.3070 H   0  0  0  0  0  0  0  0  0  0  0  0
   11.2117   41.0420   31.8834 H   0  0  0  0  0  0  0  0  0  0  0  0
    9.7455   40.0168   31.9262 H   0  0  0  0  0  0  0  0  0  0  0  0
   11.6245   39.0449   30.5888 H   0  0  0  0  0  0  0  0  0  0  0  0
   10.7050   37.5580   33.1499 H   0  0  0  0  0  0  0  0  0  0  0  0
   14.1985   37.4426   31.5553 H   0  0  0  0  0  0  0  0  0  0  0  0
   10.0893   37.4057   30.3459 H   0  0  0  0  0  0  0  0  0  0  0  0
   12.1337   35.7754   32.5703 H   0  0  0  0  0  0  0  0  0  0  0  0
   11.7934   35.4394   30.4513 H   0  0  0  0  0  0  0  0  0  0  0  0
   12.4314   38.3973   34.8700 H   0  0  0  0  0  0  0  0  0  0  0  0
   17.2669   34.4142   33.1692 H   0  0  0  0  0  0  0  0  0  0  0  0
   15.3759   36.1865   37.9790 H   0  0  0  0  0  0  0  0  0  0  0  0
   16.7638   35.0599   37.7896 H   0  0  0  0  0  0  0  0  0  0  0  0
  1  2  2  0
  1  3  1  0
  3  4  1  0
  4  5  1  0
  6  1  1  0
  7  6  1  0
  6  8  1  0
  8  9  1  0
  9 10  1  0
 10 11  1  0
 11 12  1  0
 12 13  1  0
 13 14  1  0
 13 15  2  0
 14 16  1  0
 16 17  1  0
 17 18  2  0
 19 17  1  0
 18 20  1  0
 21 19  2  0
 19 22  1  0
 20 23  2  0
 23 21  1  0
 22 24  1  0
 22 25  2  0
  4 26  2  0
  4 27  1  0
 28 27  1  0
 28 29  1  0
 29 30  1  0
 29 31  1  0
 30 32  1  0
 31 33  1  0
 31 34  1  0
 34 32  1  0
 32 35  1  0
 34 36  1  0
 37 35  1  0
 38 35  1  0
 39 37  2  0
 37 40  1  0
 41 38  2  0
 42 39  1  0
 40 43  2  0
 40 41  1  0
 44 42  2  0
 44 43  1  0
 43 45  1  0
  6 46  1  6
  7 47  1  0
  7 48  1  0
  8 49  1  0
  8 50  1  0
  9 51  1  0
  9 52  1  0
 10 53  1  0
 10 54  1  0
 11 55  1  0
 11 56  1  0
 12 57  1  0
 16 58  1  0
 16 59  1  0
 18 60  1  0
 20 61  1  0
 21 62  1  0
 23 63  1  0
 28 64  1  0
 28 65  1  0
 29 66  1  0
 31 67  1  0
 32 68  1  0
 33 69  1  0
 34 70  1  0
 36 71  1  0
 38 72  1  0
 42 73  1  0
 45 74  1  0
 45 75  1  0
M  CHG  3   5  -1  22   1  24  -1
M  END
>  <EmbedRMS>  (554) 
0.0753160926612

$$$$

     RDKit          3D

 75 78  0  0  0  0  0  0  0  0999 V2000
    9.4298   42.9395   34.3436 C   0  0  0  0  0  0  0  0  0  0  0  0
   10.4912   43.0382   35.0235 O   0  0  0  0  0  0  0  0  0  0  0  0
    8.8545   41.7116   34.0291 O   0  0  0  0  0  0  0  0  0  0  0  0
    9.4929   40.2155   34.4699 P   0  0  0  0  0  0  0  0  0  0  0  0
    9.7292   40.1741   36.1309 O   0  0  0  0  0  0  0  0  0  0  0  0
    8.7410   44.1377   33.7785 C   0  0  1  0  0  0  0  0  0  0  0  0
    9.3011   45.3720   34.3323 N   0  0  0  0  0  0  0  0  0  0  0  0
    8.8962   44.0589   32.2398 C   0  0  0  0  0  0  0  0  0  0  0  0
    8.2031   45.1685   31.4396 C   0  0  0  0  0  0  0  0  0  0  0  0
    6.6656   45.1048   31.4870 C   0  0  0  0  0  0  0  0  0  0  0  0
    6.0281   46.3241   30.8132 C   0  0  0  0  0  0  0  0  0  0  0  0
    6.5118   47.5624   31.4236 N   0  0  0  0  0  0  0  0  0  0  0  0
    7.2384   48.5470   30.6790 C   0  0  0  0  0  0  0  0  0  0  0  0
    7.5883   49.7836   31.2382 O   0  0  0  0  0  0  0  0  0  0  0  0
    7.5941   48.3039   29.4964 O   0  0  0  0  0  0  0  0  0  0  0  0
    7.1877   50.2395   32.5302 C   0  0  0  0  0  0  0  0  0  0  0  0
    5.7001   50.5097   32.5756 C   0  0  0  0  0  0  0  0  0  0  0  0
    4.9328   49.8829   33.5750 C   0  0  0  0  0  0  0  0  0  0  0  0
    5.0509   51.3465   31.6264 C   0  0  0  0  0  0  0  0  0  0  0  0
    3.5486   50.0508   33.6218 C   0  0  0  0  0  0  0  0  0  0  0  0
    3.6529   51.4883   31.6831 C   0  0  0  0  0  0  0  0  0  0  0  0
    5.7768   52.0431   30.5970 N   0  0  0  0  0  0  0  0  0  0  0  0
    2.9093   50.8467   32.6741 C   0  0  0  0  0  0  0  0  0  0  0  0
    5.1681   52.3182   29.3940 O   0  0  0  0  0  0  0  0  0  0  0  0
    6.8912   52.5520   30.8345 O   0  0  0  0  0  0  0  0  0  0  0  0
    8.5369   39.1389   34.0137 O   0  0  0  0  0  0  0  0  0  0  0  0
   10.9787   40.0874   33.6871 O   0  0  0  0  0  0  0  0  0  0  0  0
   10.7992   40.0946   32.2883 C   0  0  0  0  0  0  0  0  0  0  0  0
   11.5957   38.9351   31.6994 C   0  0  0  0  0  0  0  0  0  0  0  0
   12.9257   38.9478   32.1799 O   0  0  0  0  0  0  0  0  0  0  0  0
   11.0070   37.5758   32.0732 C   0  0  0  0  0  0  0  0  0  0  0  0
   13.3571   37.5980   32.2612 C   0  0  0  0  0  0  0  0  0  0  0  0
    9.9093   37.1808   31.2875 O   0  0  0  0  0  0  0  0  0  0  0  0
   12.1967   36.6764   31.8894 C   0  0  0  0  0  0  0  0  0  0  0  0
   13.8018   37.2956   33.6197 N   0  0  0  0  0  0  0  0  0  0  0  0
   12.3048   36.2360   30.5555 O   0  0  0  0  0  0  0  0  0  0  0  0
   14.7922   36.4716   33.9864 C   0  0  0  0  0  0  0  0  0  0  0  0
   13.2747   37.7291   34.7944 C   0  0  0  0  0  0  0  0  0  0  0  0
   15.6240   35.7581   33.1861 N   0  0  0  0  0  0  0  0  0  0  0  0
   14.8721   36.4402   35.3331 C   0  0  0  0  0  0  0  0  0  0  0  0
   13.9206   37.2257   35.8810 N   0  0  0  0  0  0  0  0  0  0  0  0
   16.5873   34.9924   33.7802 C   0  0  0  0  0  0  0  0  0  0  0  0
   15.8576   35.6714   35.9444 C   0  0  0  0  0  0  0  0  0  0  0  0
   16.7026   34.9585   35.1439 N   0  0  0  0  0  0  0  0  0  0  0  0
   16.0102   35.6382   37.3564 N   0  0  0  0  0  0  0  0  0  0  0  0
    7.6665   44.0653   34.0544 H   0  0  0  0  0  0  0  0  0  0  0  0
    8.6799   46.1669   34.0589 H   0  0  0  0  0  0  0  0  0  0  0  0
    9.2334   45.3275   35.3757 H   0  0  0  0  0  0  0  0  0  0  0  0
    8.5082   43.0836   31.8695 H   0  0  0  0  0  0  0  0  0  0  0  0
    9.9809   44.0901   31.9916 H   0  0  0  0  0  0  0  0  0  0  0  0
    8.5762   46.1509   31.7930 H   0  0  0  0  0  0  0  0  0  0  0  0
    8.5181   45.0765   30.3770 H   0  0  0  0  0  0  0  0  0  0  0  0
    6.3165   45.0762   32.5399 H   0  0  0  0  0  0  0  0  0  0  0  0
    6.3143   44.1789   30.9821 H   0  0  0  0  0  0  0  0  0  0  0  0
    4.9251   46.2711   30.9345 H   0  0  0  0  0  0  0  0  0  0  0  0
    6.2427   46.2925   29.7235 H   0  0  0  0  0  0  0  0  0  0  0  0
    6.3159   47.7065   32.4374 H   0  0  0  0  0  0  0  0  0  0  0  0
    7.5050   49.5031   33.3003 H   0  0  0  0  0  0  0  0  0  0  0  0
    7.7303   51.1786   32.7629 H   0  0  0  0  0  0  0  0  0  0  0  0
    5.4048   49.2493   34.3158 H   0  0  0  0  0  0  0  0  0  0  0  0
    2.9698   49.5572   34.3919 H   0  0  0  0  0  0  0  0  0  0  0  0
    3.1365   52.1142   30.9664 H   0  0  0  0  0  0  0  0  0  0  0  0
    1.8347   50.9720   32.7104 H   0  0  0  0  0  0  0  0  0  0  0  0
   11.2092   41.0480   31.8915 H   0  0  0  0  0  0  0  0  0  0  0  0
    9.7448   40.0200   31.9302 H   0  0  0  0  0  0  0  0  0  0  0  0
   11.6207   39.0684   30.5942 H   0  0  0  0  0  0  0  0  0  0  0  0
   10.7059   37.5564   33.1439 H   0  0  0  0  0  0  0  0  0  0  0  0
   14.2095   37.4543   31.5601 H   0  0  0  0  0  0  0  0  0  0  0  0
   10.0864   37.4209   30.3413 H   0  0  0  0  0  0  0  0  0  0  0  0
   12.1275   35.7872   32.5550 H   0  0  0  0  0  0  0  0  0  0  0  0
   12.5031   37.0109   29.9673 H   0  0  0  0  0  0  0  0  0  0  0  0
   12.4328   38.3997   34.8703 H   0  0  0  0  0  0  0  0  0  0  0  0
   17.2670   34.4149   33.1691 H   0  0  0  0  0  0  0  0  0  0  0  0
   15.3758   36.1862   37.9792 H   0  0  0  0  0  0  0  0  0  0  0  0
   16.7640   35.0601   37.7896 H   0  0  0  0  0  0  0  0  0  0  0  0
  1  2  2  0
  1  3  1  0
  3  4  1  0
  4  5  1  0
  6  1  1  0
  7  6  1  0
  6  8  1  0
  8  9  1  0
  9 10  1  0
 10 11  1  0
 11 12  1  0
 12 13  1  0
 13 14  1  0
 13 15  2  0
 14 16  1  0
 16 17  1  0
 17 18  2  0
 19 17  1  0
 18 20  1  0
 21 19  2  0
 19 22  1  0
 20 23  2  0
 23 21  1  0
 22 24  1  0
 22 25  2  0
  4 26  2  0
  4 27  1  0
 28 27  1  0
 28 29  1  0
 29 30  1  0
 29 31  1  0
 30 32  1  0
 31 33  1  0
 31 34  1  0
 34 32  1  0
 32 35  1  0
 34 36  1  0
 37 35  1  0
 38 35  1  0
 39 37  2  0
 37 40  1  0
 41 38  2  0
 42 39  1  0
 40 43  2  0
 40 41  1  0
 44 42  2  0
 44 43  1  0
 43 45  1  0
  6 46  1  6
  7 47  1  0
  7 48  1  0
  8 49  1  0
  8 50  1  0
  9 51  1  0
  9 52  1  0
 10 53  1  0
 10 54  1  0
 11 55  1  0
 11 56  1  0
 12 57  1  0
 16 58  1  0
 16 59  1  0
 18 60  1  0
 20 61  1  0
 21 62  1  0
 23 63  1  0
 28 64  1  0
 28 65  1  0
 29 66  1  0
 31 67  1  0
 32 68  1  0
 33 69  1  0
 34 70  1  0
 36 71  1  0
 38 72  1  0
 42 73  1  0
 45 74  1  0
 45 75  1  0
M  CHG  3   5  -1  22   1  24  -1
M  END
>  <EmbedRMS>  (555) 
0.075263290579

$$$$

     RDKit          3D

 75 78  0  0  0  0  0  0  0  0999 V2000
    9.4333   42.9368   34.3455 C   0  0  0  0  0  0  0  0  0  0  0  0
   10.4907   43.0331   35.0314 O   0  0  0  0  0  0  0  0  0  0  0  0
    8.8559   41.7107   34.0294 O   0  0  0  0  0  0  0  0  0  0  0  0
    9.4943   40.2144   34.4675 P   0  0  0  0  0  0  0  0  0  0  0  0
    9.7316   40.1726   36.1286 O   0  0  0  0  0  0  0  0  0  0  0  0
    8.7509   44.1355   33.7737 C   0  0  1  0  0  0  0  0  0  0  0  0
    9.2967   45.3822   34.3135 N   0  0  0  0  0  0  0  0  0  0  0  0
    8.8899   44.0552   32.2354 C   0  0  0  0  0  0  0  0  0  0  0  0
    8.2028   45.1859   31.4624 C   0  0  0  0  0  0  0  0  0  0  0  0
    6.6651   45.1062   31.4856 C   0  0  0  0  0  0  0  0  0  0  0  0
    6.0240   46.3220   30.8083 C   0  0  0  0  0  0  0  0  0  0  0  0
    6.4972   47.5657   31.4155 N   0  0  0  0  0  0  0  0  0  0  0  0
    7.2575   48.5294   30.6899 C   0  0  0  0  0  0  0  0  0  0  0  0
    7.6734   49.6966   31.3383 O   0  0  0  0  0  0  0  0  0  0  0  0
    7.5905   48.3103   29.4937 O   0  0  0  0  0  0  0  0  0  0  0  0
    8.6255   50.6000   30.7802 C   0  0  0  0  0  0  0  0  0  0  0  0
    9.9897   49.9510   30.7062 C   0  0  0  0  0  0  0  0  0  0  0  0
   10.6238   49.8615   29.4533 C   0  0  0  0  0  0  0  0  0  0  0  0
   10.6176   49.3729   31.8446 C   0  0  0  0  0  0  0  0  0  0  0  0
   11.8461   49.2025   29.3184 C   0  0  0  0  0  0  0  0  0  0  0  0
   11.8409   48.6984   31.6810 C   0  0  0  0  0  0  0  0  0  0  0  0
   10.0308   49.4347   33.1581 N   0  0  0  0  0  0  0  0  0  0  0  0
   12.4506   48.6176   30.4287 C   0  0  0  0  0  0  0  0  0  0  0  0
   10.2933   48.4429   34.0749 O   0  0  0  0  0  0  0  0  0  0  0  0
    9.4207   50.4543   33.5390 O   0  0  0  0  0  0  0  0  0  0  0  0
    8.5372   39.1384   34.0122 O   0  0  0  0  0  0  0  0  0  0  0  0
   10.9795   40.0889   33.6815 O   0  0  0  0  0  0  0  0  0  0  0  0
   10.7982   40.0848   32.2819 C   0  0  0  0  0  0  0  0  0  0  0  0
   11.5886   38.9142   31.7008 C   0  0  0  0  0  0  0  0  0  0  0  0
   12.9214   38.9367   32.1698 O   0  0  0  0  0  0  0  0  0  0  0  0
   11.0047   37.5660   32.0990 C   0  0  0  0  0  0  0  0  0  0  0  0
   13.3511   37.5885   32.2601 C   0  0  0  0  0  0  0  0  0  0  0  0
    9.9296   37.1961   31.2780 O   0  0  0  0  0  0  0  0  0  0  0  0
   12.1923   36.6659   31.9047 C   0  0  0  0  0  0  0  0  0  0  0  0
   13.8033   37.2966   33.6188 N   0  0  0  0  0  0  0  0  0  0  0  0
   12.3007   36.2864   30.5561 O   0  0  0  0  0  0  0  0  0  0  0  0
   14.7933   36.4724   33.9860 C   0  0  0  0  0  0  0  0  0  0  0  0
   13.2753   37.7296   34.7935 C   0  0  0  0  0  0  0  0  0  0  0  0
   15.6243   35.7579   33.1860 N   0  0  0  0  0  0  0  0  0  0  0  0
   14.8728   36.4410   35.3328 C   0  0  0  0  0  0  0  0  0  0  0  0
   13.9209   37.2263   35.8804 N   0  0  0  0  0  0  0  0  0  0  0  0
   16.5873   34.9919   33.7803 C   0  0  0  0  0  0  0  0  0  0  0  0
   15.8577   35.6716   35.9443 C   0  0  0  0  0  0  0  0  0  0  0  0
   16.7025   34.9583   35.1440 N   0  0  0  0  0  0  0  0  0  0  0  0
   16.0100   35.6384   37.3563 N   0  0  0  0  0  0  0  0  0  0  0  0
    7.6772   44.0715   34.0497 H   0  0  0  0  0  0  0  0  0  0  0  0
    9.1840   45.3819   35.3537 H   0  0  0  0  0  0  0  0  0  0  0  0
   10.3194   45.4412   34.0991 H   0  0  0  0  0  0  0  0  0  0  0  0
    9.9717   44.0720   31.9738 H   0  0  0  0  0  0  0  0  0  0  0  0
    8.4830   43.0877   31.8651 H   0  0  0  0  0  0  0  0  0  0  0  0
    8.5538   46.1548   31.8769 H   0  0  0  0  0  0  0  0  0  0  0  0
    8.5393   45.1424   30.4034 H   0  0  0  0  0  0  0  0  0  0  0  0
    6.3313   44.1802   30.9691 H   0  0  0  0  0  0  0  0  0  0  0  0
    6.3015   45.0667   32.5333 H   0  0  0  0  0  0  0  0  0  0  0  0
    6.2458   46.2890   29.7200 H   0  0  0  0  0  0  0  0  0  0  0  0
    4.9204   46.2630   30.9217 H   0  0  0  0  0  0  0  0  0  0  0  0
    6.2759   47.7521   32.4195 H   0  0  0  0  0  0  0  0  0  0  0  0
    8.2721   50.9329   29.7795 H   0  0  0  0  0  0  0  0  0  0  0  0
    8.6823   51.5099   31.4118 H   0  0  0  0  0  0  0  0  0  0  0  0
   10.1645   50.2906   28.5713 H   0  0  0  0  0  0  0  0  0  0  0  0
   12.3211   49.1375   28.3479 H   0  0  0  0  0  0  0  0  0  0  0  0
   12.3341   48.2444   32.5311 H   0  0  0  0  0  0  0  0  0  0  0  0
   13.3960   48.1018   30.3199 H   0  0  0  0  0  0  0  0  0  0  0  0
    9.7427   40.0141   31.9265 H   0  0  0  0  0  0  0  0  0  0  0  0
   11.2132   41.0320   31.8757 H   0  0  0  0  0  0  0  0  0  0  0  0
   11.5980   39.0108   30.5904 H   0  0  0  0  0  0  0  0  0  0  0  0
   10.7009   37.5602   33.1721 H   0  0  0  0  0  0  0  0  0  0  0  0
   14.1977   37.4380   31.5532 H   0  0  0  0  0  0  0  0  0  0  0  0
    9.5181   36.3961   31.6977 H   0  0  0  0  0  0  0  0  0  0  0  0
   12.1419   35.7697   32.5692 H   0  0  0  0  0  0  0  0  0  0  0  0
   11.7730   35.4523   30.4489 H   0  0  0  0  0  0  0  0  0  0  0  0
   12.4321   38.3985   34.8692 H   0  0  0  0  0  0  0  0  0  0  0  0
   17.2667   34.4138   33.1694 H   0  0  0  0  0  0  0  0  0  0  0  0
   16.7634   35.0598   37.7897 H   0  0  0  0  0  0  0  0  0  0  0  0
   15.3757   36.1867   37.9790 H   0  0  0  0  0  0  0  0  0  0  0  0
  1  2  2  0
  1  3  1  0
  3  4  1  0
  4  5  1  0
  6  1  1  0
  7  6  1  0
  6  8  1  0
  8  9  1  0
  9 10  1  0
 10 11  1  0
 11 12  1  0
 12 13  1  0
 13 14  1  0
 13 15  2  0
 14 16  1  0
 16 17  1  0
 17 18  2  0
 19 17  1  0
 18 20  1  0
 21 19  2  0
 19 22  1  0
 20 23  2  0
 23 21  1  0
 22 24  1  0
 22 25  2  0
  4 26  2  0
  4 27  1  0
 28 27  1  0
 28 29  1  0
 29 30  1  0
 29 31  1  0
 30 32  1  0
 31 33  1  0
 31 34  1  0
 34 32  1  0
 32 35  1  0
 34 36  1  0
 37 35  1  0
 38 35  1  0
 39 37  2  0
 37 40  1  0
 41 38  2  0
 42 39  1  0
 40 43  2  0
 40 41  1  0
 44 42  2  0
 44 43  1  0
 43 45  1  0
  6 46  1  6
  7 47  1  0
  7 48  1  0
  8 49  1  0
  8 50  1  0
  9 51  1  0
  9 52  1  0
 10 53  1  0
 10 54  1  0
 11 55  1  0
 11 56  1  0
 12 57  1  0
 16 58  1  0
 16 59  1  0
 18 60  1  0
 20 61  1  0
 21 62  1  0
 23 63  1  0
 28 64  1  0
 28 65  1  0
 29 66  1  0
 31 67  1  0
 32 68  1  0
 33 69  1  0
 34 70  1  0
 36 71  1  0
 38 72  1  0
 42 73  1  0
 45 74  1  0
 45 75  1  0
M  CHG  3   5  -1  22   1  24  -1
M  END
>  <EmbedRMS>  (556) 
0.0749225355435

$$$$

     RDKit          3D

 75 78  0  0  0  0  0  0  0  0999 V2000
    9.4311   42.9411   34.3436 C   0  0  0  0  0  0  0  0  0  0  0  0
   10.4883   43.0411   35.0293 O   0  0  0  0  0  0  0  0  0  0  0  0
    8.8561   41.7128   34.0287 O   0  0  0  0  0  0  0  0  0  0  0  0
    9.4945   40.2161   34.4677 P   0  0  0  0  0  0  0  0  0  0  0  0
    9.7312   40.1740   36.1288 O   0  0  0  0  0  0  0  0  0  0  0  0
    8.7482   44.1360   33.7717 C   0  0  1  0  0  0  0  0  0  0  0  0
    9.3035   45.3666   34.3384 N   0  0  0  0  0  0  0  0  0  0  0  0
    8.8892   44.0516   32.2303 C   0  0  0  0  0  0  0  0  0  0  0  0
    8.2020   45.1718   31.4423 C   0  0  0  0  0  0  0  0  0  0  0  0
    6.6647   45.1043   31.4832 C   0  0  0  0  0  0  0  0  0  0  0  0
    6.0256   46.3266   30.8159 C   0  0  0  0  0  0  0  0  0  0  0  0
    6.5157   47.5630   31.4252 N   0  0  0  0  0  0  0  0  0  0  0  0
    7.2285   48.5519   30.6749 C   0  0  0  0  0  0  0  0  0  0  0  0
    7.5506   49.8020   31.2202 O   0  0  0  0  0  0  0  0  0  0  0  0
    7.6015   48.2994   29.4996 O   0  0  0  0  0  0  0  0  0  0  0  0
    6.9937   50.3519   32.4142 C   0  0  0  0  0  0  0  0  0  0  0  0
    5.5414   50.7223   32.2134 C   0  0  0  0  0  0  0  0  0  0  0  0
    4.5538   49.9484   32.8524 C   0  0  0  0  0  0  0  0  0  0  0  0
    5.1452   51.8587   31.4544 C   0  0  0  0  0  0  0  0  0  0  0  0
    3.2017   50.2646   32.7212 C   0  0  0  0  0  0  0  0  0  0  0  0
    3.7753   52.1647   31.3466 C   0  0  0  0  0  0  0  0  0  0  0  0
    6.1027   52.7377   30.8332 N   0  0  0  0  0  0  0  0  0  0  0  0
    2.8129   51.3685   31.9671 C   0  0  0  0  0  0  0  0  0  0  0  0
    7.2203   52.2400   30.2067 O   0  0  0  0  0  0  0  0  0  0  0  0
    5.8504   53.9555   30.7230 O   0  0  0  0  0  0  0  0  0  0  0  0
    8.5374   39.1400   34.0124 O   0  0  0  0  0  0  0  0  0  0  0  0
   10.9799   40.0879   33.6828 O   0  0  0  0  0  0  0  0  0  0  0  0
   10.8002   40.0907   32.2831 C   0  0  0  0  0  0  0  0  0  0  0  0
   11.5958   38.9271   31.6964 C   0  0  0  0  0  0  0  0  0  0  0  0
   12.9239   38.9409   32.1767 O   0  0  0  0  0  0  0  0  0  0  0  0
   11.0062   37.5720   32.0794 C   0  0  0  0  0  0  0  0  0  0  0  0
   13.3506   37.5906   32.2614 C   0  0  0  0  0  0  0  0  0  0  0  0
    9.9064   37.1793   31.2946 O   0  0  0  0  0  0  0  0  0  0  0  0
   12.1919   36.6672   31.9003 C   0  0  0  0  0  0  0  0  0  0  0  0
   13.8017   37.2948   33.6193 N   0  0  0  0  0  0  0  0  0  0  0  0
   12.3133   36.2788   30.5561 O   0  0  0  0  0  0  0  0  0  0  0  0
   14.7927   36.4717   33.9862 C   0  0  0  0  0  0  0  0  0  0  0  0
   13.2746   37.7284   34.7941 C   0  0  0  0  0  0  0  0  0  0  0  0
   15.6240   35.7576   33.1859 N   0  0  0  0  0  0  0  0  0  0  0  0
   14.8728   36.4406   35.3330 C   0  0  0  0  0  0  0  0  0  0  0  0
   13.9209   37.2258   35.8808 N   0  0  0  0  0  0  0  0  0  0  0  0
   16.5874   34.9920   33.7802 C   0  0  0  0  0  0  0  0  0  0  0  0
   15.8579   35.6716   35.9443 C   0  0  0  0  0  0  0  0  0  0  0  0
   16.7028   34.9584   35.1439 N   0  0  0  0  0  0  0  0  0  0  0  0
   16.0103   35.6383   37.3563 N   0  0  0  0  0  0  0  0  0  0  0  0
    7.6761   44.0635   34.0542 H   0  0  0  0  0  0  0  0  0  0  0  0
    8.6461   46.1558   34.1430 H   0  0  0  0  0  0  0  0  0  0  0  0
   10.2146   45.5885   33.8740 H   0  0  0  0  0  0  0  0  0  0  0  0
    9.9709   44.0637   31.9677 H   0  0  0  0  0  0  0  0  0  0  0  0
    8.4830   43.0815   31.8662 H   0  0  0  0  0  0  0  0  0  0  0  0
    8.5708   46.1481   31.8179 H   0  0  0  0  0  0  0  0  0  0  0  0
    8.5228   45.0971   30.3801 H   0  0  0  0  0  0  0  0  0  0  0  0
    6.3125   45.0664   32.5349 H   0  0  0  0  0  0  0  0  0  0  0  0
    6.3172   44.1815   30.9701 H   0  0  0  0  0  0  0  0  0  0  0  0
    6.2316   46.2972   29.7245 H   0  0  0  0  0  0  0  0  0  0  0  0
    4.9235   46.2754   30.9459 H   0  0  0  0  0  0  0  0  0  0  0  0
    6.3615   47.6898   32.4478 H   0  0  0  0  0  0  0  0  0  0  0  0
    7.1311   49.6437   33.2588 H   0  0  0  0  0  0  0  0  0  0  0  0
    7.5636   51.2636   32.6905 H   0  0  0  0  0  0  0  0  0  0  0  0
    4.8268   49.1016   33.4679 H   0  0  0  0  0  0  0  0  0  0  0  0
    2.4539   49.6565   33.2137 H   0  0  0  0  0  0  0  0  0  0  0  0
    3.4502   53.0232   30.7725 H   0  0  0  0  0  0  0  0  0  0  0  0
    1.7632   51.6144   31.8705 H   0  0  0  0  0  0  0  0  0  0  0  0
    9.7454   40.0168   31.9263 H   0  0  0  0  0  0  0  0  0  0  0  0
   11.2114   41.0421   31.8829 H   0  0  0  0  0  0  0  0  0  0  0  0
   11.6246   39.0449   30.5889 H   0  0  0  0  0  0  0  0  0  0  0  0
   10.7050   37.5582   33.1500 H   0  0  0  0  0  0  0  0  0  0  0  0
   14.1984   37.4426   31.5553 H   0  0  0  0  0  0  0  0  0  0  0  0
   10.0893   37.4058   30.3459 H   0  0  0  0  0  0  0  0  0  0  0  0
   12.1337   35.7754   32.5703 H   0  0  0  0  0  0  0  0  0  0  0  0
   11.7934   35.4394   30.4514 H   0  0  0  0  0  0  0  0  0  0  0  0
   12.4314   38.3973   34.8700 H   0  0  0  0  0  0  0  0  0  0  0  0
   17.2669   34.4141   33.1692 H   0  0  0  0  0  0  0  0  0  0  0  0
   16.7638   35.0599   37.7897 H   0  0  0  0  0  0  0  0  0  0  0  0
   15.3759   36.1865   37.9790 H   0  0  0  0  0  0  0  0  0  0  0  0
  1  2  2  0
  1  3  1  0
  3  4  1  0
  4  5  1  0
  6  1  1  0
  7  6  1  0
  6  8  1  0
  8  9  1  0
  9 10  1  0
 10 11  1  0
 11 12  1  0
 12 13  1  0
 13 14  1  0
 13 15  2  0
 14 16  1  0
 16 17  1  0
 17 18  2  0
 19 17  1  0
 18 20  1  0
 21 19  2  0
 19 22  1  0
 20 23  2  0
 23 21  1  0
 22 24  1  0
 22 25  2  0
  4 26  2  0
  4 27  1  0
 28 27  1  0
 28 29  1  0
 29 30  1  0
 29 31  1  0
 30 32  1  0
 31 33  1  0
 31 34  1  0
 34 32  1  0
 32 35  1  0
 34 36  1  0
 37 35  1  0
 38 35  1  0
 39 37  2  0
 37 40  1  0
 41 38  2  0
 42 39  1  0
 40 43  2  0
 40 41  1  0
 44 42  2  0
 44 43  1  0
 43 45  1  0
  6 46  1  6
  7 47  1  0
  7 48  1  0
  8 49  1  0
  8 50  1  0
  9 51  1  0
  9 52  1  0
 10 53  1  0
 10 54  1  0
 11 55  1  0
 11 56  1  0
 12 57  1  0
 16 58  1  0
 16 59  1  0
 18 60  1  0
 20 61  1  0
 21 62  1  0
 23 63  1  0
 28 64  1  0
 28 65  1  0
 29 66  1  0
 31 67  1  0
 32 68  1  0
 33 69  1  0
 34 70  1  0
 36 71  1  0
 38 72  1  0
 42 73  1  0
 45 74  1  0
 45 75  1  0
M  CHG  3   5  -1  22   1  24  -1
M  END
>  <EmbedRMS>  (557) 
0.0735370526688

$$$$

     RDKit          3D

 75 78  0  0  0  0  0  0  0  0999 V2000
    9.4337   42.9380   34.3446 C   0  0  0  0  0  0  0  0  0  0  0  0
   10.4908   43.0339   35.0309 O   0  0  0  0  0  0  0  0  0  0  0  0
    8.8560   41.7117   34.0287 O   0  0  0  0  0  0  0  0  0  0  0  0
    9.4942   40.2151   34.4673 P   0  0  0  0  0  0  0  0  0  0  0  0
    9.7314   40.1732   36.1284 O   0  0  0  0  0  0  0  0  0  0  0  0
    8.7516   44.1375   33.7730 C   0  0  1  0  0  0  0  0  0  0  0  0
    9.2971   45.3841   34.3138 N   0  0  0  0  0  0  0  0  0  0  0  0
    8.8909   44.0594   32.2346 C   0  0  0  0  0  0  0  0  0  0  0  0
    8.2017   45.1905   31.4631 C   0  0  0  0  0  0  0  0  0  0  0  0
    6.6636   45.1082   31.4849 C   0  0  0  0  0  0  0  0  0  0  0  0
    6.0174   46.3204   30.8030 C   0  0  0  0  0  0  0  0  0  0  0  0
    6.4793   47.5682   31.4098 N   0  0  0  0  0  0  0  0  0  0  0  0
    7.2940   48.5023   30.7063 C   0  0  0  0  0  0  0  0  0  0  0  0
    7.8742   49.5581   31.4137 O   0  0  0  0  0  0  0  0  0  0  0  0
    7.5791   48.3160   29.4924 O   0  0  0  0  0  0  0  0  0  0  0  0
    9.1297   50.1290   31.0525 C   0  0  0  0  0  0  0  0  0  0  0  0
   10.2272   49.0970   31.1949 C   0  0  0  0  0  0  0  0  0  0  0  0
   10.7611   48.5252   30.0249 C   0  0  0  0  0  0  0  0  0  0  0  0
   10.7188   48.6709   32.4616 C   0  0  0  0  0  0  0  0  0  0  0  0
   11.7553   47.5497   30.0960 C   0  0  0  0  0  0  0  0  0  0  0  0
   11.7330   47.6967   32.5062 C   0  0  0  0  0  0  0  0  0  0  0  0
   10.2354   49.2195   33.7033 N   0  0  0  0  0  0  0  0  0  0  0  0
   12.2398   47.1360   31.3341 C   0  0  0  0  0  0  0  0  0  0  0  0
   11.0573   49.2453   34.8067 O   0  0  0  0  0  0  0  0  0  0  0  0
    9.0363   49.5315   33.8469 O   0  0  0  0  0  0  0  0  0  0  0  0
    8.5370   39.1391   34.0120 O   0  0  0  0  0  0  0  0  0  0  0  0
   10.9794   40.0891   33.6815 O   0  0  0  0  0  0  0  0  0  0  0  0
   10.7983   40.0850   32.2818 C   0  0  0  0  0  0  0  0  0  0  0  0
   11.5886   38.9143   31.7008 C   0  0  0  0  0  0  0  0  0  0  0  0
   12.9214   38.9368   32.1698 O   0  0  0  0  0  0  0  0  0  0  0  0
   11.0047   37.5661   32.0990 C   0  0  0  0  0  0  0  0  0  0  0  0
   13.3511   37.5885   32.2601 C   0  0  0  0  0  0  0  0  0  0  0  0
    9.9296   37.1961   31.2780 O   0  0  0  0  0  0  0  0  0  0  0  0
   12.1923   36.6659   31.9047 C   0  0  0  0  0  0  0  0  0  0  0  0
   13.8033   37.2967   33.6188 N   0  0  0  0  0  0  0  0  0  0  0  0
   12.3007   36.2865   30.5561 O   0  0  0  0  0  0  0  0  0  0  0  0
   14.7933   36.4724   33.9860 C   0  0  0  0  0  0  0  0  0  0  0  0
   13.2753   37.7296   34.7935 C   0  0  0  0  0  0  0  0  0  0  0  0
   15.6243   35.7579   33.1860 N   0  0  0  0  0  0  0  0  0  0  0  0
   14.8728   36.4410   35.3328 C   0  0  0  0  0  0  0  0  0  0  0  0
   13.9209   37.2263   35.8804 N   0  0  0  0  0  0  0  0  0  0  0  0
   16.5873   34.9919   33.7803 C   0  0  0  0  0  0  0  0  0  0  0  0
   15.8577   35.6717   35.9443 C   0  0  0  0  0  0  0  0  0  0  0  0
   16.7025   34.9583   35.1440 N   0  0  0  0  0  0  0  0  0  0  0  0
   16.0100   35.6384   37.3563 N   0  0  0  0  0  0  0  0  0  0  0  0
    7.6777   44.0734   34.0482 H   0  0  0  0  0  0  0  0  0  0  0  0
    9.1820   45.3841   35.3537 H   0  0  0  0  0  0  0  0  0  0  0  0
   10.3202   45.4420   34.1022 H   0  0  0  0  0  0  0  0  0  0  0  0
    9.9730   44.0798   31.9735 H   0  0  0  0  0  0  0  0  0  0  0  0
    8.4865   43.0916   31.8628 H   0  0  0  0  0  0  0  0  0  0  0  0
    8.5398   45.1507   30.4044 H   0  0  0  0  0  0  0  0  0  0  0  0
    8.5498   46.1593   31.8800 H   0  0  0  0  0  0  0  0  0  0  0  0
    6.3327   44.1798   30.9709 H   0  0  0  0  0  0  0  0  0  0  0  0
    6.2995   45.0702   32.5325 H   0  0  0  0  0  0  0  0  0  0  0  0
    6.2444   46.2874   29.7158 H   0  0  0  0  0  0  0  0  0  0  0  0
    4.9137   46.2548   30.9110 H   0  0  0  0  0  0  0  0  0  0  0  0
    6.2643   47.7476   32.4165 H   0  0  0  0  0  0  0  0  0  0  0  0
    9.0699   50.5187   30.0125 H   0  0  0  0  0  0  0  0  0  0  0  0
    9.3449   50.9998   31.7063 H   0  0  0  0  0  0  0  0  0  0  0  0
   10.3995   48.8282   29.0500 H   0  0  0  0  0  0  0  0  0  0  0  0
   12.1511   47.1136   29.1879 H   0  0  0  0  0  0  0  0  0  0  0  0
   12.1232   47.3552   33.4565 H   0  0  0  0  0  0  0  0  0  0  0  0
   13.0114   46.3787   31.3866 H   0  0  0  0  0  0  0  0  0  0  0  0
   11.2133   41.0322   31.8756 H   0  0  0  0  0  0  0  0  0  0  0  0
    9.7428   40.0143   31.9263 H   0  0  0  0  0  0  0  0  0  0  0  0
   11.5981   39.0108   30.5904 H   0  0  0  0  0  0  0  0  0  0  0  0
   10.7008   37.5603   33.1721 H   0  0  0  0  0  0  0  0  0  0  0  0
   14.1977   37.4380   31.5532 H   0  0  0  0  0  0  0  0  0  0  0  0
    9.5180   36.3962   31.6978 H   0  0  0  0  0  0  0  0  0  0  0  0
   12.1418   35.7698   32.5692 H   0  0  0  0  0  0  0  0  0  0  0  0
   11.7729   35.4524   30.4489 H   0  0  0  0  0  0  0  0  0  0  0  0
   12.4321   38.3985   34.8692 H   0  0  0  0  0  0  0  0  0  0  0  0
   17.2667   34.4138   33.1694 H   0  0  0  0  0  0  0  0  0  0  0  0
   16.7634   35.0598   37.7897 H   0  0  0  0  0  0  0  0  0  0  0  0
   15.3757   36.1867   37.9790 H   0  0  0  0  0  0  0  0  0  0  0  0
  1  2  2  0
  1  3  1  0
  3  4  1  0
  4  5  1  0
  6  1  1  0
  7  6  1  0
  6  8  1  0
  8  9  1  0
  9 10  1  0
 10 11  1  0
 11 12  1  0
 12 13  1  0
 13 14  1  0
 13 15  2  0
 14 16  1  0
 16 17  1  0
 17 18  2  0
 19 17  1  0
 18 20  1  0
 21 19  2  0
 19 22  1  0
 20 23  2  0
 23 21  1  0
 22 24  1  0
 22 25  2  0
  4 26  2  0
  4 27  1  0
 28 27  1  0
 28 29  1  0
 29 30  1  0
 29 31  1  0
 30 32  1  0
 31 33  1  0
 31 34  1  0
 34 32  1  0
 32 35  1  0
 34 36  1  0
 37 35  1  0
 38 35  1  0
 39 37  2  0
 37 40  1  0
 41 38  2  0
 42 39  1  0
 40 43  2  0
 40 41  1  0
 44 42  2  0
 44 43  1  0
 43 45  1  0
  6 46  1  6
  7 47  1  0
  7 48  1  0
  8 49  1  0
  8 50  1  0
  9 51  1  0
  9 52  1  0
 10 53  1  0
 10 54  1  0
 11 55  1  0
 11 56  1  0
 12 57  1  0
 16 58  1  0
 16 59  1  0
 18 60  1  0
 20 61  1  0
 21 62  1  0
 23 63  1  0
 28 64  1  0
 28 65  1  0
 29 66  1  0
 31 67  1  0
 32 68  1  0
 33 69  1  0
 34 70  1  0
 36 71  1  0
 38 72  1  0
 42 73  1  0
 45 74  1  0
 45 75  1  0
M  CHG  3   5  -1  22   1  24  -1
M  END
>  <EmbedRMS>  (558) 
0.0767611569443

$$$$

     RDKit          3D

 75 78  0  0  0  0  0  0  0  0999 V2000
    9.4333   42.9364   34.3461 C   0  0  0  0  0  0  0  0  0  0  0  0
   10.4907   43.0329   35.0319 O   0  0  0  0  0  0  0  0  0  0  0  0
    8.8563   41.7103   34.0295 O   0  0  0  0  0  0  0  0  0  0  0  0
    9.4943   40.2139   34.4679 P   0  0  0  0  0  0  0  0  0  0  0  0
    9.7310   40.1724   36.1290 O   0  0  0  0  0  0  0  0  0  0  0  0
    8.7506   44.1348   33.7741 C   0  0  1  0  0  0  0  0  0  0  0  0
    9.2963   45.3820   34.3133 N   0  0  0  0  0  0  0  0  0  0  0  0
    8.8893   44.0527   32.2358 C   0  0  0  0  0  0  0  0  0  0  0  0
    8.2028   45.1823   31.4615 C   0  0  0  0  0  0  0  0  0  0  0  0
    6.6653   45.1046   31.4855 C   0  0  0  0  0  0  0  0  0  0  0  0
    6.0270   46.3225   30.8105 C   0  0  0  0  0  0  0  0  0  0  0  0
    6.5064   47.5639   31.4180 N   0  0  0  0  0  0  0  0  0  0  0  0
    7.2434   48.5393   30.6835 C   0  0  0  0  0  0  0  0  0  0  0  0
    7.5915   49.7407   31.3059 O   0  0  0  0  0  0  0  0  0  0  0  0
    7.5935   48.3118   29.4937 O   0  0  0  0  0  0  0  0  0  0  0  0
    8.3336   50.7627   30.6473 C   0  0  0  0  0  0  0  0  0  0  0  0
    8.5103   51.9401   31.5740 C   0  0  0  0  0  0  0  0  0  0  0  0
    9.8167   52.3505   31.8999 C   0  0  0  0  0  0  0  0  0  0  0  0
    7.4044   52.6180   32.1592 C   0  0  0  0  0  0  0  0  0  0  0  0
   10.0327   53.4006   32.7927 C   0  0  0  0  0  0  0  0  0  0  0  0
    7.6473   53.6634   33.0683 C   0  0  0  0  0  0  0  0  0  0  0  0
    6.0410   52.2549   31.8703 N   0  0  0  0  0  0  0  0  0  0  0  0
    8.9505   54.0532   33.3785 C   0  0  0  0  0  0  0  0  0  0  0  0
    5.0617   52.4590   32.8152 O   0  0  0  0  0  0  0  0  0  0  0  0
    5.7001   51.9070   30.7216 O   0  0  0  0  0  0  0  0  0  0  0  0
    8.5372   39.1382   34.0121 O   0  0  0  0  0  0  0  0  0  0  0  0
   10.9798   40.0870   33.6829 O   0  0  0  0  0  0  0  0  0  0  0  0
   10.8002   40.0905   32.2833 C   0  0  0  0  0  0  0  0  0  0  0  0
   11.5958   38.9271   31.6963 C   0  0  0  0  0  0  0  0  0  0  0  0
   12.9239   38.9409   32.1766 O   0  0  0  0  0  0  0  0  0  0  0  0
   11.0062   37.5719   32.0793 C   0  0  0  0  0  0  0  0  0  0  0  0
   13.3507   37.5905   32.2614 C   0  0  0  0  0  0  0  0  0  0  0  0
    9.9064   37.1792   31.2946 O   0  0  0  0  0  0  0  0  0  0  0  0
   12.1920   36.6671   31.9003 C   0  0  0  0  0  0  0  0  0  0  0  0
   13.8017   37.2948   33.6193 N   0  0  0  0  0  0  0  0  0  0  0  0
   12.3134   36.2788   30.5560 O   0  0  0  0  0  0  0  0  0  0  0  0
   14.7927   36.4716   33.9861 C   0  0  0  0  0  0  0  0  0  0  0  0
   13.2746   37.7284   34.7941 C   0  0  0  0  0  0  0  0  0  0  0  0
   15.6240   35.7576   33.1859 N   0  0  0  0  0  0  0  0  0  0  0  0
   14.8728   36.4406   35.3330 C   0  0  0  0  0  0  0  0  0  0  0  0
   13.9209   37.2258   35.8807 N   0  0  0  0  0  0  0  0  0  0  0  0
   16.5874   34.9920   33.7802 C   0  0  0  0  0  0  0  0  0  0  0  0
   15.8579   35.6716   35.9443 C   0  0  0  0  0  0  0  0  0  0  0  0
   16.7028   34.9584   35.1439 N   0  0  0  0  0  0  0  0  0  0  0  0
   16.0103   35.6383   37.3563 N   0  0  0  0  0  0  0  0  0  0  0  0
    7.6771   44.0706   34.0504 H   0  0  0  0  0  0  0  0  0  0  0  0
    9.1827   45.3820   35.3535 H   0  0  0  0  0  0  0  0  0  0  0  0
   10.3192   45.4406   34.1000 H   0  0  0  0  0  0  0  0  0  0  0  0
    9.9711   44.0682   31.9739 H   0  0  0  0  0  0  0  0  0  0  0  0
    8.4817   43.0851   31.8668 H   0  0  0  0  0  0  0  0  0  0  0  0
    8.5552   46.1510   31.8742 H   0  0  0  0  0  0  0  0  0  0  0  0
    8.5385   45.1363   30.4022 H   0  0  0  0  0  0  0  0  0  0  0  0
    6.3020   45.0643   32.5333 H   0  0  0  0  0  0  0  0  0  0  0  0
    6.3297   44.1799   30.9678 H   0  0  0  0  0  0  0  0  0  0  0  0
    6.2466   46.2897   29.7217 H   0  0  0  0  0  0  0  0  0  0  0  0
    4.9236   46.2673   30.9264 H   0  0  0  0  0  0  0  0  0  0  0  0
    6.2815   47.7533   32.4207 H   0  0  0  0  0  0  0  0  0  0  0  0
    7.8090   51.0873   29.7241 H   0  0  0  0  0  0  0  0  0  0  0  0
    9.3175   50.3479   30.3361 H   0  0  0  0  0  0  0  0  0  0  0  0
   10.6757   51.8512   31.4687 H   0  0  0  0  0  0  0  0  0  0  0  0
   11.0427   53.7048   33.0356 H   0  0  0  0  0  0  0  0  0  0  0  0
    6.8220   54.1913   33.5291 H   0  0  0  0  0  0  0  0  0  0  0  0
    9.1212   54.8649   34.0739 H   0  0  0  0  0  0  0  0  0  0  0  0
   11.2116   41.0420   31.8835 H   0  0  0  0  0  0  0  0  0  0  0  0
    9.7455   40.0168   31.9263 H   0  0  0  0  0  0  0  0  0  0  0  0
   11.6245   39.0449   30.5888 H   0  0  0  0  0  0  0  0  0  0  0  0
   10.7050   37.5579   33.1500 H   0  0  0  0  0  0  0  0  0  0  0  0
   14.1985   37.4426   31.5553 H   0  0  0  0  0  0  0  0  0  0  0  0
   10.0893   37.4056   30.3459 H   0  0  0  0  0  0  0  0  0  0  0  0
   12.1337   35.7754   32.5703 H   0  0  0  0  0  0  0  0  0  0  0  0
   11.7934   35.4394   30.4513 H   0  0  0  0  0  0  0  0  0  0  0  0
   12.4314   38.3973   34.8700 H   0  0  0  0  0  0  0  0  0  0  0  0
   17.2669   34.4142   33.1691 H   0  0  0  0  0  0  0  0  0  0  0  0
   15.3759   36.1864   37.9790 H   0  0  0  0  0  0  0  0  0  0  0  0
   16.7638   35.0599   37.7896 H   0  0  0  0  0  0  0  0  0  0  0  0
  1  2  2  0
  1  3  1  0
  3  4  1  0
  4  5  1  0
  6  1  1  0
  7  6  1  0
  6  8  1  0
  8  9  1  0
  9 10  1  0
 10 11  1  0
 11 12  1  0
 12 13  1  0
 13 14  1  0
 13 15  2  0
 14 16  1  0
 16 17  1  0
 17 18  2  0
 19 17  1  0
 18 20  1  0
 21 19  2  0
 19 22  1  0
 20 23  2  0
 23 21  1  0
 22 24  1  0
 22 25  2  0
  4 26  2  0
  4 27  1  0
 28 27  1  0
 28 29  1  0
 29 30  1  0
 29 31  1  0
 30 32  1  0
 31 33  1  0
 31 34  1  0
 34 32  1  0
 32 35  1  0
 34 36  1  0
 37 35  1  0
 38 35  1  0
 39 37  2  0
 37 40  1  0
 41 38  2  0
 42 39  1  0
 40 43  2  0
 40 41  1  0
 44 42  2  0
 44 43  1  0
 43 45  1  0
  6 46  1  6
  7 47  1  0
  7 48  1  0
  8 49  1  0
  8 50  1  0
  9 51  1  0
  9 52  1  0
 10 53  1  0
 10 54  1  0
 11 55  1  0
 11 56  1  0
 12 57  1  0
 16 58  1  0
 16 59  1  0
 18 60  1  0
 20 61  1  0
 21 62  1  0
 23 63  1  0
 28 64  1  0
 28 65  1  0
 29 66  1  0
 31 67  1  0
 32 68  1  0
 33 69  1  0
 34 70  1  0
 36 71  1  0
 38 72  1  0
 42 73  1  0
 45 74  1  0
 45 75  1  0
M  CHG  3   5  -1  22   1  24  -1
M  END
>  <EmbedRMS>  (559) 
0.0747870034105

$$$$

     RDKit          3D

 75 78  0  0  0  0  0  0  0  0999 V2000
    9.4302   42.9396   34.3430 C   0  0  0  0  0  0  0  0  0  0  0  0
   10.4915   43.0382   35.0231 O   0  0  0  0  0  0  0  0  0  0  0  0
    8.8547   41.7117   34.0287 O   0  0  0  0  0  0  0  0  0  0  0  0
    9.4929   40.2156   34.4698 P   0  0  0  0  0  0  0  0  0  0  0  0
    9.7292   40.1743   36.1308 O   0  0  0  0  0  0  0  0  0  0  0  0
    8.7413   44.1378   33.7782 C   0  0  1  0  0  0  0  0  0  0  0  0
    9.3002   45.3720   34.3328 N   0  0  0  0  0  0  0  0  0  0  0  0
    8.8970   44.0613   32.2395 C   0  0  0  0  0  0  0  0  0  0  0  0
    8.2029   45.1719   31.4411 C   0  0  0  0  0  0  0  0  0  0  0  0
    6.6653   45.1076   31.4910 C   0  0  0  0  0  0  0  0  0  0  0  0
    6.0251   46.3220   30.8108 C   0  0  0  0  0  0  0  0  0  0  0  0
    6.5006   47.5656   31.4166 N   0  0  0  0  0  0  0  0  0  0  0  0
    7.2577   48.5301   30.6889 C   0  0  0  0  0  0  0  0  0  0  0  0
    7.6717   49.6993   31.3351 O   0  0  0  0  0  0  0  0  0  0  0  0
    7.5883   48.3107   29.4920 O   0  0  0  0  0  0  0  0  0  0  0  0
    8.5818   50.6312   30.7537 C   0  0  0  0  0  0  0  0  0  0  0  0
    9.9565   50.0167   30.6131 C   0  0  0  0  0  0  0  0  0  0  0  0
   10.5501   49.9835   29.3377 C   0  0  0  0  0  0  0  0  0  0  0  0
   10.6361   49.4201   31.7102 C   0  0  0  0  0  0  0  0  0  0  0  0
   11.7839   49.3626   29.1412 C   0  0  0  0  0  0  0  0  0  0  0  0
   11.8719   48.7852   31.4851 C   0  0  0  0  0  0  0  0  0  0  0  0
   10.0877   49.4282   33.0415 N   0  0  0  0  0  0  0  0  0  0  0  0
   12.4411   48.7604   30.2116 C   0  0  0  0  0  0  0  0  0  0  0  0
    9.4329   50.5362   33.5260 O   0  0  0  0  0  0  0  0  0  0  0  0
   10.3430   48.4932   33.8285 O   0  0  0  0  0  0  0  0  0  0  0  0
    8.5369   39.1390   34.0137 O   0  0  0  0  0  0  0  0  0  0  0  0
   10.9787   40.0874   33.6871 O   0  0  0  0  0  0  0  0  0  0  0  0
   10.7993   40.0946   32.2883 C   0  0  0  0  0  0  0  0  0  0  0  0
   11.5957   38.9351   31.6994 C   0  0  0  0  0  0  0  0  0  0  0  0
   12.9257   38.9478   32.1798 O   0  0  0  0  0  0  0  0  0  0  0  0
   11.0070   37.5758   32.0732 C   0  0  0  0  0  0  0  0  0  0  0  0
   13.3571   37.5980   32.2612 C   0  0  0  0  0  0  0  0  0  0  0  0
    9.9093   37.1808   31.2875 O   0  0  0  0  0  0  0  0  0  0  0  0
   12.1967   36.6764   31.8894 C   0  0  0  0  0  0  0  0  0  0  0  0
   13.8018   37.2956   33.6197 N   0  0  0  0  0  0  0  0  0  0  0  0
   12.3048   36.2360   30.5555 O   0  0  0  0  0  0  0  0  0  0  0  0
   14.7922   36.4716   33.9864 C   0  0  0  0  0  0  0  0  0  0  0  0
   13.2747   37.7291   34.7944 C   0  0  0  0  0  0  0  0  0  0  0  0
   15.6240   35.7581   33.1861 N   0  0  0  0  0  0  0  0  0  0  0  0
   14.8721   36.4402   35.3331 C   0  0  0  0  0  0  0  0  0  0  0  0
   13.9206   37.2257   35.8810 N   0  0  0  0  0  0  0  0  0  0  0  0
   16.5873   34.9924   33.7802 C   0  0  0  0  0  0  0  0  0  0  0  0
   15.8576   35.6714   35.9444 C   0  0  0  0  0  0  0  0  0  0  0  0
   16.7026   34.9585   35.1439 N   0  0  0  0  0  0  0  0  0  0  0  0
   16.0102   35.6383   37.3564 N   0  0  0  0  0  0  0  0  0  0  0  0
    7.6668   44.0644   34.0537 H   0  0  0  0  0  0  0  0  0  0  0  0
    9.2361   45.3257   35.3764 H   0  0  0  0  0  0  0  0  0  0  0  0
    8.6748   46.1647   34.0632 H   0  0  0  0  0  0  0  0  0  0  0  0
    8.5101   43.0861   31.8678 H   0  0  0  0  0  0  0  0  0  0  0  0
    9.9818   44.0943   31.9918 H   0  0  0  0  0  0  0  0  0  0  0  0
    8.5758   46.1546   31.7951 H   0  0  0  0  0  0  0  0  0  0  0  0
    8.5169   45.0813   30.3781 H   0  0  0  0  0  0  0  0  0  0  0  0
    6.3178   45.0852   32.5446 H   0  0  0  0  0  0  0  0  0  0  0  0
    6.3143   44.1785   30.9920 H   0  0  0  0  0  0  0  0  0  0  0  0
    4.9216   46.2647   30.9258 H   0  0  0  0  0  0  0  0  0  0  0  0
    6.2461   46.2868   29.7224 H   0  0  0  0  0  0  0  0  0  0  0  0
    6.2819   47.7521   32.4212 H   0  0  0  0  0  0  0  0  0  0  0  0
    8.6441   51.5327   31.3961 H   0  0  0  0  0  0  0  0  0  0  0  0
    8.1804   50.9709   29.7736 H   0  0  0  0  0  0  0  0  0  0  0  0
   10.0507   50.4285   28.4858 H   0  0  0  0  0  0  0  0  0  0  0  0
   12.2274   49.3412   28.1541 H   0  0  0  0  0  0  0  0  0  0  0  0
   12.4051   48.3187   32.3040 H   0  0  0  0  0  0  0  0  0  0  0  0
   13.3957   48.2747   30.0553 H   0  0  0  0  0  0  0  0  0  0  0  0
   11.2094   41.0480   31.8916 H   0  0  0  0  0  0  0  0  0  0  0  0
    9.7449   40.0201   31.9301 H   0  0  0  0  0  0  0  0  0  0  0  0
   11.6208   39.0684   30.5942 H   0  0  0  0  0  0  0  0  0  0  0  0
   10.7059   37.5564   33.1439 H   0  0  0  0  0  0  0  0  0  0  0  0
   14.2095   37.4543   31.5601 H   0  0  0  0  0  0  0  0  0  0  0  0
   10.0864   37.4210   30.3413 H   0  0  0  0  0  0  0  0  0  0  0  0
   12.1275   35.7872   32.5550 H   0  0  0  0  0  0  0  0  0  0  0  0
   12.5031   37.0109   29.9673 H   0  0  0  0  0  0  0  0  0  0  0  0
   12.4328   38.3997   34.8703 H   0  0  0  0  0  0  0  0  0  0  0  0
   17.2670   34.4149   33.1691 H   0  0  0  0  0  0  0  0  0  0  0  0
   16.7640   35.0602   37.7896 H   0  0  0  0  0  0  0  0  0  0  0  0
   15.3757   36.1863   37.9791 H   0  0  0  0  0  0  0  0  0  0  0  0
  1  2  2  0
  1  3  1  0
  3  4  1  0
  4  5  1  0
  6  1  1  0
  7  6  1  0
  6  8  1  0
  8  9  1  0
  9 10  1  0
 10 11  1  0
 11 12  1  0
 12 13  1  0
 13 14  1  0
 13 15  2  0
 14 16  1  0
 16 17  1  0
 17 18  2  0
 19 17  1  0
 18 20  1  0
 21 19  2  0
 19 22  1  0
 20 23  2  0
 23 21  1  0
 22 24  1  0
 22 25  2  0
  4 26  2  0
  4 27  1  0
 28 27  1  0
 28 29  1  0
 29 30  1  0
 29 31  1  0
 30 32  1  0
 31 33  1  0
 31 34  1  0
 34 32  1  0
 32 35  1  0
 34 36  1  0
 37 35  1  0
 38 35  1  0
 39 37  2  0
 37 40  1  0
 41 38  2  0
 42 39  1  0
 40 43  2  0
 40 41  1  0
 44 42  2  0
 44 43  1  0
 43 45  1  0
  6 46  1  6
  7 47  1  0
  7 48  1  0
  8 49  1  0
  8 50  1  0
  9 51  1  0
  9 52  1  0
 10 53  1  0
 10 54  1  0
 11 55  1  0
 11 56  1  0
 12 57  1  0
 16 58  1  0
 16 59  1  0
 18 60  1  0
 20 61  1  0
 21 62  1  0
 23 63  1  0
 28 64  1  0
 28 65  1  0
 29 66  1  0
 31 67  1  0
 32 68  1  0
 33 69  1  0
 34 70  1  0
 36 71  1  0
 38 72  1  0
 42 73  1  0
 45 74  1  0
 45 75  1  0
M  CHG  3   5  -1  22   1  24  -1
M  END
>  <EmbedRMS>  (560) 
0.0759113680274

$$$$

     RDKit          3D

 75 78  0  0  0  0  0  0  0  0999 V2000
    9.4331   42.9365   34.3462 C   0  0  0  0  0  0  0  0  0  0  0  0
   10.4907   43.0329   35.0318 O   0  0  0  0  0  0  0  0  0  0  0  0
    8.8558   41.7104   34.0299 O   0  0  0  0  0  0  0  0  0  0  0  0
    9.4943   40.2141   34.4677 P   0  0  0  0  0  0  0  0  0  0  0  0
    9.7317   40.1723   36.1287 O   0  0  0  0  0  0  0  0  0  0  0  0
    8.7506   44.1349   33.7741 C   0  0  1  0  0  0  0  0  0  0  0  0
    9.2963   45.3821   34.3133 N   0  0  0  0  0  0  0  0  0  0  0  0
    8.8893   44.0528   32.2358 C   0  0  0  0  0  0  0  0  0  0  0  0
    8.2028   45.1824   31.4615 C   0  0  0  0  0  0  0  0  0  0  0  0
    6.6653   45.1046   31.4854 C   0  0  0  0  0  0  0  0  0  0  0  0
    6.0268   46.3225   30.8103 C   0  0  0  0  0  0  0  0  0  0  0  0
    6.5059   47.5640   31.4179 N   0  0  0  0  0  0  0  0  0  0  0  0
    7.2446   48.5387   30.6840 C   0  0  0  0  0  0  0  0  0  0  0  0
    7.5998   49.7368   31.3091 O   0  0  0  0  0  0  0  0  0  0  0  0
    7.5930   48.3120   29.4935 O   0  0  0  0  0  0  0  0  0  0  0  0
    8.3564   50.7525   30.6559 C   0  0  0  0  0  0  0  0  0  0  0  0
    8.6299   51.8807   31.6209 C   0  0  0  0  0  0  0  0  0  0  0  0
    9.1814   51.5619   32.8756 C   0  0  0  0  0  0  0  0  0  0  0  0
    8.3256   53.2361   31.3251 C   0  0  0  0  0  0  0  0  0  0  0  0
    9.3835   52.5520   33.8382 C   0  0  0  0  0  0  0  0  0  0  0  0
    8.5163   54.2153   32.3149 C   0  0  0  0  0  0  0  0  0  0  0  0
    7.8550   53.6440   30.0316 N   0  0  0  0  0  0  0  0  0  0  0  0
    9.0414   53.8746   33.5623 C   0  0  0  0  0  0  0  0  0  0  0  0
    6.9167   54.6453   29.9314 O   0  0  0  0  0  0  0  0  0  0  0  0
    8.4660   53.2867   29.0034 O   0  0  0  0  0  0  0  0  0  0  0  0
    8.5371   39.1382   34.0123 O   0  0  0  0  0  0  0  0  0  0  0  0
   10.9793   40.0887   33.6814 O   0  0  0  0  0  0  0  0  0  0  0  0
   10.7977   40.0842   32.2818 C   0  0  0  0  0  0  0  0  0  0  0  0
   11.5897   38.9146   31.7008 C   0  0  0  0  0  0  0  0  0  0  0  0
   12.9218   38.9385   32.1717 O   0  0  0  0  0  0  0  0  0  0  0  0
   11.0070   37.5654   32.0975 C   0  0  0  0  0  0  0  0  0  0  0  0
   13.3533   37.5909   32.2610 C   0  0  0  0  0  0  0  0  0  0  0  0
    9.9333   37.1934   31.2754 O   0  0  0  0  0  0  0  0  0  0  0  0
   12.1945   36.6671   31.9040 C   0  0  0  0  0  0  0  0  0  0  0  0
   13.8036   37.2970   33.6193 N   0  0  0  0  0  0  0  0  0  0  0  0
   12.2893   36.2849   30.5562 O   0  0  0  0  0  0  0  0  0  0  0  0
   14.7931   36.4723   33.9863 C   0  0  0  0  0  0  0  0  0  0  0  0
   13.2756   37.7298   34.7940 C   0  0  0  0  0  0  0  0  0  0  0  0
   15.6242   35.7580   33.1861 N   0  0  0  0  0  0  0  0  0  0  0  0
   14.8727   36.4407   35.3331 C   0  0  0  0  0  0  0  0  0  0  0  0
   13.9210   37.2262   35.8807 N   0  0  0  0  0  0  0  0  0  0  0  0
   16.5872   34.9920   33.7803 C   0  0  0  0  0  0  0  0  0  0  0  0
   15.8577   35.6715   35.9444 C   0  0  0  0  0  0  0  0  0  0  0  0
   16.7025   34.9582   35.1440 N   0  0  0  0  0  0  0  0  0  0  0  0
   16.0101   35.6382   37.3564 N   0  0  0  0  0  0  0  0  0  0  0  0
    7.6770   44.0708   34.0504 H   0  0  0  0  0  0  0  0  0  0  0  0
    9.1827   45.3821   35.3535 H   0  0  0  0  0  0  0  0  0  0  0  0
   10.3192   45.4407   34.1000 H   0  0  0  0  0  0  0  0  0  0  0  0
    8.4817   43.0852   31.8668 H   0  0  0  0  0  0  0  0  0  0  0  0
    9.9711   44.0683   31.9740 H   0  0  0  0  0  0  0  0  0  0  0  0
    8.5550   46.1511   31.8744 H   0  0  0  0  0  0  0  0  0  0  0  0
    8.5385   45.1365   30.4023 H   0  0  0  0  0  0  0  0  0  0  0  0
    6.3019   45.0642   32.5332 H   0  0  0  0  0  0  0  0  0  0  0  0
    6.3297   44.1799   30.9677 H   0  0  0  0  0  0  0  0  0  0  0  0
    4.9234   46.2671   30.9262 H   0  0  0  0  0  0  0  0  0  0  0  0
    6.2465   46.2897   29.7215 H   0  0  0  0  0  0  0  0  0  0  0  0
    6.2825   47.7525   32.4210 H   0  0  0  0  0  0  0  0  0  0  0  0
    9.3274   50.3309   30.3169 H   0  0  0  0  0  0  0  0  0  0  0  0
    7.7875   51.0891   29.7668 H   0  0  0  0  0  0  0  0  0  0  0  0
    9.4389   50.5373   33.1159 H   0  0  0  0  0  0  0  0  0  0  0  0
    9.7989   52.2914   34.8032 H   0  0  0  0  0  0  0  0  0  0  0  0
    8.2831   55.2524   32.1089 H   0  0  0  0  0  0  0  0  0  0  0  0
    9.1947   54.6401   34.3120 H   0  0  0  0  0  0  0  0  0  0  0  0
   11.2111   41.0320   31.8754 H   0  0  0  0  0  0  0  0  0  0  0  0
    9.7422   40.0118   31.9267 H   0  0  0  0  0  0  0  0  0  0  0  0
   11.6004   39.0119   30.5904 H   0  0  0  0  0  0  0  0  0  0  0  0
   10.7015   37.5592   33.1701 H   0  0  0  0  0  0  0  0  0  0  0  0
   14.2012   37.4438   31.5551 H   0  0  0  0  0  0  0  0  0  0  0  0
    9.5289   36.3869   31.6895 H   0  0  0  0  0  0  0  0  0  0  0  0
   12.1244   35.7693   32.5633 H   0  0  0  0  0  0  0  0  0  0  0  0
   12.9478   35.5427   30.5201 H   0  0  0  0  0  0  0  0  0  0  0  0
   12.4328   38.3993   34.8697 H   0  0  0  0  0  0  0  0  0  0  0  0
   17.2667   34.4140   33.1692 H   0  0  0  0  0  0  0  0  0  0  0  0
   16.7636   35.0598   37.7897 H   0  0  0  0  0  0  0  0  0  0  0  0
   15.3759   36.1865   37.9791 H   0  0  0  0  0  0  0  0  0  0  0  0
  1  2  2  0
  1  3  1  0
  3  4  1  0
  4  5  1  0
  6  1  1  0
  7  6  1  0
  6  8  1  0
  8  9  1  0
  9 10  1  0
 10 11  1  0
 11 12  1  0
 12 13  1  0
 13 14  1  0
 13 15  2  0
 14 16  1  0
 16 17  1  0
 17 18  2  0
 19 17  1  0
 18 20  1  0
 21 19  2  0
 19 22  1  0
 20 23  2  0
 23 21  1  0
 22 24  1  0
 22 25  2  0
  4 26  2  0
  4 27  1  0
 28 27  1  0
 28 29  1  0
 29 30  1  0
 29 31  1  0
 30 32  1  0
 31 33  1  0
 31 34  1  0
 34 32  1  0
 32 35  1  0
 34 36  1  0
 37 35  1  0
 38 35  1  0
 39 37  2  0
 37 40  1  0
 41 38  2  0
 42 39  1  0
 40 43  2  0
 40 41  1  0
 44 42  2  0
 44 43  1  0
 43 45  1  0
  6 46  1  6
  7 47  1  0
  7 48  1  0
  8 49  1  0
  8 50  1  0
  9 51  1  0
  9 52  1  0
 10 53  1  0
 10 54  1  0
 11 55  1  0
 11 56  1  0
 12 57  1  0
 16 58  1  0
 16 59  1  0
 18 60  1  0
 20 61  1  0
 21 62  1  0
 23 63  1  0
 28 64  1  0
 28 65  1  0
 29 66  1  0
 31 67  1  0
 32 68  1  0
 33 69  1  0
 34 70  1  0
 36 71  1  0
 38 72  1  0
 42 73  1  0
 45 74  1  0
 45 75  1  0
M  CHG  3   5  -1  22   1  24  -1
M  END
>  <EmbedRMS>  (561) 
0.0742823993022

$$$$

     RDKit          3D

 75 78  0  0  0  0  0  0  0  0999 V2000
    9.4333   42.9365   34.3461 C   0  0  0  0  0  0  0  0  0  0  0  0
   10.4907   43.0329   35.0318 O   0  0  0  0  0  0  0  0  0  0  0  0
    8.8563   41.7103   34.0295 O   0  0  0  0  0  0  0  0  0  0  0  0
    9.4943   40.2139   34.4679 P   0  0  0  0  0  0  0  0  0  0  0  0
    9.7310   40.1724   36.1290 O   0  0  0  0  0  0  0  0  0  0  0  0
    8.7506   44.1348   33.7741 C   0  0  1  0  0  0  0  0  0  0  0  0
    9.2963   45.3820   34.3133 N   0  0  0  0  0  0  0  0  0  0  0  0
    8.8893   44.0528   32.2358 C   0  0  0  0  0  0  0  0  0  0  0  0
    8.2028   45.1824   31.4615 C   0  0  0  0  0  0  0  0  0  0  0  0
    6.6653   45.1046   31.4855 C   0  0  0  0  0  0  0  0  0  0  0  0
    6.0268   46.3225   30.8104 C   0  0  0  0  0  0  0  0  0  0  0  0
    6.5060   47.5640   31.4179 N   0  0  0  0  0  0  0  0  0  0  0  0
    7.2447   48.5386   30.6840 C   0  0  0  0  0  0  0  0  0  0  0  0
    7.6001   49.7366   31.3091 O   0  0  0  0  0  0  0  0  0  0  0  0
    7.5929   48.3120   29.4935 O   0  0  0  0  0  0  0  0  0  0  0  0
    8.3567   50.7528   30.6549 C   0  0  0  0  0  0  0  0  0  0  0  0
    8.6220   51.9279   31.5711 C   0  0  0  0  0  0  0  0  0  0  0  0
    8.4884   51.7792   32.9674 C   0  0  0  0  0  0  0  0  0  0  0  0
    9.0013   53.1937   31.0476 C   0  0  0  0  0  0  0  0  0  0  0  0
    8.6847   52.8640   33.8228 C   0  0  0  0  0  0  0  0  0  0  0  0
    9.1776   54.2772   31.9281 C   0  0  0  0  0  0  0  0  0  0  0  0
    9.2071   53.3992   29.6376 N   0  0  0  0  0  0  0  0  0  0  0  0
    9.0205   54.1119   33.3040 C   0  0  0  0  0  0  0  0  0  0  0  0
    9.8346   52.4422   28.8741 O   0  0  0  0  0  0  0  0  0  0  0  0
    8.9715   54.5137   29.1265 O   0  0  0  0  0  0  0  0  0  0  0  0
    8.5372   39.1382   34.0121 O   0  0  0  0  0  0  0  0  0  0  0  0
   10.9798   40.0871   33.6829 O   0  0  0  0  0  0  0  0  0  0  0  0
   10.8002   40.0905   32.2832 C   0  0  0  0  0  0  0  0  0  0  0  0
   11.5958   38.9271   31.6963 C   0  0  0  0  0  0  0  0  0  0  0  0
   12.9239   38.9409   32.1766 O   0  0  0  0  0  0  0  0  0  0  0  0
   11.0062   37.5719   32.0793 C   0  0  0  0  0  0  0  0  0  0  0  0
   13.3507   37.5905   32.2614 C   0  0  0  0  0  0  0  0  0  0  0  0
    9.9064   37.1792   31.2946 O   0  0  0  0  0  0  0  0  0  0  0  0
   12.1920   36.6671   31.9003 C   0  0  0  0  0  0  0  0  0  0  0  0
   13.8017   37.2948   33.6193 N   0  0  0  0  0  0  0  0  0  0  0  0
   12.3134   36.2787   30.5560 O   0  0  0  0  0  0  0  0  0  0  0  0
   14.7927   36.4716   33.9862 C   0  0  0  0  0  0  0  0  0  0  0  0
   13.2746   37.7284   34.7941 C   0  0  0  0  0  0  0  0  0  0  0  0
   15.6240   35.7576   33.1859 N   0  0  0  0  0  0  0  0  0  0  0  0
   14.8728   36.4406   35.3330 C   0  0  0  0  0  0  0  0  0  0  0  0
   13.9209   37.2258   35.8808 N   0  0  0  0  0  0  0  0  0  0  0  0
   16.5874   34.9921   33.7802 C   0  0  0  0  0  0  0  0  0  0  0  0
   15.8579   35.6716   35.9443 C   0  0  0  0  0  0  0  0  0  0  0  0
   16.7028   34.9584   35.1439 N   0  0  0  0  0  0  0  0  0  0  0  0
   16.0103   35.6383   37.3563 N   0  0  0  0  0  0  0  0  0  0  0  0
    7.6770   44.0706   34.0504 H   0  0  0  0  0  0  0  0  0  0  0  0
   10.3192   45.4407   34.1000 H   0  0  0  0  0  0  0  0  0  0  0  0
    9.1827   45.3820   35.3535 H   0  0  0  0  0  0  0  0  0  0  0  0
    9.9711   44.0682   31.9739 H   0  0  0  0  0  0  0  0  0  0  0  0
    8.4816   43.0852   31.8668 H   0  0  0  0  0  0  0  0  0  0  0  0
    8.5385   45.1365   30.4023 H   0  0  0  0  0  0  0  0  0  0  0  0
    8.5551   46.1511   31.8744 H   0  0  0  0  0  0  0  0  0  0  0  0
    6.3019   45.0643   32.5333 H   0  0  0  0  0  0  0  0  0  0  0  0
    6.3297   44.1799   30.9678 H   0  0  0  0  0  0  0  0  0  0  0  0
    6.2464   46.2898   29.7216 H   0  0  0  0  0  0  0  0  0  0  0  0
    4.9234   46.2671   30.9263 H   0  0  0  0  0  0  0  0  0  0  0  0
    6.2825   47.7526   32.4210 H   0  0  0  0  0  0  0  0  0  0  0  0
    7.7776   51.0984   29.7711 H   0  0  0  0  0  0  0  0  0  0  0  0
    9.3279   50.3311   30.3178 H   0  0  0  0  0  0  0  0  0  0  0  0
    8.2286   50.8240   33.4050 H   0  0  0  0  0  0  0  0  0  0  0  0
    8.5731   52.7364   34.8919 H   0  0  0  0  0  0  0  0  0  0  0  0
    9.4589   55.2513   31.5481 H   0  0  0  0  0  0  0  0  0  0  0  0
    9.1691   54.9519   33.9702 H   0  0  0  0  0  0  0  0  0  0  0  0
    9.7455   40.0167   31.9263 H   0  0  0  0  0  0  0  0  0  0  0  0
   11.2116   41.0419   31.8834 H   0  0  0  0  0  0  0  0  0  0  0  0
   11.6245   39.0450   30.5888 H   0  0  0  0  0  0  0  0  0  0  0  0
   10.7050   37.5579   33.1500 H   0  0  0  0  0  0  0  0  0  0  0  0
   14.1985   37.4426   31.5553 H   0  0  0  0  0  0  0  0  0  0  0  0
   10.0893   37.4056   30.3459 H   0  0  0  0  0  0  0  0  0  0  0  0
   12.1337   35.7754   32.5703 H   0  0  0  0  0  0  0  0  0  0  0  0
   11.7934   35.4394   30.4514 H   0  0  0  0  0  0  0  0  0  0  0  0
   12.4314   38.3972   34.8700 H   0  0  0  0  0  0  0  0  0  0  0  0
   17.2669   34.4142   33.1691 H   0  0  0  0  0  0  0  0  0  0  0  0
   15.3760   36.1865   37.9790 H   0  0  0  0  0  0  0  0  0  0  0  0
   16.7638   35.0599   37.7896 H   0  0  0  0  0  0  0  0  0  0  0  0
  1  2  2  0
  1  3  1  0
  3  4  1  0
  4  5  1  0
  6  1  1  0
  7  6  1  0
  6  8  1  0
  8  9  1  0
  9 10  1  0
 10 11  1  0
 11 12  1  0
 12 13  1  0
 13 14  1  0
 13 15  2  0
 14 16  1  0
 16 17  1  0
 17 18  2  0
 19 17  1  0
 18 20  1  0
 21 19  2  0
 19 22  1  0
 20 23  2  0
 23 21  1  0
 22 24  1  0
 22 25  2  0
  4 26  2  0
  4 27  1  0
 28 27  1  0
 28 29  1  0
 29 30  1  0
 29 31  1  0
 30 32  1  0
 31 33  1  0
 31 34  1  0
 34 32  1  0
 32 35  1  0
 34 36  1  0
 37 35  1  0
 38 35  1  0
 39 37  2  0
 37 40  1  0
 41 38  2  0
 42 39  1  0
 40 43  2  0
 40 41  1  0
 44 42  2  0
 44 43  1  0
 43 45  1  0
  6 46  1  6
  7 47  1  0
  7 48  1  0
  8 49  1  0
  8 50  1  0
  9 51  1  0
  9 52  1  0
 10 53  1  0
 10 54  1  0
 11 55  1  0
 11 56  1  0
 12 57  1  0
 16 58  1  0
 16 59  1  0
 18 60  1  0
 20 61  1  0
 21 62  1  0
 23 63  1  0
 28 64  1  0
 28 65  1  0
 29 66  1  0
 31 67  1  0
 32 68  1  0
 33 69  1  0
 34 70  1  0
 36 71  1  0
 38 72  1  0
 42 73  1  0
 45 74  1  0
 45 75  1  0
M  CHG  3   5  -1  22   1  24  -1
M  END
>  <EmbedRMS>  (562) 
0.0748101928787

$$$$

     RDKit          3D

 75 78  0  0  0  0  0  0  0  0999 V2000
    9.4335   42.9371   34.3456 C   0  0  0  0  0  0  0  0  0  0  0  0
   10.4908   43.0335   35.0315 O   0  0  0  0  0  0  0  0  0  0  0  0
    8.8564   41.7109   34.0292 O   0  0  0  0  0  0  0  0  0  0  0  0
    9.4944   40.2145   34.4679 P   0  0  0  0  0  0  0  0  0  0  0  0
    9.7308   40.1729   36.1290 O   0  0  0  0  0  0  0  0  0  0  0  0
    8.7509   44.1358   33.7737 C   0  0  1  0  0  0  0  0  0  0  0  0
    9.2966   45.3829   34.3132 N   0  0  0  0  0  0  0  0  0  0  0  0
    8.8895   44.0547   32.2353 C   0  0  0  0  0  0  0  0  0  0  0  0
    8.2024   45.1850   31.4618 C   0  0  0  0  0  0  0  0  0  0  0  0
    6.6648   45.1057   31.4852 C   0  0  0  0  0  0  0  0  0  0  0  0
    6.0242   46.3217   30.8077 C   0  0  0  0  0  0  0  0  0  0  0  0
    6.4975   47.5651   31.4154 N   0  0  0  0  0  0  0  0  0  0  0  0
    7.2598   48.5285   30.6914 C   0  0  0  0  0  0  0  0  0  0  0  0
    7.6761   49.6938   31.3428 O   0  0  0  0  0  0  0  0  0  0  0  0
    7.5889   48.3120   29.4938 O   0  0  0  0  0  0  0  0  0  0  0  0
    8.6330   50.6005   30.7986 C   0  0  0  0  0  0  0  0  0  0  0  0
   10.0096   49.9772   30.7937 C   0  0  0  0  0  0  0  0  0  0  0  0
   10.5336   49.5176   29.5711 C   0  0  0  0  0  0  0  0  0  0  0  0
   10.7980   49.8664   31.9716 C   0  0  0  0  0  0  0  0  0  0  0  0
   11.8080   48.9539   29.5077 C   0  0  0  0  0  0  0  0  0  0  0  0
   12.0863   49.3067   31.8809 C   0  0  0  0  0  0  0  0  0  0  0  0
   10.3322   50.3378   33.2502 N   0  0  0  0  0  0  0  0  0  0  0  0
   12.5832   48.8494   30.6600 C   0  0  0  0  0  0  0  0  0  0  0  0
    9.0265   50.1526   33.6389 O   0  0  0  0  0  0  0  0  0  0  0  0
   11.1471   50.7786   34.0872 O   0  0  0  0  0  0  0  0  0  0  0  0
    8.5372   39.1389   34.0124 O   0  0  0  0  0  0  0  0  0  0  0  0
   10.9804   40.0881   33.6837 O   0  0  0  0  0  0  0  0  0  0  0  0
   10.8025   40.0900   32.2838 C   0  0  0  0  0  0  0  0  0  0  0  0
   11.5889   38.9174   31.7007 C   0  0  0  0  0  0  0  0  0  0  0  0
   12.9220   38.9373   32.1692 O   0  0  0  0  0  0  0  0  0  0  0  0
   11.0028   37.5682   32.0980 C   0  0  0  0  0  0  0  0  0  0  0  0
   13.3496   37.5885   32.2601 C   0  0  0  0  0  0  0  0  0  0  0  0
    9.9343   37.1822   31.2756 O   0  0  0  0  0  0  0  0  0  0  0  0
   12.1891   36.6677   31.9049 C   0  0  0  0  0  0  0  0  0  0  0  0
   13.8025   37.2965   33.6186 N   0  0  0  0  0  0  0  0  0  0  0  0
   12.2991   36.2867   30.5568 O   0  0  0  0  0  0  0  0  0  0  0  0
   14.7929   36.4725   33.9858 C   0  0  0  0  0  0  0  0  0  0  0  0
   13.2749   37.7294   34.7935 C   0  0  0  0  0  0  0  0  0  0  0  0
   15.6240   35.7580   33.1858 N   0  0  0  0  0  0  0  0  0  0  0  0
   14.8727   36.4411   35.3327 C   0  0  0  0  0  0  0  0  0  0  0  0
   13.9208   37.2263   35.8803 N   0  0  0  0  0  0  0  0  0  0  0  0
   16.5871   34.9921   33.7801 C   0  0  0  0  0  0  0  0  0  0  0  0
   15.8576   35.6718   35.9441 C   0  0  0  0  0  0  0  0  0  0  0  0
   16.7024   34.9584   35.1438 N   0  0  0  0  0  0  0  0  0  0  0  0
   16.0099   35.6384   37.3562 N   0  0  0  0  0  0  0  0  0  0  0  0
    7.6773   44.0717   34.0499 H   0  0  0  0  0  0  0  0  0  0  0  0
    9.1846   45.3823   35.3535 H   0  0  0  0  0  0  0  0  0  0  0  0
   10.3191   45.4428   34.0981 H   0  0  0  0  0  0  0  0  0  0  0  0
    9.9713   44.0710   31.9735 H   0  0  0  0  0  0  0  0  0  0  0  0
    8.4824   43.0871   31.8657 H   0  0  0  0  0  0  0  0  0  0  0  0
    8.5387   45.1406   30.4027 H   0  0  0  0  0  0  0  0  0  0  0  0
    8.5535   46.1539   31.8755 H   0  0  0  0  0  0  0  0  0  0  0  0
    6.3011   45.0664   32.5330 H   0  0  0  0  0  0  0  0  0  0  0  0
    6.3306   44.1798   30.9688 H   0  0  0  0  0  0  0  0  0  0  0  0
    4.9206   46.2631   30.9204 H   0  0  0  0  0  0  0  0  0  0  0  0
    6.2467   46.2889   29.7195 H   0  0  0  0  0  0  0  0  0  0  0  0
    6.2753   47.7512   32.4193 H   0  0  0  0  0  0  0  0  0  0  0  0
    8.6467   51.5300   31.4054 H   0  0  0  0  0  0  0  0  0  0  0  0
    8.3181   50.8986   29.7742 H   0  0  0  0  0  0  0  0  0  0  0  0
    9.9537   49.5959   28.6597 H   0  0  0  0  0  0  0  0  0  0  0  0
   12.1969   48.6012   28.5611 H   0  0  0  0  0  0  0  0  0  0  0  0
   12.7055   49.2125   32.7641 H   0  0  0  0  0  0  0  0  0  0  0  0
   13.5729   48.4143   30.6077 H   0  0  0  0  0  0  0  0  0  0  0  0
   11.2259   41.0357   31.8830 H   0  0  0  0  0  0  0  0  0  0  0  0
    9.7477   40.0332   31.9255 H   0  0  0  0  0  0  0  0  0  0  0  0
   11.5975   39.0148   30.5904 H   0  0  0  0  0  0  0  0  0  0  0  0
   10.7023   37.5455   33.1719 H   0  0  0  0  0  0  0  0  0  0  0  0
   14.1957   37.4366   31.5528 H   0  0  0  0  0  0  0  0  0  0  0  0
    9.1340   37.6659   31.6069 H   0  0  0  0  0  0  0  0  0  0  0  0
   12.1381   35.7717   32.5697 H   0  0  0  0  0  0  0  0  0  0  0  0
   11.7707   35.4530   30.4496 H   0  0  0  0  0  0  0  0  0  0  0  0
   12.4314   38.3980   34.8694 H   0  0  0  0  0  0  0  0  0  0  0  0
   17.2665   34.4140   33.1691 H   0  0  0  0  0  0  0  0  0  0  0  0
   16.7633   35.0598   37.7895 H   0  0  0  0  0  0  0  0  0  0  0  0
   15.3757   36.1868   37.9789 H   0  0  0  0  0  0  0  0  0  0  0  0
  1  2  2  0
  1  3  1  0
  3  4  1  0
  4  5  1  0
  6  1  1  0
  7  6  1  0
  6  8  1  0
  8  9  1  0
  9 10  1  0
 10 11  1  0
 11 12  1  0
 12 13  1  0
 13 14  1  0
 13 15  2  0
 14 16  1  0
 16 17  1  0
 17 18  2  0
 19 17  1  0
 18 20  1  0
 21 19  2  0
 19 22  1  0
 20 23  2  0
 23 21  1  0
 22 24  1  0
 22 25  2  0
  4 26  2  0
  4 27  1  0
 28 27  1  0
 28 29  1  0
 29 30  1  0
 29 31  1  0
 30 32  1  0
 31 33  1  0
 31 34  1  0
 34 32  1  0
 32 35  1  0
 34 36  1  0
 37 35  1  0
 38 35  1  0
 39 37  2  0
 37 40  1  0
 41 38  2  0
 42 39  1  0
 40 43  2  0
 40 41  1  0
 44 42  2  0
 44 43  1  0
 43 45  1  0
  6 46  1  6
  7 47  1  0
  7 48  1  0
  8 49  1  0
  8 50  1  0
  9 51  1  0
  9 52  1  0
 10 53  1  0
 10 54  1  0
 11 55  1  0
 11 56  1  0
 12 57  1  0
 16 58  1  0
 16 59  1  0
 18 60  1  0
 20 61  1  0
 21 62  1  0
 23 63  1  0
 28 64  1  0
 28 65  1  0
 29 66  1  0
 31 67  1  0
 32 68  1  0
 33 69  1  0
 34 70  1  0
 36 71  1  0
 38 72  1  0
 42 73  1  0
 45 74  1  0
 45 75  1  0
M  CHG  3   5  -1  22   1  24  -1
M  END
>  <EmbedRMS>  (563) 
0.0747502319834

$$$$

     RDKit          3D

 75 78  0  0  0  0  0  0  0  0999 V2000
    9.4298   42.9395   34.3433 C   0  0  0  0  0  0  0  0  0  0  0  0
   10.4906   43.0381   35.0239 O   0  0  0  0  0  0  0  0  0  0  0  0
    8.8544   41.7116   34.0286 O   0  0  0  0  0  0  0  0  0  0  0  0
    9.4942   40.2156   34.4673 P   0  0  0  0  0  0  0  0  0  0  0  0
    9.7315   40.1738   36.1283 O   0  0  0  0  0  0  0  0  0  0  0  0
    8.7420   44.1376   33.7777 C   0  0  1  0  0  0  0  0  0  0  0  0
    9.3053   45.3697   34.3306 N   0  0  0  0  0  0  0  0  0  0  0  0
    8.8965   44.0593   32.2391 C   0  0  0  0  0  0  0  0  0  0  0  0
    8.2028   45.1688   31.4385 C   0  0  0  0  0  0  0  0  0  0  0  0
    6.6657   45.1088   31.4927 C   0  0  0  0  0  0  0  0  0  0  0  0
    6.0295   46.3229   30.8093 C   0  0  0  0  0  0  0  0  0  0  0  0
    6.4999   47.5669   31.4197 N   0  0  0  0  0  0  0  0  0  0  0  0
    7.2374   48.5464   30.6804 C   0  0  0  0  0  0  0  0  0  0  0  0
    7.5759   49.7903   31.2298 O   0  0  0  0  0  0  0  0  0  0  0  0
    7.6008   48.2988   29.5010 O   0  0  0  0  0  0  0  0  0  0  0  0
    7.2070   50.2595   32.5254 C   0  0  0  0  0  0  0  0  0  0  0  0
    8.0399   49.6248   33.6176 C   0  0  0  0  0  0  0  0  0  0  0  0
    7.3881   48.8840   34.6224 C   0  0  0  0  0  0  0  0  0  0  0  0
    9.4351   49.8609   33.7343 C   0  0  0  0  0  0  0  0  0  0  0  0
    8.1015   48.3611   35.7017 C   0  0  0  0  0  0  0  0  0  0  0  0
   10.1354   49.3283   34.8307 C   0  0  0  0  0  0  0  0  0  0  0  0
   10.1438   50.6824   32.7941 N   0  0  0  0  0  0  0  0  0  0  0  0
    9.4740   48.5774   35.8025 C   0  0  0  0  0  0  0  0  0  0  0  0
   10.1367   50.3680   31.4561 O   0  0  0  0  0  0  0  0  0  0  0  0
   10.9618   51.5300   33.2071 O   0  0  0  0  0  0  0  0  0  0  0  0
    8.5375   39.1390   34.0123 O   0  0  0  0  0  0  0  0  0  0  0  0
   10.9794   40.0898   33.6813 O   0  0  0  0  0  0  0  0  0  0  0  0
   10.7981   40.0850   32.2817 C   0  0  0  0  0  0  0  0  0  0  0  0
   11.5886   38.9143   31.7009 C   0  0  0  0  0  0  0  0  0  0  0  0
   12.9213   38.9368   32.1699 O   0  0  0  0  0  0  0  0  0  0  0  0
   11.0047   37.5661   32.0991 C   0  0  0  0  0  0  0  0  0  0  0  0
   13.3510   37.5885   32.2602 C   0  0  0  0  0  0  0  0  0  0  0  0
    9.9296   37.1961   31.2780 O   0  0  0  0  0  0  0  0  0  0  0  0
   12.1923   36.6659   31.9047 C   0  0  0  0  0  0  0  0  0  0  0  0
   13.8033   37.2967   33.6188 N   0  0  0  0  0  0  0  0  0  0  0  0
   12.3007   36.2865   30.5562 O   0  0  0  0  0  0  0  0  0  0  0  0
   14.7933   36.4724   33.9860 C   0  0  0  0  0  0  0  0  0  0  0  0
   13.2753   37.7296   34.7935 C   0  0  0  0  0  0  0  0  0  0  0  0
   15.6243   35.7579   33.1860 N   0  0  0  0  0  0  0  0  0  0  0  0
   14.8728   36.4410   35.3328 C   0  0  0  0  0  0  0  0  0  0  0  0
   13.9209   37.2263   35.8804 N   0  0  0  0  0  0  0  0  0  0  0  0
   16.5873   34.9919   33.7803 C   0  0  0  0  0  0  0  0  0  0  0  0
   15.8577   35.6717   35.9443 C   0  0  0  0  0  0  0  0  0  0  0  0
   16.7025   34.9583   35.1440 N   0  0  0  0  0  0  0  0  0  0  0  0
   16.0100   35.6384   37.3563 N   0  0  0  0  0  0  0  0  0  0  0  0
    7.6675   44.0677   34.0543 H   0  0  0  0  0  0  0  0  0  0  0  0
    9.2108   45.3383   35.3724 H   0  0  0  0  0  0  0  0  0  0  0  0
    8.7022   46.1670   34.0297 H   0  0  0  0  0  0  0  0  0  0  0  0
    9.9811   44.0905   31.9904 H   0  0  0  0  0  0  0  0  0  0  0  0
    8.5084   43.0840   31.8690 H   0  0  0  0  0  0  0  0  0  0  0  0
    8.5785   46.1530   31.7846 H   0  0  0  0  0  0  0  0  0  0  0  0
    8.5131   45.0717   30.3750 H   0  0  0  0  0  0  0  0  0  0  0  0
    6.3204   45.0917   32.5470 H   0  0  0  0  0  0  0  0  0  0  0  0
    6.3107   44.1790   30.9975 H   0  0  0  0  0  0  0  0  0  0  0  0
    4.9253   46.2643   30.9175 H   0  0  0  0  0  0  0  0  0  0  0  0
    6.2558   46.2874   29.7221 H   0  0  0  0  0  0  0  0  0  0  0  0
    6.2390   47.7414   32.4122 H   0  0  0  0  0  0  0  0  0  0  0  0
    7.3698   51.3572   32.5588 H   0  0  0  0  0  0  0  0  0  0  0  0
    6.1181   50.0993   32.6831 H   0  0  0  0  0  0  0  0  0  0  0  0
    6.3178   48.7245   34.5844 H   0  0  0  0  0  0  0  0  0  0  0  0
    7.5877   47.7890   36.4635 H   0  0  0  0  0  0  0  0  0  0  0  0
   11.2000   49.4988   34.9317 H   0  0  0  0  0  0  0  0  0  0  0  0
   10.0253   48.1702   36.6401 H   0  0  0  0  0  0  0  0  0  0  0  0
   11.2130   41.0321   31.8751 H   0  0  0  0  0  0  0  0  0  0  0  0
    9.7426   40.0141   31.9264 H   0  0  0  0  0  0  0  0  0  0  0  0
   11.5981   39.0107   30.5904 H   0  0  0  0  0  0  0  0  0  0  0  0
   10.7008   37.5603   33.1721 H   0  0  0  0  0  0  0  0  0  0  0  0
   14.1977   37.4380   31.5532 H   0  0  0  0  0  0  0  0  0  0  0  0
    9.5180   36.3962   31.6978 H   0  0  0  0  0  0  0  0  0  0  0  0
   12.1418   35.7698   32.5692 H   0  0  0  0  0  0  0  0  0  0  0  0
   11.7729   35.4524   30.4489 H   0  0  0  0  0  0  0  0  0  0  0  0
   12.4321   38.3985   34.8692 H   0  0  0  0  0  0  0  0  0  0  0  0
   17.2667   34.4138   33.1694 H   0  0  0  0  0  0  0  0  0  0  0  0
   16.7634   35.0598   37.7897 H   0  0  0  0  0  0  0  0  0  0  0  0
   15.3757   36.1867   37.9790 H   0  0  0  0  0  0  0  0  0  0  0  0
  1  2  2  0
  1  3  1  0
  3  4  1  0
  4  5  1  0
  6  1  1  0
  7  6  1  0
  6  8  1  0
  8  9  1  0
  9 10  1  0
 10 11  1  0
 11 12  1  0
 12 13  1  0
 13 14  1  0
 13 15  2  0
 14 16  1  0
 16 17  1  0
 17 18  2  0
 19 17  1  0
 18 20  1  0
 21 19  2  0
 19 22  1  0
 20 23  2  0
 23 21  1  0
 22 24  1  0
 22 25  2  0
  4 26  2  0
  4 27  1  0
 28 27  1  0
 28 29  1  0
 29 30  1  0
 29 31  1  0
 30 32  1  0
 31 33  1  0
 31 34  1  0
 34 32  1  0
 32 35  1  0
 34 36  1  0
 37 35  1  0
 38 35  1  0
 39 37  2  0
 37 40  1  0
 41 38  2  0
 42 39  1  0
 40 43  2  0
 40 41  1  0
 44 42  2  0
 44 43  1  0
 43 45  1  0
  6 46  1  6
  7 47  1  0
  7 48  1  0
  8 49  1  0
  8 50  1  0
  9 51  1  0
  9 52  1  0
 10 53  1  0
 10 54  1  0
 11 55  1  0
 11 56  1  0
 12 57  1  0
 16 58  1  0
 16 59  1  0
 18 60  1  0
 20 61  1  0
 21 62  1  0
 23 63  1  0
 28 64  1  0
 28 65  1  0
 29 66  1  0
 31 67  1  0
 32 68  1  0
 33 69  1  0
 34 70  1  0
 36 71  1  0
 38 72  1  0
 42 73  1  0
 45 74  1  0
 45 75  1  0
M  CHG  3   5  -1  22   1  24  -1
M  END
>  <EmbedRMS>  (564) 
0.0740701342359

$$$$

     RDKit          3D

 75 78  0  0  0  0  0  0  0  0999 V2000
    9.4337   42.9358   34.3453 C   0  0  0  0  0  0  0  0  0  0  0  0
   10.4911   43.0321   35.0312 O   0  0  0  0  0  0  0  0  0  0  0  0
    8.8562   41.7099   34.0291 O   0  0  0  0  0  0  0  0  0  0  0  0
    9.4944   40.2139   34.4679 P   0  0  0  0  0  0  0  0  0  0  0  0
    9.7307   40.1727   36.1290 O   0  0  0  0  0  0  0  0  0  0  0  0
    8.7513   44.1343   33.7741 C   0  0  1  0  0  0  0  0  0  0  0  0
    9.2988   45.3795   34.3141 N   0  0  0  0  0  0  0  0  0  0  0  0
    8.8892   44.0541   32.2359 C   0  0  0  0  0  0  0  0  0  0  0  0
    8.2033   45.1860   31.4645 C   0  0  0  0  0  0  0  0  0  0  0  0
    6.6662   45.1074   31.4872 C   0  0  0  0  0  0  0  0  0  0  0  0
    6.0295   46.3233   30.8071 C   0  0  0  0  0  0  0  0  0  0  0  0
    6.4995   47.5672   31.4181 N   0  0  0  0  0  0  0  0  0  0  0  0
    7.2381   48.5461   30.6789 C   0  0  0  0  0  0  0  0  0  0  0  0
    7.5781   49.7903   31.2265 O   0  0  0  0  0  0  0  0  0  0  0  0
    7.5983   48.2991   29.4984 O   0  0  0  0  0  0  0  0  0  0  0  0
    7.2757   50.2352   32.5478 C   0  0  0  0  0  0  0  0  0  0  0  0
    8.1795   49.5927   33.5768 C   0  0  0  0  0  0  0  0  0  0  0  0
    7.6013   48.7741   34.5661 C   0  0  0  0  0  0  0  0  0  0  0  0
    9.5689   49.8831   33.6501 C   0  0  0  0  0  0  0  0  0  0  0  0
    8.3802   48.2242   35.5842 C   0  0  0  0  0  0  0  0  0  0  0  0
   10.3352   49.3194   34.6861 C   0  0  0  0  0  0  0  0  0  0  0  0
   10.2054   50.7920   32.7361 N   0  0  0  0  0  0  0  0  0  0  0  0
    9.7461   48.4898   35.6398 C   0  0  0  0  0  0  0  0  0  0  0  0
   10.0541   50.6405   31.3786 O   0  0  0  0  0  0  0  0  0  0  0  0
   11.0654   51.5934   33.1566 O   0  0  0  0  0  0  0  0  0  0  0  0
    8.5372   39.1383   34.0124 O   0  0  0  0  0  0  0  0  0  0  0  0
   10.9804   40.0879   33.6837 O   0  0  0  0  0  0  0  0  0  0  0  0
   10.8025   40.0899   32.2839 C   0  0  0  0  0  0  0  0  0  0  0  0
   11.5889   38.9174   31.7007 C   0  0  0  0  0  0  0  0  0  0  0  0
   12.9220   38.9373   32.1692 O   0  0  0  0  0  0  0  0  0  0  0  0
   11.0028   37.5682   32.0980 C   0  0  0  0  0  0  0  0  0  0  0  0
   13.3496   37.5885   32.2601 C   0  0  0  0  0  0  0  0  0  0  0  0
    9.9343   37.1822   31.2756 O   0  0  0  0  0  0  0  0  0  0  0  0
   12.1891   36.6677   31.9049 C   0  0  0  0  0  0  0  0  0  0  0  0
   13.8025   37.2965   33.6186 N   0  0  0  0  0  0  0  0  0  0  0  0
   12.2991   36.2867   30.5567 O   0  0  0  0  0  0  0  0  0  0  0  0
   14.7929   36.4725   33.9858 C   0  0  0  0  0  0  0  0  0  0  0  0
   13.2749   37.7294   34.7935 C   0  0  0  0  0  0  0  0  0  0  0  0
   15.6240   35.7580   33.1858 N   0  0  0  0  0  0  0  0  0  0  0  0
   14.8727   36.4411   35.3327 C   0  0  0  0  0  0  0  0  0  0  0  0
   13.9208   37.2263   35.8803 N   0  0  0  0  0  0  0  0  0  0  0  0
   16.5871   34.9921   33.7801 C   0  0  0  0  0  0  0  0  0  0  0  0
   15.8576   35.6718   35.9441 C   0  0  0  0  0  0  0  0  0  0  0  0
   16.7024   34.9584   35.1438 N   0  0  0  0  0  0  0  0  0  0  0  0
   16.0099   35.6384   37.3562 N   0  0  0  0  0  0  0  0  0  0  0  0
    7.6779   44.0716   34.0513 H   0  0  0  0  0  0  0  0  0  0  0  0
    9.2007   45.3693   35.3557 H   0  0  0  0  0  0  0  0  0  0  0  0
   10.3184   45.4447   34.0878 H   0  0  0  0  0  0  0  0  0  0  0  0
    9.9708   44.0691   31.9734 H   0  0  0  0  0  0  0  0  0  0  0  0
    8.4805   43.0873   31.8658 H   0  0  0  0  0  0  0  0  0  0  0  0
    8.5535   46.1543   31.8810 H   0  0  0  0  0  0  0  0  0  0  0  0
    8.5402   45.1435   30.4055 H   0  0  0  0  0  0  0  0  0  0  0  0
    6.3019   45.0707   32.5349 H   0  0  0  0  0  0  0  0  0  0  0  0
    6.3314   44.1812   30.9717 H   0  0  0  0  0  0  0  0  0  0  0  0
    6.2562   46.2891   29.7200 H   0  0  0  0  0  0  0  0  0  0  0  0
    4.9252   46.2640   30.9142 H   0  0  0  0  0  0  0  0  0  0  0  0
    6.2286   47.7456   32.4070 H   0  0  0  0  0  0  0  0  0  0  0  0
    6.2001   50.0574   32.7649 H   0  0  0  0  0  0  0  0  0  0  0  0
    7.4233   51.3348   32.5910 H   0  0  0  0  0  0  0  0  0  0  0  0
    6.5372   48.5755   34.5675 H   0  0  0  0  0  0  0  0  0  0  0  0
    7.9215   47.5943   36.3354 H   0  0  0  0  0  0  0  0  0  0  0  0
   11.3956   49.5272   34.7552 H   0  0  0  0  0  0  0  0  0  0  0  0
   10.3482   48.0610   36.4304 H   0  0  0  0  0  0  0  0  0  0  0  0
    9.7477   40.0332   31.9255 H   0  0  0  0  0  0  0  0  0  0  0  0
   11.2259   41.0357   31.8831 H   0  0  0  0  0  0  0  0  0  0  0  0
   11.5974   39.0148   30.5904 H   0  0  0  0  0  0  0  0  0  0  0  0
   10.7024   37.5455   33.1719 H   0  0  0  0  0  0  0  0  0  0  0  0
   14.1957   37.4366   31.5528 H   0  0  0  0  0  0  0  0  0  0  0  0
    9.1340   37.6658   31.6068 H   0  0  0  0  0  0  0  0  0  0  0  0
   12.1381   35.7717   32.5697 H   0  0  0  0  0  0  0  0  0  0  0  0
   11.7707   35.4530   30.4496 H   0  0  0  0  0  0  0  0  0  0  0  0
   12.4315   38.3980   34.8694 H   0  0  0  0  0  0  0  0  0  0  0  0
   17.2665   34.4140   33.1691 H   0  0  0  0  0  0  0  0  0  0  0  0
   16.7633   35.0598   37.7895 H   0  0  0  0  0  0  0  0  0  0  0  0
   15.3757   36.1867   37.9789 H   0  0  0  0  0  0  0  0  0  0  0  0
  1  2  2  0
  1  3  1  0
  3  4  1  0
  4  5  1  0
  6  1  1  0
  7  6  1  0
  6  8  1  0
  8  9  1  0
  9 10  1  0
 10 11  1  0
 11 12  1  0
 12 13  1  0
 13 14  1  0
 13 15  2  0
 14 16  1  0
 16 17  1  0
 17 18  2  0
 19 17  1  0
 18 20  1  0
 21 19  2  0
 19 22  1  0
 20 23  2  0
 23 21  1  0
 22 24  1  0
 22 25  2  0
  4 26  2  0
  4 27  1  0
 28 27  1  0
 28 29  1  0
 29 30  1  0
 29 31  1  0
 30 32  1  0
 31 33  1  0
 31 34  1  0
 34 32  1  0
 32 35  1  0
 34 36  1  0
 37 35  1  0
 38 35  1  0
 39 37  2  0
 37 40  1  0
 41 38  2  0
 42 39  1  0
 40 43  2  0
 40 41  1  0
 44 42  2  0
 44 43  1  0
 43 45  1  0
  6 46  1  6
  7 47  1  0
  7 48  1  0
  8 49  1  0
  8 50  1  0
  9 51  1  0
  9 52  1  0
 10 53  1  0
 10 54  1  0
 11 55  1  0
 11 56  1  0
 12 57  1  0
 16 58  1  0
 16 59  1  0
 18 60  1  0
 20 61  1  0
 21 62  1  0
 23 63  1  0
 28 64  1  0
 28 65  1  0
 29 66  1  0
 31 67  1  0
 32 68  1  0
 33 69  1  0
 34 70  1  0
 36 71  1  0
 38 72  1  0
 42 73  1  0
 45 74  1  0
 45 75  1  0
M  CHG  3   5  -1  22   1  24  -1
M  END
>  <EmbedRMS>  (565) 
0.0745436164805

$$$$

     RDKit          3D

 75 78  0  0  0  0  0  0  0  0999 V2000
    9.4296   42.9396   34.3436 C   0  0  0  0  0  0  0  0  0  0  0  0
   10.4910   43.0382   35.0234 O   0  0  0  0  0  0  0  0  0  0  0  0
    8.8545   41.7117   34.0287 O   0  0  0  0  0  0  0  0  0  0  0  0
    9.4941   40.2156   34.4673 P   0  0  0  0  0  0  0  0  0  0  0  0
    9.7316   40.1738   36.1283 O   0  0  0  0  0  0  0  0  0  0  0  0
    8.7407   44.1379   33.7786 C   0  0  1  0  0  0  0  0  0  0  0  0
    9.3005   45.3723   34.3325 N   0  0  0  0  0  0  0  0  0  0  0  0
    8.8961   44.0591   32.2400 C   0  0  0  0  0  0  0  0  0  0  0  0
    8.2029   45.1685   31.4399 C   0  0  0  0  0  0  0  0  0  0  0  0
    6.6654   45.1047   31.4871 C   0  0  0  0  0  0  0  0  0  0  0  0
    6.0287   46.3235   30.8118 C   0  0  0  0  0  0  0  0  0  0  0  0
    6.5115   47.5615   31.4230 N   0  0  0  0  0  0  0  0  0  0  0  0
    7.2457   48.5436   30.6820 C   0  0  0  0  0  0  0  0  0  0  0  0
    7.6218   49.7673   31.2535 O   0  0  0  0  0  0  0  0  0  0  0  0
    7.5879   48.3080   29.4940 O   0  0  0  0  0  0  0  0  0  0  0  0
    7.3135   50.1704   32.5878 C   0  0  0  0  0  0  0  0  0  0  0  0
    5.8345   50.4525   32.7395 C   0  0  0  0  0  0  0  0  0  0  0  0
    5.2066   51.2600   31.7737 C   0  0  0  0  0  0  0  0  0  0  0  0
    5.0567   49.9081   33.7956 C   0  0  0  0  0  0  0  0  0  0  0  0
    3.8297   51.4839   31.8179 C   0  0  0  0  0  0  0  0  0  0  0  0
    3.6689   50.1267   33.8107 C   0  0  0  0  0  0  0  0  0  0  0  0
    5.6497   49.1530   34.8630 N   0  0  0  0  0  0  0  0  0  0  0  0
    3.0606   50.9091   32.8281 C   0  0  0  0  0  0  0  0  0  0  0  0
    4.9793   48.0739   35.3912 O   0  0  0  0  0  0  0  0  0  0  0  0
    6.6424   49.6026   35.4717 O   0  0  0  0  0  0  0  0  0  0  0  0
    8.5374   39.1390   34.0125 O   0  0  0  0  0  0  0  0  0  0  0  0
   10.9792   40.0896   33.6811 O   0  0  0  0  0  0  0  0  0  0  0  0
   10.7976   40.0844   32.2815 C   0  0  0  0  0  0  0  0  0  0  0  0
   11.5897   38.9147   31.7008 C   0  0  0  0  0  0  0  0  0  0  0  0
   12.9218   38.9385   32.1718 O   0  0  0  0  0  0  0  0  0  0  0  0
   11.0070   37.5655   32.0975 C   0  0  0  0  0  0  0  0  0  0  0  0
   13.3533   37.5910   32.2611 C   0  0  0  0  0  0  0  0  0  0  0  0
    9.9333   37.1935   31.2754 O   0  0  0  0  0  0  0  0  0  0  0  0
   12.1945   36.6672   31.9041 C   0  0  0  0  0  0  0  0  0  0  0  0
   13.8036   37.2970   33.6193 N   0  0  0  0  0  0  0  0  0  0  0  0
   12.2893   36.2849   30.5563 O   0  0  0  0  0  0  0  0  0  0  0  0
   14.7931   36.4723   33.9863 C   0  0  0  0  0  0  0  0  0  0  0  0
   13.2756   37.7298   34.7940 C   0  0  0  0  0  0  0  0  0  0  0  0
   15.6242   35.7580   33.1861 N   0  0  0  0  0  0  0  0  0  0  0  0
   14.8727   36.4407   35.3331 C   0  0  0  0  0  0  0  0  0  0  0  0
   13.9210   37.2262   35.8808 N   0  0  0  0  0  0  0  0  0  0  0  0
   16.5872   34.9920   33.7803 C   0  0  0  0  0  0  0  0  0  0  0  0
   15.8577   35.6715   35.9444 C   0  0  0  0  0  0  0  0  0  0  0  0
   16.7025   34.9582   35.1440 N   0  0  0  0  0  0  0  0  0  0  0  0
   16.0101   35.6382   37.3564 N   0  0  0  0  0  0  0  0  0  0  0  0
    7.6661   44.0653   34.0544 H   0  0  0  0  0  0  0  0  0  0  0  0
    8.6787   46.1669   34.0598 H   0  0  0  0  0  0  0  0  0  0  0  0
    9.2332   45.3275   35.3759 H   0  0  0  0  0  0  0  0  0  0  0  0
    9.9808   44.0904   31.9920 H   0  0  0  0  0  0  0  0  0  0  0  0
    8.5082   43.0837   31.8696 H   0  0  0  0  0  0  0  0  0  0  0  0
    8.5183   45.0768   30.3774 H   0  0  0  0  0  0  0  0  0  0  0  0
    8.5759   46.1509   31.7937 H   0  0  0  0  0  0  0  0  0  0  0  0
    6.3143   44.1784   30.9829 H   0  0  0  0  0  0  0  0  0  0  0  0
    6.3160   45.0773   32.5400 H   0  0  0  0  0  0  0  0  0  0  0  0
    4.9254   46.2704   30.9311 H   0  0  0  0  0  0  0  0  0  0  0  0
    6.2456   46.2915   29.7226 H   0  0  0  0  0  0  0  0  0  0  0  0
    6.3064   47.7076   32.4348 H   0  0  0  0  0  0  0  0  0  0  0  0
    7.6882   49.3985   33.2888 H   0  0  0  0  0  0  0  0  0  0  0  0
    7.8677   51.1076   32.8035 H   0  0  0  0  0  0  0  0  0  0  0  0
    5.7836   51.7016   30.9703 H   0  0  0  0  0  0  0  0  0  0  0  0
    3.3572   52.0976   31.0619 H   0  0  0  0  0  0  0  0  0  0  0  0
    3.0594   49.7106   34.6029 H   0  0  0  0  0  0  0  0  0  0  0  0
    1.9922   51.0797   32.8573 H   0  0  0  0  0  0  0  0  0  0  0  0
   11.2110   41.0320   31.8747 H   0  0  0  0  0  0  0  0  0  0  0  0
    9.7422   40.0118   31.9264 H   0  0  0  0  0  0  0  0  0  0  0  0
   11.6005   39.0119   30.5904 H   0  0  0  0  0  0  0  0  0  0  0  0
   10.7015   37.5594   33.1702 H   0  0  0  0  0  0  0  0  0  0  0  0
   14.2012   37.4438   31.5552 H   0  0  0  0  0  0  0  0  0  0  0  0
    9.5289   36.3870   31.6896 H   0  0  0  0  0  0  0  0  0  0  0  0
   12.1243   35.7694   32.5633 H   0  0  0  0  0  0  0  0  0  0  0  0
   12.9478   35.5427   30.5202 H   0  0  0  0  0  0  0  0  0  0  0  0
   12.4328   38.3994   34.8697 H   0  0  0  0  0  0  0  0  0  0  0  0
   17.2666   34.4140   33.1692 H   0  0  0  0  0  0  0  0  0  0  0  0
   15.3759   36.1865   37.9791 H   0  0  0  0  0  0  0  0  0  0  0  0
   16.7636   35.0598   37.7897 H   0  0  0  0  0  0  0  0  0  0  0  0
  1  2  2  0
  1  3  1  0
  3  4  1  0
  4  5  1  0
  6  1  1  0
  7  6  1  0
  6  8  1  0
  8  9  1  0
  9 10  1  0
 10 11  1  0
 11 12  1  0
 12 13  1  0
 13 14  1  0
 13 15  2  0
 14 16  1  0
 16 17  1  0
 17 18  2  0
 19 17  1  0
 18 20  1  0
 21 19  2  0
 19 22  1  0
 20 23  2  0
 23 21  1  0
 22 24  1  0
 22 25  2  0
  4 26  2  0
  4 27  1  0
 28 27  1  0
 28 29  1  0
 29 30  1  0
 29 31  1  0
 30 32  1  0
 31 33  1  0
 31 34  1  0
 34 32  1  0
 32 35  1  0
 34 36  1  0
 37 35  1  0
 38 35  1  0
 39 37  2  0
 37 40  1  0
 41 38  2  0
 42 39  1  0
 40 43  2  0
 40 41  1  0
 44 42  2  0
 44 43  1  0
 43 45  1  0
  6 46  1  6
  7 47  1  0
  7 48  1  0
  8 49  1  0
  8 50  1  0
  9 51  1  0
  9 52  1  0
 10 53  1  0
 10 54  1  0
 11 55  1  0
 11 56  1  0
 12 57  1  0
 16 58  1  0
 16 59  1  0
 18 60  1  0
 20 61  1  0
 21 62  1  0
 23 63  1  0
 28 64  1  0
 28 65  1  0
 29 66  1  0
 31 67  1  0
 32 68  1  0
 33 69  1  0
 34 70  1  0
 36 71  1  0
 38 72  1  0
 42 73  1  0
 45 74  1  0
 45 75  1  0
M  CHG  3   5  -1  22   1  24  -1
M  END
>  <EmbedRMS>  (566) 
0.0734197117176

$$$$

     RDKit          3D

 75 78  0  0  0  0  0  0  0  0999 V2000
    9.4333   42.9368   34.3463 C   0  0  0  0  0  0  0  0  0  0  0  0
   10.4908   43.0333   35.0318 O   0  0  0  0  0  0  0  0  0  0  0  0
    8.8559   41.7107   34.0305 O   0  0  0  0  0  0  0  0  0  0  0  0
    9.4931   40.2144   34.4708 P   0  0  0  0  0  0  0  0  0  0  0  0
    9.7288   40.1730   36.1318 O   0  0  0  0  0  0  0  0  0  0  0  0
    8.7507   44.1352   33.7741 C   0  0  1  0  0  0  0  0  0  0  0  0
    9.2964   45.3825   34.3132 N   0  0  0  0  0  0  0  0  0  0  0  0
    8.8893   44.0533   32.2358 C   0  0  0  0  0  0  0  0  0  0  0  0
    8.2026   45.1831   31.4617 C   0  0  0  0  0  0  0  0  0  0  0  0
    6.6651   45.1047   31.4852 C   0  0  0  0  0  0  0  0  0  0  0  0
    6.0260   46.3221   30.8094 C   0  0  0  0  0  0  0  0  0  0  0  0
    6.5036   47.5640   31.4171 N   0  0  0  0  0  0  0  0  0  0  0  0
    7.2500   48.5351   30.6866 C   0  0  0  0  0  0  0  0  0  0  0  0
    7.6307   49.7194   31.3223 O   0  0  0  0  0  0  0  0  0  0  0  0
    7.5910   48.3129   29.4932 O   0  0  0  0  0  0  0  0  0  0  0  0
    8.4282   50.7123   30.6863 C   0  0  0  0  0  0  0  0  0  0  0  0
    8.7225   51.8200   31.6635 C   0  0  0  0  0  0  0  0  0  0  0  0
    7.9357   52.9852   31.6148 C   0  0  0  0  0  0  0  0  0  0  0  0
    9.7801   51.7343   32.6083 C   0  0  0  0  0  0  0  0  0  0  0  0
    8.1972   54.0573   32.4686 C   0  0  0  0  0  0  0  0  0  0  0  0
   10.0357   52.8338   33.4490 C   0  0  0  0  0  0  0  0  0  0  0  0
   10.6069   50.5607   32.7208 N   0  0  0  0  0  0  0  0  0  0  0  0
    9.2481   53.9838   33.3804 C   0  0  0  0  0  0  0  0  0  0  0  0
   10.0603   49.3026   32.6199 O   0  0  0  0  0  0  0  0  0  0  0  0
   11.7993   50.6680   33.0753 O   0  0  0  0  0  0  0  0  0  0  0  0
    8.5366   39.1387   34.0140 O   0  0  0  0  0  0  0  0  0  0  0  0
   10.9794   40.0875   33.6890 O   0  0  0  0  0  0  0  0  0  0  0  0
   10.8017   40.0947   32.2902 C   0  0  0  0  0  0  0  0  0  0  0  0
   11.5885   38.9266   31.7041 C   0  0  0  0  0  0  0  0  0  0  0  0
   12.9237   38.9445   32.1721 O   0  0  0  0  0  0  0  0  0  0  0  0
   11.0029   37.5726   32.0908 C   0  0  0  0  0  0  0  0  0  0  0  0
   13.3555   37.5960   32.2594 C   0  0  0  0  0  0  0  0  0  0  0  0
    9.9380   37.1846   31.2656 O   0  0  0  0  0  0  0  0  0  0  0  0
   12.1932   36.6769   31.8952 C   0  0  0  0  0  0  0  0  0  0  0  0
   13.8028   37.2977   33.6186 N   0  0  0  0  0  0  0  0  0  0  0  0
   12.2918   36.2396   30.5587 O   0  0  0  0  0  0  0  0  0  0  0  0
   14.7926   36.4727   33.9858 C   0  0  0  0  0  0  0  0  0  0  0  0
   13.2750   37.7302   34.7935 C   0  0  0  0  0  0  0  0  0  0  0  0
   15.6241   35.7586   33.1857 N   0  0  0  0  0  0  0  0  0  0  0  0
   14.8721   36.4408   35.3326 C   0  0  0  0  0  0  0  0  0  0  0  0
   13.9204   37.2263   35.8802 N   0  0  0  0  0  0  0  0  0  0  0  0
   16.5870   34.9924   33.7800 C   0  0  0  0  0  0  0  0  0  0  0  0
   15.8572   35.6717   35.9441 C   0  0  0  0  0  0  0  0  0  0  0  0
   16.7022   34.9585   35.1437 N   0  0  0  0  0  0  0  0  0  0  0  0
   16.0097   35.6384   37.3561 N   0  0  0  0  0  0  0  0  0  0  0  0
    7.6771   44.0711   34.0503 H   0  0  0  0  0  0  0  0  0  0  0  0
   10.3191   45.4417   34.0991 H   0  0  0  0  0  0  0  0  0  0  0  0
    9.1835   45.3824   35.3535 H   0  0  0  0  0  0  0  0  0  0  0  0
    8.4817   43.0856   31.8667 H   0  0  0  0  0  0  0  0  0  0  0  0
    9.9711   44.0688   31.9739 H   0  0  0  0  0  0  0  0  0  0  0  0
    8.5386   45.1377   30.4026 H   0  0  0  0  0  0  0  0  0  0  0  0
    8.5544   46.1518   31.8750 H   0  0  0  0  0  0  0  0  0  0  0  0
    6.3015   45.0646   32.5330 H   0  0  0  0  0  0  0  0  0  0  0  0
    6.3300   44.1797   30.9678 H   0  0  0  0  0  0  0  0  0  0  0  0
    4.9225   46.2659   30.9244 H   0  0  0  0  0  0  0  0  0  0  0  0
    6.2466   46.2894   29.7208 H   0  0  0  0  0  0  0  0  0  0  0  0
    6.2816   47.7511   32.4209 H   0  0  0  0  0  0  0  0  0  0  0  0
    7.8802   51.1063   29.8021 H   0  0  0  0  0  0  0  0  0  0  0  0
    9.3764   50.2697   30.3115 H   0  0  0  0  0  0  0  0  0  0  0  0
    7.1187   53.0676   30.9083 H   0  0  0  0  0  0  0  0  0  0  0  0
    7.5861   54.9494   32.4194 H   0  0  0  0  0  0  0  0  0  0  0  0
   10.8392   52.7937   34.1737 H   0  0  0  0  0  0  0  0  0  0  0  0
    9.4511   54.8183   34.0391 H   0  0  0  0  0  0  0  0  0  0  0  0
   11.2242   41.0427   31.8934 H   0  0  0  0  0  0  0  0  0  0  0  0
    9.7472   40.0378   31.9304 H   0  0  0  0  0  0  0  0  0  0  0  0
   11.5927   39.0434   30.5965 H   0  0  0  0  0  0  0  0  0  0  0  0
   10.7003   37.5442   33.1640 H   0  0  0  0  0  0  0  0  0  0  0  0
   14.2052   37.4477   31.5560 H   0  0  0  0  0  0  0  0  0  0  0  0
    9.1374   37.6722   31.5905 H   0  0  0  0  0  0  0  0  0  0  0  0
   12.1305   35.7855   32.5585 H   0  0  0  0  0  0  0  0  0  0  0  0
   12.4606   37.0186   29.9673 H   0  0  0  0  0  0  0  0  0  0  0  0
   12.4327   38.4001   34.8694 H   0  0  0  0  0  0  0  0  0  0  0  0
   17.2666   34.4146   33.1690 H   0  0  0  0  0  0  0  0  0  0  0  0
   16.7634   35.0601   37.7894 H   0  0  0  0  0  0  0  0  0  0  0  0
   15.3754   36.1866   37.9788 H   0  0  0  0  0  0  0  0  0  0  0  0
  1  2  2  0
  1  3  1  0
  3  4  1  0
  4  5  1  0
  6  1  1  0
  7  6  1  0
  6  8  1  0
  8  9  1  0
  9 10  1  0
 10 11  1  0
 11 12  1  0
 12 13  1  0
 13 14  1  0
 13 15  2  0
 14 16  1  0
 16 17  1  0
 17 18  2  0
 19 17  1  0
 18 20  1  0
 21 19  2  0
 19 22  1  0
 20 23  2  0
 23 21  1  0
 22 24  1  0
 22 25  2  0
  4 26  2  0
  4 27  1  0
 28 27  1  0
 28 29  1  0
 29 30  1  0
 29 31  1  0
 30 32  1  0
 31 33  1  0
 31 34  1  0
 34 32  1  0
 32 35  1  0
 34 36  1  0
 37 35  1  0
 38 35  1  0
 39 37  2  0
 37 40  1  0
 41 38  2  0
 42 39  1  0
 40 43  2  0
 40 41  1  0
 44 42  2  0
 44 43  1  0
 43 45  1  0
  6 46  1  6
  7 47  1  0
  7 48  1  0
  8 49  1  0
  8 50  1  0
  9 51  1  0
  9 52  1  0
 10 53  1  0
 10 54  1  0
 11 55  1  0
 11 56  1  0
 12 57  1  0
 16 58  1  0
 16 59  1  0
 18 60  1  0
 20 61  1  0
 21 62  1  0
 23 63  1  0
 28 64  1  0
 28 65  1  0
 29 66  1  0
 31 67  1  0
 32 68  1  0
 33 69  1  0
 34 70  1  0
 36 71  1  0
 38 72  1  0
 42 73  1  0
 45 74  1  0
 45 75  1  0
M  CHG  3   5  -1  22   1  24  -1
M  END
>  <EmbedRMS>  (567) 
0.0758681291977

$$$$

     RDKit          3D

 75 78  0  0  0  0  0  0  0  0999 V2000
    9.4336   42.9372   34.3454 C   0  0  0  0  0  0  0  0  0  0  0  0
   10.4908   43.0334   35.0314 O   0  0  0  0  0  0  0  0  0  0  0  0
    8.8564   41.7109   34.0290 O   0  0  0  0  0  0  0  0  0  0  0  0
    9.4941   40.2144   34.4677 P   0  0  0  0  0  0  0  0  0  0  0  0
    9.7310   40.1728   36.1288 O   0  0  0  0  0  0  0  0  0  0  0  0
    8.7511   44.1360   33.7736 C   0  0  1  0  0  0  0  0  0  0  0  0
    9.2970   45.3831   34.3130 N   0  0  0  0  0  0  0  0  0  0  0  0
    8.8895   44.0553   32.2352 C   0  0  0  0  0  0  0  0  0  0  0  0
    8.2022   45.1857   31.4620 C   0  0  0  0  0  0  0  0  0  0  0  0
    6.6645   45.1062   31.4852 C   0  0  0  0  0  0  0  0  0  0  0  0
    6.0231   46.3216   30.8069 C   0  0  0  0  0  0  0  0  0  0  0  0
    6.4945   47.5657   31.4145 N   0  0  0  0  0  0  0  0  0  0  0  0
    7.2639   48.5254   30.6933 C   0  0  0  0  0  0  0  0  0  0  0  0
    7.7056   49.6760   31.3538 O   0  0  0  0  0  0  0  0  0  0  0  0
    7.5888   48.3115   29.4945 O   0  0  0  0  0  0  0  0  0  0  0  0
    8.6917   50.5583   30.8205 C   0  0  0  0  0  0  0  0  0  0  0  0
   10.0366   49.8685   30.7514 C   0  0  0  0  0  0  0  0  0  0  0  0
   10.5438   49.2968   31.9329 C   0  0  0  0  0  0  0  0  0  0  0  0
   10.8258   49.8281   29.5712 C   0  0  0  0  0  0  0  0  0  0  0  0
   11.8014   48.6926   31.9512 C   0  0  0  0  0  0  0  0  0  0  0  0
   12.0991   49.2354   29.6158 C   0  0  0  0  0  0  0  0  0  0  0  0
   10.3699   50.3856   28.3300 N   0  0  0  0  0  0  0  0  0  0  0  0
   12.5796   48.6658   30.7956 C   0  0  0  0  0  0  0  0  0  0  0  0
   11.2478   51.0916   27.5404 O   0  0  0  0  0  0  0  0  0  0  0  0
    9.2854   50.0132   27.8378 O   0  0  0  0  0  0  0  0  0  0  0  0
    8.5369   39.1386   34.0122 O   0  0  0  0  0  0  0  0  0  0  0  0
   10.9795   40.0870   33.6826 O   0  0  0  0  0  0  0  0  0  0  0  0
   10.7997   40.0899   32.2830 C   0  0  0  0  0  0  0  0  0  0  0  0
   11.5968   38.9274   31.6962 C   0  0  0  0  0  0  0  0  0  0  0  0
   12.9242   38.9425   32.1784 O   0  0  0  0  0  0  0  0  0  0  0  0
   11.0086   37.5713   32.0780 C   0  0  0  0  0  0  0  0  0  0  0  0
   13.3529   37.5929   32.2623 C   0  0  0  0  0  0  0  0  0  0  0  0
    9.9098   37.1770   31.2925 O   0  0  0  0  0  0  0  0  0  0  0  0
   12.1943   36.6683   31.8995 C   0  0  0  0  0  0  0  0  0  0  0  0
   13.8019   37.2950   33.6199 N   0  0  0  0  0  0  0  0  0  0  0  0
   12.3027   36.2773   30.5558 O   0  0  0  0  0  0  0  0  0  0  0  0
   14.7926   36.4715   33.9864 C   0  0  0  0  0  0  0  0  0  0  0  0
   13.2749   37.7286   34.7946 C   0  0  0  0  0  0  0  0  0  0  0  0
   15.6239   35.7577   33.1860 N   0  0  0  0  0  0  0  0  0  0  0  0
   14.8727   36.4403   35.3332 C   0  0  0  0  0  0  0  0  0  0  0  0
   13.9210   37.2257   35.8811 N   0  0  0  0  0  0  0  0  0  0  0  0
   16.5873   34.9921   33.7802 C   0  0  0  0  0  0  0  0  0  0  0  0
   15.8579   35.6714   35.9444 C   0  0  0  0  0  0  0  0  0  0  0  0
   16.7028   34.9583   35.1439 N   0  0  0  0  0  0  0  0  0  0  0  0
   16.0104   35.6382   37.3564 N   0  0  0  0  0  0  0  0  0  0  0  0
    7.6775   44.0721   34.0498 H   0  0  0  0  0  0  0  0  0  0  0  0
   10.3191   45.4437   34.0964 H   0  0  0  0  0  0  0  0  0  0  0  0
    9.1864   45.3819   35.3535 H   0  0  0  0  0  0  0  0  0  0  0  0
    8.4824   43.0877   31.8654 H   0  0  0  0  0  0  0  0  0  0  0  0
    9.9713   44.0718   31.9732 H   0  0  0  0  0  0  0  0  0  0  0  0
    8.5530   46.1547   31.8760 H   0  0  0  0  0  0  0  0  0  0  0  0
    8.5386   45.1419   30.4029 H   0  0  0  0  0  0  0  0  0  0  0  0
    6.3307   44.1798   30.9693 H   0  0  0  0  0  0  0  0  0  0  0  0
    6.3008   45.0672   32.5329 H   0  0  0  0  0  0  0  0  0  0  0  0
    6.2465   46.2886   29.7189 H   0  0  0  0  0  0  0  0  0  0  0  0
    4.9195   46.2618   30.9187 H   0  0  0  0  0  0  0  0  0  0  0  0
    6.2729   47.7508   32.4187 H   0  0  0  0  0  0  0  0  0  0  0  0
    8.7844   51.4269   31.5058 H   0  0  0  0  0  0  0  0  0  0  0  0
    8.3474   50.9613   29.8489 H   0  0  0  0  0  0  0  0  0  0  0  0
    9.9626   49.3235   32.8468 H   0  0  0  0  0  0  0  0  0  0  0  0
   12.1765   48.2522   32.8661 H   0  0  0  0  0  0  0  0  0  0  0  0
   12.7146   49.1993   28.7256 H   0  0  0  0  0  0  0  0  0  0  0  0
   13.5576   48.2023   30.8134 H   0  0  0  0  0  0  0  0  0  0  0  0
    9.7450   40.0146   31.9262 H   0  0  0  0  0  0  0  0  0  0  0  0
   11.2097   41.0419   31.8829 H   0  0  0  0  0  0  0  0  0  0  0  0
   11.6265   39.0456   30.5888 H   0  0  0  0  0  0  0  0  0  0  0  0
   10.7064   37.5574   33.1484 H   0  0  0  0  0  0  0  0  0  0  0  0
   14.2021   37.4484   31.5574 H   0  0  0  0  0  0  0  0  0  0  0  0
   10.0952   37.3990   30.3433 H   0  0  0  0  0  0  0  0  0  0  0  0
   12.1163   35.7745   32.5633 H   0  0  0  0  0  0  0  0  0  0  0  0
   12.9615   35.5349   30.5312 H   0  0  0  0  0  0  0  0  0  0  0  0
   12.4321   38.3982   34.8705 H   0  0  0  0  0  0  0  0  0  0  0  0
   17.2669   34.4143   33.1690 H   0  0  0  0  0  0  0  0  0  0  0  0
   16.7641   35.0599   37.7897 H   0  0  0  0  0  0  0  0  0  0  0  0
   15.3761   36.1862   37.9792 H   0  0  0  0  0  0  0  0  0  0  0  0
  1  2  2  0
  1  3  1  0
  3  4  1  0
  4  5  1  0
  6  1  1  0
  7  6  1  0
  6  8  1  0
  8  9  1  0
  9 10  1  0
 10 11  1  0
 11 12  1  0
 12 13  1  0
 13 14  1  0
 13 15  2  0
 14 16  1  0
 16 17  1  0
 17 18  2  0
 19 17  1  0
 18 20  1  0
 21 19  2  0
 19 22  1  0
 20 23  2  0
 23 21  1  0
 22 24  1  0
 22 25  2  0
  4 26  2  0
  4 27  1  0
 28 27  1  0
 28 29  1  0
 29 30  1  0
 29 31  1  0
 30 32  1  0
 31 33  1  0
 31 34  1  0
 34 32  1  0
 32 35  1  0
 34 36  1  0
 37 35  1  0
 38 35  1  0
 39 37  2  0
 37 40  1  0
 41 38  2  0
 42 39  1  0
 40 43  2  0
 40 41  1  0
 44 42  2  0
 44 43  1  0
 43 45  1  0
  6 46  1  6
  7 47  1  0
  7 48  1  0
  8 49  1  0
  8 50  1  0
  9 51  1  0
  9 52  1  0
 10 53  1  0
 10 54  1  0
 11 55  1  0
 11 56  1  0
 12 57  1  0
 16 58  1  0
 16 59  1  0
 18 60  1  0
 20 61  1  0
 21 62  1  0
 23 63  1  0
 28 64  1  0
 28 65  1  0
 29 66  1  0
 31 67  1  0
 32 68  1  0
 33 69  1  0
 34 70  1  0
 36 71  1  0
 38 72  1  0
 42 73  1  0
 45 74  1  0
 45 75  1  0
M  CHG  3   5  -1  22   1  24  -1
M  END
>  <EmbedRMS>  (568) 
0.0753307665456

$$$$

     RDKit          3D

 75 78  0  0  0  0  0  0  0  0999 V2000
    9.4300   42.9391   34.3430 C   0  0  0  0  0  0  0  0  0  0  0  0
   10.4908   43.0383   35.0236 O   0  0  0  0  0  0  0  0  0  0  0  0
    8.8551   41.7112   34.0282 O   0  0  0  0  0  0  0  0  0  0  0  0
    9.4943   40.2152   34.4675 P   0  0  0  0  0  0  0  0  0  0  0  0
    9.7310   40.1738   36.1286 O   0  0  0  0  0  0  0  0  0  0  0  0
    8.7413   44.1366   33.7774 C   0  0  1  0  0  0  0  0  0  0  0  0
    9.3015   45.3699   34.3305 N   0  0  0  0  0  0  0  0  0  0  0  0
    8.8969   44.0589   32.2389 C   0  0  0  0  0  0  0  0  0  0  0  0
    8.2035   45.1690   31.4390 C   0  0  0  0  0  0  0  0  0  0  0  0
    6.6664   45.1077   31.4918 C   0  0  0  0  0  0  0  0  0  0  0  0
    6.0295   46.3241   30.8134 C   0  0  0  0  0  0  0  0  0  0  0  0
    6.5066   47.5661   31.4228 N   0  0  0  0  0  0  0  0  0  0  0  0
    7.2306   48.5504   30.6755 C   0  0  0  0  0  0  0  0  0  0  0  0
    7.5380   49.8073   31.2127 O   0  0  0  0  0  0  0  0  0  0  0  0
    7.6027   48.2977   29.5000 O   0  0  0  0  0  0  0  0  0  0  0  0
    7.1419   50.2691   32.5034 C   0  0  0  0  0  0  0  0  0  0  0  0
    7.9874   49.6527   33.5951 C   0  0  0  0  0  0  0  0  0  0  0  0
    7.3379   49.0467   34.6867 C   0  0  0  0  0  0  0  0  0  0  0  0
    9.4088   49.6751   33.5612 C   0  0  0  0  0  0  0  0  0  0  0  0
    8.0721   48.4599   35.7178 C   0  0  0  0  0  0  0  0  0  0  0  0
   10.1283   49.0564   34.5989 C   0  0  0  0  0  0  0  0  0  0  0  0
   10.1384   50.3083   32.4949 N   0  0  0  0  0  0  0  0  0  0  0  0
    9.4645   48.4622   35.6725 C   0  0  0  0  0  0  0  0  0  0  0  0
   11.3710   49.8218   32.1242 O   0  0  0  0  0  0  0  0  0  0  0  0
    9.7559   51.3970   32.0199 O   0  0  0  0  0  0  0  0  0  0  0  0
    8.5376   39.1388   34.0123 O   0  0  0  0  0  0  0  0  0  0  0  0
   10.9798   40.0878   33.6827 O   0  0  0  0  0  0  0  0  0  0  0  0
   10.8002   40.0907   32.2830 C   0  0  0  0  0  0  0  0  0  0  0  0
   11.5958   38.9271   31.6963 C   0  0  0  0  0  0  0  0  0  0  0  0
   12.9239   38.9409   32.1767 O   0  0  0  0  0  0  0  0  0  0  0  0
   11.0062   37.5719   32.0794 C   0  0  0  0  0  0  0  0  0  0  0  0
   13.3506   37.5905   32.2614 C   0  0  0  0  0  0  0  0  0  0  0  0
    9.9064   37.1793   31.2946 O   0  0  0  0  0  0  0  0  0  0  0  0
   12.1920   36.6672   31.9003 C   0  0  0  0  0  0  0  0  0  0  0  0
   13.8017   37.2948   33.6193 N   0  0  0  0  0  0  0  0  0  0  0  0
   12.3133   36.2788   30.5561 O   0  0  0  0  0  0  0  0  0  0  0  0
   14.7927   36.4717   33.9862 C   0  0  0  0  0  0  0  0  0  0  0  0
   13.2746   37.7284   34.7941 C   0  0  0  0  0  0  0  0  0  0  0  0
   15.6240   35.7576   33.1859 N   0  0  0  0  0  0  0  0  0  0  0  0
   14.8728   36.4406   35.3330 C   0  0  0  0  0  0  0  0  0  0  0  0
   13.9209   37.2258   35.8808 N   0  0  0  0  0  0  0  0  0  0  0  0
   16.5874   34.9920   33.7802 C   0  0  0  0  0  0  0  0  0  0  0  0
   15.8579   35.6716   35.9443 C   0  0  0  0  0  0  0  0  0  0  0  0
   16.7028   34.9584   35.1439 N   0  0  0  0  0  0  0  0  0  0  0  0
   16.0103   35.6383   37.3563 N   0  0  0  0  0  0  0  0  0  0  0  0
    7.6668   44.0644   34.0533 H   0  0  0  0  0  0  0  0  0  0  0  0
    8.6883   46.1635   34.0391 H   0  0  0  0  0  0  0  0  0  0  0  0
    9.2163   45.3335   35.3730 H   0  0  0  0  0  0  0  0  0  0  0  0
    9.9816   44.0906   31.9909 H   0  0  0  0  0  0  0  0  0  0  0  0
    8.5091   43.0837   31.8681 H   0  0  0  0  0  0  0  0  0  0  0  0
    8.5789   46.1525   31.7877 H   0  0  0  0  0  0  0  0  0  0  0  0
    8.5149   45.0738   30.3757 H   0  0  0  0  0  0  0  0  0  0  0  0
    6.3205   45.0863   32.5459 H   0  0  0  0  0  0  0  0  0  0  0  0
    6.3122   44.1797   30.9930 H   0  0  0  0  0  0  0  0  0  0  0  0
    6.2493   46.2898   29.7248 H   0  0  0  0  0  0  0  0  0  0  0  0
    4.9259   46.2681   30.9285 H   0  0  0  0  0  0  0  0  0  0  0  0
    6.2712   47.7322   32.4247 H   0  0  0  0  0  0  0  0  0  0  0  0
    7.2701   51.3705   32.5396 H   0  0  0  0  0  0  0  0  0  0  0  0
    6.0564   50.0797   32.6533 H   0  0  0  0  0  0  0  0  0  0  0  0
    6.2565   49.0261   34.7418 H   0  0  0  0  0  0  0  0  0  0  0  0
    7.5597   47.9952   36.5502 H   0  0  0  0  0  0  0  0  0  0  0  0
   11.2108   49.0556   34.5894 H   0  0  0  0  0  0  0  0  0  0  0  0
   10.0316   47.9996   36.4700 H   0  0  0  0  0  0  0  0  0  0  0  0
    9.7455   40.0168   31.9261 H   0  0  0  0  0  0  0  0  0  0  0  0
   11.2115   41.0421   31.8829 H   0  0  0  0  0  0  0  0  0  0  0  0
   11.6246   39.0449   30.5888 H   0  0  0  0  0  0  0  0  0  0  0  0
   10.7050   37.5581   33.1500 H   0  0  0  0  0  0  0  0  0  0  0  0
   14.1985   37.4426   31.5553 H   0  0  0  0  0  0  0  0  0  0  0  0
   10.0893   37.4057   30.3459 H   0  0  0  0  0  0  0  0  0  0  0  0
   12.1337   35.7754   32.5703 H   0  0  0  0  0  0  0  0  0  0  0  0
   11.7934   35.4394   30.4514 H   0  0  0  0  0  0  0  0  0  0  0  0
   12.4314   38.3973   34.8699 H   0  0  0  0  0  0  0  0  0  0  0  0
   17.2669   34.4142   33.1692 H   0  0  0  0  0  0  0  0  0  0  0  0
   15.3759   36.1865   37.9790 H   0  0  0  0  0  0  0  0  0  0  0  0
   16.7638   35.0599   37.7897 H   0  0  0  0  0  0  0  0  0  0  0  0
  1  2  2  0
  1  3  1  0
  3  4  1  0
  4  5  1  0
  6  1  1  0
  7  6  1  0
  6  8  1  0
  8  9  1  0
  9 10  1  0
 10 11  1  0
 11 12  1  0
 12 13  1  0
 13 14  1  0
 13 15  2  0
 14 16  1  0
 16 17  1  0
 17 18  2  0
 19 17  1  0
 18 20  1  0
 21 19  2  0
 19 22  1  0
 20 23  2  0
 23 21  1  0
 22 24  1  0
 22 25  2  0
  4 26  2  0
  4 27  1  0
 28 27  1  0
 28 29  1  0
 29 30  1  0
 29 31  1  0
 30 32  1  0
 31 33  1  0
 31 34  1  0
 34 32  1  0
 32 35  1  0
 34 36  1  0
 37 35  1  0
 38 35  1  0
 39 37  2  0
 37 40  1  0
 41 38  2  0
 42 39  1  0
 40 43  2  0
 40 41  1  0
 44 42  2  0
 44 43  1  0
 43 45  1  0
  6 46  1  6
  7 47  1  0
  7 48  1  0
  8 49  1  0
  8 50  1  0
  9 51  1  0
  9 52  1  0
 10 53  1  0
 10 54  1  0
 11 55  1  0
 11 56  1  0
 12 57  1  0
 16 58  1  0
 16 59  1  0
 18 60  1  0
 20 61  1  0
 21 62  1  0
 23 63  1  0
 28 64  1  0
 28 65  1  0
 29 66  1  0
 31 67  1  0
 32 68  1  0
 33 69  1  0
 34 70  1  0
 36 71  1  0
 38 72  1  0
 42 73  1  0
 45 74  1  0
 45 75  1  0
M  CHG  3   5  -1  22   1  24  -1
M  END
>  <EmbedRMS>  (569) 
0.0741581204226

$$$$

     RDKit          3D

 75 78  0  0  0  0  0  0  0  0999 V2000
    9.4311   42.9413   34.3436 C   0  0  0  0  0  0  0  0  0  0  0  0
   10.4884   43.0412   35.0293 O   0  0  0  0  0  0  0  0  0  0  0  0
    8.8561   41.7129   34.0288 O   0  0  0  0  0  0  0  0  0  0  0  0
    9.4947   40.2164   34.4679 P   0  0  0  0  0  0  0  0  0  0  0  0
    9.7310   40.1742   36.1290 O   0  0  0  0  0  0  0  0  0  0  0  0
    8.7482   44.1361   33.7717 C   0  0  1  0  0  0  0  0  0  0  0  0
    9.3034   45.3667   34.3384 N   0  0  0  0  0  0  0  0  0  0  0  0
    8.8892   44.0516   32.2304 C   0  0  0  0  0  0  0  0  0  0  0  0
    8.2020   45.1719   31.4424 C   0  0  0  0  0  0  0  0  0  0  0  0
    6.6646   45.1045   31.4834 C   0  0  0  0  0  0  0  0  0  0  0  0
    6.0258   46.3265   30.8156 C   0  0  0  0  0  0  0  0  0  0  0  0
    6.5152   47.5630   31.4250 N   0  0  0  0  0  0  0  0  0  0  0  0
    7.2299   48.5513   30.6755 C   0  0  0  0  0  0  0  0  0  0  0  0
    7.5557   49.7997   31.2223 O   0  0  0  0  0  0  0  0  0  0  0  0
    7.6007   48.2999   29.4993 O   0  0  0  0  0  0  0  0  0  0  0  0
    7.0178   50.3394   32.4298 C   0  0  0  0  0  0  0  0  0  0  0  0
    5.5572   50.6959   32.2619 C   0  0  0  0  0  0  0  0  0  0  0  0
    4.5969   49.9329   32.9536 C   0  0  0  0  0  0  0  0  0  0  0  0
    5.1259   51.8065   31.4804 C   0  0  0  0  0  0  0  0  0  0  0  0
    3.2384   50.2318   32.8539 C   0  0  0  0  0  0  0  0  0  0  0  0
    3.7505   52.0940   31.4054 C   0  0  0  0  0  0  0  0  0  0  0  0
    6.0486   52.6827   30.8032 N   0  0  0  0  0  0  0  0  0  0  0  0
    2.8157   51.3077   32.0785 C   0  0  0  0  0  0  0  0  0  0  0  0
    5.7066   53.9969   30.5797 O   0  0  0  0  0  0  0  0  0  0  0  0
    7.0965   52.2449   30.2877 O   0  0  0  0  0  0  0  0  0  0  0  0
    8.5375   39.1404   34.0127 O   0  0  0  0  0  0  0  0  0  0  0  0
   10.9805   40.0889   33.6836 O   0  0  0  0  0  0  0  0  0  0  0  0
   10.8025   40.0902   32.2837 C   0  0  0  0  0  0  0  0  0  0  0  0
   11.5888   38.9175   31.7008 C   0  0  0  0  0  0  0  0  0  0  0  0
   12.9219   38.9373   32.1692 O   0  0  0  0  0  0  0  0  0  0  0  0
   11.0028   37.5683   32.0981 C   0  0  0  0  0  0  0  0  0  0  0  0
   13.3496   37.5886   32.2601 C   0  0  0  0  0  0  0  0  0  0  0  0
    9.9343   37.1823   31.2757 O   0  0  0  0  0  0  0  0  0  0  0  0
   12.1891   36.6677   31.9050 C   0  0  0  0  0  0  0  0  0  0  0  0
   13.8025   37.2965   33.6186 N   0  0  0  0  0  0  0  0  0  0  0  0
   12.2990   36.2868   30.5568 O   0  0  0  0  0  0  0  0  0  0  0  0
   14.7929   36.4725   33.9858 C   0  0  0  0  0  0  0  0  0  0  0  0
   13.2749   37.7294   34.7935 C   0  0  0  0  0  0  0  0  0  0  0  0
   15.6240   35.7580   33.1858 N   0  0  0  0  0  0  0  0  0  0  0  0
   14.8727   36.4411   35.3327 C   0  0  0  0  0  0  0  0  0  0  0  0
   13.9208   37.2263   35.8803 N   0  0  0  0  0  0  0  0  0  0  0  0
   16.5871   34.9921   33.7801 C   0  0  0  0  0  0  0  0  0  0  0  0
   15.8576   35.6718   35.9441 C   0  0  0  0  0  0  0  0  0  0  0  0
   16.7024   34.9585   35.1438 N   0  0  0  0  0  0  0  0  0  0  0  0
   16.0099   35.6384   37.3562 N   0  0  0  0  0  0  0  0  0  0  0  0
    7.6761   44.0635   34.0543 H   0  0  0  0  0  0  0  0  0  0  0  0
   10.2145   45.5886   33.8740 H   0  0  0  0  0  0  0  0  0  0  0  0
    8.6460   46.1559   34.1431 H   0  0  0  0  0  0  0  0  0  0  0  0
    9.9709   44.0637   31.9678 H   0  0  0  0  0  0  0  0  0  0  0  0
    8.4829   43.0815   31.8663 H   0  0  0  0  0  0  0  0  0  0  0  0
    8.5708   46.1482   31.8180 H   0  0  0  0  0  0  0  0  0  0  0  0
    8.5227   45.0972   30.3802 H   0  0  0  0  0  0  0  0  0  0  0  0
    6.3125   45.0670   32.5352 H   0  0  0  0  0  0  0  0  0  0  0  0
    6.3171   44.1814   30.9707 H   0  0  0  0  0  0  0  0  0  0  0  0
    6.2326   46.2969   29.7243 H   0  0  0  0  0  0  0  0  0  0  0  0
    4.9236   46.2751   30.9446 H   0  0  0  0  0  0  0  0  0  0  0  0
    6.3563   47.6917   32.4465 H   0  0  0  0  0  0  0  0  0  0  0  0
    7.1817   49.6282   33.2673 H   0  0  0  0  0  0  0  0  0  0  0  0
    7.5835   51.2561   32.6983 H   0  0  0  0  0  0  0  0  0  0  0  0
    4.8967   49.1071   33.5854 H   0  0  0  0  0  0  0  0  0  0  0  0
    2.5121   49.6317   33.3869 H   0  0  0  0  0  0  0  0  0  0  0  0
    3.3970   52.9303   30.8157 H   0  0  0  0  0  0  0  0  0  0  0  0
    1.7610   51.5399   32.0060 H   0  0  0  0  0  0  0  0  0  0  0  0
    9.7476   40.0332   31.9256 H   0  0  0  0  0  0  0  0  0  0  0  0
   11.2257   41.0358   31.8824 H   0  0  0  0  0  0  0  0  0  0  0  0
   11.5975   39.0148   30.5905 H   0  0  0  0  0  0  0  0  0  0  0  0
   10.7023   37.5457   33.1720 H   0  0  0  0  0  0  0  0  0  0  0  0
   14.1957   37.4366   31.5528 H   0  0  0  0  0  0  0  0  0  0  0  0
    9.1339   37.6659   31.6070 H   0  0  0  0  0  0  0  0  0  0  0  0
   12.1380   35.7717   32.5698 H   0  0  0  0  0  0  0  0  0  0  0  0
   11.7706   35.4530   30.4497 H   0  0  0  0  0  0  0  0  0  0  0  0
   12.4314   38.3980   34.8694 H   0  0  0  0  0  0  0  0  0  0  0  0
   17.2665   34.4140   33.1691 H   0  0  0  0  0  0  0  0  0  0  0  0
   15.3757   36.1868   37.9789 H   0  0  0  0  0  0  0  0  0  0  0  0
   16.7633   35.0599   37.7895 H   0  0  0  0  0  0  0  0  0  0  0  0
  1  2  2  0
  1  3  1  0
  3  4  1  0
  4  5  1  0
  6  1  1  0
  7  6  1  0
  6  8  1  0
  8  9  1  0
  9 10  1  0
 10 11  1  0
 11 12  1  0
 12 13  1  0
 13 14  1  0
 13 15  2  0
 14 16  1  0
 16 17  1  0
 17 18  2  0
 19 17  1  0
 18 20  1  0
 21 19  2  0
 19 22  1  0
 20 23  2  0
 23 21  1  0
 22 24  1  0
 22 25  2  0
  4 26  2  0
  4 27  1  0
 28 27  1  0
 28 29  1  0
 29 30  1  0
 29 31  1  0
 30 32  1  0
 31 33  1  0
 31 34  1  0
 34 32  1  0
 32 35  1  0
 34 36  1  0
 37 35  1  0
 38 35  1  0
 39 37  2  0
 37 40  1  0
 41 38  2  0
 42 39  1  0
 40 43  2  0
 40 41  1  0
 44 42  2  0
 44 43  1  0
 43 45  1  0
  6 46  1  6
  7 47  1  0
  7 48  1  0
  8 49  1  0
  8 50  1  0
  9 51  1  0
  9 52  1  0
 10 53  1  0
 10 54  1  0
 11 55  1  0
 11 56  1  0
 12 57  1  0
 16 58  1  0
 16 59  1  0
 18 60  1  0
 20 61  1  0
 21 62  1  0
 23 63  1  0
 28 64  1  0
 28 65  1  0
 29 66  1  0
 31 67  1  0
 32 68  1  0
 33 69  1  0
 34 70  1  0
 36 71  1  0
 38 72  1  0
 42 73  1  0
 45 74  1  0
 45 75  1  0
M  CHG  3   5  -1  22   1  24  -1
M  END
>  <EmbedRMS>  (570) 
0.0729673096742

$$$$

     RDKit          3D

 75 78  0  0  0  0  0  0  0  0999 V2000
    9.4337   42.9357   34.3453 C   0  0  0  0  0  0  0  0  0  0  0  0
   10.4911   43.0320   35.0311 O   0  0  0  0  0  0  0  0  0  0  0  0
    8.8562   41.7099   34.0291 O   0  0  0  0  0  0  0  0  0  0  0  0
    9.4944   40.2139   34.4679 P   0  0  0  0  0  0  0  0  0  0  0  0
    9.7307   40.1726   36.1290 O   0  0  0  0  0  0  0  0  0  0  0  0
    8.7514   44.1343   33.7741 C   0  0  1  0  0  0  0  0  0  0  0  0
    9.2989   45.3794   34.3141 N   0  0  0  0  0  0  0  0  0  0  0  0
    8.8892   44.0540   32.2359 C   0  0  0  0  0  0  0  0  0  0  0  0
    8.2033   45.1859   31.4645 C   0  0  0  0  0  0  0  0  0  0  0  0
    6.6662   45.1075   31.4872 C   0  0  0  0  0  0  0  0  0  0  0  0
    6.0296   46.3233   30.8072 C   0  0  0  0  0  0  0  0  0  0  0  0
    6.4996   47.5674   31.4182 N   0  0  0  0  0  0  0  0  0  0  0  0
    7.2369   48.5468   30.6783 C   0  0  0  0  0  0  0  0  0  0  0  0
    7.5714   49.7938   31.2231 O   0  0  0  0  0  0  0  0  0  0  0  0
    7.5991   48.2986   29.4987 O   0  0  0  0  0  0  0  0  0  0  0  0
    7.2653   50.2434   32.5428 C   0  0  0  0  0  0  0  0  0  0  0  0
    8.1789   49.6163   33.5738 C   0  0  0  0  0  0  0  0  0  0  0  0
    7.6047   48.7851   34.5554 C   0  0  0  0  0  0  0  0  0  0  0  0
    9.5701   49.9176   33.6535 C   0  0  0  0  0  0  0  0  0  0  0  0
    8.3839   48.2282   35.5681 C   0  0  0  0  0  0  0  0  0  0  0  0
   10.3348   49.3392   34.6837 C   0  0  0  0  0  0  0  0  0  0  0  0
   10.2161   50.8494   32.7633 N   0  0  0  0  0  0  0  0  0  0  0  0
    9.7480   48.4963   35.6265 C   0  0  0  0  0  0  0  0  0  0  0  0
   11.3068   51.5671   33.1985 O   0  0  0  0  0  0  0  0  0  0  0  0
    9.8991   50.9223   31.5598 O   0  0  0  0  0  0  0  0  0  0  0  0
    8.5372   39.1383   34.0124 O   0  0  0  0  0  0  0  0  0  0  0  0
   10.9804   40.0879   33.6837 O   0  0  0  0  0  0  0  0  0  0  0  0
   10.8025   40.0899   32.2839 C   0  0  0  0  0  0  0  0  0  0  0  0
   11.5889   38.9174   31.7007 C   0  0  0  0  0  0  0  0  0  0  0  0
   12.9220   38.9373   32.1692 O   0  0  0  0  0  0  0  0  0  0  0  0
   11.0028   37.5682   32.0980 C   0  0  0  0  0  0  0  0  0  0  0  0
   13.3496   37.5885   32.2601 C   0  0  0  0  0  0  0  0  0  0  0  0
    9.9343   37.1822   31.2756 O   0  0  0  0  0  0  0  0  0  0  0  0
   12.1891   36.6677   31.9049 C   0  0  0  0  0  0  0  0  0  0  0  0
   13.8025   37.2965   33.6186 N   0  0  0  0  0  0  0  0  0  0  0  0
   12.2991   36.2867   30.5567 O   0  0  0  0  0  0  0  0  0  0  0  0
   14.7929   36.4725   33.9858 C   0  0  0  0  0  0  0  0  0  0  0  0
   13.2749   37.7294   34.7935 C   0  0  0  0  0  0  0  0  0  0  0  0
   15.6240   35.7580   33.1858 N   0  0  0  0  0  0  0  0  0  0  0  0
   14.8727   36.4411   35.3327 C   0  0  0  0  0  0  0  0  0  0  0  0
   13.9208   37.2263   35.8803 N   0  0  0  0  0  0  0  0  0  0  0  0
   16.5871   34.9921   33.7801 C   0  0  0  0  0  0  0  0  0  0  0  0
   15.8576   35.6718   35.9441 C   0  0  0  0  0  0  0  0  0  0  0  0
   16.7024   34.9584   35.1438 N   0  0  0  0  0  0  0  0  0  0  0  0
   16.0099   35.6384   37.3562 N   0  0  0  0  0  0  0  0  0  0  0  0
    7.6779   44.0716   34.0513 H   0  0  0  0  0  0  0  0  0  0  0  0
    9.2012   45.3691   35.3558 H   0  0  0  0  0  0  0  0  0  0  0  0
   10.3185   45.4446   34.0875 H   0  0  0  0  0  0  0  0  0  0  0  0
    8.4804   43.0873   31.8658 H   0  0  0  0  0  0  0  0  0  0  0  0
    9.9708   44.0689   31.9734 H   0  0  0  0  0  0  0  0  0  0  0  0
    8.5402   45.1433   30.4055 H   0  0  0  0  0  0  0  0  0  0  0  0
    8.5536   46.1542   31.8810 H   0  0  0  0  0  0  0  0  0  0  0  0
    6.3313   44.1813   30.9718 H   0  0  0  0  0  0  0  0  0  0  0  0
    6.3020   45.0708   32.5350 H   0  0  0  0  0  0  0  0  0  0  0  0
    4.9254   46.2641   30.9143 H   0  0  0  0  0  0  0  0  0  0  0  0
    6.2562   46.2892   29.7201 H   0  0  0  0  0  0  0  0  0  0  0  0
    6.2283   47.7459   32.4068 H   0  0  0  0  0  0  0  0  0  0  0  0
    7.3970   51.3451   32.5812 H   0  0  0  0  0  0  0  0  0  0  0  0
    6.1919   50.0544   32.7617 H   0  0  0  0  0  0  0  0  0  0  0  0
    6.5419   48.5796   34.5542 H   0  0  0  0  0  0  0  0  0  0  0  0
    7.9268   47.5884   36.3121 H   0  0  0  0  0  0  0  0  0  0  0  0
   11.3949   49.5453   34.7605 H   0  0  0  0  0  0  0  0  0  0  0  0
   10.3512   48.0596   36.4120 H   0  0  0  0  0  0  0  0  0  0  0  0
    9.7477   40.0332   31.9255 H   0  0  0  0  0  0  0  0  0  0  0  0
   11.2259   41.0357   31.8831 H   0  0  0  0  0  0  0  0  0  0  0  0
   11.5975   39.0148   30.5904 H   0  0  0  0  0  0  0  0  0  0  0  0
   10.7024   37.5455   33.1719 H   0  0  0  0  0  0  0  0  0  0  0  0
   14.1957   37.4366   31.5528 H   0  0  0  0  0  0  0  0  0  0  0  0
    9.1340   37.6658   31.6068 H   0  0  0  0  0  0  0  0  0  0  0  0
   12.1381   35.7717   32.5697 H   0  0  0  0  0  0  0  0  0  0  0  0
   11.7707   35.4530   30.4496 H   0  0  0  0  0  0  0  0  0  0  0  0
   12.4314   38.3980   34.8694 H   0  0  0  0  0  0  0  0  0  0  0  0
   17.2665   34.4140   33.1691 H   0  0  0  0  0  0  0  0  0  0  0  0
   16.7633   35.0598   37.7895 H   0  0  0  0  0  0  0  0  0  0  0  0
   15.3757   36.1868   37.9789 H   0  0  0  0  0  0  0  0  0  0  0  0
  1  2  2  0
  1  3  1  0
  3  4  1  0
  4  5  1  0
  6  1  1  0
  7  6  1  0
  6  8  1  0
  8  9  1  0
  9 10  1  0
 10 11  1  0
 11 12  1  0
 12 13  1  0
 13 14  1  0
 13 15  2  0
 14 16  1  0
 16 17  1  0
 17 18  2  0
 19 17  1  0
 18 20  1  0
 21 19  2  0
 19 22  1  0
 20 23  2  0
 23 21  1  0
 22 24  1  0
 22 25  2  0
  4 26  2  0
  4 27  1  0
 28 27  1  0
 28 29  1  0
 29 30  1  0
 29 31  1  0
 30 32  1  0
 31 33  1  0
 31 34  1  0
 34 32  1  0
 32 35  1  0
 34 36  1  0
 37 35  1  0
 38 35  1  0
 39 37  2  0
 37 40  1  0
 41 38  2  0
 42 39  1  0
 40 43  2  0
 40 41  1  0
 44 42  2  0
 44 43  1  0
 43 45  1  0
  6 46  1  6
  7 47  1  0
  7 48  1  0
  8 49  1  0
  8 50  1  0
  9 51  1  0
  9 52  1  0
 10 53  1  0
 10 54  1  0
 11 55  1  0
 11 56  1  0
 12 57  1  0
 16 58  1  0
 16 59  1  0
 18 60  1  0
 20 61  1  0
 21 62  1  0
 23 63  1  0
 28 64  1  0
 28 65  1  0
 29 66  1  0
 31 67  1  0
 32 68  1  0
 33 69  1  0
 34 70  1  0
 36 71  1  0
 38 72  1  0
 42 73  1  0
 45 74  1  0
 45 75  1  0
M  CHG  3   5  -1  22   1  24  -1
M  END
>  <EmbedRMS>  (571) 
0.0745375298159

$$$$

     RDKit          3D

 75 78  0  0  0  0  0  0  0  0999 V2000
    9.4306   42.9410   34.3416 C   0  0  0  0  0  0  0  0  0  0  0  0
   10.4914   43.0390   35.0224 O   0  0  0  0  0  0  0  0  0  0  0  0
    8.8551   41.7131   34.0269 O   0  0  0  0  0  0  0  0  0  0  0  0
    9.4940   40.2167   34.4671 P   0  0  0  0  0  0  0  0  0  0  0  0
    9.7304   40.1750   36.1283 O   0  0  0  0  0  0  0  0  0  0  0  0
    8.7424   44.1407   33.7775 C   0  0  1  0  0  0  0  0  0  0  0  0
    9.3027   45.3734   34.3341 N   0  0  0  0  0  0  0  0  0  0  0  0
    8.8986   44.0669   32.2387 C   0  0  0  0  0  0  0  0  0  0  0  0
    8.2013   45.1773   31.4416 C   0  0  0  0  0  0  0  0  0  0  0  0
    6.6632   45.1103   31.4905 C   0  0  0  0  0  0  0  0  0  0  0  0
    6.0166   46.3200   30.8042 C   0  0  0  0  0  0  0  0  0  0  0  0
    6.4772   47.5692   31.4091 N   0  0  0  0  0  0  0  0  0  0  0  0
    7.3000   48.4977   30.7078 C   0  0  0  0  0  0  0  0  0  0  0  0
    7.9116   49.5297   31.4232 O   0  0  0  0  0  0  0  0  0  0  0  0
    7.5768   48.3166   29.4914 O   0  0  0  0  0  0  0  0  0  0  0  0
    9.2203   50.0031   31.1135 C   0  0  0  0  0  0  0  0  0  0  0  0
   10.2299   48.8941   31.3174 C   0  0  0  0  0  0  0  0  0  0  0  0
   10.7576   48.2551   30.1799 C   0  0  0  0  0  0  0  0  0  0  0  0
   10.6335   48.4536   32.6099 C   0  0  0  0  0  0  0  0  0  0  0  0
   11.6604   47.1996   30.3078 C   0  0  0  0  0  0  0  0  0  0  0  0
   11.5577   47.3976   32.7122 C   0  0  0  0  0  0  0  0  0  0  0  0
   10.1470   49.0632   33.8214 N   0  0  0  0  0  0  0  0  0  0  0  0
   12.0588   46.7712   31.5713 C   0  0  0  0  0  0  0  0  0  0  0  0
   10.9230   49.0427   34.9577 O   0  0  0  0  0  0  0  0  0  0  0  0
    8.9718   49.4718   33.9104 O   0  0  0  0  0  0  0  0  0  0  0  0
    8.5373   39.1402   34.0123 O   0  0  0  0  0  0  0  0  0  0  0  0
   10.9802   40.0890   33.6833 O   0  0  0  0  0  0  0  0  0  0  0  0
   10.8026   40.0904   32.2835 C   0  0  0  0  0  0  0  0  0  0  0  0
   11.5889   38.9175   31.7007 C   0  0  0  0  0  0  0  0  0  0  0  0
   12.9220   38.9374   32.1693 O   0  0  0  0  0  0  0  0  0  0  0  0
   11.0028   37.5684   32.0981 C   0  0  0  0  0  0  0  0  0  0  0  0
   13.3496   37.5886   32.2601 C   0  0  0  0  0  0  0  0  0  0  0  0
    9.9343   37.1824   31.2757 O   0  0  0  0  0  0  0  0  0  0  0  0
   12.1890   36.6678   31.9050 C   0  0  0  0  0  0  0  0  0  0  0  0
   13.8025   37.2965   33.6186 N   0  0  0  0  0  0  0  0  0  0  0  0
   12.2990   36.2868   30.5568 O   0  0  0  0  0  0  0  0  0  0  0  0
   14.7929   36.4725   33.9858 C   0  0  0  0  0  0  0  0  0  0  0  0
   13.2749   37.7295   34.7935 C   0  0  0  0  0  0  0  0  0  0  0  0
   15.6240   35.7580   33.1858 N   0  0  0  0  0  0  0  0  0  0  0  0
   14.8727   36.4411   35.3327 C   0  0  0  0  0  0  0  0  0  0  0  0
   13.9208   37.2263   35.8803 N   0  0  0  0  0  0  0  0  0  0  0  0
   16.5871   34.9921   33.7801 C   0  0  0  0  0  0  0  0  0  0  0  0
   15.8576   35.6718   35.9441 C   0  0  0  0  0  0  0  0  0  0  0  0
   16.7024   34.9584   35.1438 N   0  0  0  0  0  0  0  0  0  0  0  0
   16.0099   35.6384   37.3562 N   0  0  0  0  0  0  0  0  0  0  0  0
    7.6677   44.0684   34.0523 H   0  0  0  0  0  0  0  0  0  0  0  0
    9.2316   45.3291   35.3772 H   0  0  0  0  0  0  0  0  0  0  0  0
    8.6862   46.1709   34.0583 H   0  0  0  0  0  0  0  0  0  0  0  0
    8.5154   43.0911   31.8649 H   0  0  0  0  0  0  0  0  0  0  0  0
    9.9836   44.1050   31.9917 H   0  0  0  0  0  0  0  0  0  0  0  0
    8.5172   45.0909   30.3788 H   0  0  0  0  0  0  0  0  0  0  0  0
    8.5701   46.1601   31.7980 H   0  0  0  0  0  0  0  0  0  0  0  0
    6.3155   44.1778   30.9954 H   0  0  0  0  0  0  0  0  0  0  0  0
    6.3157   45.0906   32.5441 H   0  0  0  0  0  0  0  0  0  0  0  0
    4.9130   46.2539   30.9121 H   0  0  0  0  0  0  0  0  0  0  0  0
    6.2442   46.2846   29.7172 H   0  0  0  0  0  0  0  0  0  0  0  0
    6.2652   47.7479   32.4166 H   0  0  0  0  0  0  0  0  0  0  0  0
    9.4697   50.8657   31.7660 H   0  0  0  0  0  0  0  0  0  0  0  0
    9.2364   50.3799   30.0672 H   0  0  0  0  0  0  0  0  0  0  0  0
   10.4593   48.5661   29.1862 H   0  0  0  0  0  0  0  0  0  0  0  0
   12.0507   46.7117   29.4241 H   0  0  0  0  0  0  0  0  0  0  0  0
   11.8776   47.0417   33.6832 H   0  0  0  0  0  0  0  0  0  0  0  0
   12.7580   45.9506   31.6680 H   0  0  0  0  0  0  0  0  0  0  0  0
   11.2260   41.0360   31.8823 H   0  0  0  0  0  0  0  0  0  0  0  0
    9.7478   40.0335   31.9250 H   0  0  0  0  0  0  0  0  0  0  0  0
   11.5976   39.0148   30.5904 H   0  0  0  0  0  0  0  0  0  0  0  0
   10.7023   37.5458   33.1720 H   0  0  0  0  0  0  0  0  0  0  0  0
   14.1957   37.4366   31.5528 H   0  0  0  0  0  0  0  0  0  0  0  0
    9.1340   37.6661   31.6068 H   0  0  0  0  0  0  0  0  0  0  0  0
   12.1380   35.7718   32.5698 H   0  0  0  0  0  0  0  0  0  0  0  0
   11.7706   35.4531   30.4497 H   0  0  0  0  0  0  0  0  0  0  0  0
   12.4315   38.3981   34.8694 H   0  0  0  0  0  0  0  0  0  0  0  0
   17.2665   34.4140   33.1691 H   0  0  0  0  0  0  0  0  0  0  0  0
   15.3757   36.1868   37.9789 H   0  0  0  0  0  0  0  0  0  0  0  0
   16.7633   35.0598   37.7895 H   0  0  0  0  0  0  0  0  0  0  0  0
  1  2  2  0
  1  3  1  0
  3  4  1  0
  4  5  1  0
  6  1  1  0
  7  6  1  0
  6  8  1  0
  8  9  1  0
  9 10  1  0
 10 11  1  0
 11 12  1  0
 12 13  1  0
 13 14  1  0
 13 15  2  0
 14 16  1  0
 16 17  1  0
 17 18  2  0
 19 17  1  0
 18 20  1  0
 21 19  2  0
 19 22  1  0
 20 23  2  0
 23 21  1  0
 22 24  1  0
 22 25  2  0
  4 26  2  0
  4 27  1  0
 28 27  1  0
 28 29  1  0
 29 30  1  0
 29 31  1  0
 30 32  1  0
 31 33  1  0
 31 34  1  0
 34 32  1  0
 32 35  1  0
 34 36  1  0
 37 35  1  0
 38 35  1  0
 39 37  2  0
 37 40  1  0
 41 38  2  0
 42 39  1  0
 40 43  2  0
 40 41  1  0
 44 42  2  0
 44 43  1  0
 43 45  1  0
  6 46  1  6
  7 47  1  0
  7 48  1  0
  8 49  1  0
  8 50  1  0
  9 51  1  0
  9 52  1  0
 10 53  1  0
 10 54  1  0
 11 55  1  0
 11 56  1  0
 12 57  1  0
 16 58  1  0
 16 59  1  0
 18 60  1  0
 20 61  1  0
 21 62  1  0
 23 63  1  0
 28 64  1  0
 28 65  1  0
 29 66  1  0
 31 67  1  0
 32 68  1  0
 33 69  1  0
 34 70  1  0
 36 71  1  0
 38 72  1  0
 42 73  1  0
 45 74  1  0
 45 75  1  0
M  CHG  3   5  -1  22   1  24  -1
M  END
>  <EmbedRMS>  (572) 
0.0762660269509

$$$$

     RDKit          3D

 75 78  0  0  0  0  0  0  0  0999 V2000
    9.4301   42.9393   34.3433 C   0  0  0  0  0  0  0  0  0  0  0  0
   10.4913   43.0378   35.0234 O   0  0  0  0  0  0  0  0  0  0  0  0
    8.8550   41.7115   34.0282 O   0  0  0  0  0  0  0  0  0  0  0  0
    9.4941   40.2153   34.4674 P   0  0  0  0  0  0  0  0  0  0  0  0
    9.7310   40.1738   36.1285 O   0  0  0  0  0  0  0  0  0  0  0  0
    8.7413   44.1376   33.7786 C   0  0  1  0  0  0  0  0  0  0  0  0
    9.3016   45.3717   34.3326 N   0  0  0  0  0  0  0  0  0  0  0  0
    8.8963   44.0592   32.2399 C   0  0  0  0  0  0  0  0  0  0  0  0
    8.2026   45.1687   31.4401 C   0  0  0  0  0  0  0  0  0  0  0  0
    6.6652   45.1062   31.4910 C   0  0  0  0  0  0  0  0  0  0  0  0
    6.0274   46.3222   30.8122 C   0  0  0  0  0  0  0  0  0  0  0  0
    6.5072   47.5640   31.4184 N   0  0  0  0  0  0  0  0  0  0  0  0
    7.2444   48.5389   30.6834 C   0  0  0  0  0  0  0  0  0  0  0  0
    7.5980   49.7380   31.3073 O   0  0  0  0  0  0  0  0  0  0  0  0
    7.5927   48.3116   29.4931 O   0  0  0  0  0  0  0  0  0  0  0  0
    8.3514   50.7556   30.6515 C   0  0  0  0  0  0  0  0  0  0  0  0
    8.6131   51.9363   31.5628 C   0  0  0  0  0  0  0  0  0  0  0  0
    8.4194   51.8123   32.9548 C   0  0  0  0  0  0  0  0  0  0  0  0
    9.0462   53.1857   31.0378 C   0  0  0  0  0  0  0  0  0  0  0  0
    8.6127   52.9035   33.8026 C   0  0  0  0  0  0  0  0  0  0  0  0
    9.2175   54.2753   31.9102 C   0  0  0  0  0  0  0  0  0  0  0  0
    9.3049   53.3758   29.6341 N   0  0  0  0  0  0  0  0  0  0  0  0
    9.0033   54.1338   33.2809 C   0  0  0  0  0  0  0  0  0  0  0  0
    9.1349   54.6177   29.0664 O   0  0  0  0  0  0  0  0  0  0  0  0
    9.8436   52.4767   28.9565 O   0  0  0  0  0  0  0  0  0  0  0  0
    8.5373   39.1389   34.0124 O   0  0  0  0  0  0  0  0  0  0  0  0
   10.9794   40.0877   33.6824 O   0  0  0  0  0  0  0  0  0  0  0  0
   10.7996   40.0900   32.2828 C   0  0  0  0  0  0  0  0  0  0  0  0
   11.5968   38.9274   31.6962 C   0  0  0  0  0  0  0  0  0  0  0  0
   12.9242   38.9426   32.1785 O   0  0  0  0  0  0  0  0  0  0  0  0
   11.0086   37.5713   32.0780 C   0  0  0  0  0  0  0  0  0  0  0  0
   13.3528   37.5929   32.2623 C   0  0  0  0  0  0  0  0  0  0  0  0
    9.9098   37.1771   31.2926 O   0  0  0  0  0  0  0  0  0  0  0  0
   12.1943   36.6683   31.8995 C   0  0  0  0  0  0  0  0  0  0  0  0
   13.8019   37.2950   33.6199 N   0  0  0  0  0  0  0  0  0  0  0  0
   12.3027   36.2773   30.5559 O   0  0  0  0  0  0  0  0  0  0  0  0
   14.7926   36.4715   33.9865 C   0  0  0  0  0  0  0  0  0  0  0  0
   13.2749   37.7286   34.7946 C   0  0  0  0  0  0  0  0  0  0  0  0
   15.6239   35.7577   33.1860 N   0  0  0  0  0  0  0  0  0  0  0  0
   14.8727   36.4403   35.3332 C   0  0  0  0  0  0  0  0  0  0  0  0
   13.9210   37.2257   35.8811 N   0  0  0  0  0  0  0  0  0  0  0  0
   16.5873   34.9921   33.7802 C   0  0  0  0  0  0  0  0  0  0  0  0
   15.8579   35.6714   35.9444 C   0  0  0  0  0  0  0  0  0  0  0  0
   16.7028   34.9583   35.1439 N   0  0  0  0  0  0  0  0  0  0  0  0
   16.0104   35.6382   37.3564 N   0  0  0  0  0  0  0  0  0  0  0  0
    7.6669   44.0651   34.0548 H   0  0  0  0  0  0  0  0  0  0  0  0
    8.6810   46.1667   34.0588 H   0  0  0  0  0  0  0  0  0  0  0  0
    9.2335   45.3272   35.3760 H   0  0  0  0  0  0  0  0  0  0  0  0
    9.9810   44.0907   31.9915 H   0  0  0  0  0  0  0  0  0  0  0  0
    8.5085   43.0839   31.8694 H   0  0  0  0  0  0  0  0  0  0  0  0
    8.5157   45.0756   30.3770 H   0  0  0  0  0  0  0  0  0  0  0  0
    8.5767   46.1513   31.7921 H   0  0  0  0  0  0  0  0  0  0  0  0
    6.3181   45.0836   32.5446 H   0  0  0  0  0  0  0  0  0  0  0  0
    6.3125   44.1780   30.9913 H   0  0  0  0  0  0  0  0  0  0  0  0
    6.2470   46.2872   29.7234 H   0  0  0  0  0  0  0  0  0  0  0  0
    4.9240   46.2676   30.9287 H   0  0  0  0  0  0  0  0  0  0  0  0
    6.2849   47.7531   32.4217 H   0  0  0  0  0  0  0  0  0  0  0  0
    9.3236   50.3350   30.3158 H   0  0  0  0  0  0  0  0  0  0  0  0
    7.7723   51.0984   29.7665 H   0  0  0  0  0  0  0  0  0  0  0  0
    8.1151   50.8721   33.3960 H   0  0  0  0  0  0  0  0  0  0  0  0
    8.4555   52.7947   34.8681 H   0  0  0  0  0  0  0  0  0  0  0  0
    9.5388   55.2365   31.5294 H   0  0  0  0  0  0  0  0  0  0  0  0
    9.1490   54.9790   33.9412 H   0  0  0  0  0  0  0  0  0  0  0  0
   11.2095   41.0419   31.8823 H   0  0  0  0  0  0  0  0  0  0  0  0
    9.7449   40.0145   31.9261 H   0  0  0  0  0  0  0  0  0  0  0  0
   11.6266   39.0455   30.5888 H   0  0  0  0  0  0  0  0  0  0  0  0
   10.7064   37.5575   33.1485 H   0  0  0  0  0  0  0  0  0  0  0  0
   14.2021   37.4484   31.5574 H   0  0  0  0  0  0  0  0  0  0  0  0
   10.0952   37.3990   30.3433 H   0  0  0  0  0  0  0  0  0  0  0  0
   12.1163   35.7745   32.5634 H   0  0  0  0  0  0  0  0  0  0  0  0
   12.9614   35.5349   30.5312 H   0  0  0  0  0  0  0  0  0  0  0  0
   12.4321   38.3982   34.8705 H   0  0  0  0  0  0  0  0  0  0  0  0
   17.2669   34.4143   33.1690 H   0  0  0  0  0  0  0  0  0  0  0  0
   15.3761   36.1862   37.9792 H   0  0  0  0  0  0  0  0  0  0  0  0
   16.7641   35.0599   37.7896 H   0  0  0  0  0  0  0  0  0  0  0  0
  1  2  2  0
  1  3  1  0
  3  4  1  0
  4  5  1  0
  6  1  1  0
  7  6  1  0
  6  8  1  0
  8  9  1  0
  9 10  1  0
 10 11  1  0
 11 12  1  0
 12 13  1  0
 13 14  1  0
 13 15  2  0
 14 16  1  0
 16 17  1  0
 17 18  2  0
 19 17  1  0
 18 20  1  0
 21 19  2  0
 19 22  1  0
 20 23  2  0
 23 21  1  0
 22 24  1  0
 22 25  2  0
  4 26  2  0
  4 27  1  0
 28 27  1  0
 28 29  1  0
 29 30  1  0
 29 31  1  0
 30 32  1  0
 31 33  1  0
 31 34  1  0
 34 32  1  0
 32 35  1  0
 34 36  1  0
 37 35  1  0
 38 35  1  0
 39 37  2  0
 37 40  1  0
 41 38  2  0
 42 39  1  0
 40 43  2  0
 40 41  1  0
 44 42  2  0
 44 43  1  0
 43 45  1  0
  6 46  1  6
  7 47  1  0
  7 48  1  0
  8 49  1  0
  8 50  1  0
  9 51  1  0
  9 52  1  0
 10 53  1  0
 10 54  1  0
 11 55  1  0
 11 56  1  0
 12 57  1  0
 16 58  1  0
 16 59  1  0
 18 60  1  0
 20 61  1  0
 21 62  1  0
 23 63  1  0
 28 64  1  0
 28 65  1  0
 29 66  1  0
 31 67  1  0
 32 68  1  0
 33 69  1  0
 34 70  1  0
 36 71  1  0
 38 72  1  0
 42 73  1  0
 45 74  1  0
 45 75  1  0
M  CHG  3   5  -1  22   1  24  -1
M  END
>  <EmbedRMS>  (573) 
0.0739464946103

$$$$

     RDKit          3D

 75 78  0  0  0  0  0  0  0  0999 V2000
    9.4331   42.9366   34.3465 C   0  0  0  0  0  0  0  0  0  0  0  0
   10.4908   43.0331   35.0318 O   0  0  0  0  0  0  0  0  0  0  0  0
    8.8555   41.7105   34.0310 O   0  0  0  0  0  0  0  0  0  0  0  0
    9.4930   40.2143   34.4706 P   0  0  0  0  0  0  0  0  0  0  0  0
    9.7296   40.1727   36.1315 O   0  0  0  0  0  0  0  0  0  0  0  0
    8.7506   44.1349   33.7742 C   0  0  1  0  0  0  0  0  0  0  0  0
    9.2963   45.3821   34.3133 N   0  0  0  0  0  0  0  0  0  0  0  0
    8.8893   44.0527   32.2359 C   0  0  0  0  0  0  0  0  0  0  0  0
    8.2029   45.1822   31.4615 C   0  0  0  0  0  0  0  0  0  0  0  0
    6.6654   45.1045   31.4855 C   0  0  0  0  0  0  0  0  0  0  0  0
    6.0271   46.3225   30.8105 C   0  0  0  0  0  0  0  0  0  0  0  0
    6.5063   47.5639   31.4180 N   0  0  0  0  0  0  0  0  0  0  0  0
    7.2430   48.5395   30.6834 C   0  0  0  0  0  0  0  0  0  0  0  0
    7.5910   49.7412   31.3056 O   0  0  0  0  0  0  0  0  0  0  0  0
    7.5937   48.3117   29.4938 O   0  0  0  0  0  0  0  0  0  0  0  0
    8.3400   50.7611   30.6483 C   0  0  0  0  0  0  0  0  0  0  0  0
    8.5747   51.9555   31.5492 C   0  0  0  0  0  0  0  0  0  0  0  0
    7.8236   52.1070   32.7340 C   0  0  0  0  0  0  0  0  0  0  0  0
    9.5566   52.9337   31.2283 C   0  0  0  0  0  0  0  0  0  0  0  0
    8.0601   53.1772   33.5974 C   0  0  0  0  0  0  0  0  0  0  0  0
    9.7885   53.9939   32.1227 C   0  0  0  0  0  0  0  0  0  0  0  0
   10.3339   52.8673   30.0178 N   0  0  0  0  0  0  0  0  0  0  0  0
    9.0449   54.1142   33.2964 C   0  0  0  0  0  0  0  0  0  0  0  0
   11.6028   53.3990   29.9864 O   0  0  0  0  0  0  0  0  0  0  0  0
    9.8172   52.4881   28.9469 O   0  0  0  0  0  0  0  0  0  0  0  0
    8.5366   39.1382   34.0139 O   0  0  0  0  0  0  0  0  0  0  0  0
   10.9785   40.0883   33.6869 O   0  0  0  0  0  0  0  0  0  0  0  0
   10.7973   40.0895   32.2883 C   0  0  0  0  0  0  0  0  0  0  0  0
   11.5882   38.9234   31.7043 C   0  0  0  0  0  0  0  0  0  0  0  0
   12.9230   38.9440   32.1728 O   0  0  0  0  0  0  0  0  0  0  0  0
   11.0048   37.5703   32.0916 C   0  0  0  0  0  0  0  0  0  0  0  0
   13.3570   37.5960   32.2595 C   0  0  0  0  0  0  0  0  0  0  0  0
    9.9332   37.1986   31.2676 O   0  0  0  0  0  0  0  0  0  0  0  0
   12.1965   36.6751   31.8949 C   0  0  0  0  0  0  0  0  0  0  0  0
   13.8037   37.2979   33.6187 N   0  0  0  0  0  0  0  0  0  0  0  0
   12.2934   36.2389   30.5582 O   0  0  0  0  0  0  0  0  0  0  0  0
   14.7929   36.4726   33.9860 C   0  0  0  0  0  0  0  0  0  0  0  0
   13.2755   37.7304   34.7934 C   0  0  0  0  0  0  0  0  0  0  0  0
   15.6244   35.7585   33.1859 N   0  0  0  0  0  0  0  0  0  0  0  0
   14.8722   36.4406   35.3328 C   0  0  0  0  0  0  0  0  0  0  0  0
   13.9205   37.2262   35.8803 N   0  0  0  0  0  0  0  0  0  0  0  0
   16.5872   34.9923   33.7802 C   0  0  0  0  0  0  0  0  0  0  0  0
   15.8573   35.6715   35.9442 C   0  0  0  0  0  0  0  0  0  0  0  0
   16.7023   34.9584   35.1439 N   0  0  0  0  0  0  0  0  0  0  0  0
   16.0098   35.6383   37.3563 N   0  0  0  0  0  0  0  0  0  0  0  0
    7.6770   44.0708   34.0504 H   0  0  0  0  0  0  0  0  0  0  0  0
   10.3192   45.4407   34.1000 H   0  0  0  0  0  0  0  0  0  0  0  0
    9.1827   45.3822   35.3535 H   0  0  0  0  0  0  0  0  0  0  0  0
    9.9712   44.0680   31.9741 H   0  0  0  0  0  0  0  0  0  0  0  0
    8.4817   43.0850   31.8670 H   0  0  0  0  0  0  0  0  0  0  0  0
    8.5385   45.1361   30.4022 H   0  0  0  0  0  0  0  0  0  0  0  0
    8.5553   46.1509   31.8741 H   0  0  0  0  0  0  0  0  0  0  0  0
    6.3020   45.0643   32.5334 H   0  0  0  0  0  0  0  0  0  0  0  0
    6.3297   44.1799   30.9678 H   0  0  0  0  0  0  0  0  0  0  0  0
    4.9236   46.2672   30.9265 H   0  0  0  0  0  0  0  0  0  0  0  0
    6.2466   46.2897   29.7217 H   0  0  0  0  0  0  0  0  0  0  0  0
    6.2820   47.7531   32.4208 H   0  0  0  0  0  0  0  0  0  0  0  0
    9.3211   50.3318   30.3495 H   0  0  0  0  0  0  0  0  0  0  0  0
    7.7910   51.0933   29.7412 H   0  0  0  0  0  0  0  0  0  0  0  0
    7.0510   51.3980   33.0015 H   0  0  0  0  0  0  0  0  0  0  0  0
    7.4791   53.2778   34.5052 H   0  0  0  0  0  0  0  0  0  0  0  0
   10.5366   54.7443   31.9006 H   0  0  0  0  0  0  0  0  0  0  0  0
    9.2279   54.9412   33.9703 H   0  0  0  0  0  0  0  0  0  0  0  0
    9.7422   40.0187   31.9315 H   0  0  0  0  0  0  0  0  0  0  0  0
   11.2113   41.0390   31.8862 H   0  0  0  0  0  0  0  0  0  0  0  0
   11.5932   39.0396   30.5966 H   0  0  0  0  0  0  0  0  0  0  0  0
   10.6986   37.5585   33.1639 H   0  0  0  0  0  0  0  0  0  0  0  0
   14.2072   37.4492   31.5564 H   0  0  0  0  0  0  0  0  0  0  0  0
    9.5321   36.3881   31.6771 H   0  0  0  0  0  0  0  0  0  0  0  0
   12.1344   35.7838   32.5583 H   0  0  0  0  0  0  0  0  0  0  0  0
   12.4642   37.0179   29.9675 H   0  0  0  0  0  0  0  0  0  0  0  0
   12.4333   38.4005   34.8692 H   0  0  0  0  0  0  0  0  0  0  0  0
   17.2668   34.4144   33.1692 H   0  0  0  0  0  0  0  0  0  0  0  0
   16.7634   35.0600   37.7896 H   0  0  0  0  0  0  0  0  0  0  0  0
   15.3755   36.1866   37.9789 H   0  0  0  0  0  0  0  0  0  0  0  0
  1  2  2  0
  1  3  1  0
  3  4  1  0
  4  5  1  0
  6  1  1  0
  7  6  1  0
  6  8  1  0
  8  9  1  0
  9 10  1  0
 10 11  1  0
 11 12  1  0
 12 13  1  0
 13 14  1  0
 13 15  2  0
 14 16  1  0
 16 17  1  0
 17 18  2  0
 19 17  1  0
 18 20  1  0
 21 19  2  0
 19 22  1  0
 20 23  2  0
 23 21  1  0
 22 24  1  0
 22 25  2  0
  4 26  2  0
  4 27  1  0
 28 27  1  0
 28 29  1  0
 29 30  1  0
 29 31  1  0
 30 32  1  0
 31 33  1  0
 31 34  1  0
 34 32  1  0
 32 35  1  0
 34 36  1  0
 37 35  1  0
 38 35  1  0
 39 37  2  0
 37 40  1  0
 41 38  2  0
 42 39  1  0
 40 43  2  0
 40 41  1  0
 44 42  2  0
 44 43  1  0
 43 45  1  0
  6 46  1  6
  7 47  1  0
  7 48  1  0
  8 49  1  0
  8 50  1  0
  9 51  1  0
  9 52  1  0
 10 53  1  0
 10 54  1  0
 11 55  1  0
 11 56  1  0
 12 57  1  0
 16 58  1  0
 16 59  1  0
 18 60  1  0
 20 61  1  0
 21 62  1  0
 23 63  1  0
 28 64  1  0
 28 65  1  0
 29 66  1  0
 31 67  1  0
 32 68  1  0
 33 69  1  0
 34 70  1  0
 36 71  1  0
 38 72  1  0
 42 73  1  0
 45 74  1  0
 45 75  1  0
M  CHG  3   5  -1  22   1  24  -1
M  END
>  <EmbedRMS>  (574) 
0.0758784631765

$$$$

     RDKit          3D

 75 78  0  0  0  0  0  0  0  0999 V2000
    9.4309   42.9414   34.3439 C   0  0  0  0  0  0  0  0  0  0  0  0
   10.4884   43.0414   35.0294 O   0  0  0  0  0  0  0  0  0  0  0  0
    8.8561   41.7130   34.0289 O   0  0  0  0  0  0  0  0  0  0  0  0
    9.4947   40.2165   34.4679 P   0  0  0  0  0  0  0  0  0  0  0  0
    9.7311   40.1742   36.1290 O   0  0  0  0  0  0  0  0  0  0  0  0
    8.7479   44.1363   33.7723 C   0  0  1  0  0  0  0  0  0  0  0  0
    9.3031   45.3671   34.3389 N   0  0  0  0  0  0  0  0  0  0  0  0
    8.8889   44.0520   32.2311 C   0  0  0  0  0  0  0  0  0  0  0  0
    8.2016   45.1724   31.4439 C   0  0  0  0  0  0  0  0  0  0  0  0
    6.6643   45.1057   31.4858 C   0  0  0  0  0  0  0  0  0  0  0  0
    6.0283   46.3240   30.8096 C   0  0  0  0  0  0  0  0  0  0  0  0
    6.5091   47.5624   31.4214 N   0  0  0  0  0  0  0  0  0  0  0  0
    7.2518   48.5405   30.6850 C   0  0  0  0  0  0  0  0  0  0  0  0
    7.6487   49.7536   31.2642 O   0  0  0  0  0  0  0  0  0  0  0  0
    7.5841   48.3103   29.4931 O   0  0  0  0  0  0  0  0  0  0  0  0
    7.4198   50.1285   32.6233 C   0  0  0  0  0  0  0  0  0  0  0  0
    5.9528   50.3915   32.8911 C   0  0  0  0  0  0  0  0  0  0  0  0
    5.2151   51.1132   31.9334 C   0  0  0  0  0  0  0  0  0  0  0  0
    5.3272   50.0369   34.1166 C   0  0  0  0  0  0  0  0  0  0  0  0
    3.8801   51.4480   32.1638 C   0  0  0  0  0  0  0  0  0  0  0  0
    3.9882   50.3993   34.3370 C   0  0  0  0  0  0  0  0  0  0  0  0
    6.0330   49.3519   35.1617 N   0  0  0  0  0  0  0  0  0  0  0  0
    3.2674   51.0911   33.3632 C   0  0  0  0  0  0  0  0  0  0  0  0
    5.8913   49.7758   36.4627 O   0  0  0  0  0  0  0  0  0  0  0  0
    6.5361   48.2304   34.9474 O   0  0  0  0  0  0  0  0  0  0  0  0
    8.5375   39.1405   34.0127 O   0  0  0  0  0  0  0  0  0  0  0  0
   10.9805   40.0890   33.6836 O   0  0  0  0  0  0  0  0  0  0  0  0
   10.8025   40.0902   32.2837 C   0  0  0  0  0  0  0  0  0  0  0  0
   11.5888   38.9175   31.7008 C   0  0  0  0  0  0  0  0  0  0  0  0
   12.9219   38.9374   32.1692 O   0  0  0  0  0  0  0  0  0  0  0  0
   11.0028   37.5683   32.0981 C   0  0  0  0  0  0  0  0  0  0  0  0
   13.3496   37.5886   32.2601 C   0  0  0  0  0  0  0  0  0  0  0  0
    9.9343   37.1823   31.2757 O   0  0  0  0  0  0  0  0  0  0  0  0
   12.1890   36.6677   31.9050 C   0  0  0  0  0  0  0  0  0  0  0  0
   13.8025   37.2965   33.6186 N   0  0  0  0  0  0  0  0  0  0  0  0
   12.2990   36.2868   30.5568 O   0  0  0  0  0  0  0  0  0  0  0  0
   14.7929   36.4725   33.9858 C   0  0  0  0  0  0  0  0  0  0  0  0
   13.2749   37.7294   34.7936 C   0  0  0  0  0  0  0  0  0  0  0  0
   15.6240   35.7580   33.1858 N   0  0  0  0  0  0  0  0  0  0  0  0
   14.8727   36.4411   35.3327 C   0  0  0  0  0  0  0  0  0  0  0  0
   13.9208   37.2263   35.8803 N   0  0  0  0  0  0  0  0  0  0  0  0
   16.5871   34.9921   33.7801 C   0  0  0  0  0  0  0  0  0  0  0  0
   15.8576   35.6718   35.9441 C   0  0  0  0  0  0  0  0  0  0  0  0
   16.7024   34.9584   35.1438 N   0  0  0  0  0  0  0  0  0  0  0  0
   16.0099   35.6384   37.3562 N   0  0  0  0  0  0  0  0  0  0  0  0
    7.6758   44.0639   34.0547 H   0  0  0  0  0  0  0  0  0  0  0  0
    8.6456   46.1563   34.1438 H   0  0  0  0  0  0  0  0  0  0  0  0
   10.2141   45.5891   33.8745 H   0  0  0  0  0  0  0  0  0  0  0  0
    8.4826   43.0820   31.8669 H   0  0  0  0  0  0  0  0  0  0  0  0
    9.9706   44.0643   31.9684 H   0  0  0  0  0  0  0  0  0  0  0  0
    8.5220   45.0976   30.3815 H   0  0  0  0  0  0  0  0  0  0  0  0
    8.5702   46.1488   31.8195 H   0  0  0  0  0  0  0  0  0  0  0  0
    6.3122   45.0756   32.5378 H   0  0  0  0  0  0  0  0  0  0  0  0
    6.3162   44.1799   30.9784 H   0  0  0  0  0  0  0  0  0  0  0  0
    4.9247   46.2704   30.9256 H   0  0  0  0  0  0  0  0  0  0  0  0
    6.2480   46.2917   29.7210 H   0  0  0  0  0  0  0  0  0  0  0  0
    6.2855   47.7183   32.4265 H   0  0  0  0  0  0  0  0  0  0  0  0
    7.9704   51.0735   32.8125 H   0  0  0  0  0  0  0  0  0  0  0  0
    7.8619   49.3655   33.2915 H   0  0  0  0  0  0  0  0  0  0  0  0
    5.6771   51.4254   31.0049 H   0  0  0  0  0  0  0  0  0  0  0  0
    3.3231   51.9961   31.4149 H   0  0  0  0  0  0  0  0  0  0  0  0
    3.4993   50.1365   35.2668 H   0  0  0  0  0  0  0  0  0  0  0  0
    2.2340   51.3583   33.5428 H   0  0  0  0  0  0  0  0  0  0  0  0
   11.2256   41.0358   31.8824 H   0  0  0  0  0  0  0  0  0  0  0  0
    9.7476   40.0332   31.9256 H   0  0  0  0  0  0  0  0  0  0  0  0
   11.5975   39.0148   30.5905 H   0  0  0  0  0  0  0  0  0  0  0  0
   10.7023   37.5457   33.1720 H   0  0  0  0  0  0  0  0  0  0  0  0
   14.1957   37.4366   31.5528 H   0  0  0  0  0  0  0  0  0  0  0  0
    9.1339   37.6659   31.6070 H   0  0  0  0  0  0  0  0  0  0  0  0
   12.1380   35.7717   32.5698 H   0  0  0  0  0  0  0  0  0  0  0  0
   11.7706   35.4530   30.4497 H   0  0  0  0  0  0  0  0  0  0  0  0
   12.4314   38.3980   34.8694 H   0  0  0  0  0  0  0  0  0  0  0  0
   17.2665   34.4140   33.1691 H   0  0  0  0  0  0  0  0  0  0  0  0
   15.3757   36.1868   37.9789 H   0  0  0  0  0  0  0  0  0  0  0  0
   16.7633   35.0598   37.7895 H   0  0  0  0  0  0  0  0  0  0  0  0
  1  2  2  0
  1  3  1  0
  3  4  1  0
  4  5  1  0
  6  1  1  0
  7  6  1  0
  6  8  1  0
  8  9  1  0
  9 10  1  0
 10 11  1  0
 11 12  1  0
 12 13  1  0
 13 14  1  0
 13 15  2  0
 14 16  1  0
 16 17  1  0
 17 18  2  0
 19 17  1  0
 18 20  1  0
 21 19  2  0
 19 22  1  0
 20 23  2  0
 23 21  1  0
 22 24  1  0
 22 25  2  0
  4 26  2  0
  4 27  1  0
 28 27  1  0
 28 29  1  0
 29 30  1  0
 29 31  1  0
 30 32  1  0
 31 33  1  0
 31 34  1  0
 34 32  1  0
 32 35  1  0
 34 36  1  0
 37 35  1  0
 38 35  1  0
 39 37  2  0
 37 40  1  0
 41 38  2  0
 42 39  1  0
 40 43  2  0
 40 41  1  0
 44 42  2  0
 44 43  1  0
 43 45  1  0
  6 46  1  6
  7 47  1  0
  7 48  1  0
  8 49  1  0
  8 50  1  0
  9 51  1  0
  9 52  1  0
 10 53  1  0
 10 54  1  0
 11 55  1  0
 11 56  1  0
 12 57  1  0
 16 58  1  0
 16 59  1  0
 18 60  1  0
 20 61  1  0
 21 62  1  0
 23 63  1  0
 28 64  1  0
 28 65  1  0
 29 66  1  0
 31 67  1  0
 32 68  1  0
 33 69  1  0
 34 70  1  0
 36 71  1  0
 38 72  1  0
 42 73  1  0
 45 74  1  0
 45 75  1  0
M  CHG  3   5  -1  22   1  24  -1
M  END
>  <EmbedRMS>  (575) 
0.0734080267481

$$$$

     RDKit          3D

 75 78  0  0  0  0  0  0  0  0999 V2000
    9.4333   42.9365   34.3462 C   0  0  0  0  0  0  0  0  0  0  0  0
   10.4907   43.0330   35.0319 O   0  0  0  0  0  0  0  0  0  0  0  0
    8.8563   41.7104   34.0296 O   0  0  0  0  0  0  0  0  0  0  0  0
    9.4945   40.2141   34.4680 P   0  0  0  0  0  0  0  0  0  0  0  0
    9.7309   40.1726   36.1291 O   0  0  0  0  0  0  0  0  0  0  0  0
    8.7506   44.1348   33.7741 C   0  0  1  0  0  0  0  0  0  0  0  0
    9.2963   45.3820   34.3133 N   0  0  0  0  0  0  0  0  0  0  0  0
    8.8893   44.0527   32.2358 C   0  0  0  0  0  0  0  0  0  0  0  0
    8.2029   45.1822   31.4613 C   0  0  0  0  0  0  0  0  0  0  0  0
    6.6654   45.1046   31.4854 C   0  0  0  0  0  0  0  0  0  0  0  0
    6.0272   46.3228   30.8107 C   0  0  0  0  0  0  0  0  0  0  0  0
    6.5072   47.5640   31.4182 N   0  0  0  0  0  0  0  0  0  0  0  0
    7.2415   48.5407   30.6827 C   0  0  0  0  0  0  0  0  0  0  0  0
    7.5876   49.7441   31.3063 O   0  0  0  0  0  0  0  0  0  0  0  0
    7.5942   48.3104   29.4946 O   0  0  0  0  0  0  0  0  0  0  0  0
    8.2783   50.8049   30.6484 C   0  0  0  0  0  0  0  0  0  0  0  0
    7.3679   51.5128   29.6725 C   0  0  0  0  0  0  0  0  0  0  0  0
    7.5288   51.2569   28.2980 C   0  0  0  0  0  0  0  0  0  0  0  0
    6.3920   52.4572   30.0927 C   0  0  0  0  0  0  0  0  0  0  0  0
    6.7407   51.9137   27.3528 C   0  0  0  0  0  0  0  0  0  0  0  0
    5.6180   53.1180   29.1202 C   0  0  0  0  0  0  0  0  0  0  0  0
    6.1922   52.7826   31.4814 N   0  0  0  0  0  0  0  0  0  0  0  0
    5.7881   52.8434   27.7629 C   0  0  0  0  0  0  0  0  0  0  0  0
    6.2405   51.8074   32.4496 O   0  0  0  0  0  0  0  0  0  0  0  0
    5.8179   53.9285   31.8065 O   0  0  0  0  0  0  0  0  0  0  0  0
    8.5372   39.1386   34.0125 O   0  0  0  0  0  0  0  0  0  0  0  0
   10.9804   40.0880   33.6837 O   0  0  0  0  0  0  0  0  0  0  0  0
   10.8025   40.0899   32.2839 C   0  0  0  0  0  0  0  0  0  0  0  0
   11.5888   38.9174   31.7007 C   0  0  0  0  0  0  0  0  0  0  0  0
   12.9219   38.9373   32.1692 O   0  0  0  0  0  0  0  0  0  0  0  0
   11.0028   37.5682   32.0980 C   0  0  0  0  0  0  0  0  0  0  0  0
   13.3496   37.5885   32.2601 C   0  0  0  0  0  0  0  0  0  0  0  0
    9.9343   37.1822   31.2756 O   0  0  0  0  0  0  0  0  0  0  0  0
   12.1891   36.6677   31.9049 C   0  0  0  0  0  0  0  0  0  0  0  0
   13.8025   37.2965   33.6186 N   0  0  0  0  0  0  0  0  0  0  0  0
   12.2991   36.2867   30.5567 O   0  0  0  0  0  0  0  0  0  0  0  0
   14.7929   36.4725   33.9858 C   0  0  0  0  0  0  0  0  0  0  0  0
   13.2749   37.7294   34.7935 C   0  0  0  0  0  0  0  0  0  0  0  0
   15.6240   35.7580   33.1858 N   0  0  0  0  0  0  0  0  0  0  0  0
   14.8727   36.4411   35.3327 C   0  0  0  0  0  0  0  0  0  0  0  0
   13.9208   37.2263   35.8803 N   0  0  0  0  0  0  0  0  0  0  0  0
   16.5871   34.9921   33.7801 C   0  0  0  0  0  0  0  0  0  0  0  0
   15.8576   35.6718   35.9441 C   0  0  0  0  0  0  0  0  0  0  0  0
   16.7024   34.9584   35.1438 N   0  0  0  0  0  0  0  0  0  0  0  0
   16.0099   35.6384   37.3562 N   0  0  0  0  0  0  0  0  0  0  0  0
    7.6770   44.0706   34.0503 H   0  0  0  0  0  0  0  0  0  0  0  0
    9.1827   45.3820   35.3534 H   0  0  0  0  0  0  0  0  0  0  0  0
   10.3192   45.4406   34.0999 H   0  0  0  0  0  0  0  0  0  0  0  0
    8.4816   43.0850   31.8668 H   0  0  0  0  0  0  0  0  0  0  0  0
    9.9711   44.0680   31.9739 H   0  0  0  0  0  0  0  0  0  0  0  0
    8.5554   46.1509   31.8740 H   0  0  0  0  0  0  0  0  0  0  0  0
    8.5385   45.1361   30.4021 H   0  0  0  0  0  0  0  0  0  0  0  0
    6.3020   45.0641   32.5332 H   0  0  0  0  0  0  0  0  0  0  0  0
    6.3296   44.1801   30.9674 H   0  0  0  0  0  0  0  0  0  0  0  0
    6.2462   46.2901   29.7218 H   0  0  0  0  0  0  0  0  0  0  0  0
    4.9238   46.2680   30.9271 H   0  0  0  0  0  0  0  0  0  0  0  0
    6.2827   47.7534   32.4209 H   0  0  0  0  0  0  0  0  0  0  0  0
    8.6473   51.5285   31.4051 H   0  0  0  0  0  0  0  0  0  0  0  0
    9.1810   50.3992   30.1402 H   0  0  0  0  0  0  0  0  0  0  0  0
    8.2716   50.5480   27.9536 H   0  0  0  0  0  0  0  0  0  0  0  0
    6.8736   51.7053   26.2990 H   0  0  0  0  0  0  0  0  0  0  0  0
    4.8696   53.8424   29.4158 H   0  0  0  0  0  0  0  0  0  0  0  0
    5.1805   53.3546   27.0273 H   0  0  0  0  0  0  0  0  0  0  0  0
   11.2258   41.0357   31.8830 H   0  0  0  0  0  0  0  0  0  0  0  0
    9.7476   40.0331   31.9256 H   0  0  0  0  0  0  0  0  0  0  0  0
   11.5974   39.0148   30.5904 H   0  0  0  0  0  0  0  0  0  0  0  0
   10.7023   37.5455   33.1719 H   0  0  0  0  0  0  0  0  0  0  0  0
   14.1957   37.4366   31.5528 H   0  0  0  0  0  0  0  0  0  0  0  0
    9.1339   37.6658   31.6069 H   0  0  0  0  0  0  0  0  0  0  0  0
   12.1381   35.7717   32.5697 H   0  0  0  0  0  0  0  0  0  0  0  0
   11.7707   35.4530   30.4496 H   0  0  0  0  0  0  0  0  0  0  0  0
   12.4314   38.3980   34.8694 H   0  0  0  0  0  0  0  0  0  0  0  0
   17.2665   34.4140   33.1691 H   0  0  0  0  0  0  0  0  0  0  0  0
   16.7633   35.0598   37.7895 H   0  0  0  0  0  0  0  0  0  0  0  0
   15.3757   36.1867   37.9789 H   0  0  0  0  0  0  0  0  0  0  0  0
  1  2  2  0
  1  3  1  0
  3  4  1  0
  4  5  1  0
  6  1  1  0
  7  6  1  0
  6  8  1  0
  8  9  1  0
  9 10  1  0
 10 11  1  0
 11 12  1  0
 12 13  1  0
 13 14  1  0
 13 15  2  0
 14 16  1  0
 16 17  1  0
 17 18  2  0
 19 17  1  0
 18 20  1  0
 21 19  2  0
 19 22  1  0
 20 23  2  0
 23 21  1  0
 22 24  1  0
 22 25  2  0
  4 26  2  0
  4 27  1  0
 28 27  1  0
 28 29  1  0
 29 30  1  0
 29 31  1  0
 30 32  1  0
 31 33  1  0
 31 34  1  0
 34 32  1  0
 32 35  1  0
 34 36  1  0
 37 35  1  0
 38 35  1  0
 39 37  2  0
 37 40  1  0
 41 38  2  0
 42 39  1  0
 40 43  2  0
 40 41  1  0
 44 42  2  0
 44 43  1  0
 43 45  1  0
  6 46  1  6
  7 47  1  0
  7 48  1  0
  8 49  1  0
  8 50  1  0
  9 51  1  0
  9 52  1  0
 10 53  1  0
 10 54  1  0
 11 55  1  0
 11 56  1  0
 12 57  1  0
 16 58  1  0
 16 59  1  0
 18 60  1  0
 20 61  1  0
 21 62  1  0
 23 63  1  0
 28 64  1  0
 28 65  1  0
 29 66  1  0
 31 67  1  0
 32 68  1  0
 33 69  1  0
 34 70  1  0
 36 71  1  0
 38 72  1  0
 42 73  1  0
 45 74  1  0
 45 75  1  0
M  CHG  3   5  -1  22   1  24  -1
M  END
>  <EmbedRMS>  (576) 
0.0741542653615

$$$$

     RDKit          3D

 75 78  0  0  0  0  0  0  0  0999 V2000
    9.4311   42.9416   34.3436 C   0  0  0  0  0  0  0  0  0  0  0  0
   10.4885   43.0412   35.0292 O   0  0  0  0  0  0  0  0  0  0  0  0
    8.8557   41.7132   34.0290 O   0  0  0  0  0  0  0  0  0  0  0  0
    9.4944   40.2165   34.4675 P   0  0  0  0  0  0  0  0  0  0  0  0
    9.7319   40.1741   36.1285 O   0  0  0  0  0  0  0  0  0  0  0  0
    8.7485   44.1368   33.7721 C   0  0  1  0  0  0  0  0  0  0  0  0
    9.3043   45.3674   34.3387 N   0  0  0  0  0  0  0  0  0  0  0  0
    8.8891   44.0530   32.2308 C   0  0  0  0  0  0  0  0  0  0  0  0
    8.2009   45.1735   31.4440 C   0  0  0  0  0  0  0  0  0  0  0  0
    6.6635   45.1067   31.4880 C   0  0  0  0  0  0  0  0  0  0  0  0
    6.0246   46.3225   30.8097 C   0  0  0  0  0  0  0  0  0  0  0  0
    6.5023   47.5643   31.4168 N   0  0  0  0  0  0  0  0  0  0  0  0
    7.2578   48.5307   30.6898 C   0  0  0  0  0  0  0  0  0  0  0  0
    7.6718   49.6960   31.3388 O   0  0  0  0  0  0  0  0  0  0  0  0
    7.5874   48.3148   29.4920 O   0  0  0  0  0  0  0  0  0  0  0  0
    8.5052   50.6704   30.7193 C   0  0  0  0  0  0  0  0  0  0  0  0
    8.9102   51.7090   31.7348 C   0  0  0  0  0  0  0  0  0  0  0  0
    8.6069   53.0591   31.4779 C   0  0  0  0  0  0  0  0  0  0  0  0
    9.5497   51.3618   32.9564 C   0  0  0  0  0  0  0  0  0  0  0  0
    8.9177   54.0494   32.4104 C   0  0  0  0  0  0  0  0  0  0  0  0
    9.8398   52.3755   33.8883 C   0  0  0  0  0  0  0  0  0  0  0  0
    9.8891   49.9996   33.2785 N   0  0  0  0  0  0  0  0  0  0  0  0
    9.5295   53.7080   33.6145 C   0  0  0  0  0  0  0  0  0  0  0  0
   10.3935   49.1530   32.3192 O   0  0  0  0  0  0  0  0  0  0  0  0
    9.8755   49.6164   34.4667 O   0  0  0  0  0  0  0  0  0  0  0  0
    8.5373   39.1403   34.0126 O   0  0  0  0  0  0  0  0  0  0  0  0
   10.9793   40.0896   33.6813 O   0  0  0  0  0  0  0  0  0  0  0  0
   10.7976   40.0845   32.2816 C   0  0  0  0  0  0  0  0  0  0  0  0
   11.5897   38.9147   31.7009 C   0  0  0  0  0  0  0  0  0  0  0  0
   12.9218   38.9385   32.1718 O   0  0  0  0  0  0  0  0  0  0  0  0
   11.0070   37.5655   32.0975 C   0  0  0  0  0  0  0  0  0  0  0  0
   13.3533   37.5910   32.2611 C   0  0  0  0  0  0  0  0  0  0  0  0
    9.9333   37.1935   31.2754 O   0  0  0  0  0  0  0  0  0  0  0  0
   12.1945   36.6672   31.9041 C   0  0  0  0  0  0  0  0  0  0  0  0
   13.8036   37.2970   33.6193 N   0  0  0  0  0  0  0  0  0  0  0  0
   12.2893   36.2849   30.5563 O   0  0  0  0  0  0  0  0  0  0  0  0
   14.7931   36.4723   33.9863 C   0  0  0  0  0  0  0  0  0  0  0  0
   13.2756   37.7298   34.7940 C   0  0  0  0  0  0  0  0  0  0  0  0
   15.6242   35.7580   33.1861 N   0  0  0  0  0  0  0  0  0  0  0  0
   14.8727   36.4407   35.3331 C   0  0  0  0  0  0  0  0  0  0  0  0
   13.9210   37.2262   35.8808 N   0  0  0  0  0  0  0  0  0  0  0  0
   16.5872   34.9920   33.7803 C   0  0  0  0  0  0  0  0  0  0  0  0
   15.8577   35.6715   35.9444 C   0  0  0  0  0  0  0  0  0  0  0  0
   16.7025   34.9582   35.1440 N   0  0  0  0  0  0  0  0  0  0  0  0
   16.0101   35.6382   37.3564 N   0  0  0  0  0  0  0  0  0  0  0  0
    7.6765   44.0646   34.0547 H   0  0  0  0  0  0  0  0  0  0  0  0
    8.6474   46.1571   34.1437 H   0  0  0  0  0  0  0  0  0  0  0  0
   10.2153   45.5893   33.8742 H   0  0  0  0  0  0  0  0  0  0  0  0
    8.4830   43.0829   31.8664 H   0  0  0  0  0  0  0  0  0  0  0  0
    9.9706   44.0658   31.9678 H   0  0  0  0  0  0  0  0  0  0  0  0
    8.5201   45.0986   30.3814 H   0  0  0  0  0  0  0  0  0  0  0  0
    8.5696   46.1502   31.8190 H   0  0  0  0  0  0  0  0  0  0  0  0
    6.3154   44.1794   30.9836 H   0  0  0  0  0  0  0  0  0  0  0  0
    6.3129   45.0790   32.5405 H   0  0  0  0  0  0  0  0  0  0  0  0
    4.9211   46.2666   30.9251 H   0  0  0  0  0  0  0  0  0  0  0  0
    6.2453   46.2887   29.7212 H   0  0  0  0  0  0  0  0  0  0  0  0
    6.2844   47.7494   32.4218 H   0  0  0  0  0  0  0  0  0  0  0  0
    9.4145   50.1917   30.2986 H   0  0  0  0  0  0  0  0  0  0  0  0
    7.9519   51.1291   29.8708 H   0  0  0  0  0  0  0  0  0  0  0  0
    8.1203   53.3491   30.5547 H   0  0  0  0  0  0  0  0  0  0  0  0
    8.6778   55.0839   32.2008 H   0  0  0  0  0  0  0  0  0  0  0  0
   10.3227   52.1340   34.8269 H   0  0  0  0  0  0  0  0  0  0  0  0
    9.7658   54.4779   34.3377 H   0  0  0  0  0  0  0  0  0  0  0  0
    9.7422   40.0118   31.9266 H   0  0  0  0  0  0  0  0  0  0  0  0
   11.2110   41.0321   31.8748 H   0  0  0  0  0  0  0  0  0  0  0  0
   11.6005   39.0120   30.5905 H   0  0  0  0  0  0  0  0  0  0  0  0
   10.7015   37.5595   33.1702 H   0  0  0  0  0  0  0  0  0  0  0  0
   14.2012   37.4439   31.5552 H   0  0  0  0  0  0  0  0  0  0  0  0
    9.5289   36.3870   31.6896 H   0  0  0  0  0  0  0  0  0  0  0  0
   12.1243   35.7694   32.5633 H   0  0  0  0  0  0  0  0  0  0  0  0
   12.9478   35.5427   30.5202 H   0  0  0  0  0  0  0  0  0  0  0  0
   12.4328   38.3994   34.8697 H   0  0  0  0  0  0  0  0  0  0  0  0
   17.2666   34.4140   33.1692 H   0  0  0  0  0  0  0  0  0  0  0  0
   15.3759   36.1865   37.9791 H   0  0  0  0  0  0  0  0  0  0  0  0
   16.7636   35.0598   37.7897 H   0  0  0  0  0  0  0  0  0  0  0  0
  1  2  2  0
  1  3  1  0
  3  4  1  0
  4  5  1  0
  6  1  1  0
  7  6  1  0
  6  8  1  0
  8  9  1  0
  9 10  1  0
 10 11  1  0
 11 12  1  0
 12 13  1  0
 13 14  1  0
 13 15  2  0
 14 16  1  0
 16 17  1  0
 17 18  2  0
 19 17  1  0
 18 20  1  0
 21 19  2  0
 19 22  1  0
 20 23  2  0
 23 21  1  0
 22 24  1  0
 22 25  2  0
  4 26  2  0
  4 27  1  0
 28 27  1  0
 28 29  1  0
 29 30  1  0
 29 31  1  0
 30 32  1  0
 31 33  1  0
 31 34  1  0
 34 32  1  0
 32 35  1  0
 34 36  1  0
 37 35  1  0
 38 35  1  0
 39 37  2  0
 37 40  1  0
 41 38  2  0
 42 39  1  0
 40 43  2  0
 40 41  1  0
 44 42  2  0
 44 43  1  0
 43 45  1  0
  6 46  1  6
  7 47  1  0
  7 48  1  0
  8 49  1  0
  8 50  1  0
  9 51  1  0
  9 52  1  0
 10 53  1  0
 10 54  1  0
 11 55  1  0
 11 56  1  0
 12 57  1  0
 16 58  1  0
 16 59  1  0
 18 60  1  0
 20 61  1  0
 21 62  1  0
 23 63  1  0
 28 64  1  0
 28 65  1  0
 29 66  1  0
 31 67  1  0
 32 68  1  0
 33 69  1  0
 34 70  1  0
 36 71  1  0
 38 72  1  0
 42 73  1  0
 45 74  1  0
 45 75  1  0
M  CHG  3   5  -1  22   1  24  -1
M  END
>  <EmbedRMS>  (577) 
0.0738086766792

$$$$

     RDKit          3D

 75 78  0  0  0  0  0  0  0  0999 V2000
    9.4337   42.9380   34.3448 C   0  0  0  0  0  0  0  0  0  0  0  0
   10.4909   43.0340   35.0310 O   0  0  0  0  0  0  0  0  0  0  0  0
    8.8560   41.7117   34.0292 O   0  0  0  0  0  0  0  0  0  0  0  0
    9.4928   40.2151   34.4699 P   0  0  0  0  0  0  0  0  0  0  0  0
    9.7290   40.1736   36.1309 O   0  0  0  0  0  0  0  0  0  0  0  0
    8.7516   44.1375   33.7730 C   0  0  1  0  0  0  0  0  0  0  0  0
    9.2971   45.3841   34.3138 N   0  0  0  0  0  0  0  0  0  0  0  0
    8.8910   44.0593   32.2346 C   0  0  0  0  0  0  0  0  0  0  0  0
    8.2017   45.1904   31.4631 C   0  0  0  0  0  0  0  0  0  0  0  0
    6.6636   45.1082   31.4849 C   0  0  0  0  0  0  0  0  0  0  0  0
    6.0174   46.3204   30.8031 C   0  0  0  0  0  0  0  0  0  0  0  0
    6.4793   47.5682   31.4098 N   0  0  0  0  0  0  0  0  0  0  0  0
    7.2940   48.5023   30.7063 C   0  0  0  0  0  0  0  0  0  0  0  0
    7.8746   49.5578   31.4138 O   0  0  0  0  0  0  0  0  0  0  0  0
    7.5790   48.3160   29.4924 O   0  0  0  0  0  0  0  0  0  0  0  0
    9.1298   50.1290   31.0521 C   0  0  0  0  0  0  0  0  0  0  0  0
   10.2275   49.0969   31.1922 C   0  0  0  0  0  0  0  0  0  0  0  0
   10.7607   48.5272   30.0208 C   0  0  0  0  0  0  0  0  0  0  0  0
   10.7198   48.6686   32.4578 C   0  0  0  0  0  0  0  0  0  0  0  0
   11.7551   47.5516   30.0897 C   0  0  0  0  0  0  0  0  0  0  0  0
   11.7340   47.6944   32.5001 C   0  0  0  0  0  0  0  0  0  0  0  0
   10.2373   49.2152   33.7007 N   0  0  0  0  0  0  0  0  0  0  0  0
   12.2402   47.1357   31.3267 C   0  0  0  0  0  0  0  0  0  0  0  0
   11.0600   49.2388   34.8037 O   0  0  0  0  0  0  0  0  0  0  0  0
    9.0385   49.5274   33.8456 O   0  0  0  0  0  0  0  0  0  0  0  0
    8.5364   39.1390   34.0134 O   0  0  0  0  0  0  0  0  0  0  0  0
   10.9787   40.0868   33.6872 O   0  0  0  0  0  0  0  0  0  0  0  0
   10.7994   40.0946   32.2884 C   0  0  0  0  0  0  0  0  0  0  0  0
   11.5957   38.9351   31.6993 C   0  0  0  0  0  0  0  0  0  0  0  0
   12.9257   38.9478   32.1798 O   0  0  0  0  0  0  0  0  0  0  0  0
   11.0070   37.5758   32.0732 C   0  0  0  0  0  0  0  0  0  0  0  0
   13.3571   37.5980   32.2612 C   0  0  0  0  0  0  0  0  0  0  0  0
    9.9093   37.1808   31.2875 O   0  0  0  0  0  0  0  0  0  0  0  0
   12.1967   36.6764   31.8894 C   0  0  0  0  0  0  0  0  0  0  0  0
   13.8018   37.2956   33.6197 N   0  0  0  0  0  0  0  0  0  0  0  0
   12.3048   36.2360   30.5555 O   0  0  0  0  0  0  0  0  0  0  0  0
   14.7922   36.4716   33.9864 C   0  0  0  0  0  0  0  0  0  0  0  0
   13.2747   37.7291   34.7944 C   0  0  0  0  0  0  0  0  0  0  0  0
   15.6240   35.7581   33.1861 N   0  0  0  0  0  0  0  0  0  0  0  0
   14.8721   36.4401   35.3331 C   0  0  0  0  0  0  0  0  0  0  0  0
   13.9206   37.2257   35.8810 N   0  0  0  0  0  0  0  0  0  0  0  0
   16.5873   34.9924   33.7802 C   0  0  0  0  0  0  0  0  0  0  0  0
   15.8576   35.6714   35.9444 C   0  0  0  0  0  0  0  0  0  0  0  0
   16.7026   34.9585   35.1439 N   0  0  0  0  0  0  0  0  0  0  0  0
   16.0102   35.6382   37.3564 N   0  0  0  0  0  0  0  0  0  0  0  0
    7.6778   44.0734   34.0482 H   0  0  0  0  0  0  0  0  0  0  0  0
    9.1820   45.3841   35.3537 H   0  0  0  0  0  0  0  0  0  0  0  0
   10.3202   45.4421   34.1022 H   0  0  0  0  0  0  0  0  0  0  0  0
    9.9730   44.0797   31.9735 H   0  0  0  0  0  0  0  0  0  0  0  0
    8.4865   43.0915   31.8628 H   0  0  0  0  0  0  0  0  0  0  0  0
    8.5498   46.1592   31.8800 H   0  0  0  0  0  0  0  0  0  0  0  0
    8.5398   45.1507   30.4044 H   0  0  0  0  0  0  0  0  0  0  0  0
    6.3327   44.1798   30.9710 H   0  0  0  0  0  0  0  0  0  0  0  0
    6.2996   45.0702   32.5326 H   0  0  0  0  0  0  0  0  0  0  0  0
    6.2444   46.2874   29.7159 H   0  0  0  0  0  0  0  0  0  0  0  0
    4.9137   46.2548   30.9110 H   0  0  0  0  0  0  0  0  0  0  0  0
    6.2643   47.7476   32.4165 H   0  0  0  0  0  0  0  0  0  0  0  0
    9.3456   50.9991   31.7068 H   0  0  0  0  0  0  0  0  0  0  0  0
    9.0689   50.5201   30.0126 H   0  0  0  0  0  0  0  0  0  0  0  0
   10.3986   48.8319   29.0466 H   0  0  0  0  0  0  0  0  0  0  0  0
   12.1503   47.1172   29.1805 H   0  0  0  0  0  0  0  0  0  0  0  0
   12.1249   47.3512   33.4495 H   0  0  0  0  0  0  0  0  0  0  0  0
   13.0119   46.3784   31.3775 H   0  0  0  0  0  0  0  0  0  0  0  0
   11.2096   41.0481   31.8921 H   0  0  0  0  0  0  0  0  0  0  0  0
    9.7450   40.0202   31.9301 H   0  0  0  0  0  0  0  0  0  0  0  0
   11.6207   39.0686   30.5942 H   0  0  0  0  0  0  0  0  0  0  0  0
   10.7059   37.5564   33.1438 H   0  0  0  0  0  0  0  0  0  0  0  0
   14.2095   37.4543   31.5601 H   0  0  0  0  0  0  0  0  0  0  0  0
   10.0864   37.4210   30.3413 H   0  0  0  0  0  0  0  0  0  0  0  0
   12.1275   35.7872   32.5550 H   0  0  0  0  0  0  0  0  0  0  0  0
   12.5031   37.0109   29.9672 H   0  0  0  0  0  0  0  0  0  0  0  0
   12.4328   38.3997   34.8703 H   0  0  0  0  0  0  0  0  0  0  0  0
   17.2670   34.4149   33.1691 H   0  0  0  0  0  0  0  0  0  0  0  0
   15.3758   36.1862   37.9792 H   0  0  0  0  0  0  0  0  0  0  0  0
   16.7640   35.0601   37.7896 H   0  0  0  0  0  0  0  0  0  0  0  0
  1  2  2  0
  1  3  1  0
  3  4  1  0
  4  5  1  0
  6  1  1  0
  7  6  1  0
  6  8  1  0
  8  9  1  0
  9 10  1  0
 10 11  1  0
 11 12  1  0
 12 13  1  0
 13 14  1  0
 13 15  2  0
 14 16  1  0
 16 17  1  0
 17 18  2  0
 19 17  1  0
 18 20  1  0
 21 19  2  0
 19 22  1  0
 20 23  2  0
 23 21  1  0
 22 24  1  0
 22 25  2  0
  4 26  2  0
  4 27  1  0
 28 27  1  0
 28 29  1  0
 29 30  1  0
 29 31  1  0
 30 32  1  0
 31 33  1  0
 31 34  1  0
 34 32  1  0
 32 35  1  0
 34 36  1  0
 37 35  1  0
 38 35  1  0
 39 37  2  0
 37 40  1  0
 41 38  2  0
 42 39  1  0
 40 43  2  0
 40 41  1  0
 44 42  2  0
 44 43  1  0
 43 45  1  0
  6 46  1  6
  7 47  1  0
  7 48  1  0
  8 49  1  0
  8 50  1  0
  9 51  1  0
  9 52  1  0
 10 53  1  0
 10 54  1  0
 11 55  1  0
 11 56  1  0
 12 57  1  0
 16 58  1  0
 16 59  1  0
 18 60  1  0
 20 61  1  0
 21 62  1  0
 23 63  1  0
 28 64  1  0
 28 65  1  0
 29 66  1  0
 31 67  1  0
 32 68  1  0
 33 69  1  0
 34 70  1  0
 36 71  1  0
 38 72  1  0
 42 73  1  0
 45 74  1  0
 45 75  1  0
M  CHG  3   5  -1  22   1  24  -1
M  END
>  <EmbedRMS>  (578) 
0.0784834194941

$$$$

     RDKit          3D

 75 78  0  0  0  0  0  0  0  0999 V2000
    9.4299   42.9396   34.3433 C   0  0  0  0  0  0  0  0  0  0  0  0
   10.4912   43.0380   35.0234 O   0  0  0  0  0  0  0  0  0  0  0  0
    8.8546   41.7117   34.0285 O   0  0  0  0  0  0  0  0  0  0  0  0
    9.4942   40.2157   34.4672 P   0  0  0  0  0  0  0  0  0  0  0  0
    9.7316   40.1738   36.1283 O   0  0  0  0  0  0  0  0  0  0  0  0
    8.7413   44.1381   33.7786 C   0  0  1  0  0  0  0  0  0  0  0  0
    9.3021   45.3720   34.3325 N   0  0  0  0  0  0  0  0  0  0  0  0
    8.8963   44.0598   32.2399 C   0  0  0  0  0  0  0  0  0  0  0  0
    8.2024   45.1694   31.4402 C   0  0  0  0  0  0  0  0  0  0  0  0
    6.6650   45.1064   31.4907 C   0  0  0  0  0  0  0  0  0  0  0  0
    6.0265   46.3217   30.8111 C   0  0  0  0  0  0  0  0  0  0  0  0
    6.5045   47.5640   31.4175 N   0  0  0  0  0  0  0  0  0  0  0  0
    7.2501   48.5352   30.6863 C   0  0  0  0  0  0  0  0  0  0  0  0
    7.6306   49.7197   31.3214 O   0  0  0  0  0  0  0  0  0  0  0  0
    7.5907   48.3125   29.4928 O   0  0  0  0  0  0  0  0  0  0  0  0
    8.4305   50.7111   30.6861 C   0  0  0  0  0  0  0  0  0  0  0  0
    8.7236   51.8196   31.6626 C   0  0  0  0  0  0  0  0  0  0  0  0
    7.9397   52.9865   31.6093 C   0  0  0  0  0  0  0  0  0  0  0  0
    9.7774   51.7328   32.6117 C   0  0  0  0  0  0  0  0  0  0  0  0
    8.2004   54.0593   32.4626 C   0  0  0  0  0  0  0  0  0  0  0  0
   10.0322   52.8329   33.4518 C   0  0  0  0  0  0  0  0  0  0  0  0
   10.6013   50.5577   32.7288 N   0  0  0  0  0  0  0  0  0  0  0  0
    9.2476   53.9846   33.3785 C   0  0  0  0  0  0  0  0  0  0  0  0
   10.0525   49.3006   32.6279 O   0  0  0  0  0  0  0  0  0  0  0  0
   11.7927   50.6630   33.0872 O   0  0  0  0  0  0  0  0  0  0  0  0
    8.5375   39.1391   34.0123 O   0  0  0  0  0  0  0  0  0  0  0  0
   10.9794   40.0897   33.6813 O   0  0  0  0  0  0  0  0  0  0  0  0
   10.7981   40.0850   32.2816 C   0  0  0  0  0  0  0  0  0  0  0  0
   11.5886   38.9142   31.7009 C   0  0  0  0  0  0  0  0  0  0  0  0
   12.9213   38.9368   32.1699 O   0  0  0  0  0  0  0  0  0  0  0  0
   11.0047   37.5661   32.0991 C   0  0  0  0  0  0  0  0  0  0  0  0
   13.3510   37.5885   32.2601 C   0  0  0  0  0  0  0  0  0  0  0  0
    9.9296   37.1961   31.2780 O   0  0  0  0  0  0  0  0  0  0  0  0
   12.1923   36.6659   31.9047 C   0  0  0  0  0  0  0  0  0  0  0  0
   13.8033   37.2967   33.6188 N   0  0  0  0  0  0  0  0  0  0  0  0
   12.3007   36.2865   30.5562 O   0  0  0  0  0  0  0  0  0  0  0  0
   14.7933   36.4724   33.9860 C   0  0  0  0  0  0  0  0  0  0  0  0
   13.2753   37.7296   34.7935 C   0  0  0  0  0  0  0  0  0  0  0  0
   15.6243   35.7579   33.1860 N   0  0  0  0  0  0  0  0  0  0  0  0
   14.8728   36.4410   35.3328 C   0  0  0  0  0  0  0  0  0  0  0  0
   13.9209   37.2263   35.8804 N   0  0  0  0  0  0  0  0  0  0  0  0
   16.5873   34.9919   33.7803 C   0  0  0  0  0  0  0  0  0  0  0  0
   15.8577   35.6716   35.9443 C   0  0  0  0  0  0  0  0  0  0  0  0
   16.7025   34.9583   35.1440 N   0  0  0  0  0  0  0  0  0  0  0  0
   16.0100   35.6384   37.3563 N   0  0  0  0  0  0  0  0  0  0  0  0
    7.6669   44.0659   34.0548 H   0  0  0  0  0  0  0  0  0  0  0  0
    9.2332   45.3280   35.3759 H   0  0  0  0  0  0  0  0  0  0  0  0
    8.6825   46.1676   34.0580 H   0  0  0  0  0  0  0  0  0  0  0  0
    8.5085   43.0845   31.8694 H   0  0  0  0  0  0  0  0  0  0  0  0
    9.9809   44.0915   31.9915 H   0  0  0  0  0  0  0  0  0  0  0  0
    8.5157   45.0767   30.3772 H   0  0  0  0  0  0  0  0  0  0  0  0
    8.5761   46.1522   31.7925 H   0  0  0  0  0  0  0  0  0  0  0  0
    6.3128   44.1778   30.9914 H   0  0  0  0  0  0  0  0  0  0  0  0
    6.3176   45.0840   32.5443 H   0  0  0  0  0  0  0  0  0  0  0  0
    6.2472   46.2869   29.7226 H   0  0  0  0  0  0  0  0  0  0  0  0
    4.9230   46.2662   30.9266 H   0  0  0  0  0  0  0  0  0  0  0  0
    6.2836   47.7516   32.4214 H   0  0  0  0  0  0  0  0  0  0  0  0
    7.8849   51.1046   29.8002 H   0  0  0  0  0  0  0  0  0  0  0  0
    9.3792   50.2672   30.3142 H   0  0  0  0  0  0  0  0  0  0  0  0
    7.1257   53.0699   30.8995 H   0  0  0  0  0  0  0  0  0  0  0  0
    7.5915   54.9527   32.4098 H   0  0  0  0  0  0  0  0  0  0  0  0
   10.8328   52.7920   34.1796 H   0  0  0  0  0  0  0  0  0  0  0  0
    9.4499   54.8196   34.0369 H   0  0  0  0  0  0  0  0  0  0  0  0
    9.7426   40.0141   31.9263 H   0  0  0  0  0  0  0  0  0  0  0  0
   11.2130   41.0321   31.8751 H   0  0  0  0  0  0  0  0  0  0  0  0
   11.5981   39.0107   30.5904 H   0  0  0  0  0  0  0  0  0  0  0  0
   10.7008   37.5603   33.1721 H   0  0  0  0  0  0  0  0  0  0  0  0
   14.1977   37.4380   31.5532 H   0  0  0  0  0  0  0  0  0  0  0  0
    9.5180   36.3961   31.6978 H   0  0  0  0  0  0  0  0  0  0  0  0
   12.1418   35.7698   32.5692 H   0  0  0  0  0  0  0  0  0  0  0  0
   11.7729   35.4524   30.4489 H   0  0  0  0  0  0  0  0  0  0  0  0
   12.4321   38.3985   34.8692 H   0  0  0  0  0  0  0  0  0  0  0  0
   17.2667   34.4138   33.1694 H   0  0  0  0  0  0  0  0  0  0  0  0
   16.7634   35.0598   37.7897 H   0  0  0  0  0  0  0  0  0  0  0  0
   15.3757   36.1867   37.9790 H   0  0  0  0  0  0  0  0  0  0  0  0
  1  2  2  0
  1  3  1  0
  3  4  1  0
  4  5  1  0
  6  1  1  0
  7  6  1  0
  6  8  1  0
  8  9  1  0
  9 10  1  0
 10 11  1  0
 11 12  1  0
 12 13  1  0
 13 14  1  0
 13 15  2  0
 14 16  1  0
 16 17  1  0
 17 18  2  0
 19 17  1  0
 18 20  1  0
 21 19  2  0
 19 22  1  0
 20 23  2  0
 23 21  1  0
 22 24  1  0
 22 25  2  0
  4 26  2  0
  4 27  1  0
 28 27  1  0
 28 29  1  0
 29 30  1  0
 29 31  1  0
 30 32  1  0
 31 33  1  0
 31 34  1  0
 34 32  1  0
 32 35  1  0
 34 36  1  0
 37 35  1  0
 38 35  1  0
 39 37  2  0
 37 40  1  0
 41 38  2  0
 42 39  1  0
 40 43  2  0
 40 41  1  0
 44 42  2  0
 44 43  1  0
 43 45  1  0
  6 46  1  6
  7 47  1  0
  7 48  1  0
  8 49  1  0
  8 50  1  0
  9 51  1  0
  9 52  1  0
 10 53  1  0
 10 54  1  0
 11 55  1  0
 11 56  1  0
 12 57  1  0
 16 58  1  0
 16 59  1  0
 18 60  1  0
 20 61  1  0
 21 62  1  0
 23 63  1  0
 28 64  1  0
 28 65  1  0
 29 66  1  0
 31 67  1  0
 32 68  1  0
 33 69  1  0
 34 70  1  0
 36 71  1  0
 38 72  1  0
 42 73  1  0
 45 74  1  0
 45 75  1  0
M  CHG  3   5  -1  22   1  24  -1
M  END
>  <EmbedRMS>  (579) 
0.0739054169713

$$$$

     RDKit          3D

 75 78  0  0  0  0  0  0  0  0999 V2000
    9.4332   42.9364   34.3461 C   0  0  0  0  0  0  0  0  0  0  0  0
   10.4907   43.0329   35.0319 O   0  0  0  0  0  0  0  0  0  0  0  0
    8.8563   41.7102   34.0295 O   0  0  0  0  0  0  0  0  0  0  0  0
    9.4943   40.2139   34.4679 P   0  0  0  0  0  0  0  0  0  0  0  0
    9.7310   40.1724   36.1290 O   0  0  0  0  0  0  0  0  0  0  0  0
    8.7506   44.1347   33.7741 C   0  0  1  0  0  0  0  0  0  0  0  0
    9.2963   45.3819   34.3133 N   0  0  0  0  0  0  0  0  0  0  0  0
    8.8893   44.0526   32.2358 C   0  0  0  0  0  0  0  0  0  0  0  0
    8.2029   45.1822   31.4613 C   0  0  0  0  0  0  0  0  0  0  0  0
    6.6654   45.1045   31.4852 C   0  0  0  0  0  0  0  0  0  0  0  0
    6.0273   46.3229   30.8106 C   0  0  0  0  0  0  0  0  0  0  0  0
    6.5075   47.5640   31.4182 N   0  0  0  0  0  0  0  0  0  0  0  0
    7.2413   48.5412   30.6828 C   0  0  0  0  0  0  0  0  0  0  0  0
    7.5900   49.7431   31.3095 O   0  0  0  0  0  0  0  0  0  0  0  0
    7.5942   48.3101   29.4947 O   0  0  0  0  0  0  0  0  0  0  0  0
    8.2573   50.8228   30.6554 C   0  0  0  0  0  0  0  0  0  0  0  0
    7.2519   51.8586   30.2031 C   0  0  0  0  0  0  0  0  0  0  0  0
    6.3032   51.4900   29.2314 C   0  0  0  0  0  0  0  0  0  0  0  0
    7.1949   53.1655   30.7578 C   0  0  0  0  0  0  0  0  0  0  0  0
    5.2980   52.3763   28.8415 C   0  0  0  0  0  0  0  0  0  0  0  0
    6.1632   54.0359   30.3682 C   0  0  0  0  0  0  0  0  0  0  0  0
    8.1720   53.6351   31.6972 N   0  0  0  0  0  0  0  0  0  0  0  0
    5.2222   53.6434   29.4159 C   0  0  0  0  0  0  0  0  0  0  0  0
    7.7697   54.3850   32.7781 O   0  0  0  0  0  0  0  0  0  0  0  0
    9.3835   53.6130   31.3972 O   0  0  0  0  0  0  0  0  0  0  0  0
    8.5372   39.1382   34.0121 O   0  0  0  0  0  0  0  0  0  0  0  0
   10.9798   40.0870   33.6829 O   0  0  0  0  0  0  0  0  0  0  0  0
   10.8002   40.0905   32.2832 C   0  0  0  0  0  0  0  0  0  0  0  0
   11.5958   38.9270   31.6963 C   0  0  0  0  0  0  0  0  0  0  0  0
   12.9239   38.9409   32.1766 O   0  0  0  0  0  0  0  0  0  0  0  0
   11.0062   37.5718   32.0793 C   0  0  0  0  0  0  0  0  0  0  0  0
   13.3507   37.5905   32.2614 C   0  0  0  0  0  0  0  0  0  0  0  0
    9.9064   37.1792   31.2946 O   0  0  0  0  0  0  0  0  0  0  0  0
   12.1920   36.6671   31.9003 C   0  0  0  0  0  0  0  0  0  0  0  0
   13.8018   37.2948   33.6193 N   0  0  0  0  0  0  0  0  0  0  0  0
   12.3134   36.2787   30.5560 O   0  0  0  0  0  0  0  0  0  0  0  0
   14.7927   36.4716   33.9861 C   0  0  0  0  0  0  0  0  0  0  0  0
   13.2747   37.7284   34.7941 C   0  0  0  0  0  0  0  0  0  0  0  0
   15.6240   35.7576   33.1859 N   0  0  0  0  0  0  0  0  0  0  0  0
   14.8728   36.4406   35.3329 C   0  0  0  0  0  0  0  0  0  0  0  0
   13.9209   37.2258   35.8807 N   0  0  0  0  0  0  0  0  0  0  0  0
   16.5874   34.9920   33.7802 C   0  0  0  0  0  0  0  0  0  0  0  0
   15.8579   35.6716   35.9443 C   0  0  0  0  0  0  0  0  0  0  0  0
   16.7028   34.9584   35.1439 N   0  0  0  0  0  0  0  0  0  0  0  0
   16.0103   35.6383   37.3563 N   0  0  0  0  0  0  0  0  0  0  0  0
    7.6770   44.0706   34.0503 H   0  0  0  0  0  0  0  0  0  0  0  0
    9.1827   45.3819   35.3534 H   0  0  0  0  0  0  0  0  0  0  0  0
   10.3192   45.4406   34.0999 H   0  0  0  0  0  0  0  0  0  0  0  0
    8.4816   43.0850   31.8668 H   0  0  0  0  0  0  0  0  0  0  0  0
    9.9711   44.0680   31.9739 H   0  0  0  0  0  0  0  0  0  0  0  0
    8.5386   45.1361   30.4021 H   0  0  0  0  0  0  0  0  0  0  0  0
    8.5554   46.1508   31.8741 H   0  0  0  0  0  0  0  0  0  0  0  0
    6.3020   45.0639   32.5330 H   0  0  0  0  0  0  0  0  0  0  0  0
    6.3296   44.1801   30.9672 H   0  0  0  0  0  0  0  0  0  0  0  0
    4.9238   46.2681   30.9272 H   0  0  0  0  0  0  0  0  0  0  0  0
    6.2461   46.2902   29.7217 H   0  0  0  0  0  0  0  0  0  0  0  0
    6.2836   47.7527   32.4212 H   0  0  0  0  0  0  0  0  0  0  0  0
    8.8525   50.4660   29.7870 H   0  0  0  0  0  0  0  0  0  0  0  0
    8.9805   51.2385   31.3802 H   0  0  0  0  0  0  0  0  0  0  0  0
    6.3325   50.5084   28.7782 H   0  0  0  0  0  0  0  0  0  0  0  0
    4.5714   52.0763   28.0974 H   0  0  0  0  0  0  0  0  0  0  0  0
    6.1032   55.0323   30.7878 H   0  0  0  0  0  0  0  0  0  0  0  0
    4.4386   54.3272   29.1157 H   0  0  0  0  0  0  0  0  0  0  0  0
   11.2116   41.0420   31.8834 H   0  0  0  0  0  0  0  0  0  0  0  0
    9.7454   40.0167   31.9263 H   0  0  0  0  0  0  0  0  0  0  0  0
   11.6245   39.0449   30.5888 H   0  0  0  0  0  0  0  0  0  0  0  0
   10.7050   37.5579   33.1499 H   0  0  0  0  0  0  0  0  0  0  0  0
   14.1985   37.4426   31.5553 H   0  0  0  0  0  0  0  0  0  0  0  0
   10.0893   37.4056   30.3459 H   0  0  0  0  0  0  0  0  0  0  0  0
   12.1337   35.7754   32.5703 H   0  0  0  0  0  0  0  0  0  0  0  0
   11.7934   35.4394   30.4514 H   0  0  0  0  0  0  0  0  0  0  0  0
   12.4314   38.3973   34.8700 H   0  0  0  0  0  0  0  0  0  0  0  0
   17.2669   34.4141   33.1691 H   0  0  0  0  0  0  0  0  0  0  0  0
   16.7638   35.0599   37.7897 H   0  0  0  0  0  0  0  0  0  0  0  0
   15.3759   36.1865   37.9790 H   0  0  0  0  0  0  0  0  0  0  0  0
  1  2  2  0
  1  3  1  0
  3  4  1  0
  4  5  1  0
  6  1  1  0
  7  6  1  0
  6  8  1  0
  8  9  1  0
  9 10  1  0
 10 11  1  0
 11 12  1  0
 12 13  1  0
 13 14  1  0
 13 15  2  0
 14 16  1  0
 16 17  1  0
 17 18  2  0
 19 17  1  0
 18 20  1  0
 21 19  2  0
 19 22  1  0
 20 23  2  0
 23 21  1  0
 22 24  1  0
 22 25  2  0
  4 26  2  0
  4 27  1  0
 28 27  1  0
 28 29  1  0
 29 30  1  0
 29 31  1  0
 30 32  1  0
 31 33  1  0
 31 34  1  0
 34 32  1  0
 32 35  1  0
 34 36  1  0
 37 35  1  0
 38 35  1  0
 39 37  2  0
 37 40  1  0
 41 38  2  0
 42 39  1  0
 40 43  2  0
 40 41  1  0
 44 42  2  0
 44 43  1  0
 43 45  1  0
  6 46  1  6
  7 47  1  0
  7 48  1  0
  8 49  1  0
  8 50  1  0
  9 51  1  0
  9 52  1  0
 10 53  1  0
 10 54  1  0
 11 55  1  0
 11 56  1  0
 12 57  1  0
 16 58  1  0
 16 59  1  0
 18 60  1  0
 20 61  1  0
 21 62  1  0
 23 63  1  0
 28 64  1  0
 28 65  1  0
 29 66  1  0
 31 67  1  0
 32 68  1  0
 33 69  1  0
 34 70  1  0
 36 71  1  0
 38 72  1  0
 42 73  1  0
 45 74  1  0
 45 75  1  0
M  CHG  3   5  -1  22   1  24  -1
M  END
>  <EmbedRMS>  (580) 
0.0747247752427

$$$$

     RDKit          3D

 75 78  0  0  0  0  0  0  0  0999 V2000
    9.4299   42.9393   34.3434 C   0  0  0  0  0  0  0  0  0  0  0  0
   10.4913   43.0379   35.0234 O   0  0  0  0  0  0  0  0  0  0  0  0
    8.8546   41.7115   34.0286 O   0  0  0  0  0  0  0  0  0  0  0  0
    9.4943   40.2155   34.4673 P   0  0  0  0  0  0  0  0  0  0  0  0
    9.7316   40.1737   36.1283 O   0  0  0  0  0  0  0  0  0  0  0  0
    8.7412   44.1376   33.7786 C   0  0  1  0  0  0  0  0  0  0  0  0
    9.3016   45.3716   34.3325 N   0  0  0  0  0  0  0  0  0  0  0  0
    8.8963   44.0591   32.2399 C   0  0  0  0  0  0  0  0  0  0  0  0
    8.2027   45.1685   31.4400 C   0  0  0  0  0  0  0  0  0  0  0  0
    6.6653   45.1062   31.4909 C   0  0  0  0  0  0  0  0  0  0  0  0
    6.0278   46.3225   30.8125 C   0  0  0  0  0  0  0  0  0  0  0  0
    6.5085   47.5640   31.4187 N   0  0  0  0  0  0  0  0  0  0  0  0
    7.2415   48.5408   30.6822 C   0  0  0  0  0  0  0  0  0  0  0  0
    7.5869   49.7450   31.3049 O   0  0  0  0  0  0  0  0  0  0  0  0
    7.5938   48.3101   29.4941 O   0  0  0  0  0  0  0  0  0  0  0  0
    8.2737   50.8071   30.6450 C   0  0  0  0  0  0  0  0  0  0  0  0
    7.3588   51.5134   29.6723 C   0  0  0  0  0  0  0  0  0  0  0  0
    7.5153   51.2577   28.2973 C   0  0  0  0  0  0  0  0  0  0  0  0
    6.3827   52.4562   30.0959 C   0  0  0  0  0  0  0  0  0  0  0  0
    6.7228   51.9131   27.3548 C   0  0  0  0  0  0  0  0  0  0  0  0
    5.6042   53.1156   29.1260 C   0  0  0  0  0  0  0  0  0  0  0  0
    6.1871   52.7812   31.4853 N   0  0  0  0  0  0  0  0  0  0  0  0
    5.7701   52.8412   27.7681 C   0  0  0  0  0  0  0  0  0  0  0  0
    6.2404   51.8062   32.4532 O   0  0  0  0  0  0  0  0  0  0  0  0
    5.8119   53.9265   31.8117 O   0  0  0  0  0  0  0  0  0  0  0  0
    8.5375   39.1389   34.0123 O   0  0  0  0  0  0  0  0  0  0  0  0
   10.9794   40.0897   33.6813 O   0  0  0  0  0  0  0  0  0  0  0  0
   10.7982   40.0850   32.2817 C   0  0  0  0  0  0  0  0  0  0  0  0
   11.5886   38.9142   31.7009 C   0  0  0  0  0  0  0  0  0  0  0  0
   12.9213   38.9368   32.1699 O   0  0  0  0  0  0  0  0  0  0  0  0
   11.0047   37.5661   32.0991 C   0  0  0  0  0  0  0  0  0  0  0  0
   13.3510   37.5885   32.2602 C   0  0  0  0  0  0  0  0  0  0  0  0
    9.9296   37.1961   31.2780 O   0  0  0  0  0  0  0  0  0  0  0  0
   12.1923   36.6659   31.9047 C   0  0  0  0  0  0  0  0  0  0  0  0
   13.8033   37.2966   33.6188 N   0  0  0  0  0  0  0  0  0  0  0  0
   12.3007   36.2865   30.5562 O   0  0  0  0  0  0  0  0  0  0  0  0
   14.7933   36.4724   33.9860 C   0  0  0  0  0  0  0  0  0  0  0  0
   13.2753   37.7296   34.7935 C   0  0  0  0  0  0  0  0  0  0  0  0
   15.6243   35.7579   33.1860 N   0  0  0  0  0  0  0  0  0  0  0  0
   14.8728   36.4410   35.3328 C   0  0  0  0  0  0  0  0  0  0  0  0
   13.9209   37.2263   35.8804 N   0  0  0  0  0  0  0  0  0  0  0  0
   16.5873   34.9919   33.7803 C   0  0  0  0  0  0  0  0  0  0  0  0
   15.8577   35.6717   35.9443 C   0  0  0  0  0  0  0  0  0  0  0  0
   16.7025   34.9583   35.1440 N   0  0  0  0  0  0  0  0  0  0  0  0
   16.0100   35.6384   37.3563 N   0  0  0  0  0  0  0  0  0  0  0  0
    7.6668   44.0651   34.0547 H   0  0  0  0  0  0  0  0  0  0  0  0
    8.6809   46.1666   34.0588 H   0  0  0  0  0  0  0  0  0  0  0  0
    9.2335   45.3272   35.3759 H   0  0  0  0  0  0  0  0  0  0  0  0
    9.9810   44.0905   31.9915 H   0  0  0  0  0  0  0  0  0  0  0  0
    8.5084   43.0838   31.8695 H   0  0  0  0  0  0  0  0  0  0  0  0
    8.5770   46.1511   31.7918 H   0  0  0  0  0  0  0  0  0  0  0  0
    8.5157   45.0752   30.3769 H   0  0  0  0  0  0  0  0  0  0  0  0
    6.3182   45.0833   32.5445 H   0  0  0  0  0  0  0  0  0  0  0  0
    6.3125   44.1782   30.9909 H   0  0  0  0  0  0  0  0  0  0  0  0
    4.9244   46.2685   30.9296 H   0  0  0  0  0  0  0  0  0  0  0  0
    6.2468   46.2876   29.7236 H   0  0  0  0  0  0  0  0  0  0  0  0
    6.2854   47.7538   32.4217 H   0  0  0  0  0  0  0  0  0  0  0  0
    9.1754   50.4031   30.1340 H   0  0  0  0  0  0  0  0  0  0  0  0
    8.6437   51.5311   31.4008 H   0  0  0  0  0  0  0  0  0  0  0  0
    8.2581   50.5499   27.9503 H   0  0  0  0  0  0  0  0  0  0  0  0
    6.8523   51.7048   26.3005 H   0  0  0  0  0  0  0  0  0  0  0  0
    4.8555   53.8387   29.4242 H   0  0  0  0  0  0  0  0  0  0  0  0
    5.1590   53.3513   27.0346 H   0  0  0  0  0  0  0  0  0  0  0  0
   11.2130   41.0320   31.8751 H   0  0  0  0  0  0  0  0  0  0  0  0
    9.7427   40.0140   31.9264 H   0  0  0  0  0  0  0  0  0  0  0  0
   11.5981   39.0107   30.5904 H   0  0  0  0  0  0  0  0  0  0  0  0
   10.7009   37.5603   33.1721 H   0  0  0  0  0  0  0  0  0  0  0  0
   14.1977   37.4380   31.5532 H   0  0  0  0  0  0  0  0  0  0  0  0
    9.5180   36.3961   31.6978 H   0  0  0  0  0  0  0  0  0  0  0  0
   12.1418   35.7698   32.5692 H   0  0  0  0  0  0  0  0  0  0  0  0
   11.7730   35.4524   30.4489 H   0  0  0  0  0  0  0  0  0  0  0  0
   12.4321   38.3985   34.8692 H   0  0  0  0  0  0  0  0  0  0  0  0
   17.2667   34.4138   33.1694 H   0  0  0  0  0  0  0  0  0  0  0  0
   16.7634   35.0598   37.7897 H   0  0  0  0  0  0  0  0  0  0  0  0
   15.3757   36.1867   37.9790 H   0  0  0  0  0  0  0  0  0  0  0  0
  1  2  2  0
  1  3  1  0
  3  4  1  0
  4  5  1  0
  6  1  1  0
  7  6  1  0
  6  8  1  0
  8  9  1  0
  9 10  1  0
 10 11  1  0
 11 12  1  0
 12 13  1  0
 13 14  1  0
 13 15  2  0
 14 16  1  0
 16 17  1  0
 17 18  2  0
 19 17  1  0
 18 20  1  0
 21 19  2  0
 19 22  1  0
 20 23  2  0
 23 21  1  0
 22 24  1  0
 22 25  2  0
  4 26  2  0
  4 27  1  0
 28 27  1  0
 28 29  1  0
 29 30  1  0
 29 31  1  0
 30 32  1  0
 31 33  1  0
 31 34  1  0
 34 32  1  0
 32 35  1  0
 34 36  1  0
 37 35  1  0
 38 35  1  0
 39 37  2  0
 37 40  1  0
 41 38  2  0
 42 39  1  0
 40 43  2  0
 40 41  1  0
 44 42  2  0
 44 43  1  0
 43 45  1  0
  6 46  1  6
  7 47  1  0
  7 48  1  0
  8 49  1  0
  8 50  1  0
  9 51  1  0
  9 52  1  0
 10 53  1  0
 10 54  1  0
 11 55  1  0
 11 56  1  0
 12 57  1  0
 16 58  1  0
 16 59  1  0
 18 60  1  0
 20 61  1  0
 21 62  1  0
 23 63  1  0
 28 64  1  0
 28 65  1  0
 29 66  1  0
 31 67  1  0
 32 68  1  0
 33 69  1  0
 34 70  1  0
 36 71  1  0
 38 72  1  0
 42 73  1  0
 45 74  1  0
 45 75  1  0
M  CHG  3   5  -1  22   1  24  -1
M  END
>  <EmbedRMS>  (581) 
0.07367051268

$$$$

     RDKit          3D

 75 78  0  0  0  0  0  0  0  0999 V2000
    9.4337   42.9356   34.3452 C   0  0  0  0  0  0  0  0  0  0  0  0
   10.4911   43.0319   35.0311 O   0  0  0  0  0  0  0  0  0  0  0  0
    8.8562   41.7098   34.0290 O   0  0  0  0  0  0  0  0  0  0  0  0
    9.4941   40.2136   34.4677 P   0  0  0  0  0  0  0  0  0  0  0  0
    9.7309   40.1724   36.1288 O   0  0  0  0  0  0  0  0  0  0  0  0
    8.7514   44.1342   33.7741 C   0  0  1  0  0  0  0  0  0  0  0  0
    9.2990   45.3793   34.3141 N   0  0  0  0  0  0  0  0  0  0  0  0
    8.8892   44.0540   32.2359 C   0  0  0  0  0  0  0  0  0  0  0  0
    8.2033   45.1860   31.4645 C   0  0  0  0  0  0  0  0  0  0  0  0
    6.6662   45.1074   31.4872 C   0  0  0  0  0  0  0  0  0  0  0  0
    6.0296   46.3233   30.8072 C   0  0  0  0  0  0  0  0  0  0  0  0
    6.4995   47.5673   31.4181 N   0  0  0  0  0  0  0  0  0  0  0  0
    7.2368   48.5468   30.6784 C   0  0  0  0  0  0  0  0  0  0  0  0
    7.5711   49.7938   31.2232 O   0  0  0  0  0  0  0  0  0  0  0  0
    7.5991   48.2987   29.4988 O   0  0  0  0  0  0  0  0  0  0  0  0
    7.2644   50.2436   32.5427 C   0  0  0  0  0  0  0  0  0  0  0  0
    8.1776   49.6166   33.5742 C   0  0  0  0  0  0  0  0  0  0  0  0
    7.6031   48.7852   34.5554 C   0  0  0  0  0  0  0  0  0  0  0  0
    9.5688   49.9181   33.6544 C   0  0  0  0  0  0  0  0  0  0  0  0
    8.3820   48.2283   35.5684 C   0  0  0  0  0  0  0  0  0  0  0  0
   10.3332   49.3398   34.6848 C   0  0  0  0  0  0  0  0  0  0  0  0
   10.2150   50.8500   32.7646 N   0  0  0  0  0  0  0  0  0  0  0  0
    9.7461   48.4967   35.6273 C   0  0  0  0  0  0  0  0  0  0  0  0
   11.3051   51.5681   33.2003 O   0  0  0  0  0  0  0  0  0  0  0  0
    9.8987   50.9226   31.5608 O   0  0  0  0  0  0  0  0  0  0  0  0
    8.5370   39.1379   34.0122 O   0  0  0  0  0  0  0  0  0  0  0  0
   10.9795   40.0867   33.6827 O   0  0  0  0  0  0  0  0  0  0  0  0
   10.7997   40.0898   32.2830 C   0  0  0  0  0  0  0  0  0  0  0  0
   11.5968   38.9273   31.6962 C   0  0  0  0  0  0  0  0  0  0  0  0
   12.9243   38.9425   32.1784 O   0  0  0  0  0  0  0  0  0  0  0  0
   11.0086   37.5713   32.0780 C   0  0  0  0  0  0  0  0  0  0  0  0
   13.3528   37.5929   32.2623 C   0  0  0  0  0  0  0  0  0  0  0  0
    9.9098   37.1770   31.2925 O   0  0  0  0  0  0  0  0  0  0  0  0
   12.1943   36.6683   31.8994 C   0  0  0  0  0  0  0  0  0  0  0  0
   13.8019   37.2950   33.6199 N   0  0  0  0  0  0  0  0  0  0  0  0
   12.3027   36.2773   30.5558 O   0  0  0  0  0  0  0  0  0  0  0  0
   14.7926   36.4715   33.9865 C   0  0  0  0  0  0  0  0  0  0  0  0
   13.2748   37.7286   34.7946 C   0  0  0  0  0  0  0  0  0  0  0  0
   15.6239   35.7577   33.1860 N   0  0  0  0  0  0  0  0  0  0  0  0
   14.8727   36.4403   35.3332 C   0  0  0  0  0  0  0  0  0  0  0  0
   13.9210   37.2256   35.8811 N   0  0  0  0  0  0  0  0  0  0  0  0
   16.5873   34.9921   33.7802 C   0  0  0  0  0  0  0  0  0  0  0  0
   15.8579   35.6714   35.9444 C   0  0  0  0  0  0  0  0  0  0  0  0
   16.7028   34.9583   35.1439 N   0  0  0  0  0  0  0  0  0  0  0  0
   16.0104   35.6381   37.3564 N   0  0  0  0  0  0  0  0  0  0  0  0
    7.6779   44.0715   34.0513 H   0  0  0  0  0  0  0  0  0  0  0  0
   10.3186   45.4445   34.0876 H   0  0  0  0  0  0  0  0  0  0  0  0
    9.2011   45.3690   35.3558 H   0  0  0  0  0  0  0  0  0  0  0  0
    8.4804   43.0873   31.8658 H   0  0  0  0  0  0  0  0  0  0  0  0
    9.9708   44.0690   31.9734 H   0  0  0  0  0  0  0  0  0  0  0  0
    8.5536   46.1542   31.8810 H   0  0  0  0  0  0  0  0  0  0  0  0
    8.5402   45.1434   30.4056 H   0  0  0  0  0  0  0  0  0  0  0  0
    6.3020   45.0708   32.5350 H   0  0  0  0  0  0  0  0  0  0  0  0
    6.3314   44.1813   30.9718 H   0  0  0  0  0  0  0  0  0  0  0  0
    6.2563   46.2891   29.7200 H   0  0  0  0  0  0  0  0  0  0  0  0
    4.9254   46.2641   30.9142 H   0  0  0  0  0  0  0  0  0  0  0  0
    6.2280   47.7459   32.4067 H   0  0  0  0  0  0  0  0  0  0  0  0
    6.1909   50.0545   32.7612 H   0  0  0  0  0  0  0  0  0  0  0  0
    7.3959   51.3453   32.5811 H   0  0  0  0  0  0  0  0  0  0  0  0
    6.5403   48.5797   34.5539 H   0  0  0  0  0  0  0  0  0  0  0  0
    7.9248   47.5884   36.3121 H   0  0  0  0  0  0  0  0  0  0  0  0
   11.3931   49.5460   34.7620 H   0  0  0  0  0  0  0  0  0  0  0  0
   10.3490   48.0600   36.4130 H   0  0  0  0  0  0  0  0  0  0  0  0
    9.7450   40.0145   31.9262 H   0  0  0  0  0  0  0  0  0  0  0  0
   11.2097   41.0418   31.8830 H   0  0  0  0  0  0  0  0  0  0  0  0
   11.6265   39.0456   30.5888 H   0  0  0  0  0  0  0  0  0  0  0  0
   10.7064   37.5573   33.1484 H   0  0  0  0  0  0  0  0  0  0  0  0
   14.2021   37.4484   31.5574 H   0  0  0  0  0  0  0  0  0  0  0  0
   10.0952   37.3990   30.3433 H   0  0  0  0  0  0  0  0  0  0  0  0
   12.1163   35.7744   32.5633 H   0  0  0  0  0  0  0  0  0  0  0  0
   12.9615   35.5349   30.5312 H   0  0  0  0  0  0  0  0  0  0  0  0
   12.4321   38.3981   34.8705 H   0  0  0  0  0  0  0  0  0  0  0  0
   17.2669   34.4143   33.1690 H   0  0  0  0  0  0  0  0  0  0  0  0
   15.3761   36.1862   37.9792 H   0  0  0  0  0  0  0  0  0  0  0  0
   16.7641   35.0599   37.7896 H   0  0  0  0  0  0  0  0  0  0  0  0
  1  2  2  0
  1  3  1  0
  3  4  1  0
  4  5  1  0
  6  1  1  0
  7  6  1  0
  6  8  1  0
  8  9  1  0
  9 10  1  0
 10 11  1  0
 11 12  1  0
 12 13  1  0
 13 14  1  0
 13 15  2  0
 14 16  1  0
 16 17  1  0
 17 18  2  0
 19 17  1  0
 18 20  1  0
 21 19  2  0
 19 22  1  0
 20 23  2  0
 23 21  1  0
 22 24  1  0
 22 25  2  0
  4 26  2  0
  4 27  1  0
 28 27  1  0
 28 29  1  0
 29 30  1  0
 29 31  1  0
 30 32  1  0
 31 33  1  0
 31 34  1  0
 34 32  1  0
 32 35  1  0
 34 36  1  0
 37 35  1  0
 38 35  1  0
 39 37  2  0
 37 40  1  0
 41 38  2  0
 42 39  1  0
 40 43  2  0
 40 41  1  0
 44 42  2  0
 44 43  1  0
 43 45  1  0
  6 46  1  6
  7 47  1  0
  7 48  1  0
  8 49  1  0
  8 50  1  0
  9 51  1  0
  9 52  1  0
 10 53  1  0
 10 54  1  0
 11 55  1  0
 11 56  1  0
 12 57  1  0
 16 58  1  0
 16 59  1  0
 18 60  1  0
 20 61  1  0
 21 62  1  0
 23 63  1  0
 28 64  1  0
 28 65  1  0
 29 66  1  0
 31 67  1  0
 32 68  1  0
 33 69  1  0
 34 70  1  0
 36 71  1  0
 38 72  1  0
 42 73  1  0
 45 74  1  0
 45 75  1  0
M  CHG  3   5  -1  22   1  24  -1
M  END
>  <EmbedRMS>  (582) 
0.0749286580127

$$$$

     RDKit          3D

 75 78  0  0  0  0  0  0  0  0999 V2000
    9.4333   42.9366   34.3462 C   0  0  0  0  0  0  0  0  0  0  0  0
   10.4907   43.0331   35.0319 O   0  0  0  0  0  0  0  0  0  0  0  0
    8.8563   41.7104   34.0296 O   0  0  0  0  0  0  0  0  0  0  0  0
    9.4945   40.2142   34.4680 P   0  0  0  0  0  0  0  0  0  0  0  0
    9.7309   40.1726   36.1291 O   0  0  0  0  0  0  0  0  0  0  0  0
    8.7506   44.1349   33.7741 C   0  0  1  0  0  0  0  0  0  0  0  0
    9.2963   45.3821   34.3133 N   0  0  0  0  0  0  0  0  0  0  0  0
    8.8893   44.0528   32.2358 C   0  0  0  0  0  0  0  0  0  0  0  0
    8.2028   45.1824   31.4615 C   0  0  0  0  0  0  0  0  0  0  0  0
    6.6653   45.1045   31.4854 C   0  0  0  0  0  0  0  0  0  0  0  0
    6.0268   46.3225   30.8103 C   0  0  0  0  0  0  0  0  0  0  0  0
    6.5059   47.5639   31.4179 N   0  0  0  0  0  0  0  0  0  0  0  0
    7.2446   48.5386   30.6841 C   0  0  0  0  0  0  0  0  0  0  0  0
    7.5999   49.7366   31.3093 O   0  0  0  0  0  0  0  0  0  0  0  0
    7.5930   48.3121   29.4936 O   0  0  0  0  0  0  0  0  0  0  0  0
    8.3569   50.7522   30.6564 C   0  0  0  0  0  0  0  0  0  0  0  0
    8.6303   51.8803   31.6217 C   0  0  0  0  0  0  0  0  0  0  0  0
    9.1812   51.5613   32.8766 C   0  0  0  0  0  0  0  0  0  0  0  0
    8.3264   53.2358   31.3259 C   0  0  0  0  0  0  0  0  0  0  0  0
    9.3829   52.5513   33.8394 C   0  0  0  0  0  0  0  0  0  0  0  0
    8.5167   54.2149   32.3159 C   0  0  0  0  0  0  0  0  0  0  0  0
    7.8565   53.6440   30.0321 N   0  0  0  0  0  0  0  0  0  0  0  0
    9.0411   53.8739   33.5635 C   0  0  0  0  0  0  0  0  0  0  0  0
    6.9186   54.6455   29.9315 O   0  0  0  0  0  0  0  0  0  0  0  0
    8.4679   53.2864   29.0042 O   0  0  0  0  0  0  0  0  0  0  0  0
    8.5372   39.1387   34.0125 O   0  0  0  0  0  0  0  0  0  0  0  0
   10.9804   40.0880   33.6837 O   0  0  0  0  0  0  0  0  0  0  0  0
   10.8025   40.0899   32.2839 C   0  0  0  0  0  0  0  0  0  0  0  0
   11.5888   38.9174   31.7007 C   0  0  0  0  0  0  0  0  0  0  0  0
   12.9219   38.9373   32.1692 O   0  0  0  0  0  0  0  0  0  0  0  0
   11.0028   37.5682   32.0980 C   0  0  0  0  0  0  0  0  0  0  0  0
   13.3496   37.5885   32.2601 C   0  0  0  0  0  0  0  0  0  0  0  0
    9.9343   37.1822   31.2756 O   0  0  0  0  0  0  0  0  0  0  0  0
   12.1891   36.6677   31.9049 C   0  0  0  0  0  0  0  0  0  0  0  0
   13.8025   37.2965   33.6186 N   0  0  0  0  0  0  0  0  0  0  0  0
   12.2991   36.2867   30.5567 O   0  0  0  0  0  0  0  0  0  0  0  0
   14.7929   36.4725   33.9858 C   0  0  0  0  0  0  0  0  0  0  0  0
   13.2749   37.7294   34.7935 C   0  0  0  0  0  0  0  0  0  0  0  0
   15.6240   35.7580   33.1858 N   0  0  0  0  0  0  0  0  0  0  0  0
   14.8727   36.4411   35.3327 C   0  0  0  0  0  0  0  0  0  0  0  0
   13.9208   37.2263   35.8803 N   0  0  0  0  0  0  0  0  0  0  0  0
   16.5871   34.9921   33.7801 C   0  0  0  0  0  0  0  0  0  0  0  0
   15.8576   35.6718   35.9441 C   0  0  0  0  0  0  0  0  0  0  0  0
   16.7024   34.9584   35.1438 N   0  0  0  0  0  0  0  0  0  0  0  0
   16.0100   35.6384   37.3562 N   0  0  0  0  0  0  0  0  0  0  0  0
    7.6771   44.0707   34.0504 H   0  0  0  0  0  0  0  0  0  0  0  0
   10.3191   45.4408   34.0999 H   0  0  0  0  0  0  0  0  0  0  0  0
    9.1827   45.3821   35.3535 H   0  0  0  0  0  0  0  0  0  0  0  0
    9.9711   44.0683   31.9739 H   0  0  0  0  0  0  0  0  0  0  0  0
    8.4817   43.0852   31.8668 H   0  0  0  0  0  0  0  0  0  0  0  0
    8.5385   45.1365   30.4023 H   0  0  0  0  0  0  0  0  0  0  0  0
    8.5550   46.1511   31.8744 H   0  0  0  0  0  0  0  0  0  0  0  0
    6.3298   44.1799   30.9677 H   0  0  0  0  0  0  0  0  0  0  0  0
    6.3019   45.0642   32.5332 H   0  0  0  0  0  0  0  0  0  0  0  0
    6.2465   46.2897   29.7215 H   0  0  0  0  0  0  0  0  0  0  0  0
    4.9234   46.2670   30.9261 H   0  0  0  0  0  0  0  0  0  0  0  0
    6.2824   47.7525   32.4210 H   0  0  0  0  0  0  0  0  0  0  0  0
    9.3280   50.3305   30.3178 H   0  0  0  0  0  0  0  0  0  0  0  0
    7.7885   51.0890   29.7671 H   0  0  0  0  0  0  0  0  0  0  0  0
    9.4383   50.5366   33.1169 H   0  0  0  0  0  0  0  0  0  0  0  0
    9.7977   52.2904   34.8046 H   0  0  0  0  0  0  0  0  0  0  0  0
    8.2838   55.2520   32.1099 H   0  0  0  0  0  0  0  0  0  0  0  0
    9.1941   54.6393   34.3134 H   0  0  0  0  0  0  0  0  0  0  0  0
   11.2258   41.0357   31.8830 H   0  0  0  0  0  0  0  0  0  0  0  0
    9.7476   40.0331   31.9256 H   0  0  0  0  0  0  0  0  0  0  0  0
   11.5974   39.0148   30.5904 H   0  0  0  0  0  0  0  0  0  0  0  0
   10.7023   37.5455   33.1719 H   0  0  0  0  0  0  0  0  0  0  0  0
   14.1957   37.4366   31.5528 H   0  0  0  0  0  0  0  0  0  0  0  0
    9.1339   37.6658   31.6069 H   0  0  0  0  0  0  0  0  0  0  0  0
   12.1381   35.7717   32.5697 H   0  0  0  0  0  0  0  0  0  0  0  0
   11.7707   35.4530   30.4496 H   0  0  0  0  0  0  0  0  0  0  0  0
   12.4314   38.3980   34.8694 H   0  0  0  0  0  0  0  0  0  0  0  0
   17.2665   34.4140   33.1691 H   0  0  0  0  0  0  0  0  0  0  0  0
   15.3757   36.1868   37.9789 H   0  0  0  0  0  0  0  0  0  0  0  0
   16.7634   35.0598   37.7895 H   0  0  0  0  0  0  0  0  0  0  0  0
  1  2  2  0
  1  3  1  0
  3  4  1  0
  4  5  1  0
  6  1  1  0
  7  6  1  0
  6  8  1  0
  8  9  1  0
  9 10  1  0
 10 11  1  0
 11 12  1  0
 12 13  1  0
 13 14  1  0
 13 15  2  0
 14 16  1  0
 16 17  1  0
 17 18  2  0
 19 17  1  0
 18 20  1  0
 21 19  2  0
 19 22  1  0
 20 23  2  0
 23 21  1  0
 22 24  1  0
 22 25  2  0
  4 26  2  0
  4 27  1  0
 28 27  1  0
 28 29  1  0
 29 30  1  0
 29 31  1  0
 30 32  1  0
 31 33  1  0
 31 34  1  0
 34 32  1  0
 32 35  1  0
 34 36  1  0
 37 35  1  0
 38 35  1  0
 39 37  2  0
 37 40  1  0
 41 38  2  0
 42 39  1  0
 40 43  2  0
 40 41  1  0
 44 42  2  0
 44 43  1  0
 43 45  1  0
  6 46  1  6
  7 47  1  0
  7 48  1  0
  8 49  1  0
  8 50  1  0
  9 51  1  0
  9 52  1  0
 10 53  1  0
 10 54  1  0
 11 55  1  0
 11 56  1  0
 12 57  1  0
 16 58  1  0
 16 59  1  0
 18 60  1  0
 20 61  1  0
 21 62  1  0
 23 63  1  0
 28 64  1  0
 28 65  1  0
 29 66  1  0
 31 67  1  0
 32 68  1  0
 33 69  1  0
 34 70  1  0
 36 71  1  0
 38 72  1  0
 42 73  1  0
 45 74  1  0
 45 75  1  0
M  CHG  3   5  -1  22   1  24  -1
M  END
>  <EmbedRMS>  (583) 
0.0742353107527

$$$$

     RDKit          3D

 75 78  0  0  0  0  0  0  0  0999 V2000
    9.4313   42.9415   34.3435 C   0  0  0  0  0  0  0  0  0  0  0  0
   10.4885   43.0412   35.0293 O   0  0  0  0  0  0  0  0  0  0  0  0
    8.8562   41.7132   34.0286 O   0  0  0  0  0  0  0  0  0  0  0  0
    9.4945   40.2163   34.4677 P   0  0  0  0  0  0  0  0  0  0  0  0
    9.7311   40.1741   36.1288 O   0  0  0  0  0  0  0  0  0  0  0  0
    8.7485   44.1368   33.7721 C   0  0  1  0  0  0  0  0  0  0  0  0
    9.3043   45.3673   34.3387 N   0  0  0  0  0  0  0  0  0  0  0  0
    8.8891   44.0530   32.2308 C   0  0  0  0  0  0  0  0  0  0  0  0
    8.2009   45.1735   31.4440 C   0  0  0  0  0  0  0  0  0  0  0  0
    6.6635   45.1067   31.4880 C   0  0  0  0  0  0  0  0  0  0  0  0
    6.0246   46.3225   30.8097 C   0  0  0  0  0  0  0  0  0  0  0  0
    6.5023   47.5643   31.4168 N   0  0  0  0  0  0  0  0  0  0  0  0
    7.2578   48.5307   30.6898 C   0  0  0  0  0  0  0  0  0  0  0  0
    7.6715   49.6962   31.3388 O   0  0  0  0  0  0  0  0  0  0  0  0
    7.5875   48.3149   29.4921 O   0  0  0  0  0  0  0  0  0  0  0  0
    8.5046   50.6708   30.7194 C   0  0  0  0  0  0  0  0  0  0  0  0
    8.9085   51.7100   31.7346 C   0  0  0  0  0  0  0  0  0  0  0  0
    8.6042   53.0597   31.4772 C   0  0  0  0  0  0  0  0  0  0  0  0
    9.5478   51.3636   32.9565 C   0  0  0  0  0  0  0  0  0  0  0  0
    8.9139   54.0506   32.4096 C   0  0  0  0  0  0  0  0  0  0  0  0
    9.8368   52.3779   33.8883 C   0  0  0  0  0  0  0  0  0  0  0  0
    9.8882   50.0018   33.2792 N   0  0  0  0  0  0  0  0  0  0  0  0
    9.5255   53.7100   33.6140 C   0  0  0  0  0  0  0  0  0  0  0  0
   10.3934   49.1552   32.3203 O   0  0  0  0  0  0  0  0  0  0  0  0
    9.8746   49.6190   34.4676 O   0  0  0  0  0  0  0  0  0  0  0  0
    8.5374   39.1402   34.0124 O   0  0  0  0  0  0  0  0  0  0  0  0
   10.9798   40.0879   33.6828 O   0  0  0  0  0  0  0  0  0  0  0  0
   10.8002   40.0907   32.2831 C   0  0  0  0  0  0  0  0  0  0  0  0
   11.5958   38.9271   31.6964 C   0  0  0  0  0  0  0  0  0  0  0  0
   12.9239   38.9409   32.1767 O   0  0  0  0  0  0  0  0  0  0  0  0
   11.0062   37.5720   32.0794 C   0  0  0  0  0  0  0  0  0  0  0  0
   13.3506   37.5906   32.2614 C   0  0  0  0  0  0  0  0  0  0  0  0
    9.9064   37.1793   31.2946 O   0  0  0  0  0  0  0  0  0  0  0  0
   12.1919   36.6672   31.9004 C   0  0  0  0  0  0  0  0  0  0  0  0
   13.8017   37.2948   33.6193 N   0  0  0  0  0  0  0  0  0  0  0  0
   12.3133   36.2788   30.5561 O   0  0  0  0  0  0  0  0  0  0  0  0
   14.7927   36.4717   33.9862 C   0  0  0  0  0  0  0  0  0  0  0  0
   13.2746   37.7284   34.7941 C   0  0  0  0  0  0  0  0  0  0  0  0
   15.6240   35.7576   33.1859 N   0  0  0  0  0  0  0  0  0  0  0  0
   14.8728   36.4406   35.3330 C   0  0  0  0  0  0  0  0  0  0  0  0
   13.9209   37.2258   35.8808 N   0  0  0  0  0  0  0  0  0  0  0  0
   16.5874   34.9920   33.7802 C   0  0  0  0  0  0  0  0  0  0  0  0
   15.8579   35.6716   35.9443 C   0  0  0  0  0  0  0  0  0  0  0  0
   16.7028   34.9584   35.1439 N   0  0  0  0  0  0  0  0  0  0  0  0
   16.0103   35.6383   37.3563 N   0  0  0  0  0  0  0  0  0  0  0  0
    7.6765   44.0645   34.0548 H   0  0  0  0  0  0  0  0  0  0  0  0
   10.2153   45.5893   33.8742 H   0  0  0  0  0  0  0  0  0  0  0  0
    8.6473   46.1570   34.1437 H   0  0  0  0  0  0  0  0  0  0  0  0
    8.4831   43.0829   31.8664 H   0  0  0  0  0  0  0  0  0  0  0  0
    9.9706   44.0658   31.9677 H   0  0  0  0  0  0  0  0  0  0  0  0
    8.5201   45.0986   30.3814 H   0  0  0  0  0  0  0  0  0  0  0  0
    8.5696   46.1502   31.8190 H   0  0  0  0  0  0  0  0  0  0  0  0
    6.3129   45.0790   32.5405 H   0  0  0  0  0  0  0  0  0  0  0  0
    6.3154   44.1793   30.9835 H   0  0  0  0  0  0  0  0  0  0  0  0
    4.9212   46.2666   30.9250 H   0  0  0  0  0  0  0  0  0  0  0  0
    6.2453   46.2887   29.7211 H   0  0  0  0  0  0  0  0  0  0  0  0
    6.2844   47.7493   32.4218 H   0  0  0  0  0  0  0  0  0  0  0  0
    9.4143   50.1925   30.2992 H   0  0  0  0  0  0  0  0  0  0  0  0
    7.9514   51.1289   29.8704 H   0  0  0  0  0  0  0  0  0  0  0  0
    8.1177   53.3491   30.5539 H   0  0  0  0  0  0  0  0  0  0  0  0
    8.6732   55.0848   32.1997 H   0  0  0  0  0  0  0  0  0  0  0  0
   10.3195   52.1370   34.8271 H   0  0  0  0  0  0  0  0  0  0  0  0
    9.7609   54.4803   34.3371 H   0  0  0  0  0  0  0  0  0  0  0  0
    9.7454   40.0168   31.9263 H   0  0  0  0  0  0  0  0  0  0  0  0
   11.2115   41.0421   31.8829 H   0  0  0  0  0  0  0  0  0  0  0  0
   11.6246   39.0449   30.5889 H   0  0  0  0  0  0  0  0  0  0  0  0
   10.7050   37.5582   33.1500 H   0  0  0  0  0  0  0  0  0  0  0  0
   14.1984   37.4426   31.5553 H   0  0  0  0  0  0  0  0  0  0  0  0
   10.0893   37.4058   30.3459 H   0  0  0  0  0  0  0  0  0  0  0  0
   12.1337   35.7755   32.5703 H   0  0  0  0  0  0  0  0  0  0  0  0
   11.7933   35.4394   30.4514 H   0  0  0  0  0  0  0  0  0  0  0  0
   12.4314   38.3973   34.8700 H   0  0  0  0  0  0  0  0  0  0  0  0
   17.2669   34.4142   33.1692 H   0  0  0  0  0  0  0  0  0  0  0  0
   16.7638   35.0599   37.7896 H   0  0  0  0  0  0  0  0  0  0  0  0
   15.3759   36.1865   37.9790 H   0  0  0  0  0  0  0  0  0  0  0  0
  1  2  2  0
  1  3  1  0
  3  4  1  0
  4  5  1  0
  6  1  1  0
  7  6  1  0
  6  8  1  0
  8  9  1  0
  9 10  1  0
 10 11  1  0
 11 12  1  0
 12 13  1  0
 13 14  1  0
 13 15  2  0
 14 16  1  0
 16 17  1  0
 17 18  2  0
 19 17  1  0
 18 20  1  0
 21 19  2  0
 19 22  1  0
 20 23  2  0
 23 21  1  0
 22 24  1  0
 22 25  2  0
  4 26  2  0
  4 27  1  0
 28 27  1  0
 28 29  1  0
 29 30  1  0
 29 31  1  0
 30 32  1  0
 31 33  1  0
 31 34  1  0
 34 32  1  0
 32 35  1  0
 34 36  1  0
 37 35  1  0
 38 35  1  0
 39 37  2  0
 37 40  1  0
 41 38  2  0
 42 39  1  0
 40 43  2  0
 40 41  1  0
 44 42  2  0
 44 43  1  0
 43 45  1  0
  6 46  1  6
  7 47  1  0
  7 48  1  0
  8 49  1  0
  8 50  1  0
  9 51  1  0
  9 52  1  0
 10 53  1  0
 10 54  1  0
 11 55  1  0
 11 56  1  0
 12 57  1  0
 16 58  1  0
 16 59  1  0
 18 60  1  0
 20 61  1  0
 21 62  1  0
 23 63  1  0
 28 64  1  0
 28 65  1  0
 29 66  1  0
 31 67  1  0
 32 68  1  0
 33 69  1  0
 34 70  1  0
 36 71  1  0
 38 72  1  0
 42 73  1  0
 45 74  1  0
 45 75  1  0
M  CHG  3   5  -1  22   1  24  -1
M  END
>  <EmbedRMS>  (584) 
0.0743398999381

$$$$

     RDKit          3D

 75 78  0  0  0  0  0  0  0  0999 V2000
    9.4333   42.9371   34.3456 C   0  0  0  0  0  0  0  0  0  0  0  0
   10.4907   43.0334   35.0314 O   0  0  0  0  0  0  0  0  0  0  0  0
    8.8559   41.7109   34.0295 O   0  0  0  0  0  0  0  0  0  0  0  0
    9.4942   40.2145   34.4676 P   0  0  0  0  0  0  0  0  0  0  0  0
    9.7316   40.1726   36.1286 O   0  0  0  0  0  0  0  0  0  0  0  0
    8.7509   44.1358   33.7737 C   0  0  1  0  0  0  0  0  0  0  0  0
    9.2966   45.3829   34.3132 N   0  0  0  0  0  0  0  0  0  0  0  0
    8.8895   44.0548   32.2353 C   0  0  0  0  0  0  0  0  0  0  0  0
    8.2023   45.1851   31.4619 C   0  0  0  0  0  0  0  0  0  0  0  0
    6.6647   45.1058   31.4851 C   0  0  0  0  0  0  0  0  0  0  0  0
    6.0239   46.3217   30.8075 C   0  0  0  0  0  0  0  0  0  0  0  0
    6.4970   47.5652   31.4152 N   0  0  0  0  0  0  0  0  0  0  0  0
    7.2610   48.5276   30.6919 C   0  0  0  0  0  0  0  0  0  0  0  0
    7.6836   49.6895   31.3455 O   0  0  0  0  0  0  0  0  0  0  0  0
    7.5885   48.3121   29.4937 O   0  0  0  0  0  0  0  0  0  0  0  0
    8.6462   50.5908   30.8023 C   0  0  0  0  0  0  0  0  0  0  0  0
   10.0160   49.9517   30.7779 C   0  0  0  0  0  0  0  0  0  0  0  0
   10.5373   49.5345   29.5390 C   0  0  0  0  0  0  0  0  0  0  0  0
   10.7997   49.7801   31.9537 C   0  0  0  0  0  0  0  0  0  0  0  0
   11.8036   48.9556   29.4557 C   0  0  0  0  0  0  0  0  0  0  0  0
   12.0794   49.2062   31.8421 C   0  0  0  0  0  0  0  0  0  0  0  0
   10.3444   50.2042   33.2531 N   0  0  0  0  0  0  0  0  0  0  0  0
   12.5734   48.7926   30.6047 C   0  0  0  0  0  0  0  0  0  0  0  0
   11.2589   50.5723   34.2133 O   0  0  0  0  0  0  0  0  0  0  0  0
    9.1454   50.0994   33.5810 O   0  0  0  0  0  0  0  0  0  0  0  0
    8.5370   39.1385   34.0123 O   0  0  0  0  0  0  0  0  0  0  0  0
   10.9792   40.0888   33.6813 O   0  0  0  0  0  0  0  0  0  0  0  0
   10.7977   40.0843   32.2817 C   0  0  0  0  0  0  0  0  0  0  0  0
   11.5897   38.9147   31.7008 C   0  0  0  0  0  0  0  0  0  0  0  0
   12.9218   38.9385   32.1717 O   0  0  0  0  0  0  0  0  0  0  0  0
   11.0070   37.5654   32.0975 C   0  0  0  0  0  0  0  0  0  0  0  0
   13.3533   37.5909   32.2610 C   0  0  0  0  0  0  0  0  0  0  0  0
    9.9333   37.1935   31.2754 O   0  0  0  0  0  0  0  0  0  0  0  0
   12.1945   36.6671   31.9040 C   0  0  0  0  0  0  0  0  0  0  0  0
   13.8036   37.2970   33.6193 N   0  0  0  0  0  0  0  0  0  0  0  0
   12.2893   36.2849   30.5562 O   0  0  0  0  0  0  0  0  0  0  0  0
   14.7931   36.4723   33.9863 C   0  0  0  0  0  0  0  0  0  0  0  0
   13.2756   37.7298   34.7940 C   0  0  0  0  0  0  0  0  0  0  0  0
   15.6242   35.7580   33.1861 N   0  0  0  0  0  0  0  0  0  0  0  0
   14.8727   36.4407   35.3331 C   0  0  0  0  0  0  0  0  0  0  0  0
   13.9210   37.2262   35.8807 N   0  0  0  0  0  0  0  0  0  0  0  0
   16.5872   34.9920   33.7803 C   0  0  0  0  0  0  0  0  0  0  0  0
   15.8577   35.6715   35.9444 C   0  0  0  0  0  0  0  0  0  0  0  0
   16.7025   34.9582   35.1440 N   0  0  0  0  0  0  0  0  0  0  0  0
   16.0101   35.6382   37.3564 N   0  0  0  0  0  0  0  0  0  0  0  0
    7.6773   44.0718   34.0498 H   0  0  0  0  0  0  0  0  0  0  0  0
    9.1848   45.3822   35.3536 H   0  0  0  0  0  0  0  0  0  0  0  0
   10.3191   45.4429   34.0980 H   0  0  0  0  0  0  0  0  0  0  0  0
    9.9713   44.0712   31.9734 H   0  0  0  0  0  0  0  0  0  0  0  0
    8.4824   43.0872   31.8657 H   0  0  0  0  0  0  0  0  0  0  0  0
    8.5387   45.1409   30.4028 H   0  0  0  0  0  0  0  0  0  0  0  0
    8.5534   46.1540   31.8757 H   0  0  0  0  0  0  0  0  0  0  0  0
    6.3010   45.0665   32.5329 H   0  0  0  0  0  0  0  0  0  0  0  0
    6.3306   44.1798   30.9688 H   0  0  0  0  0  0  0  0  0  0  0  0
    6.2466   46.2888   29.7194 H   0  0  0  0  0  0  0  0  0  0  0  0
    4.9203   46.2629   30.9201 H   0  0  0  0  0  0  0  0  0  0  0  0
    6.2752   47.7510   32.4193 H   0  0  0  0  0  0  0  0  0  0  0  0
    8.6769   51.5137   31.4186 H   0  0  0  0  0  0  0  0  0  0  0  0
    8.3239   50.9031   29.7844 H   0  0  0  0  0  0  0  0  0  0  0  0
    9.9610   49.6566   28.6301 H   0  0  0  0  0  0  0  0  0  0  0  0
   12.1902   48.6361   28.4966 H   0  0  0  0  0  0  0  0  0  0  0  0
   12.6951   49.0654   32.7213 H   0  0  0  0  0  0  0  0  0  0  0  0
   13.5568   48.3456   30.5370 H   0  0  0  0  0  0  0  0  0  0  0  0
   11.2112   41.0320   31.8753 H   0  0  0  0  0  0  0  0  0  0  0  0
    9.7422   40.0118   31.9266 H   0  0  0  0  0  0  0  0  0  0  0  0
   11.6005   39.0120   30.5904 H   0  0  0  0  0  0  0  0  0  0  0  0
   10.7015   37.5593   33.1701 H   0  0  0  0  0  0  0  0  0  0  0  0
   14.2012   37.4438   31.5551 H   0  0  0  0  0  0  0  0  0  0  0  0
    9.5289   36.3869   31.6895 H   0  0  0  0  0  0  0  0  0  0  0  0
   12.1243   35.7694   32.5633 H   0  0  0  0  0  0  0  0  0  0  0  0
   12.9478   35.5427   30.5202 H   0  0  0  0  0  0  0  0  0  0  0  0
   12.4328   38.3993   34.8697 H   0  0  0  0  0  0  0  0  0  0  0  0
   17.2667   34.4140   33.1692 H   0  0  0  0  0  0  0  0  0  0  0  0
   16.7636   35.0598   37.7897 H   0  0  0  0  0  0  0  0  0  0  0  0
   15.3759   36.1865   37.9791 H   0  0  0  0  0  0  0  0  0  0  0  0
  1  2  2  0
  1  3  1  0
  3  4  1  0
  4  5  1  0
  6  1  1  0
  7  6  1  0
  6  8  1  0
  8  9  1  0
  9 10  1  0
 10 11  1  0
 11 12  1  0
 12 13  1  0
 13 14  1  0
 13 15  2  0
 14 16  1  0
 16 17  1  0
 17 18  2  0
 19 17  1  0
 18 20  1  0
 21 19  2  0
 19 22  1  0
 20 23  2  0
 23 21  1  0
 22 24  1  0
 22 25  2  0
  4 26  2  0
  4 27  1  0
 28 27  1  0
 28 29  1  0
 29 30  1  0
 29 31  1  0
 30 32  1  0
 31 33  1  0
 31 34  1  0
 34 32  1  0
 32 35  1  0
 34 36  1  0
 37 35  1  0
 38 35  1  0
 39 37  2  0
 37 40  1  0
 41 38  2  0
 42 39  1  0
 40 43  2  0
 40 41  1  0
 44 42  2  0
 44 43  1  0
 43 45  1  0
  6 46  1  6
  7 47  1  0
  7 48  1  0
  8 49  1  0
  8 50  1  0
  9 51  1  0
  9 52  1  0
 10 53  1  0
 10 54  1  0
 11 55  1  0
 11 56  1  0
 12 57  1  0
 16 58  1  0
 16 59  1  0
 18 60  1  0
 20 61  1  0
 21 62  1  0
 23 63  1  0
 28 64  1  0
 28 65  1  0
 29 66  1  0
 31 67  1  0
 32 68  1  0
 33 69  1  0
 34 70  1  0
 36 71  1  0
 38 72  1  0
 42 73  1  0
 45 74  1  0
 45 75  1  0
M  CHG  3   5  -1  22   1  24  -1
M  END
>  <EmbedRMS>  (585) 
0.0748411489501

$$$$

     RDKit          3D

 75 78  0  0  0  0  0  0  0  0999 V2000
    9.4331   42.9365   34.3462 C   0  0  0  0  0  0  0  0  0  0  0  0
   10.4907   43.0329   35.0318 O   0  0  0  0  0  0  0  0  0  0  0  0
    8.8558   41.7103   34.0299 O   0  0  0  0  0  0  0  0  0  0  0  0
    9.4944   40.2141   34.4677 P   0  0  0  0  0  0  0  0  0  0  0  0
    9.7317   40.1723   36.1287 O   0  0  0  0  0  0  0  0  0  0  0  0
    8.7506   44.1348   33.7741 C   0  0  1  0  0  0  0  0  0  0  0  0
    9.2963   45.3820   34.3133 N   0  0  0  0  0  0  0  0  0  0  0  0
    8.8893   44.0527   32.2358 C   0  0  0  0  0  0  0  0  0  0  0  0
    8.2029   45.1822   31.4614 C   0  0  0  0  0  0  0  0  0  0  0  0
    6.6654   45.1046   31.4855 C   0  0  0  0  0  0  0  0  0  0  0  0
    6.0273   46.3228   30.8106 C   0  0  0  0  0  0  0  0  0  0  0  0
    6.5069   47.5640   31.4182 N   0  0  0  0  0  0  0  0  0  0  0  0
    7.2419   48.5403   30.6829 C   0  0  0  0  0  0  0  0  0  0  0  0
    7.5771   49.7507   31.3019 O   0  0  0  0  0  0  0  0  0  0  0  0
    7.5940   48.3109   29.4941 O   0  0  0  0  0  0  0  0  0  0  0  0
    8.3267   50.7823   30.6578 C   0  0  0  0  0  0  0  0  0  0  0  0
    7.4659   51.7154   29.8246 C   0  0  0  0  0  0  0  0  0  0  0  0
    6.0872   51.4632   29.6521 C   0  0  0  0  0  0  0  0  0  0  0  0
    8.0217   52.8929   29.2512 C   0  0  0  0  0  0  0  0  0  0  0  0
    5.2837   52.3429   28.9260 C   0  0  0  0  0  0  0  0  0  0  0  0
    7.1879   53.7720   28.5359 C   0  0  0  0  0  0  0  0  0  0  0  0
    9.4123   53.2312   29.4084 N   0  0  0  0  0  0  0  0  0  0  0  0
    5.8321   53.4946   28.3698 C   0  0  0  0  0  0  0  0  0  0  0  0
   10.3892   52.2726   29.2753 O   0  0  0  0  0  0  0  0  0  0  0  0
    9.7570   54.4281   29.4952 O   0  0  0  0  0  0  0  0  0  0  0  0
    8.5372   39.1382   34.0122 O   0  0  0  0  0  0  0  0  0  0  0  0
   10.9795   40.0889   33.6815 O   0  0  0  0  0  0  0  0  0  0  0  0
   10.7982   40.0848   32.2819 C   0  0  0  0  0  0  0  0  0  0  0  0
   11.5886   38.9142   31.7009 C   0  0  0  0  0  0  0  0  0  0  0  0
   12.9214   38.9367   32.1698 O   0  0  0  0  0  0  0  0  0  0  0  0
   11.0047   37.5660   32.0990 C   0  0  0  0  0  0  0  0  0  0  0  0
   13.3511   37.5885   32.2601 C   0  0  0  0  0  0  0  0  0  0  0  0
    9.9296   37.1961   31.2780 O   0  0  0  0  0  0  0  0  0  0  0  0
   12.1923   36.6658   31.9047 C   0  0  0  0  0  0  0  0  0  0  0  0
   13.8033   37.2966   33.6188 N   0  0  0  0  0  0  0  0  0  0  0  0
   12.3007   36.2864   30.5561 O   0  0  0  0  0  0  0  0  0  0  0  0
   14.7933   36.4724   33.9860 C   0  0  0  0  0  0  0  0  0  0  0  0
   13.2753   37.7296   34.7935 C   0  0  0  0  0  0  0  0  0  0  0  0
   15.6243   35.7579   33.1860 N   0  0  0  0  0  0  0  0  0  0  0  0
   14.8728   36.4410   35.3328 C   0  0  0  0  0  0  0  0  0  0  0  0
   13.9209   37.2263   35.8804 N   0  0  0  0  0  0  0  0  0  0  0  0
   16.5873   34.9919   33.7803 C   0  0  0  0  0  0  0  0  0  0  0  0
   15.8577   35.6717   35.9443 C   0  0  0  0  0  0  0  0  0  0  0  0
   16.7025   34.9583   35.1440 N   0  0  0  0  0  0  0  0  0  0  0  0
   16.0100   35.6384   37.3563 N   0  0  0  0  0  0  0  0  0  0  0  0
    7.6770   44.0707   34.0504 H   0  0  0  0  0  0  0  0  0  0  0  0
    9.1827   45.3820   35.3535 H   0  0  0  0  0  0  0  0  0  0  0  0
   10.3192   45.4405   34.1000 H   0  0  0  0  0  0  0  0  0  0  0  0
    9.9711   44.0680   31.9739 H   0  0  0  0  0  0  0  0  0  0  0  0
    8.4816   43.0850   31.8668 H   0  0  0  0  0  0  0  0  0  0  0  0
    8.5385   45.1361   30.4022 H   0  0  0  0  0  0  0  0  0  0  0  0
    8.5554   46.1509   31.8741 H   0  0  0  0  0  0  0  0  0  0  0  0
    6.3296   44.1801   30.9677 H   0  0  0  0  0  0  0  0  0  0  0  0
    6.3021   45.0643   32.5333 H   0  0  0  0  0  0  0  0  0  0  0  0
    6.2466   46.2900   29.7218 H   0  0  0  0  0  0  0  0  0  0  0  0
    4.9238   46.2678   30.9267 H   0  0  0  0  0  0  0  0  0  0  0  0
    6.2806   47.7542   32.4203 H   0  0  0  0  0  0  0  0  0  0  0  0
    9.1182   50.3233   30.0289 H   0  0  0  0  0  0  0  0  0  0  0  0
    8.8229   51.3810   31.4506 H   0  0  0  0  0  0  0  0  0  0  0  0
    5.6136   50.5940   30.0851 H   0  0  0  0  0  0  0  0  0  0  0  0
    4.2288   52.1339   28.8018 H   0  0  0  0  0  0  0  0  0  0  0  0
    7.5944   54.6731   28.0940 H   0  0  0  0  0  0  0  0  0  0  0  0
    5.2045   54.1770   27.8112 H   0  0  0  0  0  0  0  0  0  0  0  0
   11.2131   41.0320   31.8757 H   0  0  0  0  0  0  0  0  0  0  0  0
    9.7427   40.0140   31.9266 H   0  0  0  0  0  0  0  0  0  0  0  0
   11.5980   39.0108   30.5904 H   0  0  0  0  0  0  0  0  0  0  0  0
   10.7009   37.5601   33.1721 H   0  0  0  0  0  0  0  0  0  0  0  0
   14.1977   37.4380   31.5532 H   0  0  0  0  0  0  0  0  0  0  0  0
    9.5180   36.3961   31.6977 H   0  0  0  0  0  0  0  0  0  0  0  0
   12.1419   35.7697   32.5692 H   0  0  0  0  0  0  0  0  0  0  0  0
   11.7730   35.4523   30.4488 H   0  0  0  0  0  0  0  0  0  0  0  0
   12.4321   38.3984   34.8692 H   0  0  0  0  0  0  0  0  0  0  0  0
   17.2667   34.4138   33.1694 H   0  0  0  0  0  0  0  0  0  0  0  0
   16.7634   35.0598   37.7897 H   0  0  0  0  0  0  0  0  0  0  0  0
   15.3757   36.1867   37.9790 H   0  0  0  0  0  0  0  0  0  0  0  0
  1  2  2  0
  1  3  1  0
  3  4  1  0
  4  5  1  0
  6  1  1  0
  7  6  1  0
  6  8  1  0
  8  9  1  0
  9 10  1  0
 10 11  1  0
 11 12  1  0
 12 13  1  0
 13 14  1  0
 13 15  2  0
 14 16  1  0
 16 17  1  0
 17 18  2  0
 19 17  1  0
 18 20  1  0
 21 19  2  0
 19 22  1  0
 20 23  2  0
 23 21  1  0
 22 24  1  0
 22 25  2  0
  4 26  2  0
  4 27  1  0
 28 27  1  0
 28 29  1  0
 29 30  1  0
 29 31  1  0
 30 32  1  0
 31 33  1  0
 31 34  1  0
 34 32  1  0
 32 35  1  0
 34 36  1  0
 37 35  1  0
 38 35  1  0
 39 37  2  0
 37 40  1  0
 41 38  2  0
 42 39  1  0
 40 43  2  0
 40 41  1  0
 44 42  2  0
 44 43  1  0
 43 45  1  0
  6 46  1  6
  7 47  1  0
  7 48  1  0
  8 49  1  0
  8 50  1  0
  9 51  1  0
  9 52  1  0
 10 53  1  0
 10 54  1  0
 11 55  1  0
 11 56  1  0
 12 57  1  0
 16 58  1  0
 16 59  1  0
 18 60  1  0
 20 61  1  0
 21 62  1  0
 23 63  1  0
 28 64  1  0
 28 65  1  0
 29 66  1  0
 31 67  1  0
 32 68  1  0
 33 69  1  0
 34 70  1  0
 36 71  1  0
 38 72  1  0
 42 73  1  0
 45 74  1  0
 45 75  1  0
M  CHG  3   5  -1  22   1  24  -1
M  END
>  <EmbedRMS>  (586) 
0.0743640162314

$$$$

     RDKit          3D

 75 78  0  0  0  0  0  0  0  0999 V2000
    9.4330   42.9367   34.3463 C   0  0  0  0  0  0  0  0  0  0  0  0
   10.4905   43.0333   35.0319 O   0  0  0  0  0  0  0  0  0  0  0  0
    8.8562   41.7105   34.0297 O   0  0  0  0  0  0  0  0  0  0  0  0
    9.4945   40.2143   34.4680 P   0  0  0  0  0  0  0  0  0  0  0  0
    9.7309   40.1726   36.1291 O   0  0  0  0  0  0  0  0  0  0  0  0
    8.7502   44.1350   33.7741 C   0  0  1  0  0  0  0  0  0  0  0  0
    9.2956   45.3824   34.3132 N   0  0  0  0  0  0  0  0  0  0  0  0
    8.8891   44.0526   32.2359 C   0  0  0  0  0  0  0  0  0  0  0  0
    8.2031   45.1823   31.4613 C   0  0  0  0  0  0  0  0  0  0  0  0
    6.6656   45.1033   31.4819 C   0  0  0  0  0  0  0  0  0  0  0  0
    6.0281   46.3239   30.8102 C   0  0  0  0  0  0  0  0  0  0  0  0
    6.5100   47.5618   31.4225 N   0  0  0  0  0  0  0  0  0  0  0  0
    7.2431   48.5448   30.6814 C   0  0  0  0  0  0  0  0  0  0  0  0
    7.6093   49.7729   31.2496 O   0  0  0  0  0  0  0  0  0  0  0  0
    7.5904   48.3072   29.4952 O   0  0  0  0  0  0  0  0  0  0  0  0
    7.2781   50.1866   32.5751 C   0  0  0  0  0  0  0  0  0  0  0  0
    5.7954   50.4602   32.7017 C   0  0  0  0  0  0  0  0  0  0  0  0
    5.1744   51.2495   31.7166 C   0  0  0  0  0  0  0  0  0  0  0  0
    5.0088   49.9237   33.7539 C   0  0  0  0  0  0  0  0  0  0  0  0
    3.7954   51.4633   31.7396 C   0  0  0  0  0  0  0  0  0  0  0  0
    3.6186   50.1332   33.7492 C   0  0  0  0  0  0  0  0  0  0  0  0
    5.6003   49.1940   34.8399 N   0  0  0  0  0  0  0  0  0  0  0  0
    3.0174   50.8971   32.7479 C   0  0  0  0  0  0  0  0  0  0  0  0
    6.6783   49.7192   35.5144 O   0  0  0  0  0  0  0  0  0  0  0  0
    5.0109   48.2046   35.3216 O   0  0  0  0  0  0  0  0  0  0  0  0
    8.5372   39.1387   34.0125 O   0  0  0  0  0  0  0  0  0  0  0  0
   10.9804   40.0881   33.6837 O   0  0  0  0  0  0  0  0  0  0  0  0
   10.8025   40.0900   32.2839 C   0  0  0  0  0  0  0  0  0  0  0  0
   11.5888   38.9174   31.7007 C   0  0  0  0  0  0  0  0  0  0  0  0
   12.9219   38.9373   32.1692 O   0  0  0  0  0  0  0  0  0  0  0  0
   11.0028   37.5682   32.0980 C   0  0  0  0  0  0  0  0  0  0  0  0
   13.3496   37.5885   32.2601 C   0  0  0  0  0  0  0  0  0  0  0  0
    9.9343   37.1822   31.2756 O   0  0  0  0  0  0  0  0  0  0  0  0
   12.1891   36.6677   31.9049 C   0  0  0  0  0  0  0  0  0  0  0  0
   13.8025   37.2965   33.6186 N   0  0  0  0  0  0  0  0  0  0  0  0
   12.2991   36.2867   30.5567 O   0  0  0  0  0  0  0  0  0  0  0  0
   14.7929   36.4725   33.9858 C   0  0  0  0  0  0  0  0  0  0  0  0
   13.2749   37.7294   34.7935 C   0  0  0  0  0  0  0  0  0  0  0  0
   15.6240   35.7580   33.1858 N   0  0  0  0  0  0  0  0  0  0  0  0
   14.8727   36.4411   35.3327 C   0  0  0  0  0  0  0  0  0  0  0  0
   13.9208   37.2263   35.8803 N   0  0  0  0  0  0  0  0  0  0  0  0
   16.5871   34.9921   33.7801 C   0  0  0  0  0  0  0  0  0  0  0  0
   15.8576   35.6718   35.9441 C   0  0  0  0  0  0  0  0  0  0  0  0
   16.7024   34.9584   35.1438 N   0  0  0  0  0  0  0  0  0  0  0  0
   16.0099   35.6384   37.3562 N   0  0  0  0  0  0  0  0  0  0  0  0
    7.6765   44.0709   34.0501 H   0  0  0  0  0  0  0  0  0  0  0  0
   10.3187   45.4409   34.1008 H   0  0  0  0  0  0  0  0  0  0  0  0
    9.1809   45.3831   35.3533 H   0  0  0  0  0  0  0  0  0  0  0  0
    9.9710   44.0678   31.9742 H   0  0  0  0  0  0  0  0  0  0  0  0
    8.4814   43.0850   31.8669 H   0  0  0  0  0  0  0  0  0  0  0  0
    8.5409   45.1377   30.4027 H   0  0  0  0  0  0  0  0  0  0  0  0
    8.5543   46.1506   31.8759 H   0  0  0  0  0  0  0  0  0  0  0  0
    6.3002   45.0586   32.5289 H   0  0  0  0  0  0  0  0  0  0  0  0
    6.3314   44.1805   30.9600 H   0  0  0  0  0  0  0  0  0  0  0  0
    6.2449   46.2939   29.7210 H   0  0  0  0  0  0  0  0  0  0  0  0
    4.9248   46.2698   30.9289 H   0  0  0  0  0  0  0  0  0  0  0  0
    6.3026   47.7087   32.4337 H   0  0  0  0  0  0  0  0  0  0  0  0
    7.8232   51.1292   32.7906 H   0  0  0  0  0  0  0  0  0  0  0  0
    7.6451   49.4233   33.2896 H   0  0  0  0  0  0  0  0  0  0  0  0
    5.7587   51.6845   30.9149 H   0  0  0  0  0  0  0  0  0  0  0  0
    3.3282   52.0629   30.9690 H   0  0  0  0  0  0  0  0  0  0  0  0
    3.0022   49.7244   34.5399 H   0  0  0  0  0  0  0  0  0  0  0  0
    1.9475   51.0604   32.7611 H   0  0  0  0  0  0  0  0  0  0  0  0
    9.7476   40.0331   31.9256 H   0  0  0  0  0  0  0  0  0  0  0  0
   11.2258   41.0357   31.8829 H   0  0  0  0  0  0  0  0  0  0  0  0
   11.5974   39.0148   30.5904 H   0  0  0  0  0  0  0  0  0  0  0  0
   10.7023   37.5455   33.1719 H   0  0  0  0  0  0  0  0  0  0  0  0
   14.1957   37.4366   31.5528 H   0  0  0  0  0  0  0  0  0  0  0  0
    9.1339   37.6658   31.6069 H   0  0  0  0  0  0  0  0  0  0  0  0
   12.1381   35.7717   32.5697 H   0  0  0  0  0  0  0  0  0  0  0  0
   11.7707   35.4530   30.4496 H   0  0  0  0  0  0  0  0  0  0  0  0
   12.4314   38.3980   34.8694 H   0  0  0  0  0  0  0  0  0  0  0  0
   17.2665   34.4140   33.1691 H   0  0  0  0  0  0  0  0  0  0  0  0
   16.7633   35.0598   37.7895 H   0  0  0  0  0  0  0  0  0  0  0  0
   15.3757   36.1868   37.9789 H   0  0  0  0  0  0  0  0  0  0  0  0
  1  2  2  0
  1  3  1  0
  3  4  1  0
  4  5  1  0
  6  1  1  0
  7  6  1  0
  6  8  1  0
  8  9  1  0
  9 10  1  0
 10 11  1  0
 11 12  1  0
 12 13  1  0
 13 14  1  0
 13 15  2  0
 14 16  1  0
 16 17  1  0
 17 18  2  0
 19 17  1  0
 18 20  1  0
 21 19  2  0
 19 22  1  0
 20 23  2  0
 23 21  1  0
 22 24  1  0
 22 25  2  0
  4 26  2  0
  4 27  1  0
 28 27  1  0
 28 29  1  0
 29 30  1  0
 29 31  1  0
 30 32  1  0
 31 33  1  0
 31 34  1  0
 34 32  1  0
 32 35  1  0
 34 36  1  0
 37 35  1  0
 38 35  1  0
 39 37  2  0
 37 40  1  0
 41 38  2  0
 42 39  1  0
 40 43  2  0
 40 41  1  0
 44 42  2  0
 44 43  1  0
 43 45  1  0
  6 46  1  6
  7 47  1  0
  7 48  1  0
  8 49  1  0
  8 50  1  0
  9 51  1  0
  9 52  1  0
 10 53  1  0
 10 54  1  0
 11 55  1  0
 11 56  1  0
 12 57  1  0
 16 58  1  0
 16 59  1  0
 18 60  1  0
 20 61  1  0
 21 62  1  0
 23 63  1  0
 28 64  1  0
 28 65  1  0
 29 66  1  0
 31 67  1  0
 32 68  1  0
 33 69  1  0
 34 70  1  0
 36 71  1  0
 38 72  1  0
 42 73  1  0
 45 74  1  0
 45 75  1  0
M  CHG  3   5  -1  22   1  24  -1
M  END
>  <EmbedRMS>  (587) 
0.0740433167121

$$$$

     RDKit          3D

 75 78  0  0  0  0  0  0  0  0999 V2000
    9.4299   42.9395   34.3434 C   0  0  0  0  0  0  0  0  0  0  0  0
   10.4911   43.0382   35.0234 O   0  0  0  0  0  0  0  0  0  0  0  0
    8.8549   41.7116   34.0283 O   0  0  0  0  0  0  0  0  0  0  0  0
    9.4943   40.2156   34.4676 P   0  0  0  0  0  0  0  0  0  0  0  0
    9.7308   40.1740   36.1287 O   0  0  0  0  0  0  0  0  0  0  0  0
    8.7410   44.1378   33.7785 C   0  0  1  0  0  0  0  0  0  0  0  0
    9.3011   45.3720   34.3323 N   0  0  0  0  0  0  0  0  0  0  0  0
    8.8962   44.0590   32.2398 C   0  0  0  0  0  0  0  0  0  0  0  0
    8.2030   45.1686   31.4396 C   0  0  0  0  0  0  0  0  0  0  0  0
    6.6655   45.1048   31.4871 C   0  0  0  0  0  0  0  0  0  0  0  0
    6.0281   46.3241   30.8131 C   0  0  0  0  0  0  0  0  0  0  0  0
    6.5117   47.5625   31.4235 N   0  0  0  0  0  0  0  0  0  0  0  0
    7.2387   48.5468   30.6791 C   0  0  0  0  0  0  0  0  0  0  0  0
    7.5891   49.7831   31.2387 O   0  0  0  0  0  0  0  0  0  0  0  0
    7.5940   48.3040   29.4964 O   0  0  0  0  0  0  0  0  0  0  0  0
    7.1919   50.2367   32.5324 C   0  0  0  0  0  0  0  0  0  0  0  0
    5.7042   50.5039   32.5836 C   0  0  0  0  0  0  0  0  0  0  0  0
    4.9440   49.8880   33.5951 C   0  0  0  0  0  0  0  0  0  0  0  0
    5.0484   51.3256   31.6274 C   0  0  0  0  0  0  0  0  0  0  0  0
    3.5598   50.0540   33.6482 C   0  0  0  0  0  0  0  0  0  0  0  0
    3.6497   51.4667   31.6908 C   0  0  0  0  0  0  0  0  0  0  0  0
    5.7727   52.0075   30.5874 N   0  0  0  0  0  0  0  0  0  0  0  0
    2.9132   50.8369   32.6946 C   0  0  0  0  0  0  0  0  0  0  0  0
    6.9838   52.6037   30.8507 O   0  0  0  0  0  0  0  0  0  0  0  0
    5.2348   52.2078   29.4786 O   0  0  0  0  0  0  0  0  0  0  0  0
    8.5375   39.1394   34.0126 O   0  0  0  0  0  0  0  0  0  0  0  0
   10.9803   40.0889   33.6834 O   0  0  0  0  0  0  0  0  0  0  0  0
   10.8025   40.0901   32.2836 C   0  0  0  0  0  0  0  0  0  0  0  0
   11.5888   38.9174   31.7007 C   0  0  0  0  0  0  0  0  0  0  0  0
   12.9219   38.9373   32.1692 O   0  0  0  0  0  0  0  0  0  0  0  0
   11.0028   37.5682   32.0981 C   0  0  0  0  0  0  0  0  0  0  0  0
   13.3496   37.5886   32.2601 C   0  0  0  0  0  0  0  0  0  0  0  0
    9.9343   37.1823   31.2757 O   0  0  0  0  0  0  0  0  0  0  0  0
   12.1891   36.6677   31.9050 C   0  0  0  0  0  0  0  0  0  0  0  0
   13.8025   37.2965   33.6186 N   0  0  0  0  0  0  0  0  0  0  0  0
   12.2990   36.2867   30.5568 O   0  0  0  0  0  0  0  0  0  0  0  0
   14.7929   36.4725   33.9858 C   0  0  0  0  0  0  0  0  0  0  0  0
   13.2749   37.7294   34.7935 C   0  0  0  0  0  0  0  0  0  0  0  0
   15.6240   35.7580   33.1858 N   0  0  0  0  0  0  0  0  0  0  0  0
   14.8727   36.4411   35.3327 C   0  0  0  0  0  0  0  0  0  0  0  0
   13.9208   37.2263   35.8803 N   0  0  0  0  0  0  0  0  0  0  0  0
   16.5871   34.9921   33.7801 C   0  0  0  0  0  0  0  0  0  0  0  0
   15.8576   35.6718   35.9441 C   0  0  0  0  0  0  0  0  0  0  0  0
   16.7024   34.9584   35.1438 N   0  0  0  0  0  0  0  0  0  0  0  0
   16.0099   35.6384   37.3562 N   0  0  0  0  0  0  0  0  0  0  0  0
    7.6665   44.0653   34.0544 H   0  0  0  0  0  0  0  0  0  0  0  0
    9.2333   45.3275   35.3757 H   0  0  0  0  0  0  0  0  0  0  0  0
    8.6799   46.1669   34.0590 H   0  0  0  0  0  0  0  0  0  0  0  0
    9.9809   44.0902   31.9916 H   0  0  0  0  0  0  0  0  0  0  0  0
    8.5082   43.0837   31.8694 H   0  0  0  0  0  0  0  0  0  0  0  0
    8.5761   46.1510   31.7930 H   0  0  0  0  0  0  0  0  0  0  0  0
    8.5181   45.0766   30.3770 H   0  0  0  0  0  0  0  0  0  0  0  0
    6.3143   44.1789   30.9822 H   0  0  0  0  0  0  0  0  0  0  0  0
    6.3164   45.0765   32.5400 H   0  0  0  0  0  0  0  0  0  0  0  0
    6.2429   46.2924   29.7235 H   0  0  0  0  0  0  0  0  0  0  0  0
    4.9251   46.2710   30.9342 H   0  0  0  0  0  0  0  0  0  0  0  0
    6.3143   47.7072   32.4370 H   0  0  0  0  0  0  0  0  0  0  0  0
    7.5128   49.4997   33.3004 H   0  0  0  0  0  0  0  0  0  0  0  0
    7.7334   51.1761   32.7652 H   0  0  0  0  0  0  0  0  0  0  0  0
    5.4218   49.2644   34.3408 H   0  0  0  0  0  0  0  0  0  0  0  0
    2.9866   49.5691   34.4279 H   0  0  0  0  0  0  0  0  0  0  0  0
    3.1285   52.0824   30.9686 H   0  0  0  0  0  0  0  0  0  0  0  0
    1.8387   50.9609   32.7358 H   0  0  0  0  0  0  0  0  0  0  0  0
   11.2257   41.0357   31.8824 H   0  0  0  0  0  0  0  0  0  0  0  0
    9.7476   40.0332   31.9253 H   0  0  0  0  0  0  0  0  0  0  0  0
   11.5975   39.0147   30.5905 H   0  0  0  0  0  0  0  0  0  0  0  0
   10.7023   37.5456   33.1720 H   0  0  0  0  0  0  0  0  0  0  0  0
   14.1957   37.4366   31.5528 H   0  0  0  0  0  0  0  0  0  0  0  0
    9.1339   37.6658   31.6070 H   0  0  0  0  0  0  0  0  0  0  0  0
   12.1380   35.7717   32.5698 H   0  0  0  0  0  0  0  0  0  0  0  0
   11.7707   35.4530   30.4496 H   0  0  0  0  0  0  0  0  0  0  0  0
   12.4314   38.3980   34.8694 H   0  0  0  0  0  0  0  0  0  0  0  0
   17.2665   34.4140   33.1691 H   0  0  0  0  0  0  0  0  0  0  0  0
   16.7633   35.0598   37.7895 H   0  0  0  0  0  0  0  0  0  0  0  0
   15.3757   36.1868   37.9789 H   0  0  0  0  0  0  0  0  0  0  0  0
  1  2  2  0
  1  3  1  0
  3  4  1  0
  4  5  1  0
  6  1  1  0
  7  6  1  0
  6  8  1  0
  8  9  1  0
  9 10  1  0
 10 11  1  0
 11 12  1  0
 12 13  1  0
 13 14  1  0
 13 15  2  0
 14 16  1  0
 16 17  1  0
 17 18  2  0
 19 17  1  0
 18 20  1  0
 21 19  2  0
 19 22  1  0
 20 23  2  0
 23 21  1  0
 22 24  1  0
 22 25  2  0
  4 26  2  0
  4 27  1  0
 28 27  1  0
 28 29  1  0
 29 30  1  0
 29 31  1  0
 30 32  1  0
 31 33  1  0
 31 34  1  0
 34 32  1  0
 32 35  1  0
 34 36  1  0
 37 35  1  0
 38 35  1  0
 39 37  2  0
 37 40  1  0
 41 38  2  0
 42 39  1  0
 40 43  2  0
 40 41  1  0
 44 42  2  0
 44 43  1  0
 43 45  1  0
  6 46  1  6
  7 47  1  0
  7 48  1  0
  8 49  1  0
  8 50  1  0
  9 51  1  0
  9 52  1  0
 10 53  1  0
 10 54  1  0
 11 55  1  0
 11 56  1  0
 12 57  1  0
 16 58  1  0
 16 59  1  0
 18 60  1  0
 20 61  1  0
 21 62  1  0
 23 63  1  0
 28 64  1  0
 28 65  1  0
 29 66  1  0
 31 67  1  0
 32 68  1  0
 33 69  1  0
 34 70  1  0
 36 71  1  0
 38 72  1  0
 42 73  1  0
 45 74  1  0
 45 75  1  0
M  CHG  3   5  -1  22   1  24  -1
M  END
>  <EmbedRMS>  (588) 
0.0732857876708

$$$$

     RDKit          3D

 75 78  0  0  0  0  0  0  0  0999 V2000
    9.4300   42.9394   34.3436 C   0  0  0  0  0  0  0  0  0  0  0  0
   10.4914   43.0381   35.0235 O   0  0  0  0  0  0  0  0  0  0  0  0
    8.8546   41.7116   34.0293 O   0  0  0  0  0  0  0  0  0  0  0  0
    9.4929   40.2157   34.4704 P   0  0  0  0  0  0  0  0  0  0  0  0
    9.7287   40.1743   36.1314 O   0  0  0  0  0  0  0  0  0  0  0  0
    8.7413   44.1376   33.7786 C   0  0  1  0  0  0  0  0  0  0  0  0
    9.3016   45.3717   34.3325 N   0  0  0  0  0  0  0  0  0  0  0  0
    8.8963   44.0591   32.2399 C   0  0  0  0  0  0  0  0  0  0  0  0
    8.2027   45.1686   31.4400 C   0  0  0  0  0  0  0  0  0  0  0  0
    6.6654   45.1063   31.4910 C   0  0  0  0  0  0  0  0  0  0  0  0
    6.0278   46.3224   30.8123 C   0  0  0  0  0  0  0  0  0  0  0  0
    6.5079   47.5643   31.4185 N   0  0  0  0  0  0  0  0  0  0  0  0
    7.2423   48.5404   30.6824 C   0  0  0  0  0  0  0  0  0  0  0  0
    7.5825   49.7471   31.3027 O   0  0  0  0  0  0  0  0  0  0  0  0
    7.5936   48.3098   29.4943 O   0  0  0  0  0  0  0  0  0  0  0  0
    8.3220   50.7862   30.6617 C   0  0  0  0  0  0  0  0  0  0  0  0
    7.5078   51.4295   29.5619 C   0  0  0  0  0  0  0  0  0  0  0  0
    6.2427   51.9469   29.8945 C   0  0  0  0  0  0  0  0  0  0  0  0
    8.0000   51.6041   28.2417 C   0  0  0  0  0  0  0  0  0  0  0  0
    5.4727   52.6168   28.9427 C   0  0  0  0  0  0  0  0  0  0  0  0
    7.2169   52.2969   27.3019 C   0  0  0  0  0  0  0  0  0  0  0  0
    9.2839   51.1041   27.8392 N   0  0  0  0  0  0  0  0  0  0  0  0
    5.9601   52.7939   27.6493 C   0  0  0  0  0  0  0  0  0  0  0  0
    9.5797   49.7691   27.9859 O   0  0  0  0  0  0  0  0  0  0  0  0
   10.0307   51.8114   27.1319 O   0  0  0  0  0  0  0  0  0  0  0  0
    8.5369   39.1392   34.0141 O   0  0  0  0  0  0  0  0  0  0  0  0
   10.9794   40.0882   33.6887 O   0  0  0  0  0  0  0  0  0  0  0  0
   10.8017   40.0949   32.2899 C   0  0  0  0  0  0  0  0  0  0  0  0
   11.5885   38.9266   31.7041 C   0  0  0  0  0  0  0  0  0  0  0  0
   12.9236   38.9445   32.1722 O   0  0  0  0  0  0  0  0  0  0  0  0
   11.0029   37.5726   32.0908 C   0  0  0  0  0  0  0  0  0  0  0  0
   13.3555   37.5960   32.2595 C   0  0  0  0  0  0  0  0  0  0  0  0
    9.9379   37.1846   31.2657 O   0  0  0  0  0  0  0  0  0  0  0  0
   12.1932   36.6769   31.8952 C   0  0  0  0  0  0  0  0  0  0  0  0
   13.8028   37.2977   33.6186 N   0  0  0  0  0  0  0  0  0  0  0  0
   12.2918   36.2396   30.5587 O   0  0  0  0  0  0  0  0  0  0  0  0
   14.7926   36.4727   33.9858 C   0  0  0  0  0  0  0  0  0  0  0  0
   13.2750   37.7302   34.7935 C   0  0  0  0  0  0  0  0  0  0  0  0
   15.6241   35.7586   33.1857 N   0  0  0  0  0  0  0  0  0  0  0  0
   14.8721   36.4408   35.3326 C   0  0  0  0  0  0  0  0  0  0  0  0
   13.9204   37.2263   35.8802 N   0  0  0  0  0  0  0  0  0  0  0  0
   16.5870   34.9925   33.7800 C   0  0  0  0  0  0  0  0  0  0  0  0
   15.8572   35.6717   35.9441 C   0  0  0  0  0  0  0  0  0  0  0  0
   16.7022   34.9586   35.1437 N   0  0  0  0  0  0  0  0  0  0  0  0
   16.0097   35.6384   37.3561 N   0  0  0  0  0  0  0  0  0  0  0  0
    7.6669   44.0652   34.0547 H   0  0  0  0  0  0  0  0  0  0  0  0
    8.6809   46.1667   34.0586 H   0  0  0  0  0  0  0  0  0  0  0  0
    9.2334   45.3274   35.3759 H   0  0  0  0  0  0  0  0  0  0  0  0
    9.9810   44.0905   31.9915 H   0  0  0  0  0  0  0  0  0  0  0  0
    8.5084   43.0837   31.8696 H   0  0  0  0  0  0  0  0  0  0  0  0
    8.5770   46.1512   31.7918 H   0  0  0  0  0  0  0  0  0  0  0  0
    8.5157   45.0752   30.3769 H   0  0  0  0  0  0  0  0  0  0  0  0
    6.3124   44.1783   30.9913 H   0  0  0  0  0  0  0  0  0  0  0  0
    6.3183   45.0837   32.5446 H   0  0  0  0  0  0  0  0  0  0  0  0
    4.9244   46.2682   30.9291 H   0  0  0  0  0  0  0  0  0  0  0  0
    6.2471   46.2875   29.7235 H   0  0  0  0  0  0  0  0  0  0  0  0
    6.2838   47.7543   32.4212 H   0  0  0  0  0  0  0  0  0  0  0  0
    9.2973   50.3921   30.3170 H   0  0  0  0  0  0  0  0  0  0  0  0
    8.5497   51.5644   31.4202 H   0  0  0  0  0  0  0  0  0  0  0  0
    5.8549   51.8385   30.9003 H   0  0  0  0  0  0  0  0  0  0  0  0
    4.4999   53.0077   29.2119 H   0  0  0  0  0  0  0  0  0  0  0  0
    7.5783   52.4397   26.2911 H   0  0  0  0  0  0  0  0  0  0  0  0
    5.3638   53.3187   26.9140 H   0  0  0  0  0  0  0  0  0  0  0  0
    9.7472   40.0378   31.9302 H   0  0  0  0  0  0  0  0  0  0  0  0
   11.2241   41.0428   31.8929 H   0  0  0  0  0  0  0  0  0  0  0  0
   11.5928   39.0433   30.5965 H   0  0  0  0  0  0  0  0  0  0  0  0
   10.7003   37.5443   33.1640 H   0  0  0  0  0  0  0  0  0  0  0  0
   14.2051   37.4477   31.5560 H   0  0  0  0  0  0  0  0  0  0  0  0
    9.1374   37.6722   31.5906 H   0  0  0  0  0  0  0  0  0  0  0  0
   12.1305   35.7856   32.5586 H   0  0  0  0  0  0  0  0  0  0  0  0
   12.4607   37.0186   29.9674 H   0  0  0  0  0  0  0  0  0  0  0  0
   12.4327   38.4001   34.8694 H   0  0  0  0  0  0  0  0  0  0  0  0
   17.2666   34.4146   33.1690 H   0  0  0  0  0  0  0  0  0  0  0  0
   16.7634   35.0601   37.7894 H   0  0  0  0  0  0  0  0  0  0  0  0
   15.3754   36.1866   37.9788 H   0  0  0  0  0  0  0  0  0  0  0  0
  1  2  2  0
  1  3  1  0
  3  4  1  0
  4  5  1  0
  6  1  1  0
  7  6  1  0
  6  8  1  0
  8  9  1  0
  9 10  1  0
 10 11  1  0
 11 12  1  0
 12 13  1  0
 13 14  1  0
 13 15  2  0
 14 16  1  0
 16 17  1  0
 17 18  2  0
 19 17  1  0
 18 20  1  0
 21 19  2  0
 19 22  1  0
 20 23  2  0
 23 21  1  0
 22 24  1  0
 22 25  2  0
  4 26  2  0
  4 27  1  0
 28 27  1  0
 28 29  1  0
 29 30  1  0
 29 31  1  0
 30 32  1  0
 31 33  1  0
 31 34  1  0
 34 32  1  0
 32 35  1  0
 34 36  1  0
 37 35  1  0
 38 35  1  0
 39 37  2  0
 37 40  1  0
 41 38  2  0
 42 39  1  0
 40 43  2  0
 40 41  1  0
 44 42  2  0
 44 43  1  0
 43 45  1  0
  6 46  1  6
  7 47  1  0
  7 48  1  0
  8 49  1  0
  8 50  1  0
  9 51  1  0
  9 52  1  0
 10 53  1  0
 10 54  1  0
 11 55  1  0
 11 56  1  0
 12 57  1  0
 16 58  1  0
 16 59  1  0
 18 60  1  0
 20 61  1  0
 21 62  1  0
 23 63  1  0
 28 64  1  0
 28 65  1  0
 29 66  1  0
 31 67  1  0
 32 68  1  0
 33 69  1  0
 34 70  1  0
 36 71  1  0
 38 72  1  0
 42 73  1  0
 45 74  1  0
 45 75  1  0
M  CHG  3   5  -1  22   1  24  -1
M  END
>  <EmbedRMS>  (589) 
0.0750067391464

$$$$

     RDKit          3D

 75 78  0  0  0  0  0  0  0  0999 V2000
    9.4296   42.9398   34.3439 C   0  0  0  0  0  0  0  0  0  0  0  0
   10.4911   43.0385   35.0236 O   0  0  0  0  0  0  0  0  0  0  0  0
    8.8544   41.7119   34.0294 O   0  0  0  0  0  0  0  0  0  0  0  0
    9.4929   40.2159   34.4704 P   0  0  0  0  0  0  0  0  0  0  0  0
    9.7287   40.1744   36.1314 O   0  0  0  0  0  0  0  0  0  0  0  0
    8.7408   44.1381   33.7788 C   0  0  1  0  0  0  0  0  0  0  0  0
    9.3012   45.3722   34.3326 N   0  0  0  0  0  0  0  0  0  0  0  0
    8.8961   44.0592   32.2402 C   0  0  0  0  0  0  0  0  0  0  0  0
    8.2028   45.1685   31.4400 C   0  0  0  0  0  0  0  0  0  0  0  0
    6.6653   45.1054   31.4883 C   0  0  0  0  0  0  0  0  0  0  0  0
    6.0294   46.3227   30.8097 C   0  0  0  0  0  0  0  0  0  0  0  0
    6.5086   47.5620   31.4211 N   0  0  0  0  0  0  0  0  0  0  0  0
    7.2519   48.5400   30.6852 C   0  0  0  0  0  0  0  0  0  0  0  0
    7.6499   49.7524   31.2652 O   0  0  0  0  0  0  0  0  0  0  0  0
    7.5838   48.3104   29.4930 O   0  0  0  0  0  0  0  0  0  0  0  0
    7.4263   50.1241   32.6262 C   0  0  0  0  0  0  0  0  0  0  0  0
    5.9608   50.3843   32.9023 C   0  0  0  0  0  0  0  0  0  0  0  0
    5.2084   51.0886   31.9431 C   0  0  0  0  0  0  0  0  0  0  0  0
    5.3521   50.0433   34.1388 C   0  0  0  0  0  0  0  0  0  0  0  0
    3.8732   51.4165   32.1832 C   0  0  0  0  0  0  0  0  0  0  0  0
    4.0115   50.3964   34.3684 C   0  0  0  0  0  0  0  0  0  0  0  0
    6.0786   49.3757   35.1807 N   0  0  0  0  0  0  0  0  0  0  0  0
    3.2753   51.0700   33.3932 C   0  0  0  0  0  0  0  0  0  0  0  0
    6.6082   48.1260   34.9588 O   0  0  0  0  0  0  0  0  0  0  0  0
    6.0038   49.7975   36.3531 O   0  0  0  0  0  0  0  0  0  0  0  0
    8.5369   39.1394   34.0141 O   0  0  0  0  0  0  0  0  0  0  0  0
   10.9793   40.0883   33.6887 O   0  0  0  0  0  0  0  0  0  0  0  0
   10.8017   40.0949   32.2899 C   0  0  0  0  0  0  0  0  0  0  0  0
   11.5885   38.9266   31.7041 C   0  0  0  0  0  0  0  0  0  0  0  0
   12.9236   38.9445   32.1722 O   0  0  0  0  0  0  0  0  0  0  0  0
   11.0029   37.5726   32.0908 C   0  0  0  0  0  0  0  0  0  0  0  0
   13.3555   37.5960   32.2595 C   0  0  0  0  0  0  0  0  0  0  0  0
    9.9379   37.1846   31.2657 O   0  0  0  0  0  0  0  0  0  0  0  0
   12.1932   36.6769   31.8952 C   0  0  0  0  0  0  0  0  0  0  0  0
   13.8028   37.2977   33.6186 N   0  0  0  0  0  0  0  0  0  0  0  0
   12.2918   36.2396   30.5587 O   0  0  0  0  0  0  0  0  0  0  0  0
   14.7926   36.4727   33.9858 C   0  0  0  0  0  0  0  0  0  0  0  0
   13.2750   37.7302   34.7935 C   0  0  0  0  0  0  0  0  0  0  0  0
   15.6241   35.7586   33.1857 N   0  0  0  0  0  0  0  0  0  0  0  0
   14.8721   36.4408   35.3326 C   0  0  0  0  0  0  0  0  0  0  0  0
   13.9204   37.2263   35.8802 N   0  0  0  0  0  0  0  0  0  0  0  0
   16.5870   34.9925   33.7800 C   0  0  0  0  0  0  0  0  0  0  0  0
   15.8572   35.6717   35.9441 C   0  0  0  0  0  0  0  0  0  0  0  0
   16.7022   34.9586   35.1437 N   0  0  0  0  0  0  0  0  0  0  0  0
   16.0097   35.6384   37.3561 N   0  0  0  0  0  0  0  0  0  0  0  0
    7.6663   44.0660   34.0547 H   0  0  0  0  0  0  0  0  0  0  0  0
    9.2299   45.3292   35.3759 H   0  0  0  0  0  0  0  0  0  0  0  0
    8.6826   46.1678   34.0562 H   0  0  0  0  0  0  0  0  0  0  0  0
    9.9808   44.0904   31.9920 H   0  0  0  0  0  0  0  0  0  0  0  0
    8.5081   43.0838   31.8700 H   0  0  0  0  0  0  0  0  0  0  0  0
    8.5761   46.1512   31.7928 H   0  0  0  0  0  0  0  0  0  0  0  0
    8.5175   45.0760   30.3774 H   0  0  0  0  0  0  0  0  0  0  0  0
    6.3164   45.0814   32.5414 H   0  0  0  0  0  0  0  0  0  0  0  0
    6.3135   44.1780   30.9866 H   0  0  0  0  0  0  0  0  0  0  0  0
    4.9257   46.2685   30.9241 H   0  0  0  0  0  0  0  0  0  0  0  0
    6.2508   46.2894   29.7214 H   0  0  0  0  0  0  0  0  0  0  0  0
    6.2817   47.7194   32.4253 H   0  0  0  0  0  0  0  0  0  0  0  0
    7.9774   51.0685   32.8162 H   0  0  0  0  0  0  0  0  0  0  0  0
    7.8688   49.3581   33.2911 H   0  0  0  0  0  0  0  0  0  0  0  0
    5.6584   51.3919   31.0059 H   0  0  0  0  0  0  0  0  0  0  0  0
    3.3044   51.9507   31.4332 H   0  0  0  0  0  0  0  0  0  0  0  0
    3.5348   50.1416   35.3067 H   0  0  0  0  0  0  0  0  0  0  0  0
    2.2417   51.3312   33.5799 H   0  0  0  0  0  0  0  0  0  0  0  0
   11.2240   41.0428   31.8928 H   0  0  0  0  0  0  0  0  0  0  0  0
    9.7472   40.0378   31.9302 H   0  0  0  0  0  0  0  0  0  0  0  0
   11.5927   39.0433   30.5966 H   0  0  0  0  0  0  0  0  0  0  0  0
   10.7003   37.5443   33.1641 H   0  0  0  0  0  0  0  0  0  0  0  0
   14.2051   37.4478   31.5560 H   0  0  0  0  0  0  0  0  0  0  0  0
    9.1373   37.6722   31.5906 H   0  0  0  0  0  0  0  0  0  0  0  0
   12.1305   35.7856   32.5586 H   0  0  0  0  0  0  0  0  0  0  0  0
   12.4606   37.0186   29.9674 H   0  0  0  0  0  0  0  0  0  0  0  0
   12.4327   38.4001   34.8694 H   0  0  0  0  0  0  0  0  0  0  0  0
   17.2666   34.4146   33.1690 H   0  0  0  0  0  0  0  0  0  0  0  0
   15.3754   36.1866   37.9788 H   0  0  0  0  0  0  0  0  0  0  0  0
   16.7634   35.0601   37.7894 H   0  0  0  0  0  0  0  0  0  0  0  0
  1  2  2  0
  1  3  1  0
  3  4  1  0
  4  5  1  0
  6  1  1  0
  7  6  1  0
  6  8  1  0
  8  9  1  0
  9 10  1  0
 10 11  1  0
 11 12  1  0
 12 13  1  0
 13 14  1  0
 13 15  2  0
 14 16  1  0
 16 17  1  0
 17 18  2  0
 19 17  1  0
 18 20  1  0
 21 19  2  0
 19 22  1  0
 20 23  2  0
 23 21  1  0
 22 24  1  0
 22 25  2  0
  4 26  2  0
  4 27  1  0
 28 27  1  0
 28 29  1  0
 29 30  1  0
 29 31  1  0
 30 32  1  0
 31 33  1  0
 31 34  1  0
 34 32  1  0
 32 35  1  0
 34 36  1  0
 37 35  1  0
 38 35  1  0
 39 37  2  0
 37 40  1  0
 41 38  2  0
 42 39  1  0
 40 43  2  0
 40 41  1  0
 44 42  2  0
 44 43  1  0
 43 45  1  0
  6 46  1  6
  7 47  1  0
  7 48  1  0
  8 49  1  0
  8 50  1  0
  9 51  1  0
  9 52  1  0
 10 53  1  0
 10 54  1  0
 11 55  1  0
 11 56  1  0
 12 57  1  0
 16 58  1  0
 16 59  1  0
 18 60  1  0
 20 61  1  0
 21 62  1  0
 23 63  1  0
 28 64  1  0
 28 65  1  0
 29 66  1  0
 31 67  1  0
 32 68  1  0
 33 69  1  0
 34 70  1  0
 36 71  1  0
 38 72  1  0
 42 73  1  0
 45 74  1  0
 45 75  1  0
M  CHG  3   5  -1  22   1  24  -1
M  END
>  <EmbedRMS>  (590) 
0.0750909010125

$$$$

     RDKit          3D

 75 78  0  0  0  0  0  0  0  0999 V2000
    9.4297   42.9396   34.3436 C   0  0  0  0  0  0  0  0  0  0  0  0
   10.4910   43.0382   35.0236 O   0  0  0  0  0  0  0  0  0  0  0  0
    8.8549   41.7117   34.0283 O   0  0  0  0  0  0  0  0  0  0  0  0
    9.4942   40.2155   34.4674 P   0  0  0  0  0  0  0  0  0  0  0  0
    9.7309   40.1738   36.1286 O   0  0  0  0  0  0  0  0  0  0  0  0
    8.7408   44.1380   33.7788 C   0  0  1  0  0  0  0  0  0  0  0  0
    9.3012   45.3721   34.3327 N   0  0  0  0  0  0  0  0  0  0  0  0
    8.8961   44.0592   32.2401 C   0  0  0  0  0  0  0  0  0  0  0  0
    8.2028   45.1686   31.4401 C   0  0  0  0  0  0  0  0  0  0  0  0
    6.6653   45.1054   31.4883 C   0  0  0  0  0  0  0  0  0  0  0  0
    6.0294   46.3227   30.8097 C   0  0  0  0  0  0  0  0  0  0  0  0
    6.5086   47.5620   31.4211 N   0  0  0  0  0  0  0  0  0  0  0  0
    7.2517   48.5401   30.6852 C   0  0  0  0  0  0  0  0  0  0  0  0
    7.6491   49.7528   31.2649 O   0  0  0  0  0  0  0  0  0  0  0  0
    7.5839   48.3103   29.4931 O   0  0  0  0  0  0  0  0  0  0  0  0
    7.4249   50.1248   32.6257 C   0  0  0  0  0  0  0  0  0  0  0  0
    5.9592   50.3839   32.9016 C   0  0  0  0  0  0  0  0  0  0  0  0
    5.2063   51.0871   31.9420 C   0  0  0  0  0  0  0  0  0  0  0  0
    5.3506   50.0427   34.1380 C   0  0  0  0  0  0  0  0  0  0  0  0
    3.8708   51.4138   32.1818 C   0  0  0  0  0  0  0  0  0  0  0  0
    4.0097   50.3947   34.3673 C   0  0  0  0  0  0  0  0  0  0  0  0
    6.0776   49.3762   35.1803 N   0  0  0  0  0  0  0  0  0  0  0  0
    3.2730   51.0671   33.3918 C   0  0  0  0  0  0  0  0  0  0  0  0
    6.6083   48.1269   34.9590 O   0  0  0  0  0  0  0  0  0  0  0  0
    6.0024   49.7984   36.3526 O   0  0  0  0  0  0  0  0  0  0  0  0
    8.5375   39.1391   34.0122 O   0  0  0  0  0  0  0  0  0  0  0  0
   10.9797   40.0879   33.6827 O   0  0  0  0  0  0  0  0  0  0  0  0
   10.8002   40.0907   32.2830 C   0  0  0  0  0  0  0  0  0  0  0  0
   11.5958   38.9271   31.6963 C   0  0  0  0  0  0  0  0  0  0  0  0
   12.9238   38.9409   32.1767 O   0  0  0  0  0  0  0  0  0  0  0  0
   11.0062   37.5719   32.0794 C   0  0  0  0  0  0  0  0  0  0  0  0
   13.3506   37.5906   32.2614 C   0  0  0  0  0  0  0  0  0  0  0  0
    9.9064   37.1793   31.2946 O   0  0  0  0  0  0  0  0  0  0  0  0
   12.1920   36.6672   31.9003 C   0  0  0  0  0  0  0  0  0  0  0  0
   13.8017   37.2948   33.6193 N   0  0  0  0  0  0  0  0  0  0  0  0
   12.3133   36.2788   30.5560 O   0  0  0  0  0  0  0  0  0  0  0  0
   14.7927   36.4717   33.9862 C   0  0  0  0  0  0  0  0  0  0  0  0
   13.2746   37.7284   34.7941 C   0  0  0  0  0  0  0  0  0  0  0  0
   15.6240   35.7576   33.1859 N   0  0  0  0  0  0  0  0  0  0  0  0
   14.8728   36.4406   35.3330 C   0  0  0  0  0  0  0  0  0  0  0  0
   13.9209   37.2258   35.8808 N   0  0  0  0  0  0  0  0  0  0  0  0
   16.5874   34.9921   33.7802 C   0  0  0  0  0  0  0  0  0  0  0  0
   15.8579   35.6716   35.9443 C   0  0  0  0  0  0  0  0  0  0  0  0
   16.7028   34.9584   35.1439 N   0  0  0  0  0  0  0  0  0  0  0  0
   16.0103   35.6383   37.3563 N   0  0  0  0  0  0  0  0  0  0  0  0
    7.6663   44.0659   34.0546 H   0  0  0  0  0  0  0  0  0  0  0  0
    8.6826   46.1677   34.0564 H   0  0  0  0  0  0  0  0  0  0  0  0
    9.2300   45.3289   35.3759 H   0  0  0  0  0  0  0  0  0  0  0  0
    8.5081   43.0839   31.8698 H   0  0  0  0  0  0  0  0  0  0  0  0
    9.9808   44.0906   31.9920 H   0  0  0  0  0  0  0  0  0  0  0  0
    8.5175   45.0762   30.3774 H   0  0  0  0  0  0  0  0  0  0  0  0
    8.5760   46.1512   31.7930 H   0  0  0  0  0  0  0  0  0  0  0  0
    6.3136   44.1780   30.9866 H   0  0  0  0  0  0  0  0  0  0  0  0
    6.3164   45.0813   32.5414 H   0  0  0  0  0  0  0  0  0  0  0  0
    4.9257   46.2685   30.9243 H   0  0  0  0  0  0  0  0  0  0  0  0
    6.2506   46.2895   29.7214 H   0  0  0  0  0  0  0  0  0  0  0  0
    6.2819   47.7193   32.4253 H   0  0  0  0  0  0  0  0  0  0  0  0
    7.9753   51.0698   32.8155 H   0  0  0  0  0  0  0  0  0  0  0  0
    7.8680   49.3594   33.2910 H   0  0  0  0  0  0  0  0  0  0  0  0
    5.6562   51.3905   31.0047 H   0  0  0  0  0  0  0  0  0  0  0  0
    3.3015   51.9472   31.4314 H   0  0  0  0  0  0  0  0  0  0  0  0
    3.5331   50.1398   35.3057 H   0  0  0  0  0  0  0  0  0  0  0  0
    2.2391   51.3274   33.5782 H   0  0  0  0  0  0  0  0  0  0  0  0
    9.7454   40.0168   31.9261 H   0  0  0  0  0  0  0  0  0  0  0  0
   11.2114   41.0420   31.8828 H   0  0  0  0  0  0  0  0  0  0  0  0
   11.6246   39.0448   30.5888 H   0  0  0  0  0  0  0  0  0  0  0  0
   10.7050   37.5581   33.1500 H   0  0  0  0  0  0  0  0  0  0  0  0
   14.1985   37.4426   31.5553 H   0  0  0  0  0  0  0  0  0  0  0  0
   10.0893   37.4057   30.3459 H   0  0  0  0  0  0  0  0  0  0  0  0
   12.1337   35.7754   32.5703 H   0  0  0  0  0  0  0  0  0  0  0  0
   11.7934   35.4394   30.4514 H   0  0  0  0  0  0  0  0  0  0  0  0
   12.4314   38.3973   34.8699 H   0  0  0  0  0  0  0  0  0  0  0  0
   17.2669   34.4142   33.1692 H   0  0  0  0  0  0  0  0  0  0  0  0
   15.3759   36.1865   37.9790 H   0  0  0  0  0  0  0  0  0  0  0  0
   16.7638   35.0599   37.7897 H   0  0  0  0  0  0  0  0  0  0  0  0
  1  2  2  0
  1  3  1  0
  3  4  1  0
  4  5  1  0
  6  1  1  0
  7  6  1  0
  6  8  1  0
  8  9  1  0
  9 10  1  0
 10 11  1  0
 11 12  1  0
 12 13  1  0
 13 14  1  0
 13 15  2  0
 14 16  1  0
 16 17  1  0
 17 18  2  0
 19 17  1  0
 18 20  1  0
 21 19  2  0
 19 22  1  0
 20 23  2  0
 23 21  1  0
 22 24  1  0
 22 25  2  0
  4 26  2  0
  4 27  1  0
 28 27  1  0
 28 29  1  0
 29 30  1  0
 29 31  1  0
 30 32  1  0
 31 33  1  0
 31 34  1  0
 34 32  1  0
 32 35  1  0
 34 36  1  0
 37 35  1  0
 38 35  1  0
 39 37  2  0
 37 40  1  0
 41 38  2  0
 42 39  1  0
 40 43  2  0
 40 41  1  0
 44 42  2  0
 44 43  1  0
 43 45  1  0
  6 46  1  6
  7 47  1  0
  7 48  1  0
  8 49  1  0
  8 50  1  0
  9 51  1  0
  9 52  1  0
 10 53  1  0
 10 54  1  0
 11 55  1  0
 11 56  1  0
 12 57  1  0
 16 58  1  0
 16 59  1  0
 18 60  1  0
 20 61  1  0
 21 62  1  0
 23 63  1  0
 28 64  1  0
 28 65  1  0
 29 66  1  0
 31 67  1  0
 32 68  1  0
 33 69  1  0
 34 70  1  0
 36 71  1  0
 38 72  1  0
 42 73  1  0
 45 74  1  0
 45 75  1  0
M  CHG  3   5  -1  22   1  24  -1
M  END
>  <EmbedRMS>  (591) 
0.0741638676289

$$$$

     RDKit          3D

 75 78  0  0  0  0  0  0  0  0999 V2000
    9.4312   42.9415   34.3439 C   0  0  0  0  0  0  0  0  0  0  0  0
   10.4886   43.0413   35.0294 O   0  0  0  0  0  0  0  0  0  0  0  0
    8.8558   41.7132   34.0297 O   0  0  0  0  0  0  0  0  0  0  0  0
    9.4933   40.2166   34.4707 P   0  0  0  0  0  0  0  0  0  0  0  0
    9.7290   40.1746   36.1316 O   0  0  0  0  0  0  0  0  0  0  0  0
    8.7485   44.1365   33.7721 C   0  0  1  0  0  0  0  0  0  0  0  0
    9.3042   45.3671   34.3386 N   0  0  0  0  0  0  0  0  0  0  0  0
    8.8892   44.0525   32.2308 C   0  0  0  0  0  0  0  0  0  0  0  0
    8.2012   45.1730   31.4438 C   0  0  0  0  0  0  0  0  0  0  0  0
    6.6639   45.1067   31.4884 C   0  0  0  0  0  0  0  0  0  0  0  0
    6.0254   46.3229   30.8107 C   0  0  0  0  0  0  0  0  0  0  0  0
    6.5042   47.5645   31.4176 N   0  0  0  0  0  0  0  0  0  0  0  0
    7.2518   48.5345   30.6871 C   0  0  0  0  0  0  0  0  0  0  0  0
    7.6388   49.7157   31.3246 O   0  0  0  0  0  0  0  0  0  0  0  0
    7.5904   48.3129   29.4928 O   0  0  0  0  0  0  0  0  0  0  0  0
    8.4458   50.7030   30.6921 C   0  0  0  0  0  0  0  0  0  0  0  0
    8.7505   51.8044   31.6732 C   0  0  0  0  0  0  0  0  0  0  0  0
    7.9781   52.9792   31.6254 C   0  0  0  0  0  0  0  0  0  0  0  0
    9.8041   51.7032   32.6211 C   0  0  0  0  0  0  0  0  0  0  0  0
    8.2499   54.0457   32.4831 C   0  0  0  0  0  0  0  0  0  0  0  0
   10.0702   52.7970   33.4658 C   0  0  0  0  0  0  0  0  0  0  0  0
   10.6168   50.5196   32.7323 N   0  0  0  0  0  0  0  0  0  0  0  0
    9.2969   53.9567   33.3980 C   0  0  0  0  0  0  0  0  0  0  0  0
   10.0558   49.2682   32.6267 O   0  0  0  0  0  0  0  0  0  0  0  0
   11.8094   50.6120   33.0899 O   0  0  0  0  0  0  0  0  0  0  0  0
    8.5368   39.1405   34.0143 O   0  0  0  0  0  0  0  0  0  0  0  0
   10.9795   40.0883   33.6889 O   0  0  0  0  0  0  0  0  0  0  0  0
   10.8017   40.0950   32.2900 C   0  0  0  0  0  0  0  0  0  0  0  0
   11.5885   38.9267   31.7042 C   0  0  0  0  0  0  0  0  0  0  0  0
   12.9237   38.9445   32.1722 O   0  0  0  0  0  0  0  0  0  0  0  0
   11.0029   37.5726   32.0908 C   0  0  0  0  0  0  0  0  0  0  0  0
   13.3555   37.5960   32.2595 C   0  0  0  0  0  0  0  0  0  0  0  0
    9.9379   37.1847   31.2657 O   0  0  0  0  0  0  0  0  0  0  0  0
   12.1931   36.6769   31.8952 C   0  0  0  0  0  0  0  0  0  0  0  0
   13.8028   37.2977   33.6186 N   0  0  0  0  0  0  0  0  0  0  0  0
   12.2918   36.2396   30.5587 O   0  0  0  0  0  0  0  0  0  0  0  0
   14.7926   36.4727   33.9858 C   0  0  0  0  0  0  0  0  0  0  0  0
   13.2750   37.7302   34.7935 C   0  0  0  0  0  0  0  0  0  0  0  0
   15.6241   35.7586   33.1857 N   0  0  0  0  0  0  0  0  0  0  0  0
   14.8721   36.4408   35.3326 C   0  0  0  0  0  0  0  0  0  0  0  0
   13.9204   37.2263   35.8802 N   0  0  0  0  0  0  0  0  0  0  0  0
   16.5870   34.9925   33.7800 C   0  0  0  0  0  0  0  0  0  0  0  0
   15.8572   35.6717   35.9441 C   0  0  0  0  0  0  0  0  0  0  0  0
   16.7022   34.9586   35.1437 N   0  0  0  0  0  0  0  0  0  0  0  0
   16.0097   35.6384   37.3561 N   0  0  0  0  0  0  0  0  0  0  0  0
    7.6765   44.0642   34.0547 H   0  0  0  0  0  0  0  0  0  0  0  0
   10.2153   45.5888   33.8743 H   0  0  0  0  0  0  0  0  0  0  0  0
    8.6472   46.1566   34.1432 H   0  0  0  0  0  0  0  0  0  0  0  0
    9.9707   44.0651   31.9678 H   0  0  0  0  0  0  0  0  0  0  0  0
    8.4831   43.0824   31.8666 H   0  0  0  0  0  0  0  0  0  0  0  0
    8.5704   46.1497   31.8183 H   0  0  0  0  0  0  0  0  0  0  0  0
    8.5200   45.0974   30.3811 H   0  0  0  0  0  0  0  0  0  0  0  0
    6.3135   45.0789   32.5410 H   0  0  0  0  0  0  0  0  0  0  0  0
    6.3152   44.1796   30.9838 H   0  0  0  0  0  0  0  0  0  0  0  0
    6.2452   46.2889   29.7220 H   0  0  0  0  0  0  0  0  0  0  0  0
    4.9219   46.2676   30.9268 H   0  0  0  0  0  0  0  0  0  0  0  0
    6.2842   47.7513   32.4218 H   0  0  0  0  0  0  0  0  0  0  0  0
    7.9020   51.1049   29.8090 H   0  0  0  0  0  0  0  0  0  0  0  0
    9.3902   50.2527   30.3166 H   0  0  0  0  0  0  0  0  0  0  0  0
    7.1645   53.0737   30.9165 H   0  0  0  0  0  0  0  0  0  0  0  0
    7.6498   54.9452   32.4346 H   0  0  0  0  0  0  0  0  0  0  0  0
   10.8709   52.7452   34.1928 H   0  0  0  0  0  0  0  0  0  0  0  0
    9.5079   54.7868   34.0599 H   0  0  0  0  0  0  0  0  0  0  0  0
    9.7472   40.0379   31.9304 H   0  0  0  0  0  0  0  0  0  0  0  0
   11.2240   41.0428   31.8929 H   0  0  0  0  0  0  0  0  0  0  0  0
   11.5927   39.0434   30.5966 H   0  0  0  0  0  0  0  0  0  0  0  0
   10.7003   37.5444   33.1641 H   0  0  0  0  0  0  0  0  0  0  0  0
   14.2051   37.4477   31.5560 H   0  0  0  0  0  0  0  0  0  0  0  0
    9.1373   37.6722   31.5906 H   0  0  0  0  0  0  0  0  0  0  0  0
   12.1305   35.7856   32.5586 H   0  0  0  0  0  0  0  0  0  0  0  0
   12.4606   37.0186   29.9674 H   0  0  0  0  0  0  0  0  0  0  0  0
   12.4327   38.4001   34.8694 H   0  0  0  0  0  0  0  0  0  0  0  0
   17.2666   34.4146   33.1690 H   0  0  0  0  0  0  0  0  0  0  0  0
   16.7634   35.0601   37.7894 H   0  0  0  0  0  0  0  0  0  0  0  0
   15.3754   36.1866   37.9788 H   0  0  0  0  0  0  0  0  0  0  0  0
  1  2  2  0
  1  3  1  0
  3  4  1  0
  4  5  1  0
  6  1  1  0
  7  6  1  0
  6  8  1  0
  8  9  1  0
  9 10  1  0
 10 11  1  0
 11 12  1  0
 12 13  1  0
 13 14  1  0
 13 15  2  0
 14 16  1  0
 16 17  1  0
 17 18  2  0
 19 17  1  0
 18 20  1  0
 21 19  2  0
 19 22  1  0
 20 23  2  0
 23 21  1  0
 22 24  1  0
 22 25  2  0
  4 26  2  0
  4 27  1  0
 28 27  1  0
 28 29  1  0
 29 30  1  0
 29 31  1  0
 30 32  1  0
 31 33  1  0
 31 34  1  0
 34 32  1  0
 32 35  1  0
 34 36  1  0
 37 35  1  0
 38 35  1  0
 39 37  2  0
 37 40  1  0
 41 38  2  0
 42 39  1  0
 40 43  2  0
 40 41  1  0
 44 42  2  0
 44 43  1  0
 43 45  1  0
  6 46  1  6
  7 47  1  0
  7 48  1  0
  8 49  1  0
  8 50  1  0
  9 51  1  0
  9 52  1  0
 10 53  1  0
 10 54  1  0
 11 55  1  0
 11 56  1  0
 12 57  1  0
 16 58  1  0
 16 59  1  0
 18 60  1  0
 20 61  1  0
 21 62  1  0
 23 63  1  0
 28 64  1  0
 28 65  1  0
 29 66  1  0
 31 67  1  0
 32 68  1  0
 33 69  1  0
 34 70  1  0
 36 71  1  0
 38 72  1  0
 42 73  1  0
 45 74  1  0
 45 75  1  0
M  CHG  3   5  -1  22   1  24  -1
M  END
>  <EmbedRMS>  (592) 
0.0750990778549

$$$$

     RDKit          3D

 75 78  0  0  0  0  0  0  0  0999 V2000
    9.4312   42.9412   34.3440 C   0  0  0  0  0  0  0  0  0  0  0  0
   10.4886   43.0411   35.0294 O   0  0  0  0  0  0  0  0  0  0  0  0
    8.8558   41.7129   34.0298 O   0  0  0  0  0  0  0  0  0  0  0  0
    9.4933   40.2164   34.4707 P   0  0  0  0  0  0  0  0  0  0  0  0
    9.7290   40.1745   36.1317 O   0  0  0  0  0  0  0  0  0  0  0  0
    8.7484   44.1361   33.7722 C   0  0  1  0  0  0  0  0  0  0  0  0
    9.3039   45.3666   34.3388 N   0  0  0  0  0  0  0  0  0  0  0  0
    8.8892   44.0519   32.2309 C   0  0  0  0  0  0  0  0  0  0  0  0
    8.2014   45.1722   31.4436 C   0  0  0  0  0  0  0  0  0  0  0  0
    6.6642   45.1065   31.4887 C   0  0  0  0  0  0  0  0  0  0  0  0
    6.0264   46.3234   30.8119 C   0  0  0  0  0  0  0  0  0  0  0  0
    6.5073   47.5645   31.4186 N   0  0  0  0  0  0  0  0  0  0  0  0
    7.2448   48.5390   30.6836 C   0  0  0  0  0  0  0  0  0  0  0  0
    7.5993   49.7379   31.3075 O   0  0  0  0  0  0  0  0  0  0  0  0
    7.5928   48.3117   29.4932 O   0  0  0  0  0  0  0  0  0  0  0  0
    8.3533   50.7549   30.6516 C   0  0  0  0  0  0  0  0  0  0  0  0
    8.6165   51.9317   31.5663 C   0  0  0  0  0  0  0  0  0  0  0  0
    8.4868   51.7832   32.9630 C   0  0  0  0  0  0  0  0  0  0  0  0
    8.9896   53.1985   31.0412 C   0  0  0  0  0  0  0  0  0  0  0  0
    8.6809   52.8693   33.8173 C   0  0  0  0  0  0  0  0  0  0  0  0
    9.1636   54.2833   31.9205 C   0  0  0  0  0  0  0  0  0  0  0  0
    9.1920   53.4037   29.6306 N   0  0  0  0  0  0  0  0  0  0  0  0
    9.0103   54.1182   33.2969 C   0  0  0  0  0  0  0  0  0  0  0  0
    9.8217   52.4485   28.8668 O   0  0  0  0  0  0  0  0  0  0  0  0
    8.9514   54.5169   29.1191 O   0  0  0  0  0  0  0  0  0  0  0  0
    8.5369   39.1403   34.0143 O   0  0  0  0  0  0  0  0  0  0  0  0
   10.9796   40.0883   33.6889 O   0  0  0  0  0  0  0  0  0  0  0  0
   10.8017   40.0949   32.2901 C   0  0  0  0  0  0  0  0  0  0  0  0
   11.5885   38.9267   31.7041 C   0  0  0  0  0  0  0  0  0  0  0  0
   12.9237   38.9445   32.1722 O   0  0  0  0  0  0  0  0  0  0  0  0
   11.0029   37.5726   32.0908 C   0  0  0  0  0  0  0  0  0  0  0  0
   13.3555   37.5960   32.2595 C   0  0  0  0  0  0  0  0  0  0  0  0
    9.9379   37.1847   31.2657 O   0  0  0  0  0  0  0  0  0  0  0  0
   12.1931   36.6769   31.8952 C   0  0  0  0  0  0  0  0  0  0  0  0
   13.8028   37.2977   33.6186 N   0  0  0  0  0  0  0  0  0  0  0  0
   12.2918   36.2396   30.5587 O   0  0  0  0  0  0  0  0  0  0  0  0
   14.7926   36.4727   33.9858 C   0  0  0  0  0  0  0  0  0  0  0  0
   13.2750   37.7302   34.7935 C   0  0  0  0  0  0  0  0  0  0  0  0
   15.6241   35.7586   33.1857 N   0  0  0  0  0  0  0  0  0  0  0  0
   14.8721   36.4408   35.3326 C   0  0  0  0  0  0  0  0  0  0  0  0
   13.9204   37.2263   35.8802 N   0  0  0  0  0  0  0  0  0  0  0  0
   16.5870   34.9925   33.7800 C   0  0  0  0  0  0  0  0  0  0  0  0
   15.8572   35.6717   35.9441 C   0  0  0  0  0  0  0  0  0  0  0  0
   16.7022   34.9585   35.1437 N   0  0  0  0  0  0  0  0  0  0  0  0
   16.0097   35.6384   37.3561 N   0  0  0  0  0  0  0  0  0  0  0  0
    7.6764   44.0636   34.0548 H   0  0  0  0  0  0  0  0  0  0  0  0
   10.2152   45.5881   33.8747 H   0  0  0  0  0  0  0  0  0  0  0  0
    8.6468   46.1560   34.1431 H   0  0  0  0  0  0  0  0  0  0  0  0
    8.4831   43.0818   31.8668 H   0  0  0  0  0  0  0  0  0  0  0  0
    9.9708   44.0643   31.9680 H   0  0  0  0  0  0  0  0  0  0  0  0
    8.5198   45.0959   30.3808 H   0  0  0  0  0  0  0  0  0  0  0  0
    8.5712   46.1488   31.8175 H   0  0  0  0  0  0  0  0  0  0  0  0
    6.3141   45.0785   32.5414 H   0  0  0  0  0  0  0  0  0  0  0  0
    6.3148   44.1798   30.9838 H   0  0  0  0  0  0  0  0  0  0  0  0
    4.9231   46.2692   30.9294 H   0  0  0  0  0  0  0  0  0  0  0  0
    6.2450   46.2893   29.7230 H   0  0  0  0  0  0  0  0  0  0  0  0
    6.2857   47.7532   32.4221 H   0  0  0  0  0  0  0  0  0  0  0  0
    7.7729   51.0981   29.7677 H   0  0  0  0  0  0  0  0  0  0  0  0
    9.3253   50.3350   30.3144 H   0  0  0  0  0  0  0  0  0  0  0  0
    8.2320   50.8272   33.4018 H   0  0  0  0  0  0  0  0  0  0  0  0
    8.5723   52.7420   34.8868 H   0  0  0  0  0  0  0  0  0  0  0  0
    9.4401   55.2582   31.5393 H   0  0  0  0  0  0  0  0  0  0  0  0
    9.1570   54.9593   33.9622 H   0  0  0  0  0  0  0  0  0  0  0  0
    9.7472   40.0378   31.9304 H   0  0  0  0  0  0  0  0  0  0  0  0
   11.2240   41.0428   31.8929 H   0  0  0  0  0  0  0  0  0  0  0  0
   11.5927   39.0434   30.5966 H   0  0  0  0  0  0  0  0  0  0  0  0
   10.7003   37.5443   33.1640 H   0  0  0  0  0  0  0  0  0  0  0  0
   14.2051   37.4477   31.5560 H   0  0  0  0  0  0  0  0  0  0  0  0
    9.1373   37.6722   31.5906 H   0  0  0  0  0  0  0  0  0  0  0  0
   12.1305   35.7856   32.5586 H   0  0  0  0  0  0  0  0  0  0  0  0
   12.4606   37.0186   29.9674 H   0  0  0  0  0  0  0  0  0  0  0  0
   12.4327   38.4001   34.8694 H   0  0  0  0  0  0  0  0  0  0  0  0
   17.2666   34.4146   33.1690 H   0  0  0  0  0  0  0  0  0  0  0  0
   15.3754   36.1866   37.9788 H   0  0  0  0  0  0  0  0  0  0  0  0
   16.7634   35.0601   37.7894 H   0  0  0  0  0  0  0  0  0  0  0  0
  1  2  2  0
  1  3  1  0
  3  4  1  0
  4  5  1  0
  6  1  1  0
  7  6  1  0
  6  8  1  0
  8  9  1  0
  9 10  1  0
 10 11  1  0
 11 12  1  0
 12 13  1  0
 13 14  1  0
 13 15  2  0
 14 16  1  0
 16 17  1  0
 17 18  2  0
 19 17  1  0
 18 20  1  0
 21 19  2  0
 19 22  1  0
 20 23  2  0
 23 21  1  0
 22 24  1  0
 22 25  2  0
  4 26  2  0
  4 27  1  0
 28 27  1  0
 28 29  1  0
 29 30  1  0
 29 31  1  0
 30 32  1  0
 31 33  1  0
 31 34  1  0
 34 32  1  0
 32 35  1  0
 34 36  1  0
 37 35  1  0
 38 35  1  0
 39 37  2  0
 37 40  1  0
 41 38  2  0
 42 39  1  0
 40 43  2  0
 40 41  1  0
 44 42  2  0
 44 43  1  0
 43 45  1  0
  6 46  1  6
  7 47  1  0
  7 48  1  0
  8 49  1  0
  8 50  1  0
  9 51  1  0
  9 52  1  0
 10 53  1  0
 10 54  1  0
 11 55  1  0
 11 56  1  0
 12 57  1  0
 16 58  1  0
 16 59  1  0
 18 60  1  0
 20 61  1  0
 21 62  1  0
 23 63  1  0
 28 64  1  0
 28 65  1  0
 29 66  1  0
 31 67  1  0
 32 68  1  0
 33 69  1  0
 34 70  1  0
 36 71  1  0
 38 72  1  0
 42 73  1  0
 45 74  1  0
 45 75  1  0
M  CHG  3   5  -1  22   1  24  -1
M  END
>  <EmbedRMS>  (593) 
0.0749143098889

$$$$

     RDKit          3D

 75 78  0  0  0  0  0  0  0  0999 V2000
    9.4311   42.9412   34.3437 C   0  0  0  0  0  0  0  0  0  0  0  0
   10.4884   43.0411   35.0293 O   0  0  0  0  0  0  0  0  0  0  0  0
    8.8561   41.7129   34.0287 O   0  0  0  0  0  0  0  0  0  0  0  0
    9.4944   40.2161   34.4677 P   0  0  0  0  0  0  0  0  0  0  0  0
    9.7313   40.1740   36.1288 O   0  0  0  0  0  0  0  0  0  0  0  0
    8.7482   44.1362   33.7722 C   0  0  1  0  0  0  0  0  0  0  0  0
    9.3036   45.3668   34.3389 N   0  0  0  0  0  0  0  0  0  0  0  0
    8.8891   44.0521   32.2309 C   0  0  0  0  0  0  0  0  0  0  0  0
    8.2016   45.1727   31.4438 C   0  0  0  0  0  0  0  0  0  0  0  0
    6.6644   45.1060   31.4863 C   0  0  0  0  0  0  0  0  0  0  0  0
    6.0277   46.3240   30.8100 C   0  0  0  0  0  0  0  0  0  0  0  0
    6.5061   47.5638   31.4218 N   0  0  0  0  0  0  0  0  0  0  0  0
    7.2505   48.5407   30.6840 C   0  0  0  0  0  0  0  0  0  0  0  0
    7.6423   49.7531   31.2635 O   0  0  0  0  0  0  0  0  0  0  0  0
    7.5877   48.3086   29.4938 O   0  0  0  0  0  0  0  0  0  0  0  0
    7.3546   50.1219   32.6090 C   0  0  0  0  0  0  0  0  0  0  0  0
    7.8979   51.5024   32.8838 C   0  0  0  0  0  0  0  0  0  0  0  0
    8.8451   51.6608   33.9131 C   0  0  0  0  0  0  0  0  0  0  0  0
    7.5163   52.6358   32.1125 C   0  0  0  0  0  0  0  0  0  0  0  0
    9.4148   52.9077   34.1726 C   0  0  0  0  0  0  0  0  0  0  0  0
    8.1159   53.8793   32.3827 C   0  0  0  0  0  0  0  0  0  0  0  0
    6.5518   52.5499   31.0465 N   0  0  0  0  0  0  0  0  0  0  0  0
    9.0538   54.0136   33.4068 C   0  0  0  0  0  0  0  0  0  0  0  0
    6.6289   53.4162   29.9800 O   0  0  0  0  0  0  0  0  0  0  0  0
    5.5505   51.8122   31.1459 O   0  0  0  0  0  0  0  0  0  0  0  0
    8.5372   39.1400   34.0125 O   0  0  0  0  0  0  0  0  0  0  0  0
   10.9796   40.0878   33.6826 O   0  0  0  0  0  0  0  0  0  0  0  0
   10.7996   40.0901   32.2829 C   0  0  0  0  0  0  0  0  0  0  0  0
   11.5968   38.9274   31.6963 C   0  0  0  0  0  0  0  0  0  0  0  0
   12.9242   38.9426   32.1785 O   0  0  0  0  0  0  0  0  0  0  0  0
   11.0086   37.5714   32.0780 C   0  0  0  0  0  0  0  0  0  0  0  0
   13.3528   37.5929   32.2623 C   0  0  0  0  0  0  0  0  0  0  0  0
    9.9098   37.1771   31.2926 O   0  0  0  0  0  0  0  0  0  0  0  0
   12.1942   36.6683   31.8995 C   0  0  0  0  0  0  0  0  0  0  0  0
   13.8019   37.2950   33.6199 N   0  0  0  0  0  0  0  0  0  0  0  0
   12.3026   36.2773   30.5559 O   0  0  0  0  0  0  0  0  0  0  0  0
   14.7926   36.4715   33.9865 C   0  0  0  0  0  0  0  0  0  0  0  0
   13.2749   37.7286   34.7946 C   0  0  0  0  0  0  0  0  0  0  0  0
   15.6239   35.7577   33.1860 N   0  0  0  0  0  0  0  0  0  0  0  0
   14.8727   36.4403   35.3332 C   0  0  0  0  0  0  0  0  0  0  0  0
   13.9210   37.2257   35.8812 N   0  0  0  0  0  0  0  0  0  0  0  0
   16.5873   34.9921   33.7802 C   0  0  0  0  0  0  0  0  0  0  0  0
   15.8579   35.6714   35.9444 C   0  0  0  0  0  0  0  0  0  0  0  0
   16.7028   34.9583   35.1439 N   0  0  0  0  0  0  0  0  0  0  0  0
   16.0104   35.6381   37.3564 N   0  0  0  0  0  0  0  0  0  0  0  0
    7.6761   44.0637   34.0546 H   0  0  0  0  0  0  0  0  0  0  0  0
   10.2147   45.5887   33.8746 H   0  0  0  0  0  0  0  0  0  0  0  0
    8.6463   46.1562   34.1438 H   0  0  0  0  0  0  0  0  0  0  0  0
    9.9707   44.0645   31.9682 H   0  0  0  0  0  0  0  0  0  0  0  0
    8.4829   43.0821   31.8666 H   0  0  0  0  0  0  0  0  0  0  0  0
    8.5701   46.1492   31.8192 H   0  0  0  0  0  0  0  0  0  0  0  0
    8.5217   45.0978   30.3814 H   0  0  0  0  0  0  0  0  0  0  0  0
    6.3125   45.0759   32.5383 H   0  0  0  0  0  0  0  0  0  0  0  0
    6.3164   44.1801   30.9791 H   0  0  0  0  0  0  0  0  0  0  0  0
    6.2484   46.2918   29.7215 H   0  0  0  0  0  0  0  0  0  0  0  0
    4.9240   46.2687   30.9244 H   0  0  0  0  0  0  0  0  0  0  0  0
    6.2766   47.7251   32.4270 H   0  0  0  0  0  0  0  0  0  0  0  0
    7.8122   49.3733   33.2926 H   0  0  0  0  0  0  0  0  0  0  0  0
    6.2592   50.1116   32.7887 H   0  0  0  0  0  0  0  0  0  0  0  0
    9.1531   50.8146   34.5149 H   0  0  0  0  0  0  0  0  0  0  0  0
   10.1431   53.0148   34.9662 H   0  0  0  0  0  0  0  0  0  0  0  0
    7.8443   54.7549   31.8068 H   0  0  0  0  0  0  0  0  0  0  0  0
    9.5005   54.9788   33.6078 H   0  0  0  0  0  0  0  0  0  0  0  0
   11.2094   41.0419   31.8824 H   0  0  0  0  0  0  0  0  0  0  0  0
    9.7449   40.0145   31.9263 H   0  0  0  0  0  0  0  0  0  0  0  0
   11.6265   39.0456   30.5888 H   0  0  0  0  0  0  0  0  0  0  0  0
   10.7064   37.5575   33.1485 H   0  0  0  0  0  0  0  0  0  0  0  0
   14.2020   37.4484   31.5574 H   0  0  0  0  0  0  0  0  0  0  0  0
   10.0952   37.3991   30.3433 H   0  0  0  0  0  0  0  0  0  0  0  0
   12.1163   35.7745   32.5634 H   0  0  0  0  0  0  0  0  0  0  0  0
   12.9614   35.5349   30.5312 H   0  0  0  0  0  0  0  0  0  0  0  0
   12.4321   38.3982   34.8705 H   0  0  0  0  0  0  0  0  0  0  0  0
   17.2669   34.4143   33.1690 H   0  0  0  0  0  0  0  0  0  0  0  0
   16.7641   35.0599   37.7896 H   0  0  0  0  0  0  0  0  0  0  0  0
   15.3761   36.1862   37.9792 H   0  0  0  0  0  0  0  0  0  0  0  0
  1  2  2  0
  1  3  1  0
  3  4  1  0
  4  5  1  0
  6  1  1  0
  7  6  1  0
  6  8  1  0
  8  9  1  0
  9 10  1  0
 10 11  1  0
 11 12  1  0
 12 13  1  0
 13 14  1  0
 13 15  2  0
 14 16  1  0
 16 17  1  0
 17 18  2  0
 19 17  1  0
 18 20  1  0
 21 19  2  0
 19 22  1  0
 20 23  2  0
 23 21  1  0
 22 24  1  0
 22 25  2  0
  4 26  2  0
  4 27  1  0
 28 27  1  0
 28 29  1  0
 29 30  1  0
 29 31  1  0
 30 32  1  0
 31 33  1  0
 31 34  1  0
 34 32  1  0
 32 35  1  0
 34 36  1  0
 37 35  1  0
 38 35  1  0
 39 37  2  0
 37 40  1  0
 41 38  2  0
 42 39  1  0
 40 43  2  0
 40 41  1  0
 44 42  2  0
 44 43  1  0
 43 45  1  0
  6 46  1  6
  7 47  1  0
  7 48  1  0
  8 49  1  0
  8 50  1  0
  9 51  1  0
  9 52  1  0
 10 53  1  0
 10 54  1  0
 11 55  1  0
 11 56  1  0
 12 57  1  0
 16 58  1  0
 16 59  1  0
 18 60  1  0
 20 61  1  0
 21 62  1  0
 23 63  1  0
 28 64  1  0
 28 65  1  0
 29 66  1  0
 31 67  1  0
 32 68  1  0
 33 69  1  0
 34 70  1  0
 36 71  1  0
 38 72  1  0
 42 73  1  0
 45 74  1  0
 45 75  1  0
M  CHG  3   5  -1  22   1  24  -1
M  END
>  <EmbedRMS>  (594) 
0.0738649825947

$$$$

     RDKit          3D

 75 78  0  0  0  0  0  0  0  0999 V2000
    9.4309   42.9414   34.3441 C   0  0  0  0  0  0  0  0  0  0  0  0
   10.4884   43.0414   35.0294 O   0  0  0  0  0  0  0  0  0  0  0  0
    8.8557   41.7130   34.0297 O   0  0  0  0  0  0  0  0  0  0  0  0
    9.4933   40.2163   34.4702 P   0  0  0  0  0  0  0  0  0  0  0  0
    9.7295   40.1743   36.1312 O   0  0  0  0  0  0  0  0  0  0  0  0
    8.7479   44.1362   33.7722 C   0  0  1  0  0  0  0  0  0  0  0  0
    9.3028   45.3670   34.3388 N   0  0  0  0  0  0  0  0  0  0  0  0
    8.8890   44.0517   32.2310 C   0  0  0  0  0  0  0  0  0  0  0  0
    8.2018   45.1720   31.4435 C   0  0  0  0  0  0  0  0  0  0  0  0
    6.6644   45.1050   31.4849 C   0  0  0  0  0  0  0  0  0  0  0  0
    6.0277   46.3247   30.8116 C   0  0  0  0  0  0  0  0  0  0  0  0
    6.5115   47.5620   31.4231 N   0  0  0  0  0  0  0  0  0  0  0  0
    7.2454   48.5441   30.6819 C   0  0  0  0  0  0  0  0  0  0  0  0
    7.6189   49.7690   31.2522 O   0  0  0  0  0  0  0  0  0  0  0  0
    7.5888   48.3077   29.4943 O   0  0  0  0  0  0  0  0  0  0  0  0
    7.3021   50.1763   32.5833 C   0  0  0  0  0  0  0  0  0  0  0  0
    5.8218   50.4566   32.7249 C   0  0  0  0  0  0  0  0  0  0  0  0
    5.1991   51.2612   31.7533 C   0  0  0  0  0  0  0  0  0  0  0  0
    5.0378   49.9131   33.7768 C   0  0  0  0  0  0  0  0  0  0  0  0
    3.8217   51.4831   31.7877 C   0  0  0  0  0  0  0  0  0  0  0  0
    3.6495   50.1295   33.7821 C   0  0  0  0  0  0  0  0  0  0  0  0
    5.6247   49.1611   34.8497 N   0  0  0  0  0  0  0  0  0  0  0  0
    3.0467   50.9091   32.7939 C   0  0  0  0  0  0  0  0  0  0  0  0
    4.9523   48.0821   35.3756 O   0  0  0  0  0  0  0  0  0  0  0  0
    6.6124   49.6137   35.4643 O   0  0  0  0  0  0  0  0  0  0  0  0
    8.5369   39.1400   34.0139 O   0  0  0  0  0  0  0  0  0  0  0  0
   10.9789   40.0875   33.6873 O   0  0  0  0  0  0  0  0  0  0  0  0
   10.7993   40.0947   32.2885 C   0  0  0  0  0  0  0  0  0  0  0  0
   11.5957   38.9352   31.6994 C   0  0  0  0  0  0  0  0  0  0  0  0
   12.9257   38.9478   32.1799 O   0  0  0  0  0  0  0  0  0  0  0  0
   11.0070   37.5758   32.0732 C   0  0  0  0  0  0  0  0  0  0  0  0
   13.3571   37.5980   32.2612 C   0  0  0  0  0  0  0  0  0  0  0  0
    9.9092   37.1808   31.2875 O   0  0  0  0  0  0  0  0  0  0  0  0
   12.1967   36.6764   31.8894 C   0  0  0  0  0  0  0  0  0  0  0  0
   13.8018   37.2956   33.6197 N   0  0  0  0  0  0  0  0  0  0  0  0
   12.3048   36.2360   30.5555 O   0  0  0  0  0  0  0  0  0  0  0  0
   14.7922   36.4716   33.9864 C   0  0  0  0  0  0  0  0  0  0  0  0
   13.2747   37.7291   34.7944 C   0  0  0  0  0  0  0  0  0  0  0  0
   15.6239   35.7581   33.1860 N   0  0  0  0  0  0  0  0  0  0  0  0
   14.8721   36.4402   35.3331 C   0  0  0  0  0  0  0  0  0  0  0  0
   13.9206   37.2257   35.8810 N   0  0  0  0  0  0  0  0  0  0  0  0
   16.5873   34.9924   33.7802 C   0  0  0  0  0  0  0  0  0  0  0  0
   15.8576   35.6714   35.9444 C   0  0  0  0  0  0  0  0  0  0  0  0
   16.7026   34.9585   35.1439 N   0  0  0  0  0  0  0  0  0  0  0  0
   16.0102   35.6383   37.3564 N   0  0  0  0  0  0  0  0  0  0  0  0
    7.6757   44.0636   34.0545 H   0  0  0  0  0  0  0  0  0  0  0  0
    8.6445   46.1559   34.1450 H   0  0  0  0  0  0  0  0  0  0  0  0
   10.2132   45.5900   33.8736 H   0  0  0  0  0  0  0  0  0  0  0  0
    9.9707   44.0639   31.9684 H   0  0  0  0  0  0  0  0  0  0  0  0
    8.4827   43.0817   31.8668 H   0  0  0  0  0  0  0  0  0  0  0  0
    8.5703   46.1484   31.8194 H   0  0  0  0  0  0  0  0  0  0  0  0
    8.5225   45.0975   30.3813 H   0  0  0  0  0  0  0  0  0  0  0  0
    6.3166   44.1802   30.9755 H   0  0  0  0  0  0  0  0  0  0  0  0
    6.3121   45.0724   32.5368 H   0  0  0  0  0  0  0  0  0  0  0  0
    4.9245   46.2719   30.9317 H   0  0  0  0  0  0  0  0  0  0  0  0
    6.2435   46.2935   29.7222 H   0  0  0  0  0  0  0  0  0  0  0  0
    6.3069   47.7080   32.4350 H   0  0  0  0  0  0  0  0  0  0  0  0
    7.8536   51.1151   32.7991 H   0  0  0  0  0  0  0  0  0  0  0  0
    7.6738   49.4075   33.2893 H   0  0  0  0  0  0  0  0  0  0  0  0
    5.7809   51.7020   30.9529 H   0  0  0  0  0  0  0  0  0  0  0  0
    3.3533   52.0945   31.0273 H   0  0  0  0  0  0  0  0  0  0  0  0
    3.0353   49.7141   34.5710 H   0  0  0  0  0  0  0  0  0  0  0  0
    1.9778   51.0781   32.8155 H   0  0  0  0  0  0  0  0  0  0  0  0
   11.2093   41.0481   31.8916 H   0  0  0  0  0  0  0  0  0  0  0  0
    9.7448   40.0201   31.9304 H   0  0  0  0  0  0  0  0  0  0  0  0
   11.6207   39.0685   30.5943 H   0  0  0  0  0  0  0  0  0  0  0  0
   10.7059   37.5565   33.1439 H   0  0  0  0  0  0  0  0  0  0  0  0
   14.2095   37.4543   31.5601 H   0  0  0  0  0  0  0  0  0  0  0  0
   10.0864   37.4210   30.3413 H   0  0  0  0  0  0  0  0  0  0  0  0
   12.1275   35.7873   32.5550 H   0  0  0  0  0  0  0  0  0  0  0  0
   12.5030   37.0109   29.9673 H   0  0  0  0  0  0  0  0  0  0  0  0
   12.4328   38.3996   34.8703 H   0  0  0  0  0  0  0  0  0  0  0  0
   17.2670   34.4148   33.1690 H   0  0  0  0  0  0  0  0  0  0  0  0
   15.3758   36.1862   37.9791 H   0  0  0  0  0  0  0  0  0  0  0  0
   16.7640   35.0601   37.7896 H   0  0  0  0  0  0  0  0  0  0  0  0
  1  2  2  0
  1  3  1  0
  3  4  1  0
  4  5  1  0
  6  1  1  0
  7  6  1  0
  6  8  1  0
  8  9  1  0
  9 10  1  0
 10 11  1  0
 11 12  1  0
 12 13  1  0
 13 14  1  0
 13 15  2  0
 14 16  1  0
 16 17  1  0
 17 18  2  0
 19 17  1  0
 18 20  1  0
 21 19  2  0
 19 22  1  0
 20 23  2  0
 23 21  1  0
 22 24  1  0
 22 25  2  0
  4 26  2  0
  4 27  1  0
 28 27  1  0
 28 29  1  0
 29 30  1  0
 29 31  1  0
 30 32  1  0
 31 33  1  0
 31 34  1  0
 34 32  1  0
 32 35  1  0
 34 36  1  0
 37 35  1  0
 38 35  1  0
 39 37  2  0
 37 40  1  0
 41 38  2  0
 42 39  1  0
 40 43  2  0
 40 41  1  0
 44 42  2  0
 44 43  1  0
 43 45  1  0
  6 46  1  6
  7 47  1  0
  7 48  1  0
  8 49  1  0
  8 50  1  0
  9 51  1  0
  9 52  1  0
 10 53  1  0
 10 54  1  0
 11 55  1  0
 11 56  1  0
 12 57  1  0
 16 58  1  0
 16 59  1  0
 18 60  1  0
 20 61  1  0
 21 62  1  0
 23 63  1  0
 28 64  1  0
 28 65  1  0
 29 66  1  0
 31 67  1  0
 32 68  1  0
 33 69  1  0
 34 70  1  0
 36 71  1  0
 38 72  1  0
 42 73  1  0
 45 74  1  0
 45 75  1  0
M  CHG  3   5  -1  22   1  24  -1
M  END
>  <EmbedRMS>  (595) 
0.0752058719975

$$$$

     RDKit          3D

 75 78  0  0  0  0  0  0  0  0999 V2000
    9.4310   42.9413   34.3439 C   0  0  0  0  0  0  0  0  0  0  0  0
   10.4884   43.0412   35.0294 O   0  0  0  0  0  0  0  0  0  0  0  0
    8.8562   41.7129   34.0288 O   0  0  0  0  0  0  0  0  0  0  0  0
    9.4945   40.2162   34.4677 P   0  0  0  0  0  0  0  0  0  0  0  0
    9.7312   40.1740   36.1288 O   0  0  0  0  0  0  0  0  0  0  0  0
    8.7480   44.1363   33.7724 C   0  0  1  0  0  0  0  0  0  0  0  0
    9.3032   45.3670   34.3390 N   0  0  0  0  0  0  0  0  0  0  0  0
    8.8889   44.0521   32.2312 C   0  0  0  0  0  0  0  0  0  0  0  0
    8.2015   45.1726   31.4443 C   0  0  0  0  0  0  0  0  0  0  0  0
    6.6642   45.1063   31.4869 C   0  0  0  0  0  0  0  0  0  0  0  0
    6.0289   46.3234   30.8082 C   0  0  0  0  0  0  0  0  0  0  0  0
    6.5054   47.5631   31.4209 N   0  0  0  0  0  0  0  0  0  0  0  0
    7.2568   48.5377   30.6866 C   0  0  0  0  0  0  0  0  0  0  0  0
    7.6619   49.7463   31.2719 O   0  0  0  0  0  0  0  0  0  0  0  0
    7.5819   48.3122   29.4918 O   0  0  0  0  0  0  0  0  0  0  0  0
    7.5347   50.0566   32.6607 C   0  0  0  0  0  0  0  0  0  0  0  0
    6.1421   50.5233   33.0509 C   0  0  0  0  0  0  0  0  0  0  0  0
    5.1185   50.6198   32.0829 C   0  0  0  0  0  0  0  0  0  0  0  0
    5.8622   50.9386   34.3839 C   0  0  0  0  0  0  0  0  0  0  0  0
    3.8510   51.0916   32.4251 C   0  0  0  0  0  0  0  0  0  0  0  0
    4.5816   51.4255   34.6999 C   0  0  0  0  0  0  0  0  0  0  0  0
    6.8616   50.9135   35.4198 N   0  0  0  0  0  0  0  0  0  0  0  0
    3.5828   51.4930   33.7302 C   0  0  0  0  0  0  0  0  0  0  0  0
    6.8395   51.8644   36.4142 O   0  0  0  0  0  0  0  0  0  0  0  0
    7.6353   49.9421   35.5390 O   0  0  0  0  0  0  0  0  0  0  0  0
    8.5374   39.1401   34.0124 O   0  0  0  0  0  0  0  0  0  0  0  0
   10.9799   40.0879   33.6828 O   0  0  0  0  0  0  0  0  0  0  0  0
   10.8002   40.0907   32.2831 C   0  0  0  0  0  0  0  0  0  0  0  0
   11.5958   38.9271   31.6964 C   0  0  0  0  0  0  0  0  0  0  0  0
   12.9239   38.9409   32.1767 O   0  0  0  0  0  0  0  0  0  0  0  0
   11.0062   37.5720   32.0794 C   0  0  0  0  0  0  0  0  0  0  0  0
   13.3506   37.5906   32.2614 C   0  0  0  0  0  0  0  0  0  0  0  0
    9.9064   37.1793   31.2946 O   0  0  0  0  0  0  0  0  0  0  0  0
   12.1920   36.6672   31.9004 C   0  0  0  0  0  0  0  0  0  0  0  0
   13.8017   37.2948   33.6193 N   0  0  0  0  0  0  0  0  0  0  0  0
   12.3133   36.2788   30.5561 O   0  0  0  0  0  0  0  0  0  0  0  0
   14.7927   36.4717   33.9862 C   0  0  0  0  0  0  0  0  0  0  0  0
   13.2746   37.7284   34.7941 C   0  0  0  0  0  0  0  0  0  0  0  0
   15.6240   35.7576   33.1859 N   0  0  0  0  0  0  0  0  0  0  0  0
   14.8728   36.4406   35.3330 C   0  0  0  0  0  0  0  0  0  0  0  0
   13.9209   37.2258   35.8808 N   0  0  0  0  0  0  0  0  0  0  0  0
   16.5874   34.9920   33.7802 C   0  0  0  0  0  0  0  0  0  0  0  0
   15.8579   35.6716   35.9443 C   0  0  0  0  0  0  0  0  0  0  0  0
   16.7028   34.9584   35.1439 N   0  0  0  0  0  0  0  0  0  0  0  0
   16.0103   35.6383   37.3563 N   0  0  0  0  0  0  0  0  0  0  0  0
    7.6759   44.0637   34.0547 H   0  0  0  0  0  0  0  0  0  0  0  0
   10.2140   45.5893   33.8743 H   0  0  0  0  0  0  0  0  0  0  0  0
    8.6455   46.1563   34.1446 H   0  0  0  0  0  0  0  0  0  0  0  0
    9.9706   44.0645   31.9684 H   0  0  0  0  0  0  0  0  0  0  0  0
    8.4826   43.0822   31.8668 H   0  0  0  0  0  0  0  0  0  0  0  0
    8.5215   45.0977   30.3818 H   0  0  0  0  0  0  0  0  0  0  0  0
    8.5701   46.1492   31.8197 H   0  0  0  0  0  0  0  0  0  0  0  0
    6.3122   45.0785   32.5390 H   0  0  0  0  0  0  0  0  0  0  0  0
    6.3159   44.1797   30.9812 H   0  0  0  0  0  0  0  0  0  0  0  0
    4.9248   46.2683   30.9185 H   0  0  0  0  0  0  0  0  0  0  0  0
    6.2536   46.2904   29.7206 H   0  0  0  0  0  0  0  0  0  0  0  0
    6.2480   47.7353   32.4173 H   0  0  0  0  0  0  0  0  0  0  0  0
    8.2492   50.8744   32.8915 H   0  0  0  0  0  0  0  0  0  0  0  0
    7.8377   49.1700   33.2549 H   0  0  0  0  0  0  0  0  0  0  0  0
    5.2893   50.3462   31.0517 H   0  0  0  0  0  0  0  0  0  0  0  0
    3.0766   51.1555   31.6715 H   0  0  0  0  0  0  0  0  0  0  0  0
    4.3518   51.7451   35.7086 H   0  0  0  0  0  0  0  0  0  0  0  0
    2.5997   51.8636   33.9906 H   0  0  0  0  0  0  0  0  0  0  0  0
   11.2114   41.0421   31.8829 H   0  0  0  0  0  0  0  0  0  0  0  0
    9.7454   40.0168   31.9263 H   0  0  0  0  0  0  0  0  0  0  0  0
   11.6246   39.0449   30.5889 H   0  0  0  0  0  0  0  0  0  0  0  0
   10.7050   37.5581   33.1500 H   0  0  0  0  0  0  0  0  0  0  0  0
   14.1984   37.4426   31.5553 H   0  0  0  0  0  0  0  0  0  0  0  0
   10.0893   37.4058   30.3459 H   0  0  0  0  0  0  0  0  0  0  0  0
   12.1337   35.7755   32.5703 H   0  0  0  0  0  0  0  0  0  0  0  0
   11.7933   35.4394   30.4514 H   0  0  0  0  0  0  0  0  0  0  0  0
   12.4314   38.3973   34.8700 H   0  0  0  0  0  0  0  0  0  0  0  0
   17.2669   34.4142   33.1692 H   0  0  0  0  0  0  0  0  0  0  0  0
   15.3759   36.1865   37.9790 H   0  0  0  0  0  0  0  0  0  0  0  0
   16.7638   35.0599   37.7896 H   0  0  0  0  0  0  0  0  0  0  0  0
  1  2  2  0
  1  3  1  0
  3  4  1  0
  4  5  1  0
  6  1  1  0
  7  6  1  0
  6  8  1  0
  8  9  1  0
  9 10  1  0
 10 11  1  0
 11 12  1  0
 12 13  1  0
 13 14  1  0
 13 15  2  0
 14 16  1  0
 16 17  1  0
 17 18  2  0
 19 17  1  0
 18 20  1  0
 21 19  2  0
 19 22  1  0
 20 23  2  0
 23 21  1  0
 22 24  1  0
 22 25  2  0
  4 26  2  0
  4 27  1  0
 28 27  1  0
 28 29  1  0
 29 30  1  0
 29 31  1  0
 30 32  1  0
 31 33  1  0
 31 34  1  0
 34 32  1  0
 32 35  1  0
 34 36  1  0
 37 35  1  0
 38 35  1  0
 39 37  2  0
 37 40  1  0
 41 38  2  0
 42 39  1  0
 40 43  2  0
 40 41  1  0
 44 42  2  0
 44 43  1  0
 43 45  1  0
  6 46  1  6
  7 47  1  0
  7 48  1  0
  8 49  1  0
  8 50  1  0
  9 51  1  0
  9 52  1  0
 10 53  1  0
 10 54  1  0
 11 55  1  0
 11 56  1  0
 12 57  1  0
 16 58  1  0
 16 59  1  0
 18 60  1  0
 20 61  1  0
 21 62  1  0
 23 63  1  0
 28 64  1  0
 28 65  1  0
 29 66  1  0
 31 67  1  0
 32 68  1  0
 33 69  1  0
 34 70  1  0
 36 71  1  0
 38 72  1  0
 42 73  1  0
 45 74  1  0
 45 75  1  0
M  CHG  3   5  -1  22   1  24  -1
M  END
>  <EmbedRMS>  (596) 
0.0742274690142

$$$$

     RDKit          3D

 75 78  0  0  0  0  0  0  0  0999 V2000
    9.4315   42.9422   34.3430 C   0  0  0  0  0  0  0  0  0  0  0  0
   10.4886   43.0416   35.0290 O   0  0  0  0  0  0  0  0  0  0  0  0
    8.8558   41.7138   34.0291 O   0  0  0  0  0  0  0  0  0  0  0  0
    9.4931   40.2171   34.4704 P   0  0  0  0  0  0  0  0  0  0  0  0
    9.7288   40.1751   36.1314 O   0  0  0  0  0  0  0  0  0  0  0  0
    8.7492   44.1380   33.7714 C   0  0  1  0  0  0  0  0  0  0  0  0
    9.3053   45.3680   34.3386 N   0  0  0  0  0  0  0  0  0  0  0  0
    8.8901   44.0558   32.2300 C   0  0  0  0  0  0  0  0  0  0  0  0
    8.2008   45.1769   31.4441 C   0  0  0  0  0  0  0  0  0  0  0  0
    6.6632   45.1088   31.4884 C   0  0  0  0  0  0  0  0  0  0  0  0
    6.0207   46.3219   30.8071 C   0  0  0  0  0  0  0  0  0  0  0  0
    6.4902   47.5669   31.4139 N   0  0  0  0  0  0  0  0  0  0  0  0
    7.2729   48.5189   30.6973 C   0  0  0  0  0  0  0  0  0  0  0  0
    7.7593   49.6429   31.3720 O   0  0  0  0  0  0  0  0  0  0  0  0
    7.5866   48.3120   29.4936 O   0  0  0  0  0  0  0  0  0  0  0  0
    8.8329   50.4390   30.8738 C   0  0  0  0  0  0  0  0  0  0  0  0
   10.1176   49.6376   30.8680 C   0  0  0  0  0  0  0  0  0  0  0  0
   10.4590   48.9198   32.0297 C   0  0  0  0  0  0  0  0  0  0  0  0
   10.9467   49.5286   29.7208 C   0  0  0  0  0  0  0  0  0  0  0  0
   11.5663   48.0708   32.0439 C   0  0  0  0  0  0  0  0  0  0  0  0
   12.0474   48.6552   29.7491 C   0  0  0  0  0  0  0  0  0  0  0  0
   10.7069   50.3023   28.5354 N   0  0  0  0  0  0  0  0  0  0  0  0
   12.3529   47.9306   30.9023 C   0  0  0  0  0  0  0  0  0  0  0  0
   10.9573   49.7537   27.2988 O   0  0  0  0  0  0  0  0  0  0  0  0
   10.5116   51.5324   28.6200 O   0  0  0  0  0  0  0  0  0  0  0  0
    8.5367   39.1408   34.0141 O   0  0  0  0  0  0  0  0  0  0  0  0
   10.9794   40.0884   33.6888 O   0  0  0  0  0  0  0  0  0  0  0  0
   10.8018   40.0950   32.2900 C   0  0  0  0  0  0  0  0  0  0  0  0
   11.5885   38.9267   31.7041 C   0  0  0  0  0  0  0  0  0  0  0  0
   12.9237   38.9446   32.1722 O   0  0  0  0  0  0  0  0  0  0  0  0
   11.0029   37.5727   32.0908 C   0  0  0  0  0  0  0  0  0  0  0  0
   13.3555   37.5960   32.2595 C   0  0  0  0  0  0  0  0  0  0  0  0
    9.9379   37.1847   31.2657 O   0  0  0  0  0  0  0  0  0  0  0  0
   12.1931   36.6770   31.8952 C   0  0  0  0  0  0  0  0  0  0  0  0
   13.8028   37.2977   33.6186 N   0  0  0  0  0  0  0  0  0  0  0  0
   12.2917   36.2396   30.5587 O   0  0  0  0  0  0  0  0  0  0  0  0
   14.7926   36.4727   33.9858 C   0  0  0  0  0  0  0  0  0  0  0  0
   13.2750   37.7302   34.7935 C   0  0  0  0  0  0  0  0  0  0  0  0
   15.6241   35.7586   33.1857 N   0  0  0  0  0  0  0  0  0  0  0  0
   14.8721   36.4408   35.3326 C   0  0  0  0  0  0  0  0  0  0  0  0
   13.9204   37.2263   35.8802 N   0  0  0  0  0  0  0  0  0  0  0  0
   16.5870   34.9924   33.7800 C   0  0  0  0  0  0  0  0  0  0  0  0
   15.8572   35.6717   35.9441 C   0  0  0  0  0  0  0  0  0  0  0  0
   16.7022   34.9585   35.1437 N   0  0  0  0  0  0  0  0  0  0  0  0
   16.0097   35.6384   37.3561 N   0  0  0  0  0  0  0  0  0  0  0  0
    7.6771   44.0661   34.0537 H   0  0  0  0  0  0  0  0  0  0  0  0
   10.2186   45.5867   33.8772 H   0  0  0  0  0  0  0  0  0  0  0  0
    8.6514   46.1592   34.1394 H   0  0  0  0  0  0  0  0  0  0  0  0
    8.4855   43.0856   31.8646 H   0  0  0  0  0  0  0  0  0  0  0  0
    9.9718   44.0707   31.9674 H   0  0  0  0  0  0  0  0  0  0  0  0
    8.5201   45.1033   30.3814 H   0  0  0  0  0  0  0  0  0  0  0  0
    8.5686   46.1540   31.8191 H   0  0  0  0  0  0  0  0  0  0  0  0
    6.3129   45.0828   32.5411 H   0  0  0  0  0  0  0  0  0  0  0  0
    6.3163   44.1796   30.9864 H   0  0  0  0  0  0  0  0  0  0  0  0
    6.2446   46.2878   29.7193 H   0  0  0  0  0  0  0  0  0  0  0  0
    4.9172   46.2611   30.9189 H   0  0  0  0  0  0  0  0  0  0  0  0
    6.2722   47.7504   32.4191 H   0  0  0  0  0  0  0  0  0  0  0  0
    8.9642   51.3138   31.5442 H   0  0  0  0  0  0  0  0  0  0  0  0
    8.5549   50.8186   29.8704 H   0  0  0  0  0  0  0  0  0  0  0  0
    9.8466   48.9953   32.9201 H   0  0  0  0  0  0  0  0  0  0  0  0
   11.8087   47.5130   32.9392 H   0  0  0  0  0  0  0  0  0  0  0  0
   12.6862   48.5534   28.8808 H   0  0  0  0  0  0  0  0  0  0  0  0
   13.2083   47.2676   30.9138 H   0  0  0  0  0  0  0  0  0  0  0  0
   11.2241   41.0429   31.8929 H   0  0  0  0  0  0  0  0  0  0  0  0
    9.7473   40.0380   31.9302 H   0  0  0  0  0  0  0  0  0  0  0  0
   11.5928   39.0434   30.5966 H   0  0  0  0  0  0  0  0  0  0  0  0
   10.7003   37.5444   33.1641 H   0  0  0  0  0  0  0  0  0  0  0  0
   14.2051   37.4477   31.5560 H   0  0  0  0  0  0  0  0  0  0  0  0
    9.1374   37.6723   31.5905 H   0  0  0  0  0  0  0  0  0  0  0  0
   12.1304   35.7856   32.5586 H   0  0  0  0  0  0  0  0  0  0  0  0
   12.4606   37.0186   29.9674 H   0  0  0  0  0  0  0  0  0  0  0  0
   12.4327   38.4001   34.8694 H   0  0  0  0  0  0  0  0  0  0  0  0
   17.2665   34.4146   33.1690 H   0  0  0  0  0  0  0  0  0  0  0  0
   16.7634   35.0601   37.7894 H   0  0  0  0  0  0  0  0  0  0  0  0
   15.3754   36.1866   37.9788 H   0  0  0  0  0  0  0  0  0  0  0  0
  1  2  2  0
  1  3  1  0
  3  4  1  0
  4  5  1  0
  6  1  1  0
  7  6  1  0
  6  8  1  0
  8  9  1  0
  9 10  1  0
 10 11  1  0
 11 12  1  0
 12 13  1  0
 13 14  1  0
 13 15  2  0
 14 16  1  0
 16 17  1  0
 17 18  2  0
 19 17  1  0
 18 20  1  0
 21 19  2  0
 19 22  1  0
 20 23  2  0
 23 21  1  0
 22 24  1  0
 22 25  2  0
  4 26  2  0
  4 27  1  0
 28 27  1  0
 28 29  1  0
 29 30  1  0
 29 31  1  0
 30 32  1  0
 31 33  1  0
 31 34  1  0
 34 32  1  0
 32 35  1  0
 34 36  1  0
 37 35  1  0
 38 35  1  0
 39 37  2  0
 37 40  1  0
 41 38  2  0
 42 39  1  0
 40 43  2  0
 40 41  1  0
 44 42  2  0
 44 43  1  0
 43 45  1  0
  6 46  1  6
  7 47  1  0
  7 48  1  0
  8 49  1  0
  8 50  1  0
  9 51  1  0
  9 52  1  0
 10 53  1  0
 10 54  1  0
 11 55  1  0
 11 56  1  0
 12 57  1  0
 16 58  1  0
 16 59  1  0
 18 60  1  0
 20 61  1  0
 21 62  1  0
 23 63  1  0
 28 64  1  0
 28 65  1  0
 29 66  1  0
 31 67  1  0
 32 68  1  0
 33 69  1  0
 34 70  1  0
 36 71  1  0
 38 72  1  0
 42 73  1  0
 45 74  1  0
 45 75  1  0
M  CHG  3   5  -1  22   1  24  -1
M  END
>  <EmbedRMS>  (597) 
0.0760541723512

$$$$

     RDKit          3D

 75 78  0  0  0  0  0  0  0  0999 V2000
    9.4336   42.9371   34.3454 C   0  0  0  0  0  0  0  0  0  0  0  0
   10.4908   43.0334   35.0314 O   0  0  0  0  0  0  0  0  0  0  0  0
    8.8564   41.7109   34.0290 O   0  0  0  0  0  0  0  0  0  0  0  0
    9.4941   40.2143   34.4677 P   0  0  0  0  0  0  0  0  0  0  0  0
    9.7310   40.1728   36.1288 O   0  0  0  0  0  0  0  0  0  0  0  0
    8.7511   44.1359   33.7736 C   0  0  1  0  0  0  0  0  0  0  0  0
    9.2969   45.3830   34.3131 N   0  0  0  0  0  0  0  0  0  0  0  0
    8.8895   44.0552   32.2352 C   0  0  0  0  0  0  0  0  0  0  0  0
    8.2022   45.1856   31.4619 C   0  0  0  0  0  0  0  0  0  0  0  0
    6.6646   45.1061   31.4851 C   0  0  0  0  0  0  0  0  0  0  0  0
    6.0233   46.3216   30.8070 C   0  0  0  0  0  0  0  0  0  0  0  0
    6.4951   47.5656   31.4147 N   0  0  0  0  0  0  0  0  0  0  0  0
    7.2628   48.5262   30.6928 C   0  0  0  0  0  0  0  0  0  0  0  0
    7.6998   49.6796   31.3515 O   0  0  0  0  0  0  0  0  0  0  0  0
    7.5890   48.3115   29.4945 O   0  0  0  0  0  0  0  0  0  0  0  0
    8.6747   50.5709   30.8125 C   0  0  0  0  0  0  0  0  0  0  0  0
   10.0255   49.8939   30.7352 C   0  0  0  0  0  0  0  0  0  0  0  0
   10.5458   49.3280   31.9138 C   0  0  0  0  0  0  0  0  0  0  0  0
   10.8079   49.8610   29.5502 C   0  0  0  0  0  0  0  0  0  0  0  0
   11.8097   48.7368   31.9247 C   0  0  0  0  0  0  0  0  0  0  0  0
   12.0874   49.2814   29.5872 C   0  0  0  0  0  0  0  0  0  0  0  0
   10.3388   50.4135   28.3116 N   0  0  0  0  0  0  0  0  0  0  0  0
   12.5810   48.7174   30.7643 C   0  0  0  0  0  0  0  0  0  0  0  0
   11.2048   51.1276   27.5162 O   0  0  0  0  0  0  0  0  0  0  0  0
    9.2548   50.0306   27.8265 O   0  0  0  0  0  0  0  0  0  0  0  0
    8.5369   39.1386   34.0122 O   0  0  0  0  0  0  0  0  0  0  0  0
   10.9795   40.0870   33.6827 O   0  0  0  0  0  0  0  0  0  0  0  0
   10.7997   40.0899   32.2830 C   0  0  0  0  0  0  0  0  0  0  0  0
   11.5968   38.9274   31.6962 C   0  0  0  0  0  0  0  0  0  0  0  0
   12.9242   38.9425   32.1784 O   0  0  0  0  0  0  0  0  0  0  0  0
   11.0086   37.5713   32.0780 C   0  0  0  0  0  0  0  0  0  0  0  0
   13.3528   37.5929   32.2623 C   0  0  0  0  0  0  0  0  0  0  0  0
    9.9098   37.1770   31.2925 O   0  0  0  0  0  0  0  0  0  0  0  0
   12.1943   36.6683   31.8995 C   0  0  0  0  0  0  0  0  0  0  0  0
   13.8019   37.2950   33.6199 N   0  0  0  0  0  0  0  0  0  0  0  0
   12.3027   36.2773   30.5558 O   0  0  0  0  0  0  0  0  0  0  0  0
   14.7926   36.4715   33.9865 C   0  0  0  0  0  0  0  0  0  0  0  0
   13.2749   37.7286   34.7946 C   0  0  0  0  0  0  0  0  0  0  0  0
   15.6239   35.7577   33.1860 N   0  0  0  0  0  0  0  0  0  0  0  0
   14.8727   36.4403   35.3332 C   0  0  0  0  0  0  0  0  0  0  0  0
   13.9210   37.2257   35.8811 N   0  0  0  0  0  0  0  0  0  0  0  0
   16.5873   34.9921   33.7802 C   0  0  0  0  0  0  0  0  0  0  0  0
   15.8579   35.6714   35.9444 C   0  0  0  0  0  0  0  0  0  0  0  0
   16.7028   34.9583   35.1439 N   0  0  0  0  0  0  0  0  0  0  0  0
   16.0104   35.6382   37.3564 N   0  0  0  0  0  0  0  0  0  0  0  0
    7.6775   44.0720   34.0498 H   0  0  0  0  0  0  0  0  0  0  0  0
   10.3191   45.4436   34.0966 H   0  0  0  0  0  0  0  0  0  0  0  0
    9.1862   45.3818   35.3535 H   0  0  0  0  0  0  0  0  0  0  0  0
    9.9713   44.0716   31.9732 H   0  0  0  0  0  0  0  0  0  0  0  0
    8.4824   43.0876   31.8654 H   0  0  0  0  0  0  0  0  0  0  0  0
    8.5386   45.1416   30.4029 H   0  0  0  0  0  0  0  0  0  0  0  0
    8.5532   46.1545   31.8759 H   0  0  0  0  0  0  0  0  0  0  0  0
    6.3009   45.0670   32.5329 H   0  0  0  0  0  0  0  0  0  0  0  0
    6.3307   44.1799   30.9691 H   0  0  0  0  0  0  0  0  0  0  0  0
    4.9197   46.2620   30.9191 H   0  0  0  0  0  0  0  0  0  0  0  0
    6.2465   46.2887   29.7190 H   0  0  0  0  0  0  0  0  0  0  0  0
    6.2734   47.7509   32.4188 H   0  0  0  0  0  0  0  0  0  0  0  0
    8.3209   50.9710   29.8431 H   0  0  0  0  0  0  0  0  0  0  0  0
    8.7634   51.4404   31.4974 H   0  0  0  0  0  0  0  0  0  0  0  0
    9.9701   49.3494   32.8313 H   0  0  0  0  0  0  0  0  0  0  0  0
   12.1950   48.3009   32.8374 H   0  0  0  0  0  0  0  0  0  0  0  0
   12.6978   49.2512   28.6933 H   0  0  0  0  0  0  0  0  0  0  0  0
   13.5639   48.2641   30.7763 H   0  0  0  0  0  0  0  0  0  0  0  0
    9.7450   40.0146   31.9262 H   0  0  0  0  0  0  0  0  0  0  0  0
   11.2097   41.0419   31.8829 H   0  0  0  0  0  0  0  0  0  0  0  0
   11.6265   39.0456   30.5888 H   0  0  0  0  0  0  0  0  0  0  0  0
   10.7064   37.5574   33.1484 H   0  0  0  0  0  0  0  0  0  0  0  0
   14.2021   37.4484   31.5574 H   0  0  0  0  0  0  0  0  0  0  0  0
   10.0952   37.3990   30.3433 H   0  0  0  0  0  0  0  0  0  0  0  0
   12.1163   35.7745   32.5633 H   0  0  0  0  0  0  0  0  0  0  0  0
   12.9615   35.5349   30.5312 H   0  0  0  0  0  0  0  0  0  0  0  0
   12.4321   38.3982   34.8705 H   0  0  0  0  0  0  0  0  0  0  0  0
   17.2669   34.4143   33.1690 H   0  0  0  0  0  0  0  0  0  0  0  0
   16.7641   35.0599   37.7896 H   0  0  0  0  0  0  0  0  0  0  0  0
   15.3761   36.1862   37.9792 H   0  0  0  0  0  0  0  0  0  0  0  0
  1  2  2  0
  1  3  1  0
  3  4  1  0
  4  5  1  0
  6  1  1  0
  7  6  1  0
  6  8  1  0
  8  9  1  0
  9 10  1  0
 10 11  1  0
 11 12  1  0
 12 13  1  0
 13 14  1  0
 13 15  2  0
 14 16  1  0
 16 17  1  0
 17 18  2  0
 19 17  1  0
 18 20  1  0
 21 19  2  0
 19 22  1  0
 20 23  2  0
 23 21  1  0
 22 24  1  0
 22 25  2  0
  4 26  2  0
  4 27  1  0
 28 27  1  0
 28 29  1  0
 29 30  1  0
 29 31  1  0
 30 32  1  0
 31 33  1  0
 31 34  1  0
 34 32  1  0
 32 35  1  0
 34 36  1  0
 37 35  1  0
 38 35  1  0
 39 37  2  0
 37 40  1  0
 41 38  2  0
 42 39  1  0
 40 43  2  0
 40 41  1  0
 44 42  2  0
 44 43  1  0
 43 45  1  0
  6 46  1  6
  7 47  1  0
  7 48  1  0
  8 49  1  0
  8 50  1  0
  9 51  1  0
  9 52  1  0
 10 53  1  0
 10 54  1  0
 11 55  1  0
 11 56  1  0
 12 57  1  0
 16 58  1  0
 16 59  1  0
 18 60  1  0
 20 61  1  0
 21 62  1  0
 23 63  1  0
 28 64  1  0
 28 65  1  0
 29 66  1  0
 31 67  1  0
 32 68  1  0
 33 69  1  0
 34 70  1  0
 36 71  1  0
 38 72  1  0
 42 73  1  0
 45 74  1  0
 45 75  1  0
M  CHG  3   5  -1  22   1  24  -1
M  END
>  <EmbedRMS>  (598) 
0.0752847972649

$$$$

     RDKit          3D

 75 78  0  0  0  0  0  0  0  0999 V2000
    9.4315   42.9421   34.3428 C   0  0  0  0  0  0  0  0  0  0  0  0
   10.4885   43.0415   35.0289 O   0  0  0  0  0  0  0  0  0  0  0  0
    8.8562   41.7138   34.0281 O   0  0  0  0  0  0  0  0  0  0  0  0
    9.4945   40.2170   34.4676 P   0  0  0  0  0  0  0  0  0  0  0  0
    9.7309   40.1747   36.1287 O   0  0  0  0  0  0  0  0  0  0  0  0
    8.7492   44.1379   33.7714 C   0  0  1  0  0  0  0  0  0  0  0  0
    9.3053   45.3680   34.3386 N   0  0  0  0  0  0  0  0  0  0  0  0
    8.8901   44.0559   32.2300 C   0  0  0  0  0  0  0  0  0  0  0  0
    8.2007   45.1770   31.4441 C   0  0  0  0  0  0  0  0  0  0  0  0
    6.6631   45.1088   31.4884 C   0  0  0  0  0  0  0  0  0  0  0  0
    6.0207   46.3219   30.8072 C   0  0  0  0  0  0  0  0  0  0  0  0
    6.4902   47.5670   31.4139 N   0  0  0  0  0  0  0  0  0  0  0  0
    7.2728   48.5189   30.6973 C   0  0  0  0  0  0  0  0  0  0  0  0
    7.7592   49.6430   31.3719 O   0  0  0  0  0  0  0  0  0  0  0  0
    7.5867   48.3119   29.4936 O   0  0  0  0  0  0  0  0  0  0  0  0
    8.8331   50.4388   30.8739 C   0  0  0  0  0  0  0  0  0  0  0  0
   10.1178   49.6375   30.8695 C   0  0  0  0  0  0  0  0  0  0  0  0
   10.4585   48.9206   32.0321 C   0  0  0  0  0  0  0  0  0  0  0  0
   10.9477   49.5276   29.7229 C   0  0  0  0  0  0  0  0  0  0  0  0
   11.5659   48.0719   32.0477 C   0  0  0  0  0  0  0  0  0  0  0  0
   12.0485   48.6543   29.7527 C   0  0  0  0  0  0  0  0  0  0  0  0
   10.7085   50.3003   28.5367 N   0  0  0  0  0  0  0  0  0  0  0  0
   12.3533   47.9308   30.9067 C   0  0  0  0  0  0  0  0  0  0  0  0
   10.9597   49.7506   27.3007 O   0  0  0  0  0  0  0  0  0  0  0  0
   10.5131   51.5304   28.6201 O   0  0  0  0  0  0  0  0  0  0  0  0
    8.5373   39.1409   34.0126 O   0  0  0  0  0  0  0  0  0  0  0  0
   10.9804   40.0890   33.6835 O   0  0  0  0  0  0  0  0  0  0  0  0
   10.8025   40.0903   32.2837 C   0  0  0  0  0  0  0  0  0  0  0  0
   11.5889   38.9175   31.7008 C   0  0  0  0  0  0  0  0  0  0  0  0
   12.9219   38.9374   32.1692 O   0  0  0  0  0  0  0  0  0  0  0  0
   11.0028   37.5683   32.0981 C   0  0  0  0  0  0  0  0  0  0  0  0
   13.3496   37.5886   32.2601 C   0  0  0  0  0  0  0  0  0  0  0  0
    9.9343   37.1823   31.2757 O   0  0  0  0  0  0  0  0  0  0  0  0
   12.1890   36.6678   31.9050 C   0  0  0  0  0  0  0  0  0  0  0  0
   13.8025   37.2965   33.6186 N   0  0  0  0  0  0  0  0  0  0  0  0
   12.2990   36.2868   30.5568 O   0  0  0  0  0  0  0  0  0  0  0  0
   14.7929   36.4725   33.9858 C   0  0  0  0  0  0  0  0  0  0  0  0
   13.2749   37.7294   34.7935 C   0  0  0  0  0  0  0  0  0  0  0  0
   15.6240   35.7580   33.1858 N   0  0  0  0  0  0  0  0  0  0  0  0
   14.8727   36.4411   35.3327 C   0  0  0  0  0  0  0  0  0  0  0  0
   13.9208   37.2263   35.8803 N   0  0  0  0  0  0  0  0  0  0  0  0
   16.5871   34.9921   33.7801 C   0  0  0  0  0  0  0  0  0  0  0  0
   15.8576   35.6718   35.9441 C   0  0  0  0  0  0  0  0  0  0  0  0
   16.7024   34.9584   35.1438 N   0  0  0  0  0  0  0  0  0  0  0  0
   16.0099   35.6384   37.3562 N   0  0  0  0  0  0  0  0  0  0  0  0
    7.6771   44.0661   34.0537 H   0  0  0  0  0  0  0  0  0  0  0  0
   10.2186   45.5867   33.8773 H   0  0  0  0  0  0  0  0  0  0  0  0
    8.6514   46.1591   34.1395 H   0  0  0  0  0  0  0  0  0  0  0  0
    9.9717   44.0709   31.9673 H   0  0  0  0  0  0  0  0  0  0  0  0
    8.4855   43.0857   31.8645 H   0  0  0  0  0  0  0  0  0  0  0  0
    8.5685   46.1541   31.8192 H   0  0  0  0  0  0  0  0  0  0  0  0
    8.5201   45.1035   30.3814 H   0  0  0  0  0  0  0  0  0  0  0  0
    6.3164   44.1797   30.9863 H   0  0  0  0  0  0  0  0  0  0  0  0
    6.3129   45.0828   32.5411 H   0  0  0  0  0  0  0  0  0  0  0  0
    6.2445   46.2878   29.7193 H   0  0  0  0  0  0  0  0  0  0  0  0
    4.9171   46.2611   30.9189 H   0  0  0  0  0  0  0  0  0  0  0  0
    6.2721   47.7505   32.4191 H   0  0  0  0  0  0  0  0  0  0  0  0
    8.5558   50.8178   29.8701 H   0  0  0  0  0  0  0  0  0  0  0  0
    8.9639   51.3141   31.5439 H   0  0  0  0  0  0  0  0  0  0  0  0
    9.8456   48.9969   32.9220 H   0  0  0  0  0  0  0  0  0  0  0  0
   11.8079   47.5149   32.9436 H   0  0  0  0  0  0  0  0  0  0  0  0
   12.6878   48.5519   28.8849 H   0  0  0  0  0  0  0  0  0  0  0  0
   13.2088   47.2679   30.9193 H   0  0  0  0  0  0  0  0  0  0  0  0
    9.7477   40.0333   31.9254 H   0  0  0  0  0  0  0  0  0  0  0  0
   11.2258   41.0359   31.8824 H   0  0  0  0  0  0  0  0  0  0  0  0
   11.5975   39.0148   30.5905 H   0  0  0  0  0  0  0  0  0  0  0  0
   10.7023   37.5458   33.1720 H   0  0  0  0  0  0  0  0  0  0  0  0
   14.1957   37.4366   31.5528 H   0  0  0  0  0  0  0  0  0  0  0  0
    9.1339   37.6659   31.6070 H   0  0  0  0  0  0  0  0  0  0  0  0
   12.1380   35.7718   32.5698 H   0  0  0  0  0  0  0  0  0  0  0  0
   11.7706   35.4531   30.4497 H   0  0  0  0  0  0  0  0  0  0  0  0
   12.4314   38.3980   34.8694 H   0  0  0  0  0  0  0  0  0  0  0  0
   17.2665   34.4140   33.1691 H   0  0  0  0  0  0  0  0  0  0  0  0
   15.3757   36.1868   37.9789 H   0  0  0  0  0  0  0  0  0  0  0  0
   16.7633   35.0598   37.7895 H   0  0  0  0  0  0  0  0  0  0  0  0
  1  2  2  0
  1  3  1  0
  3  4  1  0
  4  5  1  0
  6  1  1  0
  7  6  1  0
  6  8  1  0
  8  9  1  0
  9 10  1  0
 10 11  1  0
 11 12  1  0
 12 13  1  0
 13 14  1  0
 13 15  2  0
 14 16  1  0
 16 17  1  0
 17 18  2  0
 19 17  1  0
 18 20  1  0
 21 19  2  0
 19 22  1  0
 20 23  2  0
 23 21  1  0
 22 24  1  0
 22 25  2  0
  4 26  2  0
  4 27  1  0
 28 27  1  0
 28 29  1  0
 29 30  1  0
 29 31  1  0
 30 32  1  0
 31 33  1  0
 31 34  1  0
 34 32  1  0
 32 35  1  0
 34 36  1  0
 37 35  1  0
 38 35  1  0
 39 37  2  0
 37 40  1  0
 41 38  2  0
 42 39  1  0
 40 43  2  0
 40 41  1  0
 44 42  2  0
 44 43  1  0
 43 45  1  0
  6 46  1  6
  7 47  1  0
  7 48  1  0
  8 49  1  0
  8 50  1  0
  9 51  1  0
  9 52  1  0
 10 53  1  0
 10 54  1  0
 11 55  1  0
 11 56  1  0
 12 57  1  0
 16 58  1  0
 16 59  1  0
 18 60  1  0
 20 61  1  0
 21 62  1  0
 23 63  1  0
 28 64  1  0
 28 65  1  0
 29 66  1  0
 31 67  1  0
 32 68  1  0
 33 69  1  0
 34 70  1  0
 36 71  1  0
 38 72  1  0
 42 73  1  0
 45 74  1  0
 45 75  1  0
M  CHG  3   5  -1  22   1  24  -1
M  END
>  <EmbedRMS>  (599) 
0.0745694673253

$$$$

     RDKit          3D

 75 78  0  0  0  0  0  0  0  0999 V2000
    9.4331   42.9364   34.3462 C   0  0  0  0  0  0  0  0  0  0  0  0
   10.4907   43.0329   35.0318 O   0  0  0  0  0  0  0  0  0  0  0  0
    8.8558   41.7103   34.0299 O   0  0  0  0  0  0  0  0  0  0  0  0
    9.4943   40.2141   34.4677 P   0  0  0  0  0  0  0  0  0  0  0  0
    9.7317   40.1723   36.1287 O   0  0  0  0  0  0  0  0  0  0  0  0
    8.7506   44.1348   33.7741 C   0  0  1  0  0  0  0  0  0  0  0  0
    9.2963   45.3820   34.3133 N   0  0  0  0  0  0  0  0  0  0  0  0
    8.8893   44.0526   32.2358 C   0  0  0  0  0  0  0  0  0  0  0  0
    8.2029   45.1822   31.4613 C   0  0  0  0  0  0  0  0  0  0  0  0
    6.6654   45.1046   31.4853 C   0  0  0  0  0  0  0  0  0  0  0  0
    6.0273   46.3229   30.8107 C   0  0  0  0  0  0  0  0  0  0  0  0
    6.5075   47.5640   31.4182 N   0  0  0  0  0  0  0  0  0  0  0  0
    7.2411   48.5413   30.6826 C   0  0  0  0  0  0  0  0  0  0  0  0
    7.5881   49.7442   31.3086 O   0  0  0  0  0  0  0  0  0  0  0  0
    7.5943   48.3100   29.4946 O   0  0  0  0  0  0  0  0  0  0  0  0
    8.2573   50.8228   30.6547 C   0  0  0  0  0  0  0  0  0  0  0  0
    7.2552   51.8634   30.2065 C   0  0  0  0  0  0  0  0  0  0  0  0
    6.2823   51.4935   29.2595 C   0  0  0  0  0  0  0  0  0  0  0  0
    7.2287   53.1786   30.7413 C   0  0  0  0  0  0  0  0  0  0  0  0
    5.2819   52.3882   28.8762 C   0  0  0  0  0  0  0  0  0  0  0  0
    6.2024   54.0591   30.3575 C   0  0  0  0  0  0  0  0  0  0  0  0
    8.2398   53.6460   31.6456 N   0  0  0  0  0  0  0  0  0  0  0  0
    5.2361   53.6653   29.4314 C   0  0  0  0  0  0  0  0  0  0  0  0
    9.5642   53.5882   31.2774 O   0  0  0  0  0  0  0  0  0  0  0  0
    7.9183   54.3369   32.6343 O   0  0  0  0  0  0  0  0  0  0  0  0
    8.5371   39.1382   34.0123 O   0  0  0  0  0  0  0  0  0  0  0  0
   10.9793   40.0887   33.6814 O   0  0  0  0  0  0  0  0  0  0  0  0
   10.7977   40.0842   32.2817 C   0  0  0  0  0  0  0  0  0  0  0  0
   11.5897   38.9146   31.7008 C   0  0  0  0  0  0  0  0  0  0  0  0
   12.9218   38.9385   32.1717 O   0  0  0  0  0  0  0  0  0  0  0  0
   11.0071   37.5654   32.0975 C   0  0  0  0  0  0  0  0  0  0  0  0
   13.3533   37.5909   32.2610 C   0  0  0  0  0  0  0  0  0  0  0  0
    9.9333   37.1934   31.2754 O   0  0  0  0  0  0  0  0  0  0  0  0
   12.1945   36.6671   31.9040 C   0  0  0  0  0  0  0  0  0  0  0  0
   13.8036   37.2970   33.6193 N   0  0  0  0  0  0  0  0  0  0  0  0
   12.2893   36.2849   30.5562 O   0  0  0  0  0  0  0  0  0  0  0  0
   14.7931   36.4723   33.9863 C   0  0  0  0  0  0  0  0  0  0  0  0
   13.2756   37.7298   34.7940 C   0  0  0  0  0  0  0  0  0  0  0  0
   15.6242   35.7580   33.1861 N   0  0  0  0  0  0  0  0  0  0  0  0
   14.8727   36.4407   35.3331 C   0  0  0  0  0  0  0  0  0  0  0  0
   13.9210   37.2262   35.8807 N   0  0  0  0  0  0  0  0  0  0  0  0
   16.5872   34.9920   33.7803 C   0  0  0  0  0  0  0  0  0  0  0  0
   15.8577   35.6715   35.9444 C   0  0  0  0  0  0  0  0  0  0  0  0
   16.7025   34.9582   35.1440 N   0  0  0  0  0  0  0  0  0  0  0  0
   16.0101   35.6382   37.3564 N   0  0  0  0  0  0  0  0  0  0  0  0
    7.6770   44.0707   34.0504 H   0  0  0  0  0  0  0  0  0  0  0  0
    9.1827   45.3820   35.3534 H   0  0  0  0  0  0  0  0  0  0  0  0
   10.3192   45.4405   34.1000 H   0  0  0  0  0  0  0  0  0  0  0  0
    9.9711   44.0679   31.9739 H   0  0  0  0  0  0  0  0  0  0  0  0
    8.4816   43.0850   31.8669 H   0  0  0  0  0  0  0  0  0  0  0  0
    8.5554   46.1508   31.8740 H   0  0  0  0  0  0  0  0  0  0  0  0
    8.5386   45.1360   30.4021 H   0  0  0  0  0  0  0  0  0  0  0  0
    6.3020   45.0639   32.5331 H   0  0  0  0  0  0  0  0  0  0  0  0
    6.3296   44.1802   30.9672 H   0  0  0  0  0  0  0  0  0  0  0  0
    4.9239   46.2682   30.9273 H   0  0  0  0  0  0  0  0  0  0  0  0
    6.2461   46.2902   29.7217 H   0  0  0  0  0  0  0  0  0  0  0  0
    6.2835   47.7528   32.4212 H   0  0  0  0  0  0  0  0  0  0  0  0
    8.8489   50.4658   29.7840 H   0  0  0  0  0  0  0  0  0  0  0  0
    8.9822   51.2361   31.3796 H   0  0  0  0  0  0  0  0  0  0  0  0
    6.2886   50.5049   28.8211 H   0  0  0  0  0  0  0  0  0  0  0  0
    4.5361   52.0872   28.1517 H   0  0  0  0  0  0  0  0  0  0  0  0
    6.1665   55.0635   30.7607 H   0  0  0  0  0  0  0  0  0  0  0  0
    4.4568   54.3558   29.1357 H   0  0  0  0  0  0  0  0  0  0  0  0
   11.2111   41.0319   31.8754 H   0  0  0  0  0  0  0  0  0  0  0  0
    9.7422   40.0118   31.9267 H   0  0  0  0  0  0  0  0  0  0  0  0
   11.6004   39.0119   30.5904 H   0  0  0  0  0  0  0  0  0  0  0  0
   10.7015   37.5592   33.1701 H   0  0  0  0  0  0  0  0  0  0  0  0
   14.2012   37.4438   31.5552 H   0  0  0  0  0  0  0  0  0  0  0  0
    9.5289   36.3869   31.6895 H   0  0  0  0  0  0  0  0  0  0  0  0
   12.1244   35.7693   32.5633 H   0  0  0  0  0  0  0  0  0  0  0  0
   12.9478   35.5427   30.5201 H   0  0  0  0  0  0  0  0  0  0  0  0
   12.4328   38.3993   34.8697 H   0  0  0  0  0  0  0  0  0  0  0  0
   17.2667   34.4140   33.1692 H   0  0  0  0  0  0  0  0  0  0  0  0
   16.7636   35.0598   37.7897 H   0  0  0  0  0  0  0  0  0  0  0  0
   15.3759   36.1865   37.9791 H   0  0  0  0  0  0  0  0  0  0  0  0
  1  2  2  0
  1  3  1  0
  3  4  1  0
  4  5  1  0
  6  1  1  0
  7  6  1  0
  6  8  1  0
  8  9  1  0
  9 10  1  0
 10 11  1  0
 11 12  1  0
 12 13  1  0
 13 14  1  0
 13 15  2  0
 14 16  1  0
 16 17  1  0
 17 18  2  0
 19 17  1  0
 18 20  1  0
 21 19  2  0
 19 22  1  0
 20 23  2  0
 23 21  1  0
 22 24  1  0
 22 25  2  0
  4 26  2  0
  4 27  1  0
 28 27  1  0
 28 29  1  0
 29 30  1  0
 29 31  1  0
 30 32  1  0
 31 33  1  0
 31 34  1  0
 34 32  1  0
 32 35  1  0
 34 36  1  0
 37 35  1  0
 38 35  1  0
 39 37  2  0
 37 40  1  0
 41 38  2  0
 42 39  1  0
 40 43  2  0
 40 41  1  0
 44 42  2  0
 44 43  1  0
 43 45  1  0
  6 46  1  6
  7 47  1  0
  7 48  1  0
  8 49  1  0
  8 50  1  0
  9 51  1  0
  9 52  1  0
 10 53  1  0
 10 54  1  0
 11 55  1  0
 11 56  1  0
 12 57  1  0
 16 58  1  0
 16 59  1  0
 18 60  1  0
 20 61  1  0
 21 62  1  0
 23 63  1  0
 28 64  1  0
 28 65  1  0
 29 66  1  0
 31 67  1  0
 32 68  1  0
 33 69  1  0
 34 70  1  0
 36 71  1  0
 38 72  1  0
 42 73  1  0
 45 74  1  0
 45 75  1  0
M  CHG  3   5  -1  22   1  24  -1
M  END
>  <EmbedRMS>  (600) 
0.0741901123753

$$$$

     RDKit          3D

 75 78  0  0  0  0  0  0  0  0999 V2000
    9.4310   42.9414   34.3440 C   0  0  0  0  0  0  0  0  0  0  0  0
   10.4885   43.0413   35.0294 O   0  0  0  0  0  0  0  0  0  0  0  0
    8.8557   41.7131   34.0298 O   0  0  0  0  0  0  0  0  0  0  0  0
    9.4933   40.2165   34.4707 P   0  0  0  0  0  0  0  0  0  0  0  0
    9.7290   40.1746   36.1317 O   0  0  0  0  0  0  0  0  0  0  0  0
    8.7482   44.1363   33.7722 C   0  0  1  0  0  0  0  0  0  0  0  0
    9.3036   45.3669   34.3388 N   0  0  0  0  0  0  0  0  0  0  0  0
    8.8891   44.0521   32.2310 C   0  0  0  0  0  0  0  0  0  0  0  0
    8.2017   45.1726   31.4438 C   0  0  0  0  0  0  0  0  0  0  0  0
    6.6644   45.1060   31.4863 C   0  0  0  0  0  0  0  0  0  0  0  0
    6.0277   46.3240   30.8100 C   0  0  0  0  0  0  0  0  0  0  0  0
    6.5061   47.5638   31.4218 N   0  0  0  0  0  0  0  0  0  0  0  0
    7.2504   48.5408   30.6839 C   0  0  0  0  0  0  0  0  0  0  0  0
    7.6419   49.7533   31.2634 O   0  0  0  0  0  0  0  0  0  0  0  0
    7.5877   48.3086   29.4938 O   0  0  0  0  0  0  0  0  0  0  0  0
    7.3537   50.1224   32.6087 C   0  0  0  0  0  0  0  0  0  0  0  0
    7.8949   51.5033   32.8839 C   0  0  0  0  0  0  0  0  0  0  0  0
    8.8240   51.6679   33.9286 C   0  0  0  0  0  0  0  0  0  0  0  0
    7.5289   52.6302   32.0981 C   0  0  0  0  0  0  0  0  0  0  0  0
    9.3906   52.9160   34.1892 C   0  0  0  0  0  0  0  0  0  0  0  0
    8.1246   53.8761   32.3697 C   0  0  0  0  0  0  0  0  0  0  0  0
    6.5816   52.5307   31.0182 N   0  0  0  0  0  0  0  0  0  0  0  0
    9.0445   54.0169   33.4092 C   0  0  0  0  0  0  0  0  0  0  0  0
    5.4525   51.7553   31.1408 O   0  0  0  0  0  0  0  0  0  0  0  0
    6.6919   53.2727   30.0201 O   0  0  0  0  0  0  0  0  0  0  0  0
    8.5369   39.1404   34.0143 O   0  0  0  0  0  0  0  0  0  0  0  0
   10.9795   40.0883   33.6889 O   0  0  0  0  0  0  0  0  0  0  0  0
   10.8017   40.0950   32.2901 C   0  0  0  0  0  0  0  0  0  0  0  0
   11.5885   38.9267   31.7042 C   0  0  0  0  0  0  0  0  0  0  0  0
   12.9237   38.9445   32.1722 O   0  0  0  0  0  0  0  0  0  0  0  0
   11.0029   37.5726   32.0908 C   0  0  0  0  0  0  0  0  0  0  0  0
   13.3555   37.5960   32.2595 C   0  0  0  0  0  0  0  0  0  0  0  0
    9.9379   37.1847   31.2657 O   0  0  0  0  0  0  0  0  0  0  0  0
   12.1931   36.6769   31.8952 C   0  0  0  0  0  0  0  0  0  0  0  0
   13.8028   37.2977   33.6186 N   0  0  0  0  0  0  0  0  0  0  0  0
   12.2918   36.2396   30.5587 O   0  0  0  0  0  0  0  0  0  0  0  0
   14.7926   36.4727   33.9858 C   0  0  0  0  0  0  0  0  0  0  0  0
   13.2750   37.7302   34.7935 C   0  0  0  0  0  0  0  0  0  0  0  0
   15.6241   35.7586   33.1857 N   0  0  0  0  0  0  0  0  0  0  0  0
   14.8721   36.4408   35.3326 C   0  0  0  0  0  0  0  0  0  0  0  0
   13.9204   37.2263   35.8802 N   0  0  0  0  0  0  0  0  0  0  0  0
   16.5870   34.9925   33.7800 C   0  0  0  0  0  0  0  0  0  0  0  0
   15.8572   35.6717   35.9441 C   0  0  0  0  0  0  0  0  0  0  0  0
   16.7022   34.9585   35.1437 N   0  0  0  0  0  0  0  0  0  0  0  0
   16.0097   35.6384   37.3561 N   0  0  0  0  0  0  0  0  0  0  0  0
    7.6761   44.0639   34.0546 H   0  0  0  0  0  0  0  0  0  0  0  0
   10.2147   45.5888   33.8745 H   0  0  0  0  0  0  0  0  0  0  0  0
    8.6463   46.1563   34.1436 H   0  0  0  0  0  0  0  0  0  0  0  0
    8.4828   43.0820   31.8668 H   0  0  0  0  0  0  0  0  0  0  0  0
    9.9707   44.0644   31.9682 H   0  0  0  0  0  0  0  0  0  0  0  0
    8.5217   45.0976   30.3814 H   0  0  0  0  0  0  0  0  0  0  0  0
    8.5702   46.1491   31.8191 H   0  0  0  0  0  0  0  0  0  0  0  0
    6.3125   45.0758   32.5383 H   0  0  0  0  0  0  0  0  0  0  0  0
    6.3163   44.1801   30.9791 H   0  0  0  0  0  0  0  0  0  0  0  0
    4.9241   46.2687   30.9244 H   0  0  0  0  0  0  0  0  0  0  0  0
    6.2484   46.2918   29.7215 H   0  0  0  0  0  0  0  0  0  0  0  0
    6.2767   47.7250   32.4271 H   0  0  0  0  0  0  0  0  0  0  0  0
    7.8119   49.3745   33.2927 H   0  0  0  0  0  0  0  0  0  0  0  0
    6.2585   50.1111   32.7883 H   0  0  0  0  0  0  0  0  0  0  0  0
    9.1198   50.8256   34.5419 H   0  0  0  0  0  0  0  0  0  0  0  0
   10.1049   53.0280   34.9947 H   0  0  0  0  0  0  0  0  0  0  0  0
    7.8638   54.7472   31.7819 H   0  0  0  0  0  0  0  0  0  0  0  0
    9.4886   54.9832   33.6111 H   0  0  0  0  0  0  0  0  0  0  0  0
   11.2240   41.0428   31.8929 H   0  0  0  0  0  0  0  0  0  0  0  0
    9.7472   40.0378   31.9304 H   0  0  0  0  0  0  0  0  0  0  0  0
   11.5927   39.0434   30.5966 H   0  0  0  0  0  0  0  0  0  0  0  0
   10.7003   37.5444   33.1641 H   0  0  0  0  0  0  0  0  0  0  0  0
   14.2051   37.4477   31.5560 H   0  0  0  0  0  0  0  0  0  0  0  0
    9.1373   37.6722   31.5906 H   0  0  0  0  0  0  0  0  0  0  0  0
   12.1305   35.7856   32.5586 H   0  0  0  0  0  0  0  0  0  0  0  0
   12.4606   37.0186   29.9674 H   0  0  0  0  0  0  0  0  0  0  0  0
   12.4327   38.4001   34.8694 H   0  0  0  0  0  0  0  0  0  0  0  0
   17.2666   34.4146   33.1690 H   0  0  0  0  0  0  0  0  0  0  0  0
   16.7634   35.0601   37.7894 H   0  0  0  0  0  0  0  0  0  0  0  0
   15.3754   36.1866   37.9788 H   0  0  0  0  0  0  0  0  0  0  0  0
  1  2  2  0
  1  3  1  0
  3  4  1  0
  4  5  1  0
  6  1  1  0
  7  6  1  0
  6  8  1  0
  8  9  1  0
  9 10  1  0
 10 11  1  0
 11 12  1  0
 12 13  1  0
 13 14  1  0
 13 15  2  0
 14 16  1  0
 16 17  1  0
 17 18  2  0
 19 17  1  0
 18 20  1  0
 21 19  2  0
 19 22  1  0
 20 23  2  0
 23 21  1  0
 22 24  1  0
 22 25  2  0
  4 26  2  0
  4 27  1  0
 28 27  1  0
 28 29  1  0
 29 30  1  0
 29 31  1  0
 30 32  1  0
 31 33  1  0
 31 34  1  0
 34 32  1  0
 32 35  1  0
 34 36  1  0
 37 35  1  0
 38 35  1  0
 39 37  2  0
 37 40  1  0
 41 38  2  0
 42 39  1  0
 40 43  2  0
 40 41  1  0
 44 42  2  0
 44 43  1  0
 43 45  1  0
  6 46  1  6
  7 47  1  0
  7 48  1  0
  8 49  1  0
  8 50  1  0
  9 51  1  0
  9 52  1  0
 10 53  1  0
 10 54  1  0
 11 55  1  0
 11 56  1  0
 12 57  1  0
 16 58  1  0
 16 59  1  0
 18 60  1  0
 20 61  1  0
 21 62  1  0
 23 63  1  0
 28 64  1  0
 28 65  1  0
 29 66  1  0
 31 67  1  0
 32 68  1  0
 33 69  1  0
 34 70  1  0
 36 71  1  0
 38 72  1  0
 42 73  1  0
 45 74  1  0
 45 75  1  0
M  CHG  3   5  -1  22   1  24  -1
M  END
>  <EmbedRMS>  (601) 
0.0749783685836

$$$$

     RDKit          3D

 75 78  0  0  0  0  0  0  0  0999 V2000
    9.4299   42.9398   34.3434 C   0  0  0  0  0  0  0  0  0  0  0  0
   10.4912   43.0381   35.0234 O   0  0  0  0  0  0  0  0  0  0  0  0
    8.8545   41.7119   34.0285 O   0  0  0  0  0  0  0  0  0  0  0  0
    9.4942   40.2158   34.4672 P   0  0  0  0  0  0  0  0  0  0  0  0
    9.7315   40.1739   36.1283 O   0  0  0  0  0  0  0  0  0  0  0  0
    8.7414   44.1384   33.7786 C   0  0  1  0  0  0  0  0  0  0  0  0
    9.3023   45.3723   34.3325 N   0  0  0  0  0  0  0  0  0  0  0  0
    8.8962   44.0601   32.2399 C   0  0  0  0  0  0  0  0  0  0  0  0
    8.2022   45.1697   31.4403 C   0  0  0  0  0  0  0  0  0  0  0  0
    6.6647   45.1064   31.4904 C   0  0  0  0  0  0  0  0  0  0  0  0
    6.0260   46.3214   30.8102 C   0  0  0  0  0  0  0  0  0  0  0  0
    6.5031   47.5638   31.4169 N   0  0  0  0  0  0  0  0  0  0  0  0
    7.2545   48.5324   30.6884 C   0  0  0  0  0  0  0  0  0  0  0  0
    7.6551   49.7051   31.3325 O   0  0  0  0  0  0  0  0  0  0  0  0
    7.5886   48.3141   29.4923 O   0  0  0  0  0  0  0  0  0  0  0  0
    8.4744   50.6880   30.7074 C   0  0  0  0  0  0  0  0  0  0  0  0
    8.8494   51.7474   31.7133 C   0  0  0  0  0  0  0  0  0  0  0  0
    8.4986   53.0842   31.4474 C   0  0  0  0  0  0  0  0  0  0  0  0
    9.5069   51.4324   32.9355 C   0  0  0  0  0  0  0  0  0  0  0  0
    8.7791   54.0920   32.3707 C   0  0  0  0  0  0  0  0  0  0  0  0
    9.7648   52.4627   33.8575 C   0  0  0  0  0  0  0  0  0  0  0  0
    9.8965   50.0875   33.2733 N   0  0  0  0  0  0  0  0  0  0  0  0
    9.4073   53.7814   33.5746 C   0  0  0  0  0  0  0  0  0  0  0  0
    9.9491   49.6990   34.5923 O   0  0  0  0  0  0  0  0  0  0  0  0
   10.3399   49.3107   32.4032 O   0  0  0  0  0  0  0  0  0  0  0  0
    8.5375   39.1392   34.0123 O   0  0  0  0  0  0  0  0  0  0  0  0
   10.9794   40.0898   33.6813 O   0  0  0  0  0  0  0  0  0  0  0  0
   10.7981   40.0850   32.2816 C   0  0  0  0  0  0  0  0  0  0  0  0
   11.5886   38.9142   31.7009 C   0  0  0  0  0  0  0  0  0  0  0  0
   12.9213   38.9368   32.1699 O   0  0  0  0  0  0  0  0  0  0  0  0
   11.0047   37.5661   32.0991 C   0  0  0  0  0  0  0  0  0  0  0  0
   13.3510   37.5885   32.2602 C   0  0  0  0  0  0  0  0  0  0  0  0
    9.9296   37.1961   31.2780 O   0  0  0  0  0  0  0  0  0  0  0  0
   12.1923   36.6659   31.9047 C   0  0  0  0  0  0  0  0  0  0  0  0
   13.8033   37.2967   33.6188 N   0  0  0  0  0  0  0  0  0  0  0  0
   12.3007   36.2865   30.5562 O   0  0  0  0  0  0  0  0  0  0  0  0
   14.7933   36.4724   33.9860 C   0  0  0  0  0  0  0  0  0  0  0  0
   13.2753   37.7296   34.7935 C   0  0  0  0  0  0  0  0  0  0  0  0
   15.6243   35.7579   33.1860 N   0  0  0  0  0  0  0  0  0  0  0  0
   14.8728   36.4410   35.3328 C   0  0  0  0  0  0  0  0  0  0  0  0
   13.9209   37.2263   35.8804 N   0  0  0  0  0  0  0  0  0  0  0  0
   16.5873   34.9919   33.7803 C   0  0  0  0  0  0  0  0  0  0  0  0
   15.8577   35.6717   35.9443 C   0  0  0  0  0  0  0  0  0  0  0  0
   16.7025   34.9583   35.1440 N   0  0  0  0  0  0  0  0  0  0  0  0
   16.0100   35.6384   37.3563 N   0  0  0  0  0  0  0  0  0  0  0  0
    7.6670   44.0664   34.0549 H   0  0  0  0  0  0  0  0  0  0  0  0
    8.6833   46.1683   34.0577 H   0  0  0  0  0  0  0  0  0  0  0  0
    9.2332   45.3285   35.3758 H   0  0  0  0  0  0  0  0  0  0  0  0
    8.5085   43.0847   31.8694 H   0  0  0  0  0  0  0  0  0  0  0  0
    9.9808   44.0918   31.9914 H   0  0  0  0  0  0  0  0  0  0  0  0
    8.5756   46.1525   31.7928 H   0  0  0  0  0  0  0  0  0  0  0  0
    8.5158   45.0772   30.3773 H   0  0  0  0  0  0  0  0  0  0  0  0
    6.3130   44.1776   30.9912 H   0  0  0  0  0  0  0  0  0  0  0  0
    6.3172   45.0841   32.5439 H   0  0  0  0  0  0  0  0  0  0  0  0
    6.2475   46.2867   29.7219 H   0  0  0  0  0  0  0  0  0  0  0  0
    4.9225   46.2654   30.9251 H   0  0  0  0  0  0  0  0  0  0  0  0
    6.2837   47.7499   32.4214 H   0  0  0  0  0  0  0  0  0  0  0  0
    9.3961   50.2216   30.2997 H   0  0  0  0  0  0  0  0  0  0  0  0
    7.9190   51.1251   29.8488 H   0  0  0  0  0  0  0  0  0  0  0  0
    7.9978   53.3501   30.5246 H   0  0  0  0  0  0  0  0  0  0  0  0
    8.5025   55.1158   32.1543 H   0  0  0  0  0  0  0  0  0  0  0  0
   10.2600   52.2466   34.7956 H   0  0  0  0  0  0  0  0  0  0  0  0
    9.6198   54.5648   34.2907 H   0  0  0  0  0  0  0  0  0  0  0  0
    9.7426   40.0141   31.9263 H   0  0  0  0  0  0  0  0  0  0  0  0
   11.2130   41.0321   31.8750 H   0  0  0  0  0  0  0  0  0  0  0  0
   11.5981   39.0107   30.5904 H   0  0  0  0  0  0  0  0  0  0  0  0
   10.7008   37.5603   33.1721 H   0  0  0  0  0  0  0  0  0  0  0  0
   14.1977   37.4380   31.5532 H   0  0  0  0  0  0  0  0  0  0  0  0
    9.5180   36.3961   31.6978 H   0  0  0  0  0  0  0  0  0  0  0  0
   12.1418   35.7698   32.5692 H   0  0  0  0  0  0  0  0  0  0  0  0
   11.7729   35.4524   30.4489 H   0  0  0  0  0  0  0  0  0  0  0  0
   12.4321   38.3985   34.8692 H   0  0  0  0  0  0  0  0  0  0  0  0
   17.2667   34.4138   33.1694 H   0  0  0  0  0  0  0  0  0  0  0  0
   15.3757   36.1867   37.9790 H   0  0  0  0  0  0  0  0  0  0  0  0
   16.7634   35.0598   37.7897 H   0  0  0  0  0  0  0  0  0  0  0  0
  1  2  2  0
  1  3  1  0
  3  4  1  0
  4  5  1  0
  6  1  1  0
  7  6  1  0
  6  8  1  0
  8  9  1  0
  9 10  1  0
 10 11  1  0
 11 12  1  0
 12 13  1  0
 13 14  1  0
 13 15  2  0
 14 16  1  0
 16 17  1  0
 17 18  2  0
 19 17  1  0
 18 20  1  0
 21 19  2  0
 19 22  1  0
 20 23  2  0
 23 21  1  0
 22 24  1  0
 22 25  2  0
  4 26  2  0
  4 27  1  0
 28 27  1  0
 28 29  1  0
 29 30  1  0
 29 31  1  0
 30 32  1  0
 31 33  1  0
 31 34  1  0
 34 32  1  0
 32 35  1  0
 34 36  1  0
 37 35  1  0
 38 35  1  0
 39 37  2  0
 37 40  1  0
 41 38  2  0
 42 39  1  0
 40 43  2  0
 40 41  1  0
 44 42  2  0
 44 43  1  0
 43 45  1  0
  6 46  1  6
  7 47  1  0
  7 48  1  0
  8 49  1  0
  8 50  1  0
  9 51  1  0
  9 52  1  0
 10 53  1  0
 10 54  1  0
 11 55  1  0
 11 56  1  0
 12 57  1  0
 16 58  1  0
 16 59  1  0
 18 60  1  0
 20 61  1  0
 21 62  1  0
 23 63  1  0
 28 64  1  0
 28 65  1  0
 29 66  1  0
 31 67  1  0
 32 68  1  0
 33 69  1  0
 34 70  1  0
 36 71  1  0
 38 72  1  0
 42 73  1  0
 45 74  1  0
 45 75  1  0
M  CHG  3   5  -1  22   1  24  -1
M  END
>  <EmbedRMS>  (602) 
0.0740243196006

$$$$

     RDKit          3D

 75 78  0  0  0  0  0  0  0  0999 V2000
    9.4333   42.9365   34.3462 C   0  0  0  0  0  0  0  0  0  0  0  0
   10.4907   43.0330   35.0319 O   0  0  0  0  0  0  0  0  0  0  0  0
    8.8563   41.7104   34.0296 O   0  0  0  0  0  0  0  0  0  0  0  0
    9.4945   40.2142   34.4680 P   0  0  0  0  0  0  0  0  0  0  0  0
    9.7309   40.1726   36.1291 O   0  0  0  0  0  0  0  0  0  0  0  0
    8.7506   44.1348   33.7741 C   0  0  1  0  0  0  0  0  0  0  0  0
    9.2963   45.3821   34.3133 N   0  0  0  0  0  0  0  0  0  0  0  0
    8.8893   44.0528   32.2358 C   0  0  0  0  0  0  0  0  0  0  0  0
    8.2028   45.1824   31.4615 C   0  0  0  0  0  0  0  0  0  0  0  0
    6.6653   45.1046   31.4855 C   0  0  0  0  0  0  0  0  0  0  0  0
    6.0269   46.3226   30.8104 C   0  0  0  0  0  0  0  0  0  0  0  0
    6.5062   47.5640   31.4180 N   0  0  0  0  0  0  0  0  0  0  0  0
    7.2441   48.5389   30.6838 C   0  0  0  0  0  0  0  0  0  0  0  0
    7.5956   49.7389   31.3073 O   0  0  0  0  0  0  0  0  0  0  0  0
    7.5932   48.3118   29.4936 O   0  0  0  0  0  0  0  0  0  0  0  0
    8.3439   50.7567   30.6506 C   0  0  0  0  0  0  0  0  0  0  0  0
    8.5442   51.9183   31.5894 C   0  0  0  0  0  0  0  0  0  0  0  0
    9.7766   52.0350   32.2582 C   0  0  0  0  0  0  0  0  0  0  0  0
    7.5432   52.9063   31.7998 C   0  0  0  0  0  0  0  0  0  0  0  0
   10.0286   53.1152   33.1044 C   0  0  0  0  0  0  0  0  0  0  0  0
    7.8257   53.9948   32.6449 C   0  0  0  0  0  0  0  0  0  0  0  0
    6.2542   52.8406   31.1610 N   0  0  0  0  0  0  0  0  0  0  0  0
    9.0571   54.0955   33.2935 C   0  0  0  0  0  0  0  0  0  0  0  0
    5.5622   53.9990   30.8909 O   0  0  0  0  0  0  0  0  0  0  0  0
    5.6767   51.7469   30.9955 O   0  0  0  0  0  0  0  0  0  0  0  0
    8.5372   39.1386   34.0125 O   0  0  0  0  0  0  0  0  0  0  0  0
   10.9804   40.0880   33.6837 O   0  0  0  0  0  0  0  0  0  0  0  0
   10.8025   40.0899   32.2839 C   0  0  0  0  0  0  0  0  0  0  0  0
   11.5888   38.9174   31.7007 C   0  0  0  0  0  0  0  0  0  0  0  0
   12.9219   38.9373   32.1692 O   0  0  0  0  0  0  0  0  0  0  0  0
   11.0028   37.5682   32.0980 C   0  0  0  0  0  0  0  0  0  0  0  0
   13.3496   37.5885   32.2601 C   0  0  0  0  0  0  0  0  0  0  0  0
    9.9343   37.1822   31.2756 O   0  0  0  0  0  0  0  0  0  0  0  0
   12.1891   36.6677   31.9049 C   0  0  0  0  0  0  0  0  0  0  0  0
   13.8025   37.2965   33.6186 N   0  0  0  0  0  0  0  0  0  0  0  0
   12.2991   36.2867   30.5567 O   0  0  0  0  0  0  0  0  0  0  0  0
   14.7929   36.4725   33.9858 C   0  0  0  0  0  0  0  0  0  0  0  0
   13.2749   37.7294   34.7935 C   0  0  0  0  0  0  0  0  0  0  0  0
   15.6240   35.7580   33.1858 N   0  0  0  0  0  0  0  0  0  0  0  0
   14.8727   36.4411   35.3327 C   0  0  0  0  0  0  0  0  0  0  0  0
   13.9208   37.2263   35.8803 N   0  0  0  0  0  0  0  0  0  0  0  0
   16.5871   34.9921   33.7801 C   0  0  0  0  0  0  0  0  0  0  0  0
   15.8576   35.6718   35.9441 C   0  0  0  0  0  0  0  0  0  0  0  0
   16.7024   34.9585   35.1438 N   0  0  0  0  0  0  0  0  0  0  0  0
   16.0099   35.6384   37.3562 N   0  0  0  0  0  0  0  0  0  0  0  0
    7.6770   44.0707   34.0504 H   0  0  0  0  0  0  0  0  0  0  0  0
    9.1827   45.3821   35.3535 H   0  0  0  0  0  0  0  0  0  0  0  0
   10.3192   45.4407   34.0999 H   0  0  0  0  0  0  0  0  0  0  0  0
    8.4816   43.0851   31.8668 H   0  0  0  0  0  0  0  0  0  0  0  0
    9.9711   44.0682   31.9739 H   0  0  0  0  0  0  0  0  0  0  0  0
    8.5384   45.1363   30.4022 H   0  0  0  0  0  0  0  0  0  0  0  0
    8.5551   46.1510   31.8742 H   0  0  0  0  0  0  0  0  0  0  0  0
    6.3296   44.1800   30.9678 H   0  0  0  0  0  0  0  0  0  0  0  0
    6.3019   45.0643   32.5333 H   0  0  0  0  0  0  0  0  0  0  0  0
    6.2465   46.2898   29.7216 H   0  0  0  0  0  0  0  0  0  0  0  0
    4.9235   46.2673   30.9263 H   0  0  0  0  0  0  0  0  0  0  0  0
    6.2818   47.7531   32.4208 H   0  0  0  0  0  0  0  0  0  0  0  0
    7.8210   51.0923   29.7291 H   0  0  0  0  0  0  0  0  0  0  0  0
    9.3247   50.3380   30.3341 H   0  0  0  0  0  0  0  0  0  0  0  0
   10.5499   51.2891   32.1203 H   0  0  0  0  0  0  0  0  0  0  0  0
   10.9819   53.1944   33.6110 H   0  0  0  0  0  0  0  0  0  0  0  0
    7.0818   54.7623   32.8168 H   0  0  0  0  0  0  0  0  0  0  0  0
    9.2566   54.9345   33.9478 H   0  0  0  0  0  0  0  0  0  0  0  0
    9.7476   40.0331   31.9256 H   0  0  0  0  0  0  0  0  0  0  0  0
   11.2258   41.0357   31.8830 H   0  0  0  0  0  0  0  0  0  0  0  0
   11.5974   39.0148   30.5904 H   0  0  0  0  0  0  0  0  0  0  0  0
   10.7024   37.5455   33.1719 H   0  0  0  0  0  0  0  0  0  0  0  0
   14.1957   37.4366   31.5528 H   0  0  0  0  0  0  0  0  0  0  0  0
    9.1340   37.6658   31.6069 H   0  0  0  0  0  0  0  0  0  0  0  0
   12.1381   35.7717   32.5697 H   0  0  0  0  0  0  0  0  0  0  0  0
   11.7707   35.4530   30.4496 H   0  0  0  0  0  0  0  0  0  0  0  0
   12.4314   38.3980   34.8694 H   0  0  0  0  0  0  0  0  0  0  0  0
   17.2665   34.4140   33.1691 H   0  0  0  0  0  0  0  0  0  0  0  0
   16.7634   35.0598   37.7895 H   0  0  0  0  0  0  0  0  0  0  0  0
   15.3757   36.1868   37.9789 H   0  0  0  0  0  0  0  0  0  0  0  0
  1  2  2  0
  1  3  1  0
  3  4  1  0
  4  5  1  0
  6  1  1  0
  7  6  1  0
  6  8  1  0
  8  9  1  0
  9 10  1  0
 10 11  1  0
 11 12  1  0
 12 13  1  0
 13 14  1  0
 13 15  2  0
 14 16  1  0
 16 17  1  0
 17 18  2  0
 19 17  1  0
 18 20  1  0
 21 19  2  0
 19 22  1  0
 20 23  2  0
 23 21  1  0
 22 24  1  0
 22 25  2  0
  4 26  2  0
  4 27  1  0
 28 27  1  0
 28 29  1  0
 29 30  1  0
 29 31  1  0
 30 32  1  0
 31 33  1  0
 31 34  1  0
 34 32  1  0
 32 35  1  0
 34 36  1  0
 37 35  1  0
 38 35  1  0
 39 37  2  0
 37 40  1  0
 41 38  2  0
 42 39  1  0
 40 43  2  0
 40 41  1  0
 44 42  2  0
 44 43  1  0
 43 45  1  0
  6 46  1  6
  7 47  1  0
  7 48  1  0
  8 49  1  0
  8 50  1  0
  9 51  1  0
  9 52  1  0
 10 53  1  0
 10 54  1  0
 11 55  1  0
 11 56  1  0
 12 57  1  0
 16 58  1  0
 16 59  1  0
 18 60  1  0
 20 61  1  0
 21 62  1  0
 23 63  1  0
 28 64  1  0
 28 65  1  0
 29 66  1  0
 31 67  1  0
 32 68  1  0
 33 69  1  0
 34 70  1  0
 36 71  1  0
 38 72  1  0
 42 73  1  0
 45 74  1  0
 45 75  1  0
M  CHG  3   5  -1  22   1  24  -1
M  END
>  <EmbedRMS>  (603) 
0.0742194864534

$$$$

     RDKit          3D

 75 78  0  0  0  0  0  0  0  0999 V2000
    9.4315   42.9426   34.3425 C   0  0  0  0  0  0  0  0  0  0  0  0
   10.4886   43.0417   35.0287 O   0  0  0  0  0  0  0  0  0  0  0  0
    8.8558   41.7142   34.0284 O   0  0  0  0  0  0  0  0  0  0  0  0
    9.4930   40.2172   34.4698 P   0  0  0  0  0  0  0  0  0  0  0  0
    9.7292   40.1751   36.1307 O   0  0  0  0  0  0  0  0  0  0  0  0
    8.7495   44.1389   33.7712 C   0  0  1  0  0  0  0  0  0  0  0  0
    9.3056   45.3686   34.3394 N   0  0  0  0  0  0  0  0  0  0  0  0
    8.8909   44.0583   32.2298 C   0  0  0  0  0  0  0  0  0  0  0  0
    8.2004   45.1795   31.4444 C   0  0  0  0  0  0  0  0  0  0  0  0
    6.6625   45.1100   31.4882 C   0  0  0  0  0  0  0  0  0  0  0  0
    6.0173   46.3211   30.8045 C   0  0  0  0  0  0  0  0  0  0  0  0
    6.4810   47.5684   31.4106 N   0  0  0  0  0  0  0  0  0  0  0  0
    7.2926   48.5039   30.7055 C   0  0  0  0  0  0  0  0  0  0  0  0
    7.8647   49.5660   31.4104 O   0  0  0  0  0  0  0  0  0  0  0  0
    7.5795   48.3158   29.4924 O   0  0  0  0  0  0  0  0  0  0  0  0
    9.1036   50.1632   31.0351 C   0  0  0  0  0  0  0  0  0  0  0  0
   10.2235   49.1522   31.1521 C   0  0  0  0  0  0  0  0  0  0  0  0
   10.7577   48.6089   29.9687 C   0  0  0  0  0  0  0  0  0  0  0  0
   10.7392   48.7213   32.4075 C   0  0  0  0  0  0  0  0  0  0  0  0
   11.7758   47.6569   30.0158 C   0  0  0  0  0  0  0  0  0  0  0  0
   11.7767   47.7712   32.4279 C   0  0  0  0  0  0  0  0  0  0  0  0
   10.2580   49.2426   33.6617 N   0  0  0  0  0  0  0  0  0  0  0  0
   12.2838   47.2385   31.2428 C   0  0  0  0  0  0  0  0  0  0  0  0
   11.0920   49.2732   34.7559 O   0  0  0  0  0  0  0  0  0  0  0  0
    9.0539   49.5252   33.8232 O   0  0  0  0  0  0  0  0  0  0  0  0
    8.5366   39.1407   34.0136 O   0  0  0  0  0  0  0  0  0  0  0  0
   10.9787   40.0877   33.6871 O   0  0  0  0  0  0  0  0  0  0  0  0
   10.7993   40.0948   32.2883 C   0  0  0  0  0  0  0  0  0  0  0  0
   11.5957   38.9352   31.6994 C   0  0  0  0  0  0  0  0  0  0  0  0
   12.9257   38.9478   32.1799 O   0  0  0  0  0  0  0  0  0  0  0  0
   11.0070   37.5759   32.0732 C   0  0  0  0  0  0  0  0  0  0  0  0
   13.3571   37.5980   32.2612 C   0  0  0  0  0  0  0  0  0  0  0  0
    9.9093   37.1809   31.2875 O   0  0  0  0  0  0  0  0  0  0  0  0
   12.1967   36.6764   31.8894 C   0  0  0  0  0  0  0  0  0  0  0  0
   13.8018   37.2956   33.6197 N   0  0  0  0  0  0  0  0  0  0  0  0
   12.3048   36.2361   30.5555 O   0  0  0  0  0  0  0  0  0  0  0  0
   14.7922   36.4717   33.9864 C   0  0  0  0  0  0  0  0  0  0  0  0
   13.2747   37.7291   34.7944 C   0  0  0  0  0  0  0  0  0  0  0  0
   15.6239   35.7582   33.1861 N   0  0  0  0  0  0  0  0  0  0  0  0
   14.8721   36.4402   35.3331 C   0  0  0  0  0  0  0  0  0  0  0  0
   13.9206   37.2257   35.8810 N   0  0  0  0  0  0  0  0  0  0  0  0
   16.5873   34.9924   33.7802 C   0  0  0  0  0  0  0  0  0  0  0  0
   15.8576   35.6714   35.9444 C   0  0  0  0  0  0  0  0  0  0  0  0
   16.7026   34.9585   35.1439 N   0  0  0  0  0  0  0  0  0  0  0  0
   16.0102   35.6383   37.3564 N   0  0  0  0  0  0  0  0  0  0  0  0
    7.6773   44.0673   34.0530 H   0  0  0  0  0  0  0  0  0  0  0  0
   10.2213   45.5847   33.8818 H   0  0  0  0  0  0  0  0  0  0  0  0
    8.6545   46.1613   34.1373 H   0  0  0  0  0  0  0  0  0  0  0  0
    9.9727   44.0752   31.9676 H   0  0  0  0  0  0  0  0  0  0  0  0
    8.4878   43.0879   31.8633 H   0  0  0  0  0  0  0  0  0  0  0  0
    8.5671   46.1568   31.8204 H   0  0  0  0  0  0  0  0  0  0  0  0
    8.5205   45.1076   30.3818 H   0  0  0  0  0  0  0  0  0  0  0  0
    6.3172   44.1795   30.9878 H   0  0  0  0  0  0  0  0  0  0  0  0
    6.3122   45.0851   32.5409 H   0  0  0  0  0  0  0  0  0  0  0  0
    6.2436   46.2868   29.7172 H   0  0  0  0  0  0  0  0  0  0  0  0
    4.9137   46.2568   30.9137 H   0  0  0  0  0  0  0  0  0  0  0  0
    6.2669   47.7482   32.4174 H   0  0  0  0  0  0  0  0  0  0  0  0
    9.0200   50.5605   29.9996 H   0  0  0  0  0  0  0  0  0  0  0  0
    9.3121   51.0323   31.6934 H   0  0  0  0  0  0  0  0  0  0  0  0
   10.3786   48.9165   29.0019 H   0  0  0  0  0  0  0  0  0  0  0  0
   12.1719   47.2428   29.0976 H   0  0  0  0  0  0  0  0  0  0  0  0
   12.1854   47.4263   33.3691 H   0  0  0  0  0  0  0  0  0  0  0  0
   13.0741   46.4997   31.2767 H   0  0  0  0  0  0  0  0  0  0  0  0
    9.7449   40.0203   31.9301 H   0  0  0  0  0  0  0  0  0  0  0  0
   11.2094   41.0482   31.8915 H   0  0  0  0  0  0  0  0  0  0  0  0
   11.6208   39.0685   30.5942 H   0  0  0  0  0  0  0  0  0  0  0  0
   10.7059   37.5566   33.1439 H   0  0  0  0  0  0  0  0  0  0  0  0
   14.2095   37.4544   31.5601 H   0  0  0  0  0  0  0  0  0  0  0  0
   10.0864   37.4212   30.3414 H   0  0  0  0  0  0  0  0  0  0  0  0
   12.1275   35.7873   32.5550 H   0  0  0  0  0  0  0  0  0  0  0  0
   12.5030   37.0109   29.9673 H   0  0  0  0  0  0  0  0  0  0  0  0
   12.4328   38.3997   34.8703 H   0  0  0  0  0  0  0  0  0  0  0  0
   17.2670   34.4149   33.1690 H   0  0  0  0  0  0  0  0  0  0  0  0
   16.7640   35.0601   37.7896 H   0  0  0  0  0  0  0  0  0  0  0  0
   15.3758   36.1862   37.9791 H   0  0  0  0  0  0  0  0  0  0  0  0
  1  2  2  0
  1  3  1  0
  3  4  1  0
  4  5  1  0
  6  1  1  0
  7  6  1  0
  6  8  1  0
  8  9  1  0
  9 10  1  0
 10 11  1  0
 11 12  1  0
 12 13  1  0
 13 14  1  0
 13 15  2  0
 14 16  1  0
 16 17  1  0
 17 18  2  0
 19 17  1  0
 18 20  1  0
 21 19  2  0
 19 22  1  0
 20 23  2  0
 23 21  1  0
 22 24  1  0
 22 25  2  0
  4 26  2  0
  4 27  1  0
 28 27  1  0
 28 29  1  0
 29 30  1  0
 29 31  1  0
 30 32  1  0
 31 33  1  0
 31 34  1  0
 34 32  1  0
 32 35  1  0
 34 36  1  0
 37 35  1  0
 38 35  1  0
 39 37  2  0
 37 40  1  0
 41 38  2  0
 42 39  1  0
 40 43  2  0
 40 41  1  0
 44 42  2  0
 44 43  1  0
 43 45  1  0
  6 46  1  6
  7 47  1  0
  7 48  1  0
  8 49  1  0
  8 50  1  0
  9 51  1  0
  9 52  1  0
 10 53  1  0
 10 54  1  0
 11 55  1  0
 11 56  1  0
 12 57  1  0
 16 58  1  0
 16 59  1  0
 18 60  1  0
 20 61  1  0
 21 62  1  0
 23 63  1  0
 28 64  1  0
 28 65  1  0
 29 66  1  0
 31 67  1  0
 32 68  1  0
 33 69  1  0
 34 70  1  0
 36 71  1  0
 38 72  1  0
 42 73  1  0
 45 74  1  0
 45 75  1  0
M  CHG  3   5  -1  22   1  24  -1
M  END
>  <EmbedRMS>  (604) 
0.0775867348517

$$$$

     RDKit          3D

 75 78  0  0  0  0  0  0  0  0999 V2000
    9.4317   42.9421   34.3429 C   0  0  0  0  0  0  0  0  0  0  0  0
   10.4885   43.0414   35.0294 O   0  0  0  0  0  0  0  0  0  0  0  0
    8.8563   41.7138   34.0281 O   0  0  0  0  0  0  0  0  0  0  0  0
    9.4942   40.2167   34.4677 P   0  0  0  0  0  0  0  0  0  0  0  0
    9.7309   40.1746   36.1288 O   0  0  0  0  0  0  0  0  0  0  0  0
    8.7494   44.1380   33.7715 C   0  0  1  0  0  0  0  0  0  0  0  0
    9.3052   45.3684   34.3384 N   0  0  0  0  0  0  0  0  0  0  0  0
    8.8895   44.0555   32.2301 C   0  0  0  0  0  0  0  0  0  0  0  0
    8.2005   45.1768   31.4442 C   0  0  0  0  0  0  0  0  0  0  0  0
    6.6629   45.1087   31.4884 C   0  0  0  0  0  0  0  0  0  0  0  0
    6.0205   46.3217   30.8070 C   0  0  0  0  0  0  0  0  0  0  0  0
    6.4903   47.5667   31.4134 N   0  0  0  0  0  0  0  0  0  0  0  0
    7.2760   48.5169   30.6978 C   0  0  0  0  0  0  0  0  0  0  0  0
    7.7664   49.6369   31.3750 O   0  0  0  0  0  0  0  0  0  0  0  0
    7.5842   48.3130   29.4925 O   0  0  0  0  0  0  0  0  0  0  0  0
    8.8599   50.4204   30.9011 C   0  0  0  0  0  0  0  0  0  0  0  0
   10.1384   49.6125   30.9340 C   0  0  0  0  0  0  0  0  0  0  0  0
   10.6747   49.1598   29.7139 C   0  0  0  0  0  0  0  0  0  0  0  0
   10.8173   49.3038   32.1470 C   0  0  0  0  0  0  0  0  0  0  0  0
   11.8541   48.4150   29.6849 C   0  0  0  0  0  0  0  0  0  0  0  0
   12.0116   48.5616   32.0905 C   0  0  0  0  0  0  0  0  0  0  0  0
   10.3443   49.7517   33.4320 N   0  0  0  0  0  0  0  0  0  0  0  0
   12.5212   48.1166   30.8706 C   0  0  0  0  0  0  0  0  0  0  0  0
   11.2405   49.9692   34.4537 O   0  0  0  0  0  0  0  0  0  0  0  0
    9.1241   49.7984   33.6891 O   0  0  0  0  0  0  0  0  0  0  0  0
    8.5369   39.1407   34.0125 O   0  0  0  0  0  0  0  0  0  0  0  0
   10.9797   40.0878   33.6830 O   0  0  0  0  0  0  0  0  0  0  0  0
   10.8003   40.0909   32.2833 C   0  0  0  0  0  0  0  0  0  0  0  0
   11.5960   38.9275   31.6964 C   0  0  0  0  0  0  0  0  0  0  0  0
   12.9240   38.9412   32.1768 O   0  0  0  0  0  0  0  0  0  0  0  0
   11.0064   37.5723   32.0793 C   0  0  0  0  0  0  0  0  0  0  0  0
   13.3508   37.5908   32.2615 C   0  0  0  0  0  0  0  0  0  0  0  0
    9.9066   37.1795   31.2946 O   0  0  0  0  0  0  0  0  0  0  0  0
   12.1921   36.6676   31.9003 C   0  0  0  0  0  0  0  0  0  0  0  0
   13.8018   37.2948   33.6194 N   0  0  0  0  0  0  0  0  0  0  0  0
   12.3135   36.2793   30.5560 O   0  0  0  0  0  0  0  0  0  0  0  0
   14.7927   36.4716   33.9861 C   0  0  0  0  0  0  0  0  0  0  0  0
   13.2747   37.7284   34.7942 C   0  0  0  0  0  0  0  0  0  0  0  0
   15.6240   35.7576   33.1858 N   0  0  0  0  0  0  0  0  0  0  0  0
   14.8729   36.4405   35.3329 C   0  0  0  0  0  0  0  0  0  0  0  0
   13.9210   37.2255   35.8808 N   0  0  0  0  0  0  0  0  0  0  0  0
   16.5873   34.9919   33.7800 C   0  0  0  0  0  0  0  0  0  0  0  0
   15.8578   35.6715   35.9441 C   0  0  0  0  0  0  0  0  0  0  0  0
   16.7026   34.9581   35.1437 N   0  0  0  0  0  0  0  0  0  0  0  0
   16.0098   35.6378   37.3562 N   0  0  0  0  0  0  0  0  0  0  0  0
    7.6774   44.0660   34.0541 H   0  0  0  0  0  0  0  0  0  0  0  0
   10.2158   45.5911   33.8732 H   0  0  0  0  0  0  0  0  0  0  0  0
    8.6478   46.1580   34.1443 H   0  0  0  0  0  0  0  0  0  0  0  0
    9.9710   44.0695   31.9668 H   0  0  0  0  0  0  0  0  0  0  0  0
    8.4836   43.0856   31.8653 H   0  0  0  0  0  0  0  0  0  0  0  0
    8.5198   45.1032   30.3815 H   0  0  0  0  0  0  0  0  0  0  0  0
    8.5683   46.1539   31.8197 H   0  0  0  0  0  0  0  0  0  0  0  0
    6.3129   45.0825   32.5411 H   0  0  0  0  0  0  0  0  0  0  0  0
    6.3161   44.1797   30.9860 H   0  0  0  0  0  0  0  0  0  0  0  0
    4.9169   46.2611   30.9186 H   0  0  0  0  0  0  0  0  0  0  0  0
    6.2444   46.2875   29.7191 H   0  0  0  0  0  0  0  0  0  0  0  0
    6.2730   47.7502   32.4188 H   0  0  0  0  0  0  0  0  0  0  0  0
    8.6337   50.7837   29.8743 H   0  0  0  0  0  0  0  0  0  0  0  0
    8.9719   51.3223   31.5387 H   0  0  0  0  0  0  0  0  0  0  0  0
   10.1766   49.3809   28.7776 H   0  0  0  0  0  0  0  0  0  0  0  0
   12.2528   48.0704   28.7394 H   0  0  0  0  0  0  0  0  0  0  0  0
   12.5462   48.3133   32.9988 H   0  0  0  0  0  0  0  0  0  0  0  0
   13.4373   47.5398   30.8452 H   0  0  0  0  0  0  0  0  0  0  0  0
   11.2120   41.0422   31.8838 H   0  0  0  0  0  0  0  0  0  0  0  0
    9.7454   40.0172   31.9265 H   0  0  0  0  0  0  0  0  0  0  0  0
   11.6249   39.0457   30.5890 H   0  0  0  0  0  0  0  0  0  0  0  0
   10.7051   37.5588   33.1499 H   0  0  0  0  0  0  0  0  0  0  0  0
   14.1988   37.4427   31.5557 H   0  0  0  0  0  0  0  0  0  0  0  0
   10.0895   37.4059   30.3458 H   0  0  0  0  0  0  0  0  0  0  0  0
   12.1340   35.7758   32.5702 H   0  0  0  0  0  0  0  0  0  0  0  0
   11.7935   35.4399   30.4515 H   0  0  0  0  0  0  0  0  0  0  0  0
   12.4316   38.3972   34.8703 H   0  0  0  0  0  0  0  0  0  0  0  0
   17.2667   34.4139   33.1689 H   0  0  0  0  0  0  0  0  0  0  0  0
   15.3757   36.1862   37.9789 H   0  0  0  0  0  0  0  0  0  0  0  0
   16.7636   35.0597   37.7894 H   0  0  0  0  0  0  0  0  0  0  0  0
  1  2  2  0
  1  3  1  0
  3  4  1  0
  4  5  1  0
  6  1  1  0
  7  6  1  0
  6  8  1  0
  8  9  1  0
  9 10  1  0
 10 11  1  0
 11 12  1  0
 12 13  1  0
 13 14  1  0
 13 15  2  0
 14 16  1  0
 16 17  1  0
 17 18  2  0
 19 17  1  0
 18 20  1  0
 21 19  2  0
 19 22  1  0
 20 23  2  0
 23 21  1  0
 22 24  1  0
 22 25  2  0
  4 26  2  0
  4 27  1  0
 28 27  1  0
 28 29  1  0
 29 30  1  0
 29 31  1  0
 30 32  1  0
 31 33  1  0
 31 34  1  0
 34 32  1  0
 32 35  1  0
 34 36  1  0
 37 35  1  0
 38 35  1  0
 39 37  2  0
 37 40  1  0
 41 38  2  0
 42 39  1  0
 40 43  2  0
 40 41  1  0
 44 42  2  0
 44 43  1  0
 43 45  1  0
  6 46  1  6
  7 47  1  0
  7 48  1  0
  8 49  1  0
  8 50  1  0
  9 51  1  0
  9 52  1  0
 10 53  1  0
 10 54  1  0
 11 55  1  0
 11 56  1  0
 12 57  1  0
 16 58  1  0
 16 59  1  0
 18 60  1  0
 20 61  1  0
 21 62  1  0
 23 63  1  0
 28 64  1  0
 28 65  1  0
 29 66  1  0
 31 67  1  0
 32 68  1  0
 33 69  1  0
 34 70  1  0
 36 71  1  0
 38 72  1  0
 42 73  1  0
 45 74  1  0
 45 75  1  0
M  CHG  3   5  -1  22   1  24  -1
M  END
>  <EmbedRMS>  (605) 
0.0752090436396

$$$$

     RDKit          3D

 75 78  0  0  0  0  0  0  0  0999 V2000
    9.4333   42.9368   34.3460 C   0  0  0  0  0  0  0  0  0  0  0  0
   10.4908   43.0332   35.0318 O   0  0  0  0  0  0  0  0  0  0  0  0
    8.8563   41.7106   34.0295 O   0  0  0  0  0  0  0  0  0  0  0  0
    9.4945   40.2143   34.4680 P   0  0  0  0  0  0  0  0  0  0  0  0
    9.7308   40.1727   36.1291 O   0  0  0  0  0  0  0  0  0  0  0  0
    8.7507   44.1352   33.7740 C   0  0  1  0  0  0  0  0  0  0  0  0
    9.2964   45.3824   34.3133 N   0  0  0  0  0  0  0  0  0  0  0  0
    8.8893   44.0533   32.2358 C   0  0  0  0  0  0  0  0  0  0  0  0
    8.2026   45.1831   31.4617 C   0  0  0  0  0  0  0  0  0  0  0  0
    6.6651   45.1047   31.4852 C   0  0  0  0  0  0  0  0  0  0  0  0
    6.0260   46.3221   30.8094 C   0  0  0  0  0  0  0  0  0  0  0  0
    6.5037   47.5640   31.4171 N   0  0  0  0  0  0  0  0  0  0  0  0
    7.2499   48.5352   30.6866 C   0  0  0  0  0  0  0  0  0  0  0  0
    7.6300   49.7198   31.3221 O   0  0  0  0  0  0  0  0  0  0  0  0
    7.5910   48.3129   29.4932 O   0  0  0  0  0  0  0  0  0  0  0  0
    8.4262   50.7136   30.6856 C   0  0  0  0  0  0  0  0  0  0  0  0
    8.7247   51.8199   31.6641 C   0  0  0  0  0  0  0  0  0  0  0  0
    7.9738   53.0070   31.5841 C   0  0  0  0  0  0  0  0  0  0  0  0
    9.7517   51.7114   32.6422 C   0  0  0  0  0  0  0  0  0  0  0  0
    8.2395   54.0770   32.4391 C   0  0  0  0  0  0  0  0  0  0  0  0
   10.0118   52.8089   33.4827 C   0  0  0  0  0  0  0  0  0  0  0  0
   10.5508   50.5219   32.7879 N   0  0  0  0  0  0  0  0  0  0  0  0
    9.2593   53.9799   33.3832 C   0  0  0  0  0  0  0  0  0  0  0  0
   11.8375   50.6143   33.2670 O   0  0  0  0  0  0  0  0  0  0  0  0
   10.0470   49.3895   32.6435 O   0  0  0  0  0  0  0  0  0  0  0  0
    8.5372   39.1387   34.0124 O   0  0  0  0  0  0  0  0  0  0  0  0
   10.9804   40.0881   33.6837 O   0  0  0  0  0  0  0  0  0  0  0  0
   10.8025   40.0900   32.2839 C   0  0  0  0  0  0  0  0  0  0  0  0
   11.5888   38.9174   31.7007 C   0  0  0  0  0  0  0  0  0  0  0  0
   12.9219   38.9373   32.1692 O   0  0  0  0  0  0  0  0  0  0  0  0
   11.0028   37.5682   32.0980 C   0  0  0  0  0  0  0  0  0  0  0  0
   13.3496   37.5885   32.2601 C   0  0  0  0  0  0  0  0  0  0  0  0
    9.9343   37.1822   31.2756 O   0  0  0  0  0  0  0  0  0  0  0  0
   12.1891   36.6677   31.9049 C   0  0  0  0  0  0  0  0  0  0  0  0
   13.8025   37.2965   33.6186 N   0  0  0  0  0  0  0  0  0  0  0  0
   12.2991   36.2867   30.5567 O   0  0  0  0  0  0  0  0  0  0  0  0
   14.7929   36.4725   33.9858 C   0  0  0  0  0  0  0  0  0  0  0  0
   13.2749   37.7294   34.7935 C   0  0  0  0  0  0  0  0  0  0  0  0
   15.6240   35.7580   33.1858 N   0  0  0  0  0  0  0  0  0  0  0  0
   14.8727   36.4411   35.3327 C   0  0  0  0  0  0  0  0  0  0  0  0
   13.9208   37.2263   35.8803 N   0  0  0  0  0  0  0  0  0  0  0  0
   16.5871   34.9921   33.7801 C   0  0  0  0  0  0  0  0  0  0  0  0
   15.8576   35.6718   35.9441 C   0  0  0  0  0  0  0  0  0  0  0  0
   16.7024   34.9584   35.1438 N   0  0  0  0  0  0  0  0  0  0  0  0
   16.0099   35.6384   37.3562 N   0  0  0  0  0  0  0  0  0  0  0  0
    7.6771   44.0710   34.0503 H   0  0  0  0  0  0  0  0  0  0  0  0
    9.1834   45.3822   35.3535 H   0  0  0  0  0  0  0  0  0  0  0  0
   10.3191   45.4416   34.0992 H   0  0  0  0  0  0  0  0  0  0  0  0
    8.4817   43.0857   31.8666 H   0  0  0  0  0  0  0  0  0  0  0  0
    9.9711   44.0690   31.9738 H   0  0  0  0  0  0  0  0  0  0  0  0
    8.5386   45.1378   30.4026 H   0  0  0  0  0  0  0  0  0  0  0  0
    8.5544   46.1519   31.8751 H   0  0  0  0  0  0  0  0  0  0  0  0
    6.3300   44.1797   30.9677 H   0  0  0  0  0  0  0  0  0  0  0  0
    6.3014   45.0646   32.5330 H   0  0  0  0  0  0  0  0  0  0  0  0
    6.2466   46.2894   29.7208 H   0  0  0  0  0  0  0  0  0  0  0  0
    4.9225   46.2659   30.9244 H   0  0  0  0  0  0  0  0  0  0  0  0
    6.2816   47.7511   32.4208 H   0  0  0  0  0  0  0  0  0  0  0  0
    9.3740   50.2722   30.3083 H   0  0  0  0  0  0  0  0  0  0  0  0
    7.8751   51.1074   29.8033 H   0  0  0  0  0  0  0  0  0  0  0  0
    7.1813   53.1085   30.8528 H   0  0  0  0  0  0  0  0  0  0  0  0
    7.6559   54.9857   32.3659 H   0  0  0  0  0  0  0  0  0  0  0  0
   10.7915   52.7527   34.2316 H   0  0  0  0  0  0  0  0  0  0  0  0
    9.4656   54.8129   34.0429 H   0  0  0  0  0  0  0  0  0  0  0  0
    9.7476   40.0332   31.9256 H   0  0  0  0  0  0  0  0  0  0  0  0
   11.2258   41.0357   31.8830 H   0  0  0  0  0  0  0  0  0  0  0  0
   11.5974   39.0148   30.5904 H   0  0  0  0  0  0  0  0  0  0  0  0
   10.7023   37.5455   33.1719 H   0  0  0  0  0  0  0  0  0  0  0  0
   14.1957   37.4366   31.5528 H   0  0  0  0  0  0  0  0  0  0  0  0
    9.1339   37.6658   31.6069 H   0  0  0  0  0  0  0  0  0  0  0  0
   12.1381   35.7717   32.5697 H   0  0  0  0  0  0  0  0  0  0  0  0
   11.7707   35.4530   30.4496 H   0  0  0  0  0  0  0  0  0  0  0  0
   12.4314   38.3980   34.8694 H   0  0  0  0  0  0  0  0  0  0  0  0
   17.2665   34.4140   33.1691 H   0  0  0  0  0  0  0  0  0  0  0  0
   16.7633   35.0598   37.7895 H   0  0  0  0  0  0  0  0  0  0  0  0
   15.3757   36.1868   37.9789 H   0  0  0  0  0  0  0  0  0  0  0  0
  1  2  2  0
  1  3  1  0
  3  4  1  0
  4  5  1  0
  6  1  1  0
  7  6  1  0
  6  8  1  0
  8  9  1  0
  9 10  1  0
 10 11  1  0
 11 12  1  0
 12 13  1  0
 13 14  1  0
 13 15  2  0
 14 16  1  0
 16 17  1  0
 17 18  2  0
 19 17  1  0
 18 20  1  0
 21 19  2  0
 19 22  1  0
 20 23  2  0
 23 21  1  0
 22 24  1  0
 22 25  2  0
  4 26  2  0
  4 27  1  0
 28 27  1  0
 28 29  1  0
 29 30  1  0
 29 31  1  0
 30 32  1  0
 31 33  1  0
 31 34  1  0
 34 32  1  0
 32 35  1  0
 34 36  1  0
 37 35  1  0
 38 35  1  0
 39 37  2  0
 37 40  1  0
 41 38  2  0
 42 39  1  0
 40 43  2  0
 40 41  1  0
 44 42  2  0
 44 43  1  0
 43 45  1  0
  6 46  1  6
  7 47  1  0
  7 48  1  0
  8 49  1  0
  8 50  1  0
  9 51  1  0
  9 52  1  0
 10 53  1  0
 10 54  1  0
 11 55  1  0
 11 56  1  0
 12 57  1  0
 16 58  1  0
 16 59  1  0
 18 60  1  0
 20 61  1  0
 21 62  1  0
 23 63  1  0
 28 64  1  0
 28 65  1  0
 29 66  1  0
 31 67  1  0
 32 68  1  0
 33 69  1  0
 34 70  1  0
 36 71  1  0
 38 72  1  0
 42 73  1  0
 45 74  1  0
 45 75  1  0
M  CHG  3   5  -1  22   1  24  -1
M  END
>  <EmbedRMS>  (606) 
0.074374529451

$$$$

     RDKit          3D

 75 78  0  0  0  0  0  0  0  0999 V2000
    9.4298   42.9396   34.3437 C   0  0  0  0  0  0  0  0  0  0  0  0
   10.4912   43.0381   35.0235 O   0  0  0  0  0  0  0  0  0  0  0  0
    8.8545   41.7117   34.0291 O   0  0  0  0  0  0  0  0  0  0  0  0
    9.4929   40.2156   34.4699 P   0  0  0  0  0  0  0  0  0  0  0  0
    9.7292   40.1741   36.1309 O   0  0  0  0  0  0  0  0  0  0  0  0
    8.7411   44.1379   33.7787 C   0  0  1  0  0  0  0  0  0  0  0  0
    9.3014   45.3721   34.3325 N   0  0  0  0  0  0  0  0  0  0  0  0
    8.8962   44.0593   32.2400 C   0  0  0  0  0  0  0  0  0  0  0  0
    8.2029   45.1690   31.4402 C   0  0  0  0  0  0  0  0  0  0  0  0
    6.6655   45.1056   31.4886 C   0  0  0  0  0  0  0  0  0  0  0  0
    6.0288   46.3228   30.8103 C   0  0  0  0  0  0  0  0  0  0  0  0
    6.5061   47.5633   31.4216 N   0  0  0  0  0  0  0  0  0  0  0  0
    7.2494   48.5409   30.6836 C   0  0  0  0  0  0  0  0  0  0  0  0
    7.6380   49.7548   31.2622 O   0  0  0  0  0  0  0  0  0  0  0  0
    7.5879   48.3083   29.4938 O   0  0  0  0  0  0  0  0  0  0  0  0
    7.3464   50.1253   32.6064 C   0  0  0  0  0  0  0  0  0  0  0  0
    7.8831   51.5083   32.8802 C   0  0  0  0  0  0  0  0  0  0  0  0
    8.8097   51.6773   33.9264 C   0  0  0  0  0  0  0  0  0  0  0  0
    7.5154   52.6328   32.0918 C   0  0  0  0  0  0  0  0  0  0  0  0
    9.3721   52.9275   34.1861 C   0  0  0  0  0  0  0  0  0  0  0  0
    8.1069   53.8808   32.3625 C   0  0  0  0  0  0  0  0  0  0  0  0
    6.5705   52.5287   31.0102 N   0  0  0  0  0  0  0  0  0  0  0  0
    9.0243   54.0261   33.4035 C   0  0  0  0  0  0  0  0  0  0  0  0
    5.4433   51.7503   31.1319 O   0  0  0  0  0  0  0  0  0  0  0  0
    6.6806   53.2693   30.0111 O   0  0  0  0  0  0  0  0  0  0  0  0
    8.5369   39.1390   34.0137 O   0  0  0  0  0  0  0  0  0  0  0  0
   10.9787   40.0874   33.6871 O   0  0  0  0  0  0  0  0  0  0  0  0
   10.7992   40.0946   32.2883 C   0  0  0  0  0  0  0  0  0  0  0  0
   11.5957   38.9351   31.6994 C   0  0  0  0  0  0  0  0  0  0  0  0
   12.9257   38.9478   32.1799 O   0  0  0  0  0  0  0  0  0  0  0  0
   11.0070   37.5758   32.0732 C   0  0  0  0  0  0  0  0  0  0  0  0
   13.3571   37.5980   32.2612 C   0  0  0  0  0  0  0  0  0  0  0  0
    9.9093   37.1808   31.2875 O   0  0  0  0  0  0  0  0  0  0  0  0
   12.1967   36.6764   31.8894 C   0  0  0  0  0  0  0  0  0  0  0  0
   13.8018   37.2956   33.6197 N   0  0  0  0  0  0  0  0  0  0  0  0
   12.3048   36.2360   30.5555 O   0  0  0  0  0  0  0  0  0  0  0  0
   14.7922   36.4716   33.9864 C   0  0  0  0  0  0  0  0  0  0  0  0
   13.2747   37.7291   34.7944 C   0  0  0  0  0  0  0  0  0  0  0  0
   15.6239   35.7581   33.1861 N   0  0  0  0  0  0  0  0  0  0  0  0
   14.8721   36.4402   35.3331 C   0  0  0  0  0  0  0  0  0  0  0  0
   13.9206   37.2257   35.8810 N   0  0  0  0  0  0  0  0  0  0  0  0
   16.5873   34.9924   33.7802 C   0  0  0  0  0  0  0  0  0  0  0  0
   15.8576   35.6714   35.9444 C   0  0  0  0  0  0  0  0  0  0  0  0
   16.7026   34.9585   35.1439 N   0  0  0  0  0  0  0  0  0  0  0  0
   16.0102   35.6382   37.3564 N   0  0  0  0  0  0  0  0  0  0  0  0
    7.6666   44.0656   34.0546 H   0  0  0  0  0  0  0  0  0  0  0  0
    9.2335   45.3276   35.3760 H   0  0  0  0  0  0  0  0  0  0  0  0
    8.6806   46.1672   34.0590 H   0  0  0  0  0  0  0  0  0  0  0  0
    8.5083   43.0840   31.8696 H   0  0  0  0  0  0  0  0  0  0  0  0
    9.9809   44.0906   31.9918 H   0  0  0  0  0  0  0  0  0  0  0  0
    8.5176   45.0769   30.3775 H   0  0  0  0  0  0  0  0  0  0  0  0
    8.5759   46.1516   31.7935 H   0  0  0  0  0  0  0  0  0  0  0  0
    6.3166   45.0809   32.5416 H   0  0  0  0  0  0  0  0  0  0  0  0
    6.3140   44.1782   30.9866 H   0  0  0  0  0  0  0  0  0  0  0  0
    6.2505   46.2897   29.7221 H   0  0  0  0  0  0  0  0  0  0  0  0
    4.9251   46.2671   30.9239 H   0  0  0  0  0  0  0  0  0  0  0  0
    6.2762   47.7248   32.4268 H   0  0  0  0  0  0  0  0  0  0  0  0
    7.8055   49.3798   33.2924 H   0  0  0  0  0  0  0  0  0  0  0  0
    6.2509   50.1113   32.7841 H   0  0  0  0  0  0  0  0  0  0  0  0
    9.1067   50.8370   34.5418 H   0  0  0  0  0  0  0  0  0  0  0  0
   10.0845   53.0430   34.9929 H   0  0  0  0  0  0  0  0  0  0  0  0
    7.8447   54.7502   31.7727 H   0  0  0  0  0  0  0  0  0  0  0  0
    9.4652   54.9940   33.6047 H   0  0  0  0  0  0  0  0  0  0  0  0
    9.7448   40.0200   31.9302 H   0  0  0  0  0  0  0  0  0  0  0  0
   11.2092   41.0480   31.8915 H   0  0  0  0  0  0  0  0  0  0  0  0
   11.6207   39.0684   30.5942 H   0  0  0  0  0  0  0  0  0  0  0  0
   10.7059   37.5564   33.1439 H   0  0  0  0  0  0  0  0  0  0  0  0
   14.2095   37.4543   31.5601 H   0  0  0  0  0  0  0  0  0  0  0  0
   10.0864   37.4210   30.3413 H   0  0  0  0  0  0  0  0  0  0  0  0
   12.1276   35.7872   32.5550 H   0  0  0  0  0  0  0  0  0  0  0  0
   12.5031   37.0109   29.9673 H   0  0  0  0  0  0  0  0  0  0  0  0
   12.4328   38.3997   34.8703 H   0  0  0  0  0  0  0  0  0  0  0  0
   17.2670   34.4148   33.1690 H   0  0  0  0  0  0  0  0  0  0  0  0
   15.3758   36.1862   37.9791 H   0  0  0  0  0  0  0  0  0  0  0  0
   16.7640   35.0601   37.7896 H   0  0  0  0  0  0  0  0  0  0  0  0
  1  2  2  0
  1  3  1  0
  3  4  1  0
  4  5  1  0
  6  1  1  0
  7  6  1  0
  6  8  1  0
  8  9  1  0
  9 10  1  0
 10 11  1  0
 11 12  1  0
 12 13  1  0
 13 14  1  0
 13 15  2  0
 14 16  1  0
 16 17  1  0
 17 18  2  0
 19 17  1  0
 18 20  1  0
 21 19  2  0
 19 22  1  0
 20 23  2  0
 23 21  1  0
 22 24  1  0
 22 25  2  0
  4 26  2  0
  4 27  1  0
 28 27  1  0
 28 29  1  0
 29 30  1  0
 29 31  1  0
 30 32  1  0
 31 33  1  0
 31 34  1  0
 34 32  1  0
 32 35  1  0
 34 36  1  0
 37 35  1  0
 38 35  1  0
 39 37  2  0
 37 40  1  0
 41 38  2  0
 42 39  1  0
 40 43  2  0
 40 41  1  0
 44 42  2  0
 44 43  1  0
 43 45  1  0
  6 46  1  6
  7 47  1  0
  7 48  1  0
  8 49  1  0
  8 50  1  0
  9 51  1  0
  9 52  1  0
 10 53  1  0
 10 54  1  0
 11 55  1  0
 11 56  1  0
 12 57  1  0
 16 58  1  0
 16 59  1  0
 18 60  1  0
 20 61  1  0
 21 62  1  0
 23 63  1  0
 28 64  1  0
 28 65  1  0
 29 66  1  0
 31 67  1  0
 32 68  1  0
 33 69  1  0
 34 70  1  0
 36 71  1  0
 38 72  1  0
 42 73  1  0
 45 74  1  0
 45 75  1  0
M  CHG  3   5  -1  22   1  24  -1
M  END
>  <EmbedRMS>  (607) 
0.0755875685151

$$$$

     RDKit          3D

 75 78  0  0  0  0  0  0  0  0999 V2000
    9.4310   42.9414   34.3440 C   0  0  0  0  0  0  0  0  0  0  0  0
   10.4884   43.0413   35.0294 O   0  0  0  0  0  0  0  0  0  0  0  0
    8.8557   41.7130   34.0298 O   0  0  0  0  0  0  0  0  0  0  0  0
    9.4933   40.2165   34.4707 P   0  0  0  0  0  0  0  0  0  0  0  0
    9.7290   40.1745   36.1317 O   0  0  0  0  0  0  0  0  0  0  0  0
    8.7481   44.1361   33.7720 C   0  0  1  0  0  0  0  0  0  0  0  0
    9.3033   45.3669   34.3386 N   0  0  0  0  0  0  0  0  0  0  0  0
    8.8891   44.0517   32.2307 C   0  0  0  0  0  0  0  0  0  0  0  0
    8.2018   45.1720   31.4431 C   0  0  0  0  0  0  0  0  0  0  0  0
    6.6645   45.1051   31.4848 C   0  0  0  0  0  0  0  0  0  0  0  0
    6.0272   46.3253   30.8128 C   0  0  0  0  0  0  0  0  0  0  0  0
    6.5118   47.5629   31.4237 N   0  0  0  0  0  0  0  0  0  0  0  0
    7.2393   48.5469   30.6794 C   0  0  0  0  0  0  0  0  0  0  0  0
    7.5910   49.7827   31.2393 O   0  0  0  0  0  0  0  0  0  0  0  0
    7.5939   48.3042   29.4964 O   0  0  0  0  0  0  0  0  0  0  0  0
    7.1958   50.2356   32.5340 C   0  0  0  0  0  0  0  0  0  0  0  0
    5.7084   50.5039   32.5875 C   0  0  0  0  0  0  0  0  0  0  0  0
    4.9493   49.8879   33.5997 C   0  0  0  0  0  0  0  0  0  0  0  0
    5.0519   51.3269   31.6330 C   0  0  0  0  0  0  0  0  0  0  0  0
    3.5653   50.0551   33.6551 C   0  0  0  0  0  0  0  0  0  0  0  0
    3.6535   51.4693   31.6986 C   0  0  0  0  0  0  0  0  0  0  0  0
    5.7753   52.0091   30.5924 N   0  0  0  0  0  0  0  0  0  0  0  0
    2.9179   50.8393   32.7030 C   0  0  0  0  0  0  0  0  0  0  0  0
    6.9873   52.6040   30.8543 O   0  0  0  0  0  0  0  0  0  0  0  0
    5.2358   52.2107   29.4846 O   0  0  0  0  0  0  0  0  0  0  0  0
    8.5369   39.1403   34.0143 O   0  0  0  0  0  0  0  0  0  0  0  0
   10.9796   40.0883   33.6889 O   0  0  0  0  0  0  0  0  0  0  0  0
   10.8017   40.0950   32.2901 C   0  0  0  0  0  0  0  0  0  0  0  0
   11.5885   38.9267   31.7042 C   0  0  0  0  0  0  0  0  0  0  0  0
   12.9237   38.9445   32.1722 O   0  0  0  0  0  0  0  0  0  0  0  0
   11.0029   37.5726   32.0908 C   0  0  0  0  0  0  0  0  0  0  0  0
   13.3555   37.5960   32.2595 C   0  0  0  0  0  0  0  0  0  0  0  0
    9.9379   37.1847   31.2657 O   0  0  0  0  0  0  0  0  0  0  0  0
   12.1931   36.6769   31.8952 C   0  0  0  0  0  0  0  0  0  0  0  0
   13.8028   37.2977   33.6186 N   0  0  0  0  0  0  0  0  0  0  0  0
   12.2918   36.2396   30.5587 O   0  0  0  0  0  0  0  0  0  0  0  0
   14.7926   36.4727   33.9858 C   0  0  0  0  0  0  0  0  0  0  0  0
   13.2750   37.7302   34.7935 C   0  0  0  0  0  0  0  0  0  0  0  0
   15.6241   35.7586   33.1857 N   0  0  0  0  0  0  0  0  0  0  0  0
   14.8721   36.4408   35.3326 C   0  0  0  0  0  0  0  0  0  0  0  0
   13.9204   37.2263   35.8802 N   0  0  0  0  0  0  0  0  0  0  0  0
   16.5870   34.9924   33.7800 C   0  0  0  0  0  0  0  0  0  0  0  0
   15.8572   35.6717   35.9441 C   0  0  0  0  0  0  0  0  0  0  0  0
   16.7022   34.9585   35.1437 N   0  0  0  0  0  0  0  0  0  0  0  0
   16.0097   35.6384   37.3561 N   0  0  0  0  0  0  0  0  0  0  0  0
    7.6760   44.0637   34.0544 H   0  0  0  0  0  0  0  0  0  0  0  0
   10.2143   45.5888   33.8741 H   0  0  0  0  0  0  0  0  0  0  0  0
    8.6458   46.1560   34.1435 H   0  0  0  0  0  0  0  0  0  0  0  0
    8.4828   43.0816   31.8667 H   0  0  0  0  0  0  0  0  0  0  0  0
    9.9708   44.0638   31.9681 H   0  0  0  0  0  0  0  0  0  0  0  0
    8.5223   45.0971   30.3808 H   0  0  0  0  0  0  0  0  0  0  0  0
    8.5706   46.1484   31.8185 H   0  0  0  0  0  0  0  0  0  0  0  0
    6.3124   45.0714   32.5367 H   0  0  0  0  0  0  0  0  0  0  0  0
    6.3166   44.1807   30.9747 H   0  0  0  0  0  0  0  0  0  0  0  0
    4.9242   46.2726   30.9348 H   0  0  0  0  0  0  0  0  0  0  0  0
    6.2409   46.2945   29.7230 H   0  0  0  0  0  0  0  0  0  0  0  0
    6.3150   47.7072   32.4374 H   0  0  0  0  0  0  0  0  0  0  0  0
    7.7384   51.1743   32.7667 H   0  0  0  0  0  0  0  0  0  0  0  0
    7.5173   49.4977   33.3008 H   0  0  0  0  0  0  0  0  0  0  0  0
    5.4277   49.2634   34.3442 H   0  0  0  0  0  0  0  0  0  0  0  0
    2.9928   49.5701   34.4353 H   0  0  0  0  0  0  0  0  0  0  0  0
    3.1317   52.0860   30.9777 H   0  0  0  0  0  0  0  0  0  0  0  0
    1.8436   50.9643   32.7460 H   0  0  0  0  0  0  0  0  0  0  0  0
    9.7472   40.0379   31.9304 H   0  0  0  0  0  0  0  0  0  0  0  0
   11.2240   41.0428   31.8929 H   0  0  0  0  0  0  0  0  0  0  0  0
   11.5927   39.0434   30.5966 H   0  0  0  0  0  0  0  0  0  0  0  0
   10.7003   37.5444   33.1641 H   0  0  0  0  0  0  0  0  0  0  0  0
   14.2051   37.4477   31.5560 H   0  0  0  0  0  0  0  0  0  0  0  0
    9.1373   37.6722   31.5906 H   0  0  0  0  0  0  0  0  0  0  0  0
   12.1305   35.7856   32.5586 H   0  0  0  0  0  0  0  0  0  0  0  0
   12.4606   37.0186   29.9674 H   0  0  0  0  0  0  0  0  0  0  0  0
   12.4327   38.4001   34.8694 H   0  0  0  0  0  0  0  0  0  0  0  0
   17.2666   34.4146   33.1690 H   0  0  0  0  0  0  0  0  0  0  0  0
   16.7633   35.0601   37.7894 H   0  0  0  0  0  0  0  0  0  0  0  0
   15.3754   36.1866   37.9788 H   0  0  0  0  0  0  0  0  0  0  0  0
  1  2  2  0
  1  3  1  0
  3  4  1  0
  4  5  1  0
  6  1  1  0
  7  6  1  0
  6  8  1  0
  8  9  1  0
  9 10  1  0
 10 11  1  0
 11 12  1  0
 12 13  1  0
 13 14  1  0
 13 15  2  0
 14 16  1  0
 16 17  1  0
 17 18  2  0
 19 17  1  0
 18 20  1  0
 21 19  2  0
 19 22  1  0
 20 23  2  0
 23 21  1  0
 22 24  1  0
 22 25  2  0
  4 26  2  0
  4 27  1  0
 28 27  1  0
 28 29  1  0
 29 30  1  0
 29 31  1  0
 30 32  1  0
 31 33  1  0
 31 34  1  0
 34 32  1  0
 32 35  1  0
 34 36  1  0
 37 35  1  0
 38 35  1  0
 39 37  2  0
 37 40  1  0
 41 38  2  0
 42 39  1  0
 40 43  2  0
 40 41  1  0
 44 42  2  0
 44 43  1  0
 43 45  1  0
  6 46  1  6
  7 47  1  0
  7 48  1  0
  8 49  1  0
  8 50  1  0
  9 51  1  0
  9 52  1  0
 10 53  1  0
 10 54  1  0
 11 55  1  0
 11 56  1  0
 12 57  1  0
 16 58  1  0
 16 59  1  0
 18 60  1  0
 20 61  1  0
 21 62  1  0
 23 63  1  0
 28 64  1  0
 28 65  1  0
 29 66  1  0
 31 67  1  0
 32 68  1  0
 33 69  1  0
 34 70  1  0
 36 71  1  0
 38 72  1  0
 42 73  1  0
 45 74  1  0
 45 75  1  0
M  CHG  3   5  -1  22   1  24  -1
M  END
>  <EmbedRMS>  (608) 
0.0746521846347

$$$$

     RDKit          3D

 75 78  0  0  0  0  0  0  0  0999 V2000
    9.4333   42.9368   34.3455 C   0  0  0  0  0  0  0  0  0  0  0  0
   10.4907   43.0331   35.0314 O   0  0  0  0  0  0  0  0  0  0  0  0
    8.8559   41.7107   34.0294 O   0  0  0  0  0  0  0  0  0  0  0  0
    9.4943   40.2144   34.4675 P   0  0  0  0  0  0  0  0  0  0  0  0
    9.7316   40.1726   36.1286 O   0  0  0  0  0  0  0  0  0  0  0  0
    8.7509   44.1355   33.7737 C   0  0  1  0  0  0  0  0  0  0  0  0
    9.2967   45.3822   34.3135 N   0  0  0  0  0  0  0  0  0  0  0  0
    8.8899   44.0552   32.2354 C   0  0  0  0  0  0  0  0  0  0  0  0
    8.2028   45.1859   31.4624 C   0  0  0  0  0  0  0  0  0  0  0  0
    6.6651   45.1062   31.4856 C   0  0  0  0  0  0  0  0  0  0  0  0
    6.0239   46.3220   30.8083 C   0  0  0  0  0  0  0  0  0  0  0  0
    6.4971   47.5657   31.4155 N   0  0  0  0  0  0  0  0  0  0  0  0
    7.2576   48.5293   30.6900 C   0  0  0  0  0  0  0  0  0  0  0  0
    7.6741   49.6962   31.3386 O   0  0  0  0  0  0  0  0  0  0  0  0
    7.5905   48.3102   29.4937 O   0  0  0  0  0  0  0  0  0  0  0  0
    8.6282   50.5981   30.7814 C   0  0  0  0  0  0  0  0  0  0  0  0
    9.9916   49.9471   30.7102 C   0  0  0  0  0  0  0  0  0  0  0  0
   10.6274   49.8552   29.4583 C   0  0  0  0  0  0  0  0  0  0  0  0
   10.6170   49.3693   31.8502 C   0  0  0  0  0  0  0  0  0  0  0  0
   11.8489   49.1941   29.3260 C   0  0  0  0  0  0  0  0  0  0  0  0
   11.8394   48.6926   31.6891 C   0  0  0  0  0  0  0  0  0  0  0  0
   10.0283   49.4336   33.1628 N   0  0  0  0  0  0  0  0  0  0  0  0
   12.4508   48.6095   30.4378 C   0  0  0  0  0  0  0  0  0  0  0  0
   10.2883   48.4426   34.0812 O   0  0  0  0  0  0  0  0  0  0  0  0
    9.4189   50.4544   33.5415 O   0  0  0  0  0  0  0  0  0  0  0  0
    8.5372   39.1384   34.0121 O   0  0  0  0  0  0  0  0  0  0  0  0
   10.9795   40.0889   33.6815 O   0  0  0  0  0  0  0  0  0  0  0  0
   10.7982   40.0849   32.2819 C   0  0  0  0  0  0  0  0  0  0  0  0
   11.5886   38.9142   31.7008 C   0  0  0  0  0  0  0  0  0  0  0  0
   12.9214   38.9367   32.1698 O   0  0  0  0  0  0  0  0  0  0  0  0
   11.0047   37.5660   32.0990 C   0  0  0  0  0  0  0  0  0  0  0  0
   13.3511   37.5885   32.2601 C   0  0  0  0  0  0  0  0  0  0  0  0
    9.9296   37.1961   31.2780 O   0  0  0  0  0  0  0  0  0  0  0  0
   12.1923   36.6659   31.9047 C   0  0  0  0  0  0  0  0  0  0  0  0
   13.8033   37.2966   33.6188 N   0  0  0  0  0  0  0  0  0  0  0  0
   12.3007   36.2864   30.5561 O   0  0  0  0  0  0  0  0  0  0  0  0
   14.7933   36.4724   33.9860 C   0  0  0  0  0  0  0  0  0  0  0  0
   13.2753   37.7296   34.7935 C   0  0  0  0  0  0  0  0  0  0  0  0
   15.6243   35.7579   33.1860 N   0  0  0  0  0  0  0  0  0  0  0  0
   14.8728   36.4410   35.3328 C   0  0  0  0  0  0  0  0  0  0  0  0
   13.9209   37.2263   35.8804 N   0  0  0  0  0  0  0  0  0  0  0  0
   16.5873   34.9919   33.7803 C   0  0  0  0  0  0  0  0  0  0  0  0
   15.8577   35.6716   35.9443 C   0  0  0  0  0  0  0  0  0  0  0  0
   16.7025   34.9583   35.1440 N   0  0  0  0  0  0  0  0  0  0  0  0
   16.0100   35.6384   37.3563 N   0  0  0  0  0  0  0  0  0  0  0  0
    7.6772   44.0715   34.0497 H   0  0  0  0  0  0  0  0  0  0  0  0
    9.1840   45.3819   35.3537 H   0  0  0  0  0  0  0  0  0  0  0  0
   10.3194   45.4412   34.0991 H   0  0  0  0  0  0  0  0  0  0  0  0
    8.4830   43.0878   31.8651 H   0  0  0  0  0  0  0  0  0  0  0  0
    9.9718   44.0721   31.9738 H   0  0  0  0  0  0  0  0  0  0  0  0
    8.5537   46.1548   31.8769 H   0  0  0  0  0  0  0  0  0  0  0  0
    8.5393   45.1424   30.4034 H   0  0  0  0  0  0  0  0  0  0  0  0
    6.3015   45.0667   32.5333 H   0  0  0  0  0  0  0  0  0  0  0  0
    6.3313   44.1802   30.9691 H   0  0  0  0  0  0  0  0  0  0  0  0
    4.9204   46.2630   30.9217 H   0  0  0  0  0  0  0  0  0  0  0  0
    6.2458   46.2890   29.7200 H   0  0  0  0  0  0  0  0  0  0  0  0
    6.2758   47.7521   32.4195 H   0  0  0  0  0  0  0  0  0  0  0  0
    8.6851   51.5083   31.4124 H   0  0  0  0  0  0  0  0  0  0  0  0
    8.2769   50.9307   29.7799 H   0  0  0  0  0  0  0  0  0  0  0  0
   10.1701   50.2840   28.5752 H   0  0  0  0  0  0  0  0  0  0  0  0
   12.3252   49.1272   28.3563 H   0  0  0  0  0  0  0  0  0  0  0  0
   12.3307   48.2388   32.5405 H   0  0  0  0  0  0  0  0  0  0  0  0
   13.3955   48.0920   30.3310 H   0  0  0  0  0  0  0  0  0  0  0  0
   11.2132   41.0320   31.8757 H   0  0  0  0  0  0  0  0  0  0  0  0
    9.7427   40.0141   31.9265 H   0  0  0  0  0  0  0  0  0  0  0  0
   11.5980   39.0108   30.5904 H   0  0  0  0  0  0  0  0  0  0  0  0
   10.7009   37.5602   33.1721 H   0  0  0  0  0  0  0  0  0  0  0  0
   14.1977   37.4380   31.5532 H   0  0  0  0  0  0  0  0  0  0  0  0
    9.5181   36.3961   31.6977 H   0  0  0  0  0  0  0  0  0  0  0  0
   12.1418   35.7697   32.5692 H   0  0  0  0  0  0  0  0  0  0  0  0
   11.7730   35.4523   30.4489 H   0  0  0  0  0  0  0  0  0  0  0  0
   12.4321   38.3985   34.8692 H   0  0  0  0  0  0  0  0  0  0  0  0
   17.2667   34.4138   33.1694 H   0  0  0  0  0  0  0  0  0  0  0  0
   16.7634   35.0598   37.7897 H   0  0  0  0  0  0  0  0  0  0  0  0
   15.3757   36.1867   37.9790 H   0  0  0  0  0  0  0  0  0  0  0  0
  1  2  2  0
  1  3  1  0
  3  4  1  0
  4  5  1  0
  6  1  1  0
  7  6  1  0
  6  8  1  0
  8  9  1  0
  9 10  1  0
 10 11  1  0
 11 12  1  0
 12 13  1  0
 13 14  1  0
 13 15  2  0
 14 16  1  0
 16 17  1  0
 17 18  2  0
 19 17  1  0
 18 20  1  0
 21 19  2  0
 19 22  1  0
 20 23  2  0
 23 21  1  0
 22 24  1  0
 22 25  2  0
  4 26  2  0
  4 27  1  0
 28 27  1  0
 28 29  1  0
 29 30  1  0
 29 31  1  0
 30 32  1  0
 31 33  1  0
 31 34  1  0
 34 32  1  0
 32 35  1  0
 34 36  1  0
 37 35  1  0
 38 35  1  0
 39 37  2  0
 37 40  1  0
 41 38  2  0
 42 39  1  0
 40 43  2  0
 40 41  1  0
 44 42  2  0
 44 43  1  0
 43 45  1  0
  6 46  1  6
  7 47  1  0
  7 48  1  0
  8 49  1  0
  8 50  1  0
  9 51  1  0
  9 52  1  0
 10 53  1  0
 10 54  1  0
 11 55  1  0
 11 56  1  0
 12 57  1  0
 16 58  1  0
 16 59  1  0
 18 60  1  0
 20 61  1  0
 21 62  1  0
 23 63  1  0
 28 64  1  0
 28 65  1  0
 29 66  1  0
 31 67  1  0
 32 68  1  0
 33 69  1  0
 34 70  1  0
 36 71  1  0
 38 72  1  0
 42 73  1  0
 45 74  1  0
 45 75  1  0
M  CHG  3   5  -1  22   1  24  -1
M  END
>  <EmbedRMS>  (609) 
0.0749271726206

$$$$

     RDKit          3D

 75 78  0  0  0  0  0  0  0  0999 V2000
    9.4328   42.9360   34.3458 C   0  0  0  0  0  0  0  0  0  0  0  0
   10.4904   43.0328   35.0314 O   0  0  0  0  0  0  0  0  0  0  0  0
    8.8557   41.7099   34.0297 O   0  0  0  0  0  0  0  0  0  0  0  0
    9.4943   40.2138   34.4677 P   0  0  0  0  0  0  0  0  0  0  0  0
    9.7317   40.1723   36.1287 O   0  0  0  0  0  0  0  0  0  0  0  0
    8.7499   44.1337   33.7738 C   0  0  1  0  0  0  0  0  0  0  0  0
    9.2941   45.3801   34.3142 N   0  0  0  0  0  0  0  0  0  0  0  0
    8.8901   44.0536   32.2359 C   0  0  0  0  0  0  0  0  0  0  0  0
    8.2042   45.1847   31.4634 C   0  0  0  0  0  0  0  0  0  0  0  0
    6.6669   45.1047   31.4841 C   0  0  0  0  0  0  0  0  0  0  0  0
    6.0290   46.3243   30.8116 C   0  0  0  0  0  0  0  0  0  0  0  0
    6.5105   47.5637   31.4220 N   0  0  0  0  0  0  0  0  0  0  0  0
    7.2396   48.5462   30.6780 C   0  0  0  0  0  0  0  0  0  0  0  0
    7.5899   49.7828   31.2358 O   0  0  0  0  0  0  0  0  0  0  0  0
    7.5906   48.3046   29.4938 O   0  0  0  0  0  0  0  0  0  0  0  0
    7.3107   50.1859   32.5768 C   0  0  0  0  0  0  0  0  0  0  0  0
    8.1866   49.4544   33.5720 C   0  0  0  0  0  0  0  0  0  0  0  0
    9.5389   49.2338   33.2461 C   0  0  0  0  0  0  0  0  0  0  0  0
    7.7298   49.1148   34.8724 C   0  0  0  0  0  0  0  0  0  0  0  0
   10.4148   48.6690   34.1740 C   0  0  0  0  0  0  0  0  0  0  0  0
    8.6308   48.5619   35.7983 C   0  0  0  0  0  0  0  0  0  0  0  0
    6.3764   49.3546   35.2842 N   0  0  0  0  0  0  0  0  0  0  0  0
    9.9629   48.3384   35.4497 C   0  0  0  0  0  0  0  0  0  0  0  0
    5.3369   48.7562   34.6116 O   0  0  0  0  0  0  0  0  0  0  0  0
    6.1518   49.8791   36.3944 O   0  0  0  0  0  0  0  0  0  0  0  0
    8.5372   39.1379   34.0124 O   0  0  0  0  0  0  0  0  0  0  0  0
   10.9793   40.0887   33.6814 O   0  0  0  0  0  0  0  0  0  0  0  0
   10.7977   40.0842   32.2818 C   0  0  0  0  0  0  0  0  0  0  0  0
   11.5897   38.9146   31.7008 C   0  0  0  0  0  0  0  0  0  0  0  0
   12.9218   38.9385   32.1717 O   0  0  0  0  0  0  0  0  0  0  0  0
   11.0071   37.5654   32.0975 C   0  0  0  0  0  0  0  0  0  0  0  0
   13.3533   37.5909   32.2610 C   0  0  0  0  0  0  0  0  0  0  0  0
    9.9333   37.1935   31.2754 O   0  0  0  0  0  0  0  0  0  0  0  0
   12.1945   36.6671   31.9040 C   0  0  0  0  0  0  0  0  0  0  0  0
   13.8036   37.2970   33.6193 N   0  0  0  0  0  0  0  0  0  0  0  0
   12.2893   36.2849   30.5562 O   0  0  0  0  0  0  0  0  0  0  0  0
   14.7931   36.4723   33.9863 C   0  0  0  0  0  0  0  0  0  0  0  0
   13.2756   37.7298   34.7940 C   0  0  0  0  0  0  0  0  0  0  0  0
   15.6242   35.7580   33.1861 N   0  0  0  0  0  0  0  0  0  0  0  0
   14.8727   36.4407   35.3331 C   0  0  0  0  0  0  0  0  0  0  0  0
   13.9210   37.2262   35.8807 N   0  0  0  0  0  0  0  0  0  0  0  0
   16.5872   34.9920   33.7803 C   0  0  0  0  0  0  0  0  0  0  0  0
   15.8577   35.6715   35.9444 C   0  0  0  0  0  0  0  0  0  0  0  0
   16.7025   34.9582   35.1440 N   0  0  0  0  0  0  0  0  0  0  0  0
   16.0101   35.6382   37.3564 N   0  0  0  0  0  0  0  0  0  0  0  0
    7.6761   44.0691   34.0491 H   0  0  0  0  0  0  0  0  0  0  0  0
   10.3171   45.4404   34.1018 H   0  0  0  0  0  0  0  0  0  0  0  0
    9.1791   45.3789   35.3542 H   0  0  0  0  0  0  0  0  0  0  0  0
    9.9722   44.0701   31.9752 H   0  0  0  0  0  0  0  0  0  0  0  0
    8.4831   43.0864   31.8650 H   0  0  0  0  0  0  0  0  0  0  0  0
    8.5547   46.1527   31.8804 H   0  0  0  0  0  0  0  0  0  0  0  0
    8.5423   45.1425   30.4048 H   0  0  0  0  0  0  0  0  0  0  0  0
    6.3332   44.1813   30.9630 H   0  0  0  0  0  0  0  0  0  0  0  0
    6.3018   45.0612   32.5312 H   0  0  0  0  0  0  0  0  0  0  0  0
    6.2456   46.2927   29.7223 H   0  0  0  0  0  0  0  0  0  0  0  0
    4.9258   46.2696   30.9302 H   0  0  0  0  0  0  0  0  0  0  0  0
    6.2958   47.7197   32.4295 H   0  0  0  0  0  0  0  0  0  0  0  0
    7.5406   51.2685   32.6612 H   0  0  0  0  0  0  0  0  0  0  0  0
    6.2281   50.0759   32.7777 H   0  0  0  0  0  0  0  0  0  0  0  0
    9.9238   49.5143   32.2735 H   0  0  0  0  0  0  0  0  0  0  0  0
   11.4500   48.4997   33.9072 H   0  0  0  0  0  0  0  0  0  0  0  0
    8.2954   48.2984   36.7936 H   0  0  0  0  0  0  0  0  0  0  0  0
   10.6454   47.9059   36.1698 H   0  0  0  0  0  0  0  0  0  0  0  0
   11.2112   41.0320   31.8754 H   0  0  0  0  0  0  0  0  0  0  0  0
    9.7422   40.0118   31.9267 H   0  0  0  0  0  0  0  0  0  0  0  0
   11.6005   39.0120   30.5904 H   0  0  0  0  0  0  0  0  0  0  0  0
   10.7015   37.5592   33.1701 H   0  0  0  0  0  0  0  0  0  0  0  0
   14.2012   37.4438   31.5552 H   0  0  0  0  0  0  0  0  0  0  0  0
    9.5289   36.3869   31.6895 H   0  0  0  0  0  0  0  0  0  0  0  0
   12.1244   35.7693   32.5633 H   0  0  0  0  0  0  0  0  0  0  0  0
   12.9478   35.5427   30.5201 H   0  0  0  0  0  0  0  0  0  0  0  0
   12.4328   38.3993   34.8697 H   0  0  0  0  0  0  0  0  0  0  0  0
   17.2666   34.4140   33.1692 H   0  0  0  0  0  0  0  0  0  0  0  0
   16.7636   35.0598   37.7897 H   0  0  0  0  0  0  0  0  0  0  0  0
   15.3759   36.1865   37.9791 H   0  0  0  0  0  0  0  0  0  0  0  0
  1  2  2  0
  1  3  1  0
  3  4  1  0
  4  5  1  0
  6  1  1  0
  7  6  1  0
  6  8  1  0
  8  9  1  0
  9 10  1  0
 10 11  1  0
 11 12  1  0
 12 13  1  0
 13 14  1  0
 13 15  2  0
 14 16  1  0
 16 17  1  0
 17 18  2  0
 19 17  1  0
 18 20  1  0
 21 19  2  0
 19 22  1  0
 20 23  2  0
 23 21  1  0
 22 24  1  0
 22 25  2  0
  4 26  2  0
  4 27  1  0
 28 27  1  0
 28 29  1  0
 29 30  1  0
 29 31  1  0
 30 32  1  0
 31 33  1  0
 31 34  1  0
 34 32  1  0
 32 35  1  0
 34 36  1  0
 37 35  1  0
 38 35  1  0
 39 37  2  0
 37 40  1  0
 41 38  2  0
 42 39  1  0
 40 43  2  0
 40 41  1  0
 44 42  2  0
 44 43  1  0
 43 45  1  0
  6 46  1  6
  7 47  1  0
  7 48  1  0
  8 49  1  0
  8 50  1  0
  9 51  1  0
  9 52  1  0
 10 53  1  0
 10 54  1  0
 11 55  1  0
 11 56  1  0
 12 57  1  0
 16 58  1  0
 16 59  1  0
 18 60  1  0
 20 61  1  0
 21 62  1  0
 23 63  1  0
 28 64  1  0
 28 65  1  0
 29 66  1  0
 31 67  1  0
 32 68  1  0
 33 69  1  0
 34 70  1  0
 36 71  1  0
 38 72  1  0
 42 73  1  0
 45 74  1  0
 45 75  1  0
M  CHG  3   5  -1  22   1  24  -1
M  END
>  <EmbedRMS>  (610) 
0.0741199227603

$$$$

     RDKit          3D

 75 78  0  0  0  0  0  0  0  0999 V2000
    9.4338   42.9379   34.3445 C   0  0  0  0  0  0  0  0  0  0  0  0
   10.4908   43.0338   35.0310 O   0  0  0  0  0  0  0  0  0  0  0  0
    8.8564   41.7116   34.0283 O   0  0  0  0  0  0  0  0  0  0  0  0
    9.4941   40.2149   34.4674 P   0  0  0  0  0  0  0  0  0  0  0  0
    9.7307   40.1733   36.1286 O   0  0  0  0  0  0  0  0  0  0  0  0
    8.7517   44.1374   33.7729 C   0  0  1  0  0  0  0  0  0  0  0  0
    9.2971   45.3839   34.3139 N   0  0  0  0  0  0  0  0  0  0  0  0
    8.8911   44.0595   32.2345 C   0  0  0  0  0  0  0  0  0  0  0  0
    8.2018   45.1907   31.4632 C   0  0  0  0  0  0  0  0  0  0  0  0
    6.6637   45.1083   31.4850 C   0  0  0  0  0  0  0  0  0  0  0  0
    6.0174   46.3205   30.8032 C   0  0  0  0  0  0  0  0  0  0  0  0
    6.4792   47.5684   31.4099 N   0  0  0  0  0  0  0  0  0  0  0  0
    7.2933   48.5027   30.7058 C   0  0  0  0  0  0  0  0  0  0  0  0
    7.8706   49.5610   31.4118 O   0  0  0  0  0  0  0  0  0  0  0  0
    7.5796   48.3154   29.4925 O   0  0  0  0  0  0  0  0  0  0  0  0
    9.1378   50.1151   31.0662 C   0  0  0  0  0  0  0  0  0  0  0  0
   10.2232   49.0810   31.2662 C   0  0  0  0  0  0  0  0  0  0  0  0
   10.7456   48.4302   30.1330 C   0  0  0  0  0  0  0  0  0  0  0  0
   10.7133   48.7309   32.5541 C   0  0  0  0  0  0  0  0  0  0  0  0
   11.7284   47.4489   30.2632 C   0  0  0  0  0  0  0  0  0  0  0  0
   11.7175   47.7502   32.6593 C   0  0  0  0  0  0  0  0  0  0  0  0
   10.2309   49.3638   33.7543 N   0  0  0  0  0  0  0  0  0  0  0  0
   12.2132   47.1094   31.5238 C   0  0  0  0  0  0  0  0  0  0  0  0
    8.8954   49.6476   33.9159 O   0  0  0  0  0  0  0  0  0  0  0  0
   10.9947   49.5124   34.7308 O   0  0  0  0  0  0  0  0  0  0  0  0
    8.5370   39.1390   34.0119 O   0  0  0  0  0  0  0  0  0  0  0  0
   10.9796   40.0872   33.6828 O   0  0  0  0  0  0  0  0  0  0  0  0
   10.8003   40.0907   32.2831 C   0  0  0  0  0  0  0  0  0  0  0  0
   11.5958   38.9271   31.6963 C   0  0  0  0  0  0  0  0  0  0  0  0
   12.9239   38.9409   32.1766 O   0  0  0  0  0  0  0  0  0  0  0  0
   11.0062   37.5719   32.0793 C   0  0  0  0  0  0  0  0  0  0  0  0
   13.3507   37.5905   32.2614 C   0  0  0  0  0  0  0  0  0  0  0  0
    9.9064   37.1793   31.2946 O   0  0  0  0  0  0  0  0  0  0  0  0
   12.1920   36.6672   31.9003 C   0  0  0  0  0  0  0  0  0  0  0  0
   13.8017   37.2948   33.6193 N   0  0  0  0  0  0  0  0  0  0  0  0
   12.3133   36.2788   30.5560 O   0  0  0  0  0  0  0  0  0  0  0  0
   14.7927   36.4717   33.9861 C   0  0  0  0  0  0  0  0  0  0  0  0
   13.2746   37.7284   34.7941 C   0  0  0  0  0  0  0  0  0  0  0  0
   15.6240   35.7576   33.1859 N   0  0  0  0  0  0  0  0  0  0  0  0
   14.8728   36.4406   35.3330 C   0  0  0  0  0  0  0  0  0  0  0  0
   13.9209   37.2258   35.8807 N   0  0  0  0  0  0  0  0  0  0  0  0
   16.5874   34.9920   33.7802 C   0  0  0  0  0  0  0  0  0  0  0  0
   15.8579   35.6716   35.9443 C   0  0  0  0  0  0  0  0  0  0  0  0
   16.7028   34.9584   35.1439 N   0  0  0  0  0  0  0  0  0  0  0  0
   16.0103   35.6383   37.3563 N   0  0  0  0  0  0  0  0  0  0  0  0
    7.6778   44.0733   34.0481 H   0  0  0  0  0  0  0  0  0  0  0  0
    9.1813   45.3841   35.3537 H   0  0  0  0  0  0  0  0  0  0  0  0
   10.3205   45.4411   34.1031 H   0  0  0  0  0  0  0  0  0  0  0  0
    9.9732   44.0800   31.9735 H   0  0  0  0  0  0  0  0  0  0  0  0
    8.4868   43.0917   31.8626 H   0  0  0  0  0  0  0  0  0  0  0  0
    8.5499   46.1594   31.8801 H   0  0  0  0  0  0  0  0  0  0  0  0
    8.5399   45.1510   30.4045 H   0  0  0  0  0  0  0  0  0  0  0  0
    6.2997   45.0704   32.5327 H   0  0  0  0  0  0  0  0  0  0  0  0
    6.3328   44.1799   30.9711 H   0  0  0  0  0  0  0  0  0  0  0  0
    6.2442   46.2874   29.7160 H   0  0  0  0  0  0  0  0  0  0  0  0
    4.9137   46.2548   30.9112 H   0  0  0  0  0  0  0  0  0  0  0  0
    6.2639   47.7482   32.4164 H   0  0  0  0  0  0  0  0  0  0  0  0
    9.3410   51.0034   31.7000 H   0  0  0  0  0  0  0  0  0  0  0  0
    9.1092   50.4747   30.0141 H   0  0  0  0  0  0  0  0  0  0  0  0
   10.3842   48.6762   29.1422 H   0  0  0  0  0  0  0  0  0  0  0  0
   12.1153   46.9509   29.3836 H   0  0  0  0  0  0  0  0  0  0  0  0
   12.1059   47.4667   33.6294 H   0  0  0  0  0  0  0  0  0  0  0  0
   12.9760   46.3478   31.6224 H   0  0  0  0  0  0  0  0  0  0  0  0
    9.7456   40.0170   31.9260 H   0  0  0  0  0  0  0  0  0  0  0  0
   11.2118   41.0421   31.8834 H   0  0  0  0  0  0  0  0  0  0  0  0
   11.6246   39.0450   30.5888 H   0  0  0  0  0  0  0  0  0  0  0  0
   10.7050   37.5581   33.1499 H   0  0  0  0  0  0  0  0  0  0  0  0
   14.1985   37.4426   31.5553 H   0  0  0  0  0  0  0  0  0  0  0  0
   10.0893   37.4058   30.3459 H   0  0  0  0  0  0  0  0  0  0  0  0
   12.1337   35.7754   32.5703 H   0  0  0  0  0  0  0  0  0  0  0  0
   11.7934   35.4394   30.4514 H   0  0  0  0  0  0  0  0  0  0  0  0
   12.4314   38.3973   34.8700 H   0  0  0  0  0  0  0  0  0  0  0  0
   17.2669   34.4142   33.1691 H   0  0  0  0  0  0  0  0  0  0  0  0
   15.3759   36.1865   37.9790 H   0  0  0  0  0  0  0  0  0  0  0  0
   16.7638   35.0599   37.7896 H   0  0  0  0  0  0  0  0  0  0  0  0
  1  2  2  0
  1  3  1  0
  3  4  1  0
  4  5  1  0
  6  1  1  0
  7  6  1  0
  6  8  1  0
  8  9  1  0
  9 10  1  0
 10 11  1  0
 11 12  1  0
 12 13  1  0
 13 14  1  0
 13 15  2  0
 14 16  1  0
 16 17  1  0
 17 18  2  0
 19 17  1  0
 18 20  1  0
 21 19  2  0
 19 22  1  0
 20 23  2  0
 23 21  1  0
 22 24  1  0
 22 25  2  0
  4 26  2  0
  4 27  1  0
 28 27  1  0
 28 29  1  0
 29 30  1  0
 29 31  1  0
 30 32  1  0
 31 33  1  0
 31 34  1  0
 34 32  1  0
 32 35  1  0
 34 36  1  0
 37 35  1  0
 38 35  1  0
 39 37  2  0
 37 40  1  0
 41 38  2  0
 42 39  1  0
 40 43  2  0
 40 41  1  0
 44 42  2  0
 44 43  1  0
 43 45  1  0
  6 46  1  6
  7 47  1  0
  7 48  1  0
  8 49  1  0
  8 50  1  0
  9 51  1  0
  9 52  1  0
 10 53  1  0
 10 54  1  0
 11 55  1  0
 11 56  1  0
 12 57  1  0
 16 58  1  0
 16 59  1  0
 18 60  1  0
 20 61  1  0
 21 62  1  0
 23 63  1  0
 28 64  1  0
 28 65  1  0
 29 66  1  0
 31 67  1  0
 32 68  1  0
 33 69  1  0
 34 70  1  0
 36 71  1  0
 38 72  1  0
 42 73  1  0
 45 74  1  0
 45 75  1  0
M  CHG  3   5  -1  22   1  24  -1
M  END
>  <EmbedRMS>  (611) 
0.0771146162672

$$$$

     RDKit          3D

 75 78  0  0  0  0  0  0  0  0999 V2000
    9.4333   42.9365   34.3461 C   0  0  0  0  0  0  0  0  0  0  0  0
   10.4907   43.0330   35.0318 O   0  0  0  0  0  0  0  0  0  0  0  0
    8.8562   41.7104   34.0296 O   0  0  0  0  0  0  0  0  0  0  0  0
    9.4944   40.2141   34.4680 P   0  0  0  0  0  0  0  0  0  0  0  0
    9.7309   40.1726   36.1291 O   0  0  0  0  0  0  0  0  0  0  0  0
    8.7506   44.1348   33.7740 C   0  0  1  0  0  0  0  0  0  0  0  0
    9.2963   45.3820   34.3133 N   0  0  0  0  0  0  0  0  0  0  0  0
    8.8893   44.0527   32.2358 C   0  0  0  0  0  0  0  0  0  0  0  0
    8.2029   45.1823   31.4613 C   0  0  0  0  0  0  0  0  0  0  0  0
    6.6654   45.1046   31.4854 C   0  0  0  0  0  0  0  0  0  0  0  0
    6.0272   46.3228   30.8107 C   0  0  0  0  0  0  0  0  0  0  0  0
    6.5069   47.5640   31.4183 N   0  0  0  0  0  0  0  0  0  0  0  0
    7.2417   48.5403   30.6829 C   0  0  0  0  0  0  0  0  0  0  0  0
    7.5842   49.7466   31.3035 O   0  0  0  0  0  0  0  0  0  0  0  0
    7.5944   48.3107   29.4942 O   0  0  0  0  0  0  0  0  0  0  0  0
    8.3052   50.7865   30.6440 C   0  0  0  0  0  0  0  0  0  0  0  0
    7.4421   51.4454   29.5916 C   0  0  0  0  0  0  0  0  0  0  0  0
    6.1707   51.9118   29.9717 C   0  0  0  0  0  0  0  0  0  0  0  0
    7.8459   51.5661   28.2369 C   0  0  0  0  0  0  0  0  0  0  0  0
    5.2970   52.4503   29.0258 C   0  0  0  0  0  0  0  0  0  0  0  0
    6.9452   52.0935   27.2950 C   0  0  0  0  0  0  0  0  0  0  0  0
    9.1627   51.1904   27.8067 N   0  0  0  0  0  0  0  0  0  0  0  0
    5.6799   52.5321   27.6881 C   0  0  0  0  0  0  0  0  0  0  0  0
   10.2655   51.6848   28.4643 O   0  0  0  0  0  0  0  0  0  0  0  0
    9.3208   50.6241   26.7055 O   0  0  0  0  0  0  0  0  0  0  0  0
    8.5371   39.1386   34.0125 O   0  0  0  0  0  0  0  0  0  0  0  0
   10.9802   40.0879   33.6835 O   0  0  0  0  0  0  0  0  0  0  0  0
   10.8020   40.0894   32.2837 C   0  0  0  0  0  0  0  0  0  0  0  0
   11.5900   38.9178   31.7006 C   0  0  0  0  0  0  0  0  0  0  0  0
   12.9224   38.9390   32.1711 O   0  0  0  0  0  0  0  0  0  0  0  0
   11.0052   37.5676   32.0966 C   0  0  0  0  0  0  0  0  0  0  0  0
   13.3518   37.5909   32.2610 C   0  0  0  0  0  0  0  0  0  0  0  0
    9.9381   37.1795   31.2732 O   0  0  0  0  0  0  0  0  0  0  0  0
   12.1912   36.6689   31.9042 C   0  0  0  0  0  0  0  0  0  0  0  0
   13.8027   37.2968   33.6192 N   0  0  0  0  0  0  0  0  0  0  0  0
   12.2877   36.2853   30.5567 O   0  0  0  0  0  0  0  0  0  0  0  0
   14.7928   36.4724   33.9861 C   0  0  0  0  0  0  0  0  0  0  0  0
   13.2751   37.7297   34.7941 C   0  0  0  0  0  0  0  0  0  0  0  0
   15.6239   35.7581   33.1859 N   0  0  0  0  0  0  0  0  0  0  0  0
   14.8726   36.4408   35.3329 C   0  0  0  0  0  0  0  0  0  0  0  0
   13.9209   37.2262   35.8807 N   0  0  0  0  0  0  0  0  0  0  0  0
   16.5871   34.9921   33.7801 C   0  0  0  0  0  0  0  0  0  0  0  0
   15.8576   35.6716   35.9442 C   0  0  0  0  0  0  0  0  0  0  0  0
   16.7024   34.9584   35.1438 N   0  0  0  0  0  0  0  0  0  0  0  0
   16.0101   35.6383   37.3563 N   0  0  0  0  0  0  0  0  0  0  0  0
    7.6770   44.0706   34.0503 H   0  0  0  0  0  0  0  0  0  0  0  0
   10.3192   45.4406   34.0999 H   0  0  0  0  0  0  0  0  0  0  0  0
    9.1827   45.3820   35.3534 H   0  0  0  0  0  0  0  0  0  0  0  0
    8.4817   43.0851   31.8668 H   0  0  0  0  0  0  0  0  0  0  0  0
    9.9711   44.0681   31.9739 H   0  0  0  0  0  0  0  0  0  0  0  0
    8.5385   45.1362   30.4021 H   0  0  0  0  0  0  0  0  0  0  0  0
    8.5554   46.1510   31.8740 H   0  0  0  0  0  0  0  0  0  0  0  0
    6.3021   45.0641   32.5332 H   0  0  0  0  0  0  0  0  0  0  0  0
    6.3296   44.1801   30.9675 H   0  0  0  0  0  0  0  0  0  0  0  0
    6.2463   46.2901   29.7218 H   0  0  0  0  0  0  0  0  0  0  0  0
    4.9237   46.2678   30.9270 H   0  0  0  0  0  0  0  0  0  0  0  0
    6.2818   47.7536   32.4209 H   0  0  0  0  0  0  0  0  0  0  0  0
    8.5881   51.5514   31.3972 H   0  0  0  0  0  0  0  0  0  0  0  0
    9.2416   50.3605   30.2329 H   0  0  0  0  0  0  0  0  0  0  0  0
    5.8476   51.8394   31.0031 H   0  0  0  0  0  0  0  0  0  0  0  0
    4.3176   52.7968   29.3298 H   0  0  0  0  0  0  0  0  0  0  0  0
    7.2351   52.1881   26.2560 H   0  0  0  0  0  0  0  0  0  0  0  0
    4.9990   52.9459   26.9554 H   0  0  0  0  0  0  0  0  0  0  0  0
   11.2239   41.0357   31.8826 H   0  0  0  0  0  0  0  0  0  0  0  0
    9.7472   40.0309   31.9256 H   0  0  0  0  0  0  0  0  0  0  0  0
   11.5999   39.0159   30.5904 H   0  0  0  0  0  0  0  0  0  0  0  0
   10.7034   37.5449   33.1702 H   0  0  0  0  0  0  0  0  0  0  0  0
   14.1992   37.4424   31.5548 H   0  0  0  0  0  0  0  0  0  0  0  0
    9.1370   37.6634   31.6024 H   0  0  0  0  0  0  0  0  0  0  0  0
   12.1204   35.7712   32.5636 H   0  0  0  0  0  0  0  0  0  0  0  0
   12.9457   35.5426   30.5221 H   0  0  0  0  0  0  0  0  0  0  0  0
   12.4322   38.3989   34.8700 H   0  0  0  0  0  0  0  0  0  0  0  0
   17.2665   34.4142   33.1690 H   0  0  0  0  0  0  0  0  0  0  0  0
   16.7636   35.0598   37.7895 H   0  0  0  0  0  0  0  0  0  0  0  0
   15.3759   36.1865   37.9790 H   0  0  0  0  0  0  0  0  0  0  0  0
  1  2  2  0
  1  3  1  0
  3  4  1  0
  4  5  1  0
  6  1  1  0
  7  6  1  0
  6  8  1  0
  8  9  1  0
  9 10  1  0
 10 11  1  0
 11 12  1  0
 12 13  1  0
 13 14  1  0
 13 15  2  0
 14 16  1  0
 16 17  1  0
 17 18  2  0
 19 17  1  0
 18 20  1  0
 21 19  2  0
 19 22  1  0
 20 23  2  0
 23 21  1  0
 22 24  1  0
 22 25  2  0
  4 26  2  0
  4 27  1  0
 28 27  1  0
 28 29  1  0
 29 30  1  0
 29 31  1  0
 30 32  1  0
 31 33  1  0
 31 34  1  0
 34 32  1  0
 32 35  1  0
 34 36  1  0
 37 35  1  0
 38 35  1  0
 39 37  2  0
 37 40  1  0
 41 38  2  0
 42 39  1  0
 40 43  2  0
 40 41  1  0
 44 42  2  0
 44 43  1  0
 43 45  1  0
  6 46  1  6
  7 47  1  0
  7 48  1  0
  8 49  1  0
  8 50  1  0
  9 51  1  0
  9 52  1  0
 10 53  1  0
 10 54  1  0
 11 55  1  0
 11 56  1  0
 12 57  1  0
 16 58  1  0
 16 59  1  0
 18 60  1  0
 20 61  1  0
 21 62  1  0
 23 63  1  0
 28 64  1  0
 28 65  1  0
 29 66  1  0
 31 67  1  0
 32 68  1  0
 33 69  1  0
 34 70  1  0
 36 71  1  0
 38 72  1  0
 42 73  1  0
 45 74  1  0
 45 75  1  0
M  CHG  3   5  -1  22   1  24  -1
M  END
>  <EmbedRMS>  (612) 
0.0740411227704

$$$$

     RDKit          3D

 75 78  0  0  0  0  0  0  0  0999 V2000
    9.4333   42.9366   34.3461 C   0  0  0  0  0  0  0  0  0  0  0  0
   10.4907   43.0331   35.0319 O   0  0  0  0  0  0  0  0  0  0  0  0
    8.8563   41.7104   34.0296 O   0  0  0  0  0  0  0  0  0  0  0  0
    9.4945   40.2142   34.4680 P   0  0  0  0  0  0  0  0  0  0  0  0
    9.7309   40.1726   36.1291 O   0  0  0  0  0  0  0  0  0  0  0  0
    8.7506   44.1349   33.7741 C   0  0  1  0  0  0  0  0  0  0  0  0
    9.2963   45.3821   34.3133 N   0  0  0  0  0  0  0  0  0  0  0  0
    8.8893   44.0528   32.2358 C   0  0  0  0  0  0  0  0  0  0  0  0
    8.2028   45.1824   31.4615 C   0  0  0  0  0  0  0  0  0  0  0  0
    6.6653   45.1046   31.4855 C   0  0  0  0  0  0  0  0  0  0  0  0
    6.0268   46.3225   30.8104 C   0  0  0  0  0  0  0  0  0  0  0  0
    6.5060   47.5640   31.4179 N   0  0  0  0  0  0  0  0  0  0  0  0
    7.2446   48.5387   30.6840 C   0  0  0  0  0  0  0  0  0  0  0  0
    7.5996   49.7369   31.3090 O   0  0  0  0  0  0  0  0  0  0  0  0
    7.5930   48.3120   29.4935 O   0  0  0  0  0  0  0  0  0  0  0  0
    8.3560   50.7525   30.6555 C   0  0  0  0  0  0  0  0  0  0  0  0
    8.6281   51.8816   31.6195 C   0  0  0  0  0  0  0  0  0  0  0  0
    9.1770   51.5660   32.8760 C   0  0  0  0  0  0  0  0  0  0  0  0
    8.3237   53.2350   31.3193 C   0  0  0  0  0  0  0  0  0  0  0  0
    9.3777   52.5588   33.8362 C   0  0  0  0  0  0  0  0  0  0  0  0
    8.5146   54.2182   32.3064 C   0  0  0  0  0  0  0  0  0  0  0  0
    7.8604   53.6337   30.0201 N   0  0  0  0  0  0  0  0  0  0  0  0
    9.0371   53.8808   33.5557 C   0  0  0  0  0  0  0  0  0  0  0  0
    8.5468   53.2365   28.8957 O   0  0  0  0  0  0  0  0  0  0  0  0
    6.9942   54.5263   29.9136 O   0  0  0  0  0  0  0  0  0  0  0  0
    8.5372   39.1386   34.0125 O   0  0  0  0  0  0  0  0  0  0  0  0
   10.9804   40.0880   33.6837 O   0  0  0  0  0  0  0  0  0  0  0  0
   10.8025   40.0899   32.2839 C   0  0  0  0  0  0  0  0  0  0  0  0
   11.5888   38.9174   31.7007 C   0  0  0  0  0  0  0  0  0  0  0  0
   12.9220   38.9373   32.1692 O   0  0  0  0  0  0  0  0  0  0  0  0
   11.0028   37.5682   32.0980 C   0  0  0  0  0  0  0  0  0  0  0  0
   13.3496   37.5885   32.2601 C   0  0  0  0  0  0  0  0  0  0  0  0
    9.9343   37.1822   31.2756 O   0  0  0  0  0  0  0  0  0  0  0  0
   12.1891   36.6677   31.9049 C   0  0  0  0  0  0  0  0  0  0  0  0
   13.8025   37.2965   33.6186 N   0  0  0  0  0  0  0  0  0  0  0  0
   12.2991   36.2867   30.5567 O   0  0  0  0  0  0  0  0  0  0  0  0
   14.7929   36.4725   33.9858 C   0  0  0  0  0  0  0  0  0  0  0  0
   13.2749   37.7294   34.7935 C   0  0  0  0  0  0  0  0  0  0  0  0
   15.6240   35.7580   33.1858 N   0  0  0  0  0  0  0  0  0  0  0  0
   14.8727   36.4411   35.3327 C   0  0  0  0  0  0  0  0  0  0  0  0
   13.9208   37.2263   35.8803 N   0  0  0  0  0  0  0  0  0  0  0  0
   16.5871   34.9921   33.7801 C   0  0  0  0  0  0  0  0  0  0  0  0
   15.8576   35.6718   35.9441 C   0  0  0  0  0  0  0  0  0  0  0  0
   16.7024   34.9584   35.1438 N   0  0  0  0  0  0  0  0  0  0  0  0
   16.0099   35.6384   37.3562 N   0  0  0  0  0  0  0  0  0  0  0  0
    7.6770   44.0707   34.0504 H   0  0  0  0  0  0  0  0  0  0  0  0
    9.1827   45.3821   35.3535 H   0  0  0  0  0  0  0  0  0  0  0  0
   10.3192   45.4408   34.0999 H   0  0  0  0  0  0  0  0  0  0  0  0
    9.9711   44.0683   31.9739 H   0  0  0  0  0  0  0  0  0  0  0  0
    8.4817   43.0852   31.8668 H   0  0  0  0  0  0  0  0  0  0  0  0
    8.5385   45.1365   30.4023 H   0  0  0  0  0  0  0  0  0  0  0  0
    8.5551   46.1511   31.8744 H   0  0  0  0  0  0  0  0  0  0  0  0
    6.3297   44.1799   30.9677 H   0  0  0  0  0  0  0  0  0  0  0  0
    6.3019   45.0642   32.5333 H   0  0  0  0  0  0  0  0  0  0  0  0
    6.2464   46.2897   29.7216 H   0  0  0  0  0  0  0  0  0  0  0  0
    4.9234   46.2671   30.9263 H   0  0  0  0  0  0  0  0  0  0  0  0
    6.2825   47.7525   32.4210 H   0  0  0  0  0  0  0  0  0  0  0  0
    7.7870   51.0896   29.7666 H   0  0  0  0  0  0  0  0  0  0  0  0
    9.3275   50.3314   30.3171 H   0  0  0  0  0  0  0  0  0  0  0  0
    9.4337   50.5419   33.1194 H   0  0  0  0  0  0  0  0  0  0  0  0
    9.7911   52.3007   34.8027 H   0  0  0  0  0  0  0  0  0  0  0  0
    8.2830   55.2549   32.0964 H   0  0  0  0  0  0  0  0  0  0  0  0
    9.1899   54.6485   34.3033 H   0  0  0  0  0  0  0  0  0  0  0  0
    9.7476   40.0331   31.9256 H   0  0  0  0  0  0  0  0  0  0  0  0
   11.2258   41.0357   31.8830 H   0  0  0  0  0  0  0  0  0  0  0  0
   11.5974   39.0148   30.5904 H   0  0  0  0  0  0  0  0  0  0  0  0
   10.7023   37.5455   33.1719 H   0  0  0  0  0  0  0  0  0  0  0  0
   14.1957   37.4366   31.5528 H   0  0  0  0  0  0  0  0  0  0  0  0
    9.1340   37.6658   31.6069 H   0  0  0  0  0  0  0  0  0  0  0  0
   12.1381   35.7717   32.5697 H   0  0  0  0  0  0  0  0  0  0  0  0
   11.7707   35.4530   30.4496 H   0  0  0  0  0  0  0  0  0  0  0  0
   12.4314   38.3980   34.8694 H   0  0  0  0  0  0  0  0  0  0  0  0
   17.2665   34.4140   33.1691 H   0  0  0  0  0  0  0  0  0  0  0  0
   16.7633   35.0598   37.7895 H   0  0  0  0  0  0  0  0  0  0  0  0
   15.3757   36.1868   37.9789 H   0  0  0  0  0  0  0  0  0  0  0  0
  1  2  2  0
  1  3  1  0
  3  4  1  0
  4  5  1  0
  6  1  1  0
  7  6  1  0
  6  8  1  0
  8  9  1  0
  9 10  1  0
 10 11  1  0
 11 12  1  0
 12 13  1  0
 13 14  1  0
 13 15  2  0
 14 16  1  0
 16 17  1  0
 17 18  2  0
 19 17  1  0
 18 20  1  0
 21 19  2  0
 19 22  1  0
 20 23  2  0
 23 21  1  0
 22 24  1  0
 22 25  2  0
  4 26  2  0
  4 27  1  0
 28 27  1  0
 28 29  1  0
 29 30  1  0
 29 31  1  0
 30 32  1  0
 31 33  1  0
 31 34  1  0
 34 32  1  0
 32 35  1  0
 34 36  1  0
 37 35  1  0
 38 35  1  0
 39 37  2  0
 37 40  1  0
 41 38  2  0
 42 39  1  0
 40 43  2  0
 40 41  1  0
 44 42  2  0
 44 43  1  0
 43 45  1  0
  6 46  1  6
  7 47  1  0
  7 48  1  0
  8 49  1  0
  8 50  1  0
  9 51  1  0
  9 52  1  0
 10 53  1  0
 10 54  1  0
 11 55  1  0
 11 56  1  0
 12 57  1  0
 16 58  1  0
 16 59  1  0
 18 60  1  0
 20 61  1  0
 21 62  1  0
 23 63  1  0
 28 64  1  0
 28 65  1  0
 29 66  1  0
 31 67  1  0
 32 68  1  0
 33 69  1  0
 34 70  1  0
 36 71  1  0
 38 72  1  0
 42 73  1  0
 45 74  1  0
 45 75  1  0
M  CHG  3   5  -1  22   1  24  -1
M  END
>  <EmbedRMS>  (613) 
0.0742328121173

$$$$

     RDKit          3D

 75 78  0  0  0  0  0  0  0  0999 V2000
    9.4316   42.9425   34.3423 C   0  0  0  0  0  0  0  0  0  0  0  0
   10.4885   43.0416   35.0287 O   0  0  0  0  0  0  0  0  0  0  0  0
    8.8562   41.7141   34.0275 O   0  0  0  0  0  0  0  0  0  0  0  0
    9.4941   40.2170   34.4673 P   0  0  0  0  0  0  0  0  0  0  0  0
    9.7309   40.1748   36.1284 O   0  0  0  0  0  0  0  0  0  0  0  0
    8.7495   44.1389   33.7712 C   0  0  1  0  0  0  0  0  0  0  0  0
    9.3056   45.3685   34.3395 N   0  0  0  0  0  0  0  0  0  0  0  0
    8.8909   44.0584   32.2297 C   0  0  0  0  0  0  0  0  0  0  0  0
    8.2004   45.1796   31.4445 C   0  0  0  0  0  0  0  0  0  0  0  0
    6.6625   45.1100   31.4882 C   0  0  0  0  0  0  0  0  0  0  0  0
    6.0173   46.3211   30.8045 C   0  0  0  0  0  0  0  0  0  0  0  0
    6.4810   47.5684   31.4106 N   0  0  0  0  0  0  0  0  0  0  0  0
    7.2926   48.5039   30.7055 C   0  0  0  0  0  0  0  0  0  0  0  0
    7.8649   49.5658   31.4104 O   0  0  0  0  0  0  0  0  0  0  0  0
    7.5794   48.3158   29.4923 O   0  0  0  0  0  0  0  0  0  0  0  0
    9.1033   50.1637   31.0345 C   0  0  0  0  0  0  0  0  0  0  0  0
   10.2236   49.1529   31.1492 C   0  0  0  0  0  0  0  0  0  0  0  0
   10.7572   48.6117   29.9646 C   0  0  0  0  0  0  0  0  0  0  0  0
   10.7402   48.7200   32.4036 C   0  0  0  0  0  0  0  0  0  0  0  0
   11.7756   47.6598   30.0095 C   0  0  0  0  0  0  0  0  0  0  0  0
   11.7779   47.7700   32.4217 C   0  0  0  0  0  0  0  0  0  0  0  0
   10.2598   49.2393   33.6590 N   0  0  0  0  0  0  0  0  0  0  0  0
   12.2844   47.2395   31.2354 C   0  0  0  0  0  0  0  0  0  0  0  0
   11.0945   49.2679   34.7527 O   0  0  0  0  0  0  0  0  0  0  0  0
    9.0559   49.5220   33.8217 O   0  0  0  0  0  0  0  0  0  0  0  0
    8.5370   39.1408   34.0123 O   0  0  0  0  0  0  0  0  0  0  0  0
   10.9794   40.0879   33.6825 O   0  0  0  0  0  0  0  0  0  0  0  0
   10.7997   40.0902   32.2828 C   0  0  0  0  0  0  0  0  0  0  0  0
   11.5968   38.9275   31.6963 C   0  0  0  0  0  0  0  0  0  0  0  0
   12.9242   38.9426   32.1785 O   0  0  0  0  0  0  0  0  0  0  0  0
   11.0085   37.5714   32.0780 C   0  0  0  0  0  0  0  0  0  0  0  0
   13.3528   37.5930   32.2623 C   0  0  0  0  0  0  0  0  0  0  0  0
    9.9098   37.1772   31.2926 O   0  0  0  0  0  0  0  0  0  0  0  0
   12.1942   36.6684   31.8995 C   0  0  0  0  0  0  0  0  0  0  0  0
   13.8019   37.2951   33.6199 N   0  0  0  0  0  0  0  0  0  0  0  0
   12.3026   36.2774   30.5559 O   0  0  0  0  0  0  0  0  0  0  0  0
   14.7926   36.4715   33.9865 C   0  0  0  0  0  0  0  0  0  0  0  0
   13.2749   37.7287   34.7946 C   0  0  0  0  0  0  0  0  0  0  0  0
   15.6239   35.7577   33.1860 N   0  0  0  0  0  0  0  0  0  0  0  0
   14.8727   36.4403   35.3332 C   0  0  0  0  0  0  0  0  0  0  0  0
   13.9210   37.2257   35.8812 N   0  0  0  0  0  0  0  0  0  0  0  0
   16.5873   34.9921   33.7802 C   0  0  0  0  0  0  0  0  0  0  0  0
   15.8579   35.6714   35.9444 C   0  0  0  0  0  0  0  0  0  0  0  0
   16.7028   34.9583   35.1439 N   0  0  0  0  0  0  0  0  0  0  0  0
   16.0104   35.6381   37.3564 N   0  0  0  0  0  0  0  0  0  0  0  0
    7.6773   44.0672   34.0530 H   0  0  0  0  0  0  0  0  0  0  0  0
   10.2212   45.5847   33.8818 H   0  0  0  0  0  0  0  0  0  0  0  0
    8.6544   46.1612   34.1375 H   0  0  0  0  0  0  0  0  0  0  0  0
    8.4877   43.0880   31.8632 H   0  0  0  0  0  0  0  0  0  0  0  0
    9.9727   44.0753   31.9675 H   0  0  0  0  0  0  0  0  0  0  0  0
    8.5670   46.1569   31.8205 H   0  0  0  0  0  0  0  0  0  0  0  0
    8.5205   45.1078   30.3819 H   0  0  0  0  0  0  0  0  0  0  0  0
    6.3173   44.1795   30.9877 H   0  0  0  0  0  0  0  0  0  0  0  0
    6.3122   45.0851   32.5409 H   0  0  0  0  0  0  0  0  0  0  0  0
    4.9137   46.2568   30.9137 H   0  0  0  0  0  0  0  0  0  0  0  0
    6.2435   46.2868   29.7172 H   0  0  0  0  0  0  0  0  0  0  0  0
    6.2669   47.7482   32.4174 H   0  0  0  0  0  0  0  0  0  0  0  0
    9.0185   50.5622   29.9996 H   0  0  0  0  0  0  0  0  0  0  0  0
    9.3123   51.0321   31.6936 H   0  0  0  0  0  0  0  0  0  0  0  0
   10.3776   48.9209   28.9985 H   0  0  0  0  0  0  0  0  0  0  0  0
   12.1713   47.2474   29.0903 H   0  0  0  0  0  0  0  0  0  0  0  0
   12.1872   47.4237   33.3621 H   0  0  0  0  0  0  0  0  0  0  0  0
   13.0749   46.5008   31.2676 H   0  0  0  0  0  0  0  0  0  0  0  0
   11.2096   41.0421   31.8824 H   0  0  0  0  0  0  0  0  0  0  0  0
    9.7450   40.0147   31.9260 H   0  0  0  0  0  0  0  0  0  0  0  0
   11.6266   39.0457   30.5888 H   0  0  0  0  0  0  0  0  0  0  0  0
   10.7063   37.5577   33.1485 H   0  0  0  0  0  0  0  0  0  0  0  0
   14.2020   37.4485   31.5574 H   0  0  0  0  0  0  0  0  0  0  0  0
   10.0952   37.3992   30.3433 H   0  0  0  0  0  0  0  0  0  0  0  0
   12.1162   35.7746   32.5634 H   0  0  0  0  0  0  0  0  0  0  0  0
   12.9614   35.5350   30.5313 H   0  0  0  0  0  0  0  0  0  0  0  0
   12.4322   38.3983   34.8705 H   0  0  0  0  0  0  0  0  0  0  0  0
   17.2669   34.4144   33.1690 H   0  0  0  0  0  0  0  0  0  0  0  0
   15.3761   36.1862   37.9792 H   0  0  0  0  0  0  0  0  0  0  0  0
   16.7641   35.0598   37.7896 H   0  0  0  0  0  0  0  0  0  0  0  0
  1  2  2  0
  1  3  1  0
  3  4  1  0
  4  5  1  0
  6  1  1  0
  7  6  1  0
  6  8  1  0
  8  9  1  0
  9 10  1  0
 10 11  1  0
 11 12  1  0
 12 13  1  0
 13 14  1  0
 13 15  2  0
 14 16  1  0
 16 17  1  0
 17 18  2  0
 19 17  1  0
 18 20  1  0
 21 19  2  0
 19 22  1  0
 20 23  2  0
 23 21  1  0
 22 24  1  0
 22 25  2  0
  4 26  2  0
  4 27  1  0
 28 27  1  0
 28 29  1  0
 29 30  1  0
 29 31  1  0
 30 32  1  0
 31 33  1  0
 31 34  1  0
 34 32  1  0
 32 35  1  0
 34 36  1  0
 37 35  1  0
 38 35  1  0
 39 37  2  0
 37 40  1  0
 41 38  2  0
 42 39  1  0
 40 43  2  0
 40 41  1  0
 44 42  2  0
 44 43  1  0
 43 45  1  0
  6 46  1  6
  7 47  1  0
  7 48  1  0
  8 49  1  0
  8 50  1  0
  9 51  1  0
  9 52  1  0
 10 53  1  0
 10 54  1  0
 11 55  1  0
 11 56  1  0
 12 57  1  0
 16 58  1  0
 16 59  1  0
 18 60  1  0
 20 61  1  0
 21 62  1  0
 23 63  1  0
 28 64  1  0
 28 65  1  0
 29 66  1  0
 31 67  1  0
 32 68  1  0
 33 69  1  0
 34 70  1  0
 36 71  1  0
 38 72  1  0
 42 73  1  0
 45 74  1  0
 45 75  1  0
M  CHG  3   5  -1  22   1  24  -1
M  END
>  <EmbedRMS>  (614) 
0.0760458098558

$$$$

     RDKit          3D

 75 78  0  0  0  0  0  0  0  0999 V2000
    9.4332   42.9365   34.3464 C   0  0  0  0  0  0  0  0  0  0  0  0
   10.4908   43.0330   35.0319 O   0  0  0  0  0  0  0  0  0  0  0  0
    8.8559   41.7103   34.0304 O   0  0  0  0  0  0  0  0  0  0  0  0
    9.4931   40.2140   34.4703 P   0  0  0  0  0  0  0  0  0  0  0  0
    9.7293   40.1727   36.1313 O   0  0  0  0  0  0  0  0  0  0  0  0
    8.7506   44.1348   33.7741 C   0  0  1  0  0  0  0  0  0  0  0  0
    9.2963   45.3820   34.3133 N   0  0  0  0  0  0  0  0  0  0  0  0
    8.8893   44.0526   32.2358 C   0  0  0  0  0  0  0  0  0  0  0  0
    8.2029   45.1822   31.4614 C   0  0  0  0  0  0  0  0  0  0  0  0
    6.6654   45.1046   31.4855 C   0  0  0  0  0  0  0  0  0  0  0  0
    6.0273   46.3228   30.8106 C   0  0  0  0  0  0  0  0  0  0  0  0
    6.5069   47.5640   31.4182 N   0  0  0  0  0  0  0  0  0  0  0  0
    7.2419   48.5403   30.6829 C   0  0  0  0  0  0  0  0  0  0  0  0
    7.5770   49.7508   31.3018 O   0  0  0  0  0  0  0  0  0  0  0  0
    7.5941   48.3108   29.4941 O   0  0  0  0  0  0  0  0  0  0  0  0
    8.3260   50.7823   30.6569 C   0  0  0  0  0  0  0  0  0  0  0  0
    7.4675   51.7039   29.8075 C   0  0  0  0  0  0  0  0  0  0  0  0
    6.0855   51.4585   29.6521 C   0  0  0  0  0  0  0  0  0  0  0  0
    8.0274   52.8651   29.2019 C   0  0  0  0  0  0  0  0  0  0  0  0
    5.2827   52.3263   28.9114 C   0  0  0  0  0  0  0  0  0  0  0  0
    7.1938   53.7320   28.4731 C   0  0  0  0  0  0  0  0  0  0  0  0
    9.4199   53.2060   29.3396 N   0  0  0  0  0  0  0  0  0  0  0  0
    5.8350   53.4603   28.3238 C   0  0  0  0  0  0  0  0  0  0  0  0
    9.8044   54.5273   29.3409 O   0  0  0  0  0  0  0  0  0  0  0  0
   10.3035   52.3268   29.2859 O   0  0  0  0  0  0  0  0  0  0  0  0
    8.5366   39.1381   34.0136 O   0  0  0  0  0  0  0  0  0  0  0  0
   10.9788   40.0866   33.6873 O   0  0  0  0  0  0  0  0  0  0  0  0
   10.7993   40.0944   32.2885 C   0  0  0  0  0  0  0  0  0  0  0  0
   11.5957   38.9351   31.6994 C   0  0  0  0  0  0  0  0  0  0  0  0
   12.9257   38.9477   32.1798 O   0  0  0  0  0  0  0  0  0  0  0  0
   11.0070   37.5757   32.0732 C   0  0  0  0  0  0  0  0  0  0  0  0
   13.3571   37.5979   32.2612 C   0  0  0  0  0  0  0  0  0  0  0  0
    9.9093   37.1807   31.2875 O   0  0  0  0  0  0  0  0  0  0  0  0
   12.1967   36.6763   31.8894 C   0  0  0  0  0  0  0  0  0  0  0  0
   13.8018   37.2956   33.6197 N   0  0  0  0  0  0  0  0  0  0  0  0
   12.3049   36.2360   30.5555 O   0  0  0  0  0  0  0  0  0  0  0  0
   14.7922   36.4716   33.9864 C   0  0  0  0  0  0  0  0  0  0  0  0
   13.2747   37.7291   34.7944 C   0  0  0  0  0  0  0  0  0  0  0  0
   15.6240   35.7581   33.1861 N   0  0  0  0  0  0  0  0  0  0  0  0
   14.8721   36.4401   35.3331 C   0  0  0  0  0  0  0  0  0  0  0  0
   13.9206   37.2257   35.8810 N   0  0  0  0  0  0  0  0  0  0  0  0
   16.5873   34.9924   33.7802 C   0  0  0  0  0  0  0  0  0  0  0  0
   15.8576   35.6714   35.9444 C   0  0  0  0  0  0  0  0  0  0  0  0
   16.7026   34.9585   35.1439 N   0  0  0  0  0  0  0  0  0  0  0  0
   16.0102   35.6383   37.3564 N   0  0  0  0  0  0  0  0  0  0  0  0
    7.6770   44.0707   34.0504 H   0  0  0  0  0  0  0  0  0  0  0  0
   10.3192   45.4406   34.1000 H   0  0  0  0  0  0  0  0  0  0  0  0
    9.1827   45.3820   35.3534 H   0  0  0  0  0  0  0  0  0  0  0  0
    9.9711   44.0679   31.9740 H   0  0  0  0  0  0  0  0  0  0  0  0
    8.4816   43.0849   31.8669 H   0  0  0  0  0  0  0  0  0  0  0  0
    8.5385   45.1360   30.4022 H   0  0  0  0  0  0  0  0  0  0  0  0
    8.5554   46.1508   31.8740 H   0  0  0  0  0  0  0  0  0  0  0  0
    6.3295   44.1801   30.9677 H   0  0  0  0  0  0  0  0  0  0  0  0
    6.3020   45.0643   32.5333 H   0  0  0  0  0  0  0  0  0  0  0  0
    6.2466   46.2900   29.7218 H   0  0  0  0  0  0  0  0  0  0  0  0
    4.9238   46.2678   30.9267 H   0  0  0  0  0  0  0  0  0  0  0  0
    6.2806   47.7543   32.4203 H   0  0  0  0  0  0  0  0  0  0  0  0
    9.1255   50.3216   30.0391 H   0  0  0  0  0  0  0  0  0  0  0  0
    8.8118   51.3907   31.4487 H   0  0  0  0  0  0  0  0  0  0  0  0
    5.6084   50.6040   30.1103 H   0  0  0  0  0  0  0  0  0  0  0  0
    4.2253   52.1224   28.8006 H   0  0  0  0  0  0  0  0  0  0  0  0
    7.6018   54.6197   28.0066 H   0  0  0  0  0  0  0  0  0  0  0  0
    5.2078   54.1337   27.7539 H   0  0  0  0  0  0  0  0  0  0  0  0
    9.7448   40.0200   31.9304 H   0  0  0  0  0  0  0  0  0  0  0  0
   11.2094   41.0479   31.8921 H   0  0  0  0  0  0  0  0  0  0  0  0
   11.6206   39.0685   30.5942 H   0  0  0  0  0  0  0  0  0  0  0  0
   10.7059   37.5563   33.1438 H   0  0  0  0  0  0  0  0  0  0  0  0
   14.2095   37.4543   31.5601 H   0  0  0  0  0  0  0  0  0  0  0  0
   10.0865   37.4209   30.3413 H   0  0  0  0  0  0  0  0  0  0  0  0
   12.1276   35.7872   32.5549 H   0  0  0  0  0  0  0  0  0  0  0  0
   12.5031   37.0109   29.9672 H   0  0  0  0  0  0  0  0  0  0  0  0
   12.4328   38.3996   34.8703 H   0  0  0  0  0  0  0  0  0  0  0  0
   17.2670   34.4149   33.1690 H   0  0  0  0  0  0  0  0  0  0  0  0
   16.7640   35.0601   37.7896 H   0  0  0  0  0  0  0  0  0  0  0  0
   15.3757   36.1863   37.9791 H   0  0  0  0  0  0  0  0  0  0  0  0
  1  2  2  0
  1  3  1  0
  3  4  1  0
  4  5  1  0
  6  1  1  0
  7  6  1  0
  6  8  1  0
  8  9  1  0
  9 10  1  0
 10 11  1  0
 11 12  1  0
 12 13  1  0
 13 14  1  0
 13 15  2  0
 14 16  1  0
 16 17  1  0
 17 18  2  0
 19 17  1  0
 18 20  1  0
 21 19  2  0
 19 22  1  0
 20 23  2  0
 23 21  1  0
 22 24  1  0
 22 25  2  0
  4 26  2  0
  4 27  1  0
 28 27  1  0
 28 29  1  0
 29 30  1  0
 29 31  1  0
 30 32  1  0
 31 33  1  0
 31 34  1  0
 34 32  1  0
 32 35  1  0
 34 36  1  0
 37 35  1  0
 38 35  1  0
 39 37  2  0
 37 40  1  0
 41 38  2  0
 42 39  1  0
 40 43  2  0
 40 41  1  0
 44 42  2  0
 44 43  1  0
 43 45  1  0
  6 46  1  6
  7 47  1  0
  7 48  1  0
  8 49  1  0
  8 50  1  0
  9 51  1  0
  9 52  1  0
 10 53  1  0
 10 54  1  0
 11 55  1  0
 11 56  1  0
 12 57  1  0
 16 58  1  0
 16 59  1  0
 18 60  1  0
 20 61  1  0
 21 62  1  0
 23 63  1  0
 28 64  1  0
 28 65  1  0
 29 66  1  0
 31 67  1  0
 32 68  1  0
 33 69  1  0
 34 70  1  0
 36 71  1  0
 38 72  1  0
 42 73  1  0
 45 74  1  0
 45 75  1  0
M  CHG  3   5  -1  22   1  24  -1
M  END
>  <EmbedRMS>  (615) 
0.0761350693142

$$$$

     RDKit          3D

 75 78  0  0  0  0  0  0  0  0999 V2000
    9.4316   42.9423   34.3427 C   0  0  0  0  0  0  0  0  0  0  0  0
   10.4886   43.0417   35.0289 O   0  0  0  0  0  0  0  0  0  0  0  0
    8.8563   41.7139   34.0281 O   0  0  0  0  0  0  0  0  0  0  0  0
    9.4945   40.2170   34.4676 P   0  0  0  0  0  0  0  0  0  0  0  0
    9.7309   40.1748   36.1287 O   0  0  0  0  0  0  0  0  0  0  0  0
    8.7493   44.1381   33.7714 C   0  0  1  0  0  0  0  0  0  0  0  0
    9.3057   45.3683   34.3382 N   0  0  0  0  0  0  0  0  0  0  0  0
    8.8896   44.0558   32.2299 C   0  0  0  0  0  0  0  0  0  0  0  0
    8.2004   45.1771   31.4442 C   0  0  0  0  0  0  0  0  0  0  0  0
    6.6628   45.1089   31.4883 C   0  0  0  0  0  0  0  0  0  0  0  0
    6.0204   46.3217   30.8063 C   0  0  0  0  0  0  0  0  0  0  0  0
    6.4888   47.5670   31.4131 N   0  0  0  0  0  0  0  0  0  0  0  0
    7.2750   48.5175   30.6985 C   0  0  0  0  0  0  0  0  0  0  0  0
    7.7675   49.6357   31.3774 O   0  0  0  0  0  0  0  0  0  0  0  0
    7.5864   48.3124   29.4945 O   0  0  0  0  0  0  0  0  0  0  0  0
    8.8664   50.4142   30.9071 C   0  0  0  0  0  0  0  0  0  0  0  0
   10.1348   49.5889   30.9118 C   0  0  0  0  0  0  0  0  0  0  0  0
   10.4946   48.9375   32.1064 C   0  0  0  0  0  0  0  0  0  0  0  0
   10.9936   49.4897   29.7864 C   0  0  0  0  0  0  0  0  0  0  0  0
   11.6724   48.1937   32.1874 C   0  0  0  0  0  0  0  0  0  0  0  0
   12.1868   48.7543   29.8941 C   0  0  0  0  0  0  0  0  0  0  0  0
   10.6818   50.1250   28.5382 N   0  0  0  0  0  0  0  0  0  0  0  0
   12.5191   48.1053   31.0841 C   0  0  0  0  0  0  0  0  0  0  0  0
    9.5031   49.8308   27.8936 O   0  0  0  0  0  0  0  0  0  0  0  0
   11.5749   50.7321   27.9120 O   0  0  0  0  0  0  0  0  0  0  0  0
    8.5373   39.1410   34.0126 O   0  0  0  0  0  0  0  0  0  0  0  0
   10.9804   40.0890   33.6835 O   0  0  0  0  0  0  0  0  0  0  0  0
   10.8025   40.0903   32.2837 C   0  0  0  0  0  0  0  0  0  0  0  0
   11.5889   38.9175   31.7008 C   0  0  0  0  0  0  0  0  0  0  0  0
   12.9219   38.9374   32.1693 O   0  0  0  0  0  0  0  0  0  0  0  0
   11.0028   37.5683   32.0981 C   0  0  0  0  0  0  0  0  0  0  0  0
   13.3496   37.5886   32.2601 C   0  0  0  0  0  0  0  0  0  0  0  0
    9.9343   37.1824   31.2757 O   0  0  0  0  0  0  0  0  0  0  0  0
   12.1890   36.6678   31.9050 C   0  0  0  0  0  0  0  0  0  0  0  0
   13.8025   37.2965   33.6187 N   0  0  0  0  0  0  0  0  0  0  0  0
   12.2990   36.2867   30.5568 O   0  0  0  0  0  0  0  0  0  0  0  0
   14.7929   36.4726   33.9858 C   0  0  0  0  0  0  0  0  0  0  0  0
   13.2749   37.7294   34.7936 C   0  0  0  0  0  0  0  0  0  0  0  0
   15.6240   35.7580   33.1858 N   0  0  0  0  0  0  0  0  0  0  0  0
   14.8727   36.4411   35.3327 C   0  0  0  0  0  0  0  0  0  0  0  0
   13.9208   37.2263   35.8803 N   0  0  0  0  0  0  0  0  0  0  0  0
   16.5871   34.9921   33.7801 C   0  0  0  0  0  0  0  0  0  0  0  0
   15.8576   35.6718   35.9441 C   0  0  0  0  0  0  0  0  0  0  0  0
   16.7024   34.9584   35.1438 N   0  0  0  0  0  0  0  0  0  0  0  0
   16.0099   35.6384   37.3562 N   0  0  0  0  0  0  0  0  0  0  0  0
    7.6773   44.0664   34.0540 H   0  0  0  0  0  0  0  0  0  0  0  0
    8.6500   46.1587   34.1420 H   0  0  0  0  0  0  0  0  0  0  0  0
   10.2172   45.5894   33.8740 H   0  0  0  0  0  0  0  0  0  0  0  0
    9.9712   44.0702   31.9669 H   0  0  0  0  0  0  0  0  0  0  0  0
    8.4845   43.0857   31.8647 H   0  0  0  0  0  0  0  0  0  0  0  0
    8.5679   46.1542   31.8198 H   0  0  0  0  0  0  0  0  0  0  0  0
    8.5199   45.1038   30.3816 H   0  0  0  0  0  0  0  0  0  0  0  0
    6.3162   44.1795   30.9865 H   0  0  0  0  0  0  0  0  0  0  0  0
    6.3124   45.0832   32.5409 H   0  0  0  0  0  0  0  0  0  0  0  0
    6.2450   46.2875   29.7186 H   0  0  0  0  0  0  0  0  0  0  0  0
    4.9167   46.2604   30.9172 H   0  0  0  0  0  0  0  0  0  0  0  0
    6.2701   47.7502   32.4183 H   0  0  0  0  0  0  0  0  0  0  0  0
    9.0071   51.2686   31.6020 H   0  0  0  0  0  0  0  0  0  0  0  0
    8.6230   50.8472   29.9180 H   0  0  0  0  0  0  0  0  0  0  0  0
    9.8582   49.0062   32.9805 H   0  0  0  0  0  0  0  0  0  0  0  0
   11.9325   47.6915   33.1103 H   0  0  0  0  0  0  0  0  0  0  0  0
   12.8532   48.6700   29.0447 H   0  0  0  0  0  0  0  0  0  0  0  0
   13.4352   47.5326   31.1505 H   0  0  0  0  0  0  0  0  0  0  0  0
    9.7477   40.0333   31.9254 H   0  0  0  0  0  0  0  0  0  0  0  0
   11.2258   41.0359   31.8824 H   0  0  0  0  0  0  0  0  0  0  0  0
   11.5976   39.0148   30.5905 H   0  0  0  0  0  0  0  0  0  0  0  0
   10.7023   37.5458   33.1720 H   0  0  0  0  0  0  0  0  0  0  0  0
   14.1957   37.4366   31.5528 H   0  0  0  0  0  0  0  0  0  0  0  0
    9.1339   37.6659   31.6069 H   0  0  0  0  0  0  0  0  0  0  0  0
   12.1380   35.7718   32.5698 H   0  0  0  0  0  0  0  0  0  0  0  0
   11.7706   35.4530   30.4497 H   0  0  0  0  0  0  0  0  0  0  0  0
   12.4314   38.3981   34.8694 H   0  0  0  0  0  0  0  0  0  0  0  0
   17.2664   34.4140   33.1691 H   0  0  0  0  0  0  0  0  0  0  0  0
   16.7634   35.0598   37.7895 H   0  0  0  0  0  0  0  0  0  0  0  0
   15.3757   36.1867   37.9789 H   0  0  0  0  0  0  0  0  0  0  0  0
  1  2  2  0
  1  3  1  0
  3  4  1  0
  4  5  1  0
  6  1  1  0
  7  6  1  0
  6  8  1  0
  8  9  1  0
  9 10  1  0
 10 11  1  0
 11 12  1  0
 12 13  1  0
 13 14  1  0
 13 15  2  0
 14 16  1  0
 16 17  1  0
 17 18  2  0
 19 17  1  0
 18 20  1  0
 21 19  2  0
 19 22  1  0
 20 23  2  0
 23 21  1  0
 22 24  1  0
 22 25  2  0
  4 26  2  0
  4 27  1  0
 28 27  1  0
 28 29  1  0
 29 30  1  0
 29 31  1  0
 30 32  1  0
 31 33  1  0
 31 34  1  0
 34 32  1  0
 32 35  1  0
 34 36  1  0
 37 35  1  0
 38 35  1  0
 39 37  2  0
 37 40  1  0
 41 38  2  0
 42 39  1  0
 40 43  2  0
 40 41  1  0
 44 42  2  0
 44 43  1  0
 43 45  1  0
  6 46  1  6
  7 47  1  0
  7 48  1  0
  8 49  1  0
  8 50  1  0
  9 51  1  0
  9 52  1  0
 10 53  1  0
 10 54  1  0
 11 55  1  0
 11 56  1  0
 12 57  1  0
 16 58  1  0
 16 59  1  0
 18 60  1  0
 20 61  1  0
 21 62  1  0
 23 63  1  0
 28 64  1  0
 28 65  1  0
 29 66  1  0
 31 67  1  0
 32 68  1  0
 33 69  1  0
 34 70  1  0
 36 71  1  0
 38 72  1  0
 42 73  1  0
 45 74  1  0
 45 75  1  0
M  CHG  3   5  -1  22   1  24  -1
M  END
>  <EmbedRMS>  (616) 
0.0746856331601

$$$$

     RDKit          3D

 75 78  0  0  0  0  0  0  0  0999 V2000
    9.4313   42.9410   34.3437 C   0  0  0  0  0  0  0  0  0  0  0  0
   10.4885   43.0409   35.0294 O   0  0  0  0  0  0  0  0  0  0  0  0
    8.8562   41.7127   34.0287 O   0  0  0  0  0  0  0  0  0  0  0  0
    9.4945   40.2161   34.4678 P   0  0  0  0  0  0  0  0  0  0  0  0
    9.7312   40.1739   36.1288 O   0  0  0  0  0  0  0  0  0  0  0  0
    8.7484   44.1359   33.7721 C   0  0  1  0  0  0  0  0  0  0  0  0
    9.3039   45.3664   34.3389 N   0  0  0  0  0  0  0  0  0  0  0  0
    8.8893   44.0519   32.2309 C   0  0  0  0  0  0  0  0  0  0  0  0
    8.2014   45.1722   31.4436 C   0  0  0  0  0  0  0  0  0  0  0  0
    6.6642   45.1065   31.4888 C   0  0  0  0  0  0  0  0  0  0  0  0
    6.0266   46.3234   30.8121 C   0  0  0  0  0  0  0  0  0  0  0  0
    6.5076   47.5645   31.4187 N   0  0  0  0  0  0  0  0  0  0  0  0
    7.2436   48.5397   30.6830 C   0  0  0  0  0  0  0  0  0  0  0  0
    7.5908   49.7421   31.3041 O   0  0  0  0  0  0  0  0  0  0  0  0
    7.5934   48.3114   29.4934 O   0  0  0  0  0  0  0  0  0  0  0  0
    8.3309   50.7643   30.6438 C   0  0  0  0  0  0  0  0  0  0  0  0
    8.5045   51.9442   31.5681 C   0  0  0  0  0  0  0  0  0  0  0  0
    9.8098   52.3584   31.8935 C   0  0  0  0  0  0  0  0  0  0  0  0
    7.3967   52.6207   32.1513 C   0  0  0  0  0  0  0  0  0  0  0  0
   10.0229   53.4112   32.7839 C   0  0  0  0  0  0  0  0  0  0  0  0
    7.6367   53.6689   33.0581 C   0  0  0  0  0  0  0  0  0  0  0  0
    6.0343   52.2536   31.8627 N   0  0  0  0  0  0  0  0  0  0  0  0
    8.9389   54.0625   33.3677 C   0  0  0  0  0  0  0  0  0  0  0  0
    5.0541   52.4575   32.8068 O   0  0  0  0  0  0  0  0  0  0  0  0
    5.6947   51.9024   30.7147 O   0  0  0  0  0  0  0  0  0  0  0  0
    8.5374   39.1400   34.0124 O   0  0  0  0  0  0  0  0  0  0  0  0
   10.9799   40.0879   33.6828 O   0  0  0  0  0  0  0  0  0  0  0  0
   10.8002   40.0907   32.2831 C   0  0  0  0  0  0  0  0  0  0  0  0
   11.5958   38.9271   31.6964 C   0  0  0  0  0  0  0  0  0  0  0  0
   12.9239   38.9409   32.1767 O   0  0  0  0  0  0  0  0  0  0  0  0
   11.0062   37.5720   32.0794 C   0  0  0  0  0  0  0  0  0  0  0  0
   13.3506   37.5906   32.2614 C   0  0  0  0  0  0  0  0  0  0  0  0
    9.9064   37.1793   31.2946 O   0  0  0  0  0  0  0  0  0  0  0  0
   12.1920   36.6672   31.9003 C   0  0  0  0  0  0  0  0  0  0  0  0
   13.8018   37.2948   33.6193 N   0  0  0  0  0  0  0  0  0  0  0  0
   12.3133   36.2788   30.5561 O   0  0  0  0  0  0  0  0  0  0  0  0
   14.7927   36.4716   33.9861 C   0  0  0  0  0  0  0  0  0  0  0  0
   13.2746   37.7284   34.7941 C   0  0  0  0  0  0  0  0  0  0  0  0
   15.6240   35.7576   33.1859 N   0  0  0  0  0  0  0  0  0  0  0  0
   14.8728   36.4406   35.3330 C   0  0  0  0  0  0  0  0  0  0  0  0
   13.9209   37.2258   35.8808 N   0  0  0  0  0  0  0  0  0  0  0  0
   16.5874   34.9920   33.7802 C   0  0  0  0  0  0  0  0  0  0  0  0
   15.8579   35.6716   35.9443 C   0  0  0  0  0  0  0  0  0  0  0  0
   16.7028   34.9584   35.1439 N   0  0  0  0  0  0  0  0  0  0  0  0
   16.0103   35.6383   37.3563 N   0  0  0  0  0  0  0  0  0  0  0  0
    7.6764   44.0634   34.0548 H   0  0  0  0  0  0  0  0  0  0  0  0
   10.2152   45.5880   33.8748 H   0  0  0  0  0  0  0  0  0  0  0  0
    8.6468   46.1558   34.1432 H   0  0  0  0  0  0  0  0  0  0  0  0
    8.4831   43.0818   31.8666 H   0  0  0  0  0  0  0  0  0  0  0  0
    9.9708   44.0644   31.9679 H   0  0  0  0  0  0  0  0  0  0  0  0
    8.5713   46.1488   31.8175 H   0  0  0  0  0  0  0  0  0  0  0  0
    8.5198   45.0960   30.3808 H   0  0  0  0  0  0  0  0  0  0  0  0
    6.3148   44.1799   30.9838 H   0  0  0  0  0  0  0  0  0  0  0  0
    6.3141   45.0785   32.5415 H   0  0  0  0  0  0  0  0  0  0  0  0
    4.9232   46.2694   30.9296 H   0  0  0  0  0  0  0  0  0  0  0  0
    6.2450   46.2894   29.7231 H   0  0  0  0  0  0  0  0  0  0  0  0
    6.2847   47.7541   32.4217 H   0  0  0  0  0  0  0  0  0  0  0  0
    7.8062   51.0859   29.7196 H   0  0  0  0  0  0  0  0  0  0  0  0
    9.3160   50.3510   30.3341 H   0  0  0  0  0  0  0  0  0  0  0  0
   10.6702   51.8602   31.4638 H   0  0  0  0  0  0  0  0  0  0  0  0
   11.0321   53.7185   33.0264 H   0  0  0  0  0  0  0  0  0  0  0  0
    6.8100   54.1958   33.5173 H   0  0  0  0  0  0  0  0  0  0  0  0
    9.1074   54.8763   34.0613 H   0  0  0  0  0  0  0  0  0  0  0  0
   11.2114   41.0421   31.8829 H   0  0  0  0  0  0  0  0  0  0  0  0
    9.7454   40.0168   31.9264 H   0  0  0  0  0  0  0  0  0  0  0  0
   11.6245   39.0449   30.5889 H   0  0  0  0  0  0  0  0  0  0  0  0
   10.7050   37.5581   33.1500 H   0  0  0  0  0  0  0  0  0  0  0  0
   14.1985   37.4426   31.5553 H   0  0  0  0  0  0  0  0  0  0  0  0
   10.0893   37.4058   30.3459 H   0  0  0  0  0  0  0  0  0  0  0  0
   12.1337   35.7755   32.5703 H   0  0  0  0  0  0  0  0  0  0  0  0
   11.7934   35.4394   30.4514 H   0  0  0  0  0  0  0  0  0  0  0  0
   12.4314   38.3973   34.8699 H   0  0  0  0  0  0  0  0  0  0  0  0
   17.2669   34.4141   33.1691 H   0  0  0  0  0  0  0  0  0  0  0  0
   15.3759   36.1864   37.9790 H   0  0  0  0  0  0  0  0  0  0  0  0
   16.7638   35.0599   37.7897 H   0  0  0  0  0  0  0  0  0  0  0  0
  1  2  2  0
  1  3  1  0
  3  4  1  0
  4  5  1  0
  6  1  1  0
  7  6  1  0
  6  8  1  0
  8  9  1  0
  9 10  1  0
 10 11  1  0
 11 12  1  0
 12 13  1  0
 13 14  1  0
 13 15  2  0
 14 16  1  0
 16 17  1  0
 17 18  2  0
 19 17  1  0
 18 20  1  0
 21 19  2  0
 19 22  1  0
 20 23  2  0
 23 21  1  0
 22 24  1  0
 22 25  2  0
  4 26  2  0
  4 27  1  0
 28 27  1  0
 28 29  1  0
 29 30  1  0
 29 31  1  0
 30 32  1  0
 31 33  1  0
 31 34  1  0
 34 32  1  0
 32 35  1  0
 34 36  1  0
 37 35  1  0
 38 35  1  0
 39 37  2  0
 37 40  1  0
 41 38  2  0
 42 39  1  0
 40 43  2  0
 40 41  1  0
 44 42  2  0
 44 43  1  0
 43 45  1  0
  6 46  1  6
  7 47  1  0
  7 48  1  0
  8 49  1  0
  8 50  1  0
  9 51  1  0
  9 52  1  0
 10 53  1  0
 10 54  1  0
 11 55  1  0
 11 56  1  0
 12 57  1  0
 16 58  1  0
 16 59  1  0
 18 60  1  0
 20 61  1  0
 21 62  1  0
 23 63  1  0
 28 64  1  0
 28 65  1  0
 29 66  1  0
 31 67  1  0
 32 68  1  0
 33 69  1  0
 34 70  1  0
 36 71  1  0
 38 72  1  0
 42 73  1  0
 45 74  1  0
 45 75  1  0
M  CHG  3   5  -1  22   1  24  -1
M  END
>  <EmbedRMS>  (617) 
0.0739661529209

$$$$

     RDKit          3D

 75 78  0  0  0  0  0  0  0  0999 V2000
    9.4309   42.9414   34.3439 C   0  0  0  0  0  0  0  0  0  0  0  0
   10.4884   43.0412   35.0293 O   0  0  0  0  0  0  0  0  0  0  0  0
    8.8557   41.7131   34.0291 O   0  0  0  0  0  0  0  0  0  0  0  0
    9.4946   40.2164   34.4676 P   0  0  0  0  0  0  0  0  0  0  0  0
    9.7319   40.1740   36.1286 O   0  0  0  0  0  0  0  0  0  0  0  0
    8.7481   44.1365   33.7723 C   0  0  1  0  0  0  0  0  0  0  0  0
    9.3035   45.3672   34.3390 N   0  0  0  0  0  0  0  0  0  0  0  0
    8.8890   44.0524   32.2311 C   0  0  0  0  0  0  0  0  0  0  0  0
    8.2014   45.1729   31.4441 C   0  0  0  0  0  0  0  0  0  0  0  0
    6.6641   45.1060   31.4862 C   0  0  0  0  0  0  0  0  0  0  0  0
    6.0276   46.3235   30.8086 C   0  0  0  0  0  0  0  0  0  0  0  0
    6.5044   47.5635   31.4209 N   0  0  0  0  0  0  0  0  0  0  0  0
    7.2572   48.5370   30.6869 C   0  0  0  0  0  0  0  0  0  0  0  0
    7.6772   49.7343   31.2784 O   0  0  0  0  0  0  0  0  0  0  0  0
    7.5834   48.3114   29.4924 O   0  0  0  0  0  0  0  0  0  0  0  0
    7.4364   50.0751   32.6410 C   0  0  0  0  0  0  0  0  0  0  0  0
    8.0236   51.4340   32.9345 C   0  0  0  0  0  0  0  0  0  0  0  0
    7.6808   52.5039   32.0876 C   0  0  0  0  0  0  0  0  0  0  0  0
    8.9277   51.6627   34.0046 C   0  0  0  0  0  0  0  0  0  0  0  0
    8.2534   53.7645   32.2638 C   0  0  0  0  0  0  0  0  0  0  0  0
    9.5091   52.9343   34.1540 C   0  0  0  0  0  0  0  0  0  0  0  0
    9.2384   50.6387   34.9619 N   0  0  0  0  0  0  0  0  0  0  0  0
    9.1738   53.9766   33.2886 C   0  0  0  0  0  0  0  0  0  0  0  0
    8.2221   49.9586   35.5927 O   0  0  0  0  0  0  0  0  0  0  0  0
   10.4014   50.5284   35.4017 O   0  0  0  0  0  0  0  0  0  0  0  0
    8.5375   39.1402   34.0125 O   0  0  0  0  0  0  0  0  0  0  0  0
   10.9796   40.0898   33.6814 O   0  0  0  0  0  0  0  0  0  0  0  0
   10.7982   40.0851   32.2818 C   0  0  0  0  0  0  0  0  0  0  0  0
   11.5886   38.9143   31.7009 C   0  0  0  0  0  0  0  0  0  0  0  0
   12.9213   38.9368   32.1699 O   0  0  0  0  0  0  0  0  0  0  0  0
   11.0047   37.5661   32.0991 C   0  0  0  0  0  0  0  0  0  0  0  0
   13.3510   37.5885   32.2602 C   0  0  0  0  0  0  0  0  0  0  0  0
    9.9296   37.1962   31.2780 O   0  0  0  0  0  0  0  0  0  0  0  0
   12.1923   36.6659   31.9047 C   0  0  0  0  0  0  0  0  0  0  0  0
   13.8033   37.2967   33.6188 N   0  0  0  0  0  0  0  0  0  0  0  0
   12.3006   36.2865   30.5562 O   0  0  0  0  0  0  0  0  0  0  0  0
   14.7933   36.4724   33.9860 C   0  0  0  0  0  0  0  0  0  0  0  0
   13.2753   37.7296   34.7935 C   0  0  0  0  0  0  0  0  0  0  0  0
   15.6243   35.7579   33.1860 N   0  0  0  0  0  0  0  0  0  0  0  0
   14.8728   36.4410   35.3328 C   0  0  0  0  0  0  0  0  0  0  0  0
   13.9209   37.2263   35.8804 N   0  0  0  0  0  0  0  0  0  0  0  0
   16.5873   34.9919   33.7803 C   0  0  0  0  0  0  0  0  0  0  0  0
   15.8577   35.6717   35.9443 C   0  0  0  0  0  0  0  0  0  0  0  0
   16.7025   34.9583   35.1440 N   0  0  0  0  0  0  0  0  0  0  0  0
   16.0100   35.6384   37.3563 N   0  0  0  0  0  0  0  0  0  0  0  0
    7.6760   44.0641   34.0546 H   0  0  0  0  0  0  0  0  0  0  0  0
   10.2144   45.5893   33.8744 H   0  0  0  0  0  0  0  0  0  0  0  0
    8.6461   46.1567   34.1445 H   0  0  0  0  0  0  0  0  0  0  0  0
    8.4828   43.0824   31.8667 H   0  0  0  0  0  0  0  0  0  0  0  0
    9.9706   44.0649   31.9683 H   0  0  0  0  0  0  0  0  0  0  0  0
    8.5218   45.0984   30.3817 H   0  0  0  0  0  0  0  0  0  0  0  0
    8.5696   46.1495   31.8198 H   0  0  0  0  0  0  0  0  0  0  0  0
    6.3165   44.1797   30.9795 H   0  0  0  0  0  0  0  0  0  0  0  0
    6.3120   45.0766   32.5381 H   0  0  0  0  0  0  0  0  0  0  0  0
    6.2503   46.2911   29.7206 H   0  0  0  0  0  0  0  0  0  0  0  0
    4.9237   46.2676   30.9211 H   0  0  0  0  0  0  0  0  0  0  0  0
    6.2688   47.7265   32.4245 H   0  0  0  0  0  0  0  0  0  0  0  0
    6.3414   50.1146   32.8266 H   0  0  0  0  0  0  0  0  0  0  0  0
    7.8821   49.2866   33.2789 H   0  0  0  0  0  0  0  0  0  0  0  0
    6.9796   52.3555   31.2752 H   0  0  0  0  0  0  0  0  0  0  0  0
    7.9883   54.5765   31.5989 H   0  0  0  0  0  0  0  0  0  0  0  0
   10.2046   53.1250   34.9617 H   0  0  0  0  0  0  0  0  0  0  0  0
    9.6197   54.9540   33.4209 H   0  0  0  0  0  0  0  0  0  0  0  0
   11.2129   41.0321   31.8751 H   0  0  0  0  0  0  0  0  0  0  0  0
    9.7426   40.0141   31.9266 H   0  0  0  0  0  0  0  0  0  0  0  0
   11.5980   39.0108   30.5905 H   0  0  0  0  0  0  0  0  0  0  0  0
   10.7008   37.5604   33.1721 H   0  0  0  0  0  0  0  0  0  0  0  0
   14.1976   37.4380   31.5532 H   0  0  0  0  0  0  0  0  0  0  0  0
    9.5180   36.3962   31.6978 H   0  0  0  0  0  0  0  0  0  0  0  0
   12.1418   35.7698   32.5693 H   0  0  0  0  0  0  0  0  0  0  0  0
   11.7729   35.4524   30.4489 H   0  0  0  0  0  0  0  0  0  0  0  0
   12.4321   38.3985   34.8692 H   0  0  0  0  0  0  0  0  0  0  0  0
   17.2667   34.4138   33.1694 H   0  0  0  0  0  0  0  0  0  0  0  0
   16.7634   35.0598   37.7897 H   0  0  0  0  0  0  0  0  0  0  0  0
   15.3757   36.1867   37.9790 H   0  0  0  0  0  0  0  0  0  0  0  0
  1  2  2  0
  1  3  1  0
  3  4  1  0
  4  5  1  0
  6  1  1  0
  7  6  1  0
  6  8  1  0
  8  9  1  0
  9 10  1  0
 10 11  1  0
 11 12  1  0
 12 13  1  0
 13 14  1  0
 13 15  2  0
 14 16  1  0
 16 17  1  0
 17 18  2  0
 19 17  1  0
 18 20  1  0
 21 19  2  0
 19 22  1  0
 20 23  2  0
 23 21  1  0
 22 24  1  0
 22 25  2  0
  4 26  2  0
  4 27  1  0
 28 27  1  0
 28 29  1  0
 29 30  1  0
 29 31  1  0
 30 32  1  0
 31 33  1  0
 31 34  1  0
 34 32  1  0
 32 35  1  0
 34 36  1  0
 37 35  1  0
 38 35  1  0
 39 37  2  0
 37 40  1  0
 41 38  2  0
 42 39  1  0
 40 43  2  0
 40 41  1  0
 44 42  2  0
 44 43  1  0
 43 45  1  0
  6 46  1  6
  7 47  1  0
  7 48  1  0
  8 49  1  0
  8 50  1  0
  9 51  1  0
  9 52  1  0
 10 53  1  0
 10 54  1  0
 11 55  1  0
 11 56  1  0
 12 57  1  0
 16 58  1  0
 16 59  1  0
 18 60  1  0
 20 61  1  0
 21 62  1  0
 23 63  1  0
 28 64  1  0
 28 65  1  0
 29 66  1  0
 31 67  1  0
 32 68  1  0
 33 69  1  0
 34 70  1  0
 36 71  1  0
 38 72  1  0
 42 73  1  0
 45 74  1  0
 45 75  1  0
M  CHG  3   5  -1  22   1  24  -1
M  END
>  <EmbedRMS>  (618) 
0.0738367209906

$$$$

     RDKit          3D

 75 78  0  0  0  0  0  0  0  0999 V2000
    9.4312   42.9417   34.3439 C   0  0  0  0  0  0  0  0  0  0  0  0
   10.4886   43.0414   35.0294 O   0  0  0  0  0  0  0  0  0  0  0  0
    8.8558   41.7133   34.0297 O   0  0  0  0  0  0  0  0  0  0  0  0
    9.4932   40.2167   34.4707 P   0  0  0  0  0  0  0  0  0  0  0  0
    9.7290   40.1747   36.1316 O   0  0  0  0  0  0  0  0  0  0  0  0
    8.7486   44.1368   33.7721 C   0  0  1  0  0  0  0  0  0  0  0  0
    9.3043   45.3675   34.3387 N   0  0  0  0  0  0  0  0  0  0  0  0
    8.8891   44.0529   32.2308 C   0  0  0  0  0  0  0  0  0  0  0  0
    8.2009   45.1734   31.4440 C   0  0  0  0  0  0  0  0  0  0  0  0
    6.6636   45.1067   31.4880 C   0  0  0  0  0  0  0  0  0  0  0  0
    6.0247   46.3225   30.8096 C   0  0  0  0  0  0  0  0  0  0  0  0
    6.5024   47.5642   31.4168 N   0  0  0  0  0  0  0  0  0  0  0  0
    7.2575   48.5309   30.6898 C   0  0  0  0  0  0  0  0  0  0  0  0
    7.6702   49.6968   31.3384 O   0  0  0  0  0  0  0  0  0  0  0  0
    7.5876   48.3148   29.4922 O   0  0  0  0  0  0  0  0  0  0  0  0
    8.5030   50.6718   30.7189 C   0  0  0  0  0  0  0  0  0  0  0  0
    8.9039   51.7129   31.7333 C   0  0  0  0  0  0  0  0  0  0  0  0
    8.5984   53.0619   31.4736 C   0  0  0  0  0  0  0  0  0  0  0  0
    9.5417   51.3690   32.9568 C   0  0  0  0  0  0  0  0  0  0  0  0
    8.9054   54.0544   32.4050 C   0  0  0  0  0  0  0  0  0  0  0  0
    9.8279   52.3850   33.8876 C   0  0  0  0  0  0  0  0  0  0  0  0
    9.8832   50.0081   33.2820 N   0  0  0  0  0  0  0  0  0  0  0  0
    9.5154   53.7163   33.6109 C   0  0  0  0  0  0  0  0  0  0  0  0
   10.3909   49.1607   32.3251 O   0  0  0  0  0  0  0  0  0  0  0  0
    9.8684   49.6271   34.4709 O   0  0  0  0  0  0  0  0  0  0  0  0
    8.5368   39.1406   34.0143 O   0  0  0  0  0  0  0  0  0  0  0  0
   10.9795   40.0884   33.6888 O   0  0  0  0  0  0  0  0  0  0  0  0
   10.8017   40.0950   32.2900 C   0  0  0  0  0  0  0  0  0  0  0  0
   11.5885   38.9267   31.7042 C   0  0  0  0  0  0  0  0  0  0  0  0
   12.9237   38.9445   32.1722 O   0  0  0  0  0  0  0  0  0  0  0  0
   11.0029   37.5727   32.0908 C   0  0  0  0  0  0  0  0  0  0  0  0
   13.3555   37.5960   32.2595 C   0  0  0  0  0  0  0  0  0  0  0  0
    9.9379   37.1847   31.2657 O   0  0  0  0  0  0  0  0  0  0  0  0
   12.1931   36.6770   31.8952 C   0  0  0  0  0  0  0  0  0  0  0  0
   13.8028   37.2977   33.6186 N   0  0  0  0  0  0  0  0  0  0  0  0
   12.2918   36.2396   30.5587 O   0  0  0  0  0  0  0  0  0  0  0  0
   14.7926   36.4727   33.9858 C   0  0  0  0  0  0  0  0  0  0  0  0
   13.2750   37.7302   34.7935 C   0  0  0  0  0  0  0  0  0  0  0  0
   15.6241   35.7586   33.1857 N   0  0  0  0  0  0  0  0  0  0  0  0
   14.8721   36.4408   35.3326 C   0  0  0  0  0  0  0  0  0  0  0  0
   13.9204   37.2263   35.8802 N   0  0  0  0  0  0  0  0  0  0  0  0
   16.5870   34.9925   33.7800 C   0  0  0  0  0  0  0  0  0  0  0  0
   15.8572   35.6717   35.9441 C   0  0  0  0  0  0  0  0  0  0  0  0
   16.7022   34.9585   35.1437 N   0  0  0  0  0  0  0  0  0  0  0  0
   16.0097   35.6384   37.3561 N   0  0  0  0  0  0  0  0  0  0  0  0
    7.6765   44.0646   34.0548 H   0  0  0  0  0  0  0  0  0  0  0  0
   10.2153   45.5894   33.8741 H   0  0  0  0  0  0  0  0  0  0  0  0
    8.6473   46.1571   34.1436 H   0  0  0  0  0  0  0  0  0  0  0  0
    9.9706   44.0656   31.9678 H   0  0  0  0  0  0  0  0  0  0  0  0
    8.4830   43.0828   31.8666 H   0  0  0  0  0  0  0  0  0  0  0  0
    8.5697   46.1501   31.8189 H   0  0  0  0  0  0  0  0  0  0  0  0
    8.5201   45.0984   30.3813 H   0  0  0  0  0  0  0  0  0  0  0  0
    6.3154   44.1793   30.9836 H   0  0  0  0  0  0  0  0  0  0  0  0
    6.3129   45.0790   32.5405 H   0  0  0  0  0  0  0  0  0  0  0  0
    4.9212   46.2666   30.9250 H   0  0  0  0  0  0  0  0  0  0  0  0
    6.2454   46.2887   29.7211 H   0  0  0  0  0  0  0  0  0  0  0  0
    6.2843   47.7493   32.4218 H   0  0  0  0  0  0  0  0  0  0  0  0
    7.9504   51.1280   29.8685 H   0  0  0  0  0  0  0  0  0  0  0  0
    9.4139   50.1940   30.3007 H   0  0  0  0  0  0  0  0  0  0  0  0
    8.1130   53.3493   30.5490 H   0  0  0  0  0  0  0  0  0  0  0  0
    8.6638   55.0881   32.1932 H   0  0  0  0  0  0  0  0  0  0  0  0
   10.3094   52.1461   34.8276 H   0  0  0  0  0  0  0  0  0  0  0  0
    9.7487   54.4880   34.3333 H   0  0  0  0  0  0  0  0  0  0  0  0
    9.7472   40.0379   31.9304 H   0  0  0  0  0  0  0  0  0  0  0  0
   11.2240   41.0428   31.8929 H   0  0  0  0  0  0  0  0  0  0  0  0
   11.5927   39.0434   30.5966 H   0  0  0  0  0  0  0  0  0  0  0  0
   10.7003   37.5444   33.1641 H   0  0  0  0  0  0  0  0  0  0  0  0
   14.2051   37.4477   31.5560 H   0  0  0  0  0  0  0  0  0  0  0  0
    9.1373   37.6722   31.5906 H   0  0  0  0  0  0  0  0  0  0  0  0
   12.1305   35.7856   32.5586 H   0  0  0  0  0  0  0  0  0  0  0  0
   12.4606   37.0186   29.9674 H   0  0  0  0  0  0  0  0  0  0  0  0
   12.4327   38.4001   34.8694 H   0  0  0  0  0  0  0  0  0  0  0  0
   17.2666   34.4146   33.1690 H   0  0  0  0  0  0  0  0  0  0  0  0
   16.7634   35.0601   37.7894 H   0  0  0  0  0  0  0  0  0  0  0  0
   15.3754   36.1866   37.9788 H   0  0  0  0  0  0  0  0  0  0  0  0
  1  2  2  0
  1  3  1  0
  3  4  1  0
  4  5  1  0
  6  1  1  0
  7  6  1  0
  6  8  1  0
  8  9  1  0
  9 10  1  0
 10 11  1  0
 11 12  1  0
 12 13  1  0
 13 14  1  0
 13 15  2  0
 14 16  1  0
 16 17  1  0
 17 18  2  0
 19 17  1  0
 18 20  1  0
 21 19  2  0
 19 22  1  0
 20 23  2  0
 23 21  1  0
 22 24  1  0
 22 25  2  0
  4 26  2  0
  4 27  1  0
 28 27  1  0
 28 29  1  0
 29 30  1  0
 29 31  1  0
 30 32  1  0
 31 33  1  0
 31 34  1  0
 34 32  1  0
 32 35  1  0
 34 36  1  0
 37 35  1  0
 38 35  1  0
 39 37  2  0
 37 40  1  0
 41 38  2  0
 42 39  1  0
 40 43  2  0
 40 41  1  0
 44 42  2  0
 44 43  1  0
 43 45  1  0
  6 46  1  6
  7 47  1  0
  7 48  1  0
  8 49  1  0
  8 50  1  0
  9 51  1  0
  9 52  1  0
 10 53  1  0
 10 54  1  0
 11 55  1  0
 11 56  1  0
 12 57  1  0
 16 58  1  0
 16 59  1  0
 18 60  1  0
 20 61  1  0
 21 62  1  0
 23 63  1  0
 28 64  1  0
 28 65  1  0
 29 66  1  0
 31 67  1  0
 32 68  1  0
 33 69  1  0
 34 70  1  0
 36 71  1  0
 38 72  1  0
 42 73  1  0
 45 74  1  0
 45 75  1  0
M  CHG  3   5  -1  22   1  24  -1
M  END
>  <EmbedRMS>  (619) 
0.0752556695832

$$$$

     RDKit          3D

 75 78  0  0  0  0  0  0  0  0999 V2000
    9.4304   42.9399   34.3470 C   0  0  0  0  0  0  0  0  0  0  0  0
   10.4920   43.0408   35.0270 O   0  0  0  0  0  0  0  0  0  0  0  0
    8.8538   41.7120   34.0346 O   0  0  0  0  0  0  0  0  0  0  0  0
    9.4949   40.2155   34.4678 P   0  0  0  0  0  0  0  0  0  0  0  0
    9.7307   40.1759   36.1288 O   0  0  0  0  0  0  0  0  0  0  0  0
    8.7453   44.1324   33.7729 C   0  0  1  0  0  0  0  0  0  0  0  0
    9.2955   45.3640   34.3403 N   0  0  0  0  0  0  0  0  0  0  0  0
    8.8847   44.0507   32.2307 C   0  0  0  0  0  0  0  0  0  0  0  0
    8.1995   45.1727   31.4423 C   0  0  0  0  0  0  0  0  0  0  0  0
    6.6623   45.1133   31.4919 C   0  0  0  0  0  0  0  0  0  0  0  0
    6.0212   46.3301   30.8138 C   0  0  0  0  0  0  0  0  0  0  0  0
    6.4949   47.5770   31.4178 N   0  0  0  0  0  0  0  0  0  0  0  0
    7.2604   48.5389   30.6798 C   0  0  0  0  0  0  0  0  0  0  0  0
    7.6815   49.7500   31.2454 O   0  0  0  0  0  0  0  0  0  0  0  0
    7.6055   48.2898   29.4959 O   0  0  0  0  0  0  0  0  0  0  0  0
    7.1876   50.3138   32.4565 C   0  0  0  0  0  0  0  0  0  0  0  0
    7.7204   49.6036   33.6830 C   0  0  0  0  0  0  0  0  0  0  0  0
    6.7906   49.1775   34.6494 C   0  0  0  0  0  0  0  0  0  0  0  0
    9.1083   49.3747   33.9059 C   0  0  0  0  0  0  0  0  0  0  0  0
    7.2071   48.5053   35.7975 C   0  0  0  0  0  0  0  0  0  0  0  0
    9.5093   48.6907   35.0688 C   0  0  0  0  0  0  0  0  0  0  0  0
   10.1100   49.8110   32.9687 N   0  0  0  0  0  0  0  0  0  0  0  0
    8.5625   48.2598   36.0039 C   0  0  0  0  0  0  0  0  0  0  0  0
   11.2969   49.1152   32.8611 O   0  0  0  0  0  0  0  0  0  0  0  0
   10.0389   50.9415   32.4424 O   0  0  0  0  0  0  0  0  0  0  0  0
    8.5390   39.1387   34.0112 O   0  0  0  0  0  0  0  0  0  0  0  0
   10.9799   40.0889   33.6814 O   0  0  0  0  0  0  0  0  0  0  0  0
   10.7987   40.0856   32.2815 C   0  0  0  0  0  0  0  0  0  0  0  0
   11.5904   38.9158   31.6981 C   0  0  0  0  0  0  0  0  0  0  0  0
   12.9226   38.9373   32.1705 O   0  0  0  0  0  0  0  0  0  0  0  0
   11.0067   37.5662   32.0935 C   0  0  0  0  0  0  0  0  0  0  0  0
   13.3539   37.5892   32.2601 C   0  0  0  0  0  0  0  0  0  0  0  0
    9.9311   37.1949   31.2728 O   0  0  0  0  0  0  0  0  0  0  0  0
   12.1932   36.6663   31.9015 C   0  0  0  0  0  0  0  0  0  0  0  0
   13.8037   37.2940   33.6194 N   0  0  0  0  0  0  0  0  0  0  0  0
   12.2854   36.2849   30.5540 O   0  0  0  0  0  0  0  0  0  0  0  0
   14.7918   36.4697   33.9876 C   0  0  0  0  0  0  0  0  0  0  0  0
   13.2799   37.7295   34.7943 C   0  0  0  0  0  0  0  0  0  0  0  0
   15.6243   35.7595   33.1873 N   0  0  0  0  0  0  0  0  0  0  0  0
   14.8726   36.4392   35.3343 C   0  0  0  0  0  0  0  0  0  0  0  0
   13.9241   37.2275   35.8824 N   0  0  0  0  0  0  0  0  0  0  0  0
   16.5876   34.9951   33.7804 C   0  0  0  0  0  0  0  0  0  0  0  0
   15.8589   35.6728   35.9451 C   0  0  0  0  0  0  0  0  0  0  0  0
   16.7044   34.9602   35.1443 N   0  0  0  0  0  0  0  0  0  0  0  0
   16.0117   35.6415   37.3565 N   0  0  0  0  0  0  0  0  0  0  0  0
    7.6722   44.0566   34.0506 H   0  0  0  0  0  0  0  0  0  0  0  0
   10.2068   45.5890   33.8790 H   0  0  0  0  0  0  0  0  0  0  0  0
    8.6381   46.1474   34.1279 H   0  0  0  0  0  0  0  0  0  0  0  0
    9.9656   44.0667   31.9716 H   0  0  0  0  0  0  0  0  0  0  0  0
    8.4785   43.0821   31.8602 H   0  0  0  0  0  0  0  0  0  0  0  0
    8.5172   45.0950   30.3795 H   0  0  0  0  0  0  0  0  0  0  0  0
    8.5747   46.1488   31.8082 H   0  0  0  0  0  0  0  0  0  0  0  0
    6.3160   45.0886   32.5447 H   0  0  0  0  0  0  0  0  0  0  0  0
    6.3115   44.1830   30.9950 H   0  0  0  0  0  0  0  0  0  0  0  0
    6.2450   46.2960   29.7277 H   0  0  0  0  0  0  0  0  0  0  0  0
    4.9159   46.2714   30.9275 H   0  0  0  0  0  0  0  0  0  0  0  0
    6.2334   47.7576   32.4107 H   0  0  0  0  0  0  0  0  0  0  0  0
    6.0751   50.3253   32.4318 H   0  0  0  0  0  0  0  0  0  0  0  0
    7.5025   51.3771   32.5023 H   0  0  0  0  0  0  0  0  0  0  0  0
    5.7301   49.3578   34.5112 H   0  0  0  0  0  0  0  0  0  0  0  0
    6.4757   48.1724   36.5255 H   0  0  0  0  0  0  0  0  0  0  0  0
   10.5553   48.4837   35.2447 H   0  0  0  0  0  0  0  0  0  0  0  0
    8.8760   47.7257   36.8949 H   0  0  0  0  0  0  0  0  0  0  0  0
    9.7443   40.0145   31.9257 H   0  0  0  0  0  0  0  0  0  0  0  0
   11.2077   41.0359   31.8764 H   0  0  0  0  0  0  0  0  0  0  0  0
   11.6001   39.0154   30.5867 H   0  0  0  0  0  0  0  0  0  0  0  0
   10.7018   37.5596   33.1645 H   0  0  0  0  0  0  0  0  0  0  0  0
   14.2051   37.4450   31.5568 H   0  0  0  0  0  0  0  0  0  0  0  0
    9.5262   36.3878   31.6861 H   0  0  0  0  0  0  0  0  0  0  0  0
   12.1228   35.7668   32.5586 H   0  0  0  0  0  0  0  0  0  0  0  0
   12.9429   35.5425   30.5179 H   0  0  0  0  0  0  0  0  0  0  0  0
   12.4415   38.4001   34.8677 H   0  0  0  0  0  0  0  0  0  0  0  0
   17.2660   34.4241   33.1647 H   0  0  0  0  0  0  0  0  0  0  0  0
   16.7643   35.0588   37.7852 H   0  0  0  0  0  0  0  0  0  0  0  0
   15.3751   36.1872   37.9804 H   0  0  0  0  0  0  0  0  0  0  0  0
  1  2  2  0
  1  3  1  0
  3  4  1  0
  4  5  1  0
  6  1  1  0
  7  6  1  0
  6  8  1  0
  8  9  1  0
  9 10  1  0
 10 11  1  0
 11 12  1  0
 12 13  1  0
 13 14  1  0
 13 15  2  0
 14 16  1  0
 16 17  1  0
 17 18  2  0
 19 17  1  0
 18 20  1  0
 21 19  2  0
 19 22  1  0
 20 23  2  0
 23 21  1  0
 22 24  1  0
 22 25  2  0
  4 26  2  0
  4 27  1  0
 28 27  1  0
 28 29  1  0
 29 30  1  0
 29 31  1  0
 30 32  1  0
 31 33  1  0
 31 34  1  0
 34 32  1  0
 32 35  1  0
 34 36  1  0
 37 35  1  0
 38 35  1  0
 39 37  2  0
 37 40  1  0
 41 38  2  0
 42 39  1  0
 40 43  2  0
 40 41  1  0
 44 42  2  0
 44 43  1  0
 43 45  1  0
  6 46  1  6
  7 47  1  0
  7 48  1  0
  8 49  1  0
  8 50  1  0
  9 51  1  0
  9 52  1  0
 10 53  1  0
 10 54  1  0
 11 55  1  0
 11 56  1  0
 12 57  1  0
 16 58  1  0
 16 59  1  0
 18 60  1  0
 20 61  1  0
 21 62  1  0
 23 63  1  0
 28 64  1  0
 28 65  1  0
 29 66  1  0
 31 67  1  0
 32 68  1  0
 33 69  1  0
 34 70  1  0
 36 71  1  0
 38 72  1  0
 42 73  1  0
 45 74  1  0
 45 75  1  0
M  CHG  3   5  -1  22   1  24  -1
M  END
>  <EmbedRMS>  (620) 
0.0744112503285

$$$$

     RDKit          3D

 75 78  0  0  0  0  0  0  0  0999 V2000
    9.4309   42.9412   34.3437 C   0  0  0  0  0  0  0  0  0  0  0  0
   10.4883   43.0411   35.0292 O   0  0  0  0  0  0  0  0  0  0  0  0
    8.8557   41.7129   34.0291 O   0  0  0  0  0  0  0  0  0  0  0  0
    9.4946   40.2163   34.4676 P   0  0  0  0  0  0  0  0  0  0  0  0
    9.7319   40.1739   36.1286 O   0  0  0  0  0  0  0  0  0  0  0  0
    8.7481   44.1360   33.7717 C   0  0  1  0  0  0  0  0  0  0  0  0
    9.3035   45.3667   34.3384 N   0  0  0  0  0  0  0  0  0  0  0  0
    8.8892   44.0516   32.2304 C   0  0  0  0  0  0  0  0  0  0  0  0
    8.2020   45.1718   31.4423 C   0  0  0  0  0  0  0  0  0  0  0  0
    6.6646   45.1044   31.4833 C   0  0  0  0  0  0  0  0  0  0  0  0
    6.0256   46.3266   30.8159 C   0  0  0  0  0  0  0  0  0  0  0  0
    6.5156   47.5630   31.4252 N   0  0  0  0  0  0  0  0  0  0  0  0
    7.2284   48.5520   30.6748 C   0  0  0  0  0  0  0  0  0  0  0  0
    7.5500   49.8022   31.2199 O   0  0  0  0  0  0  0  0  0  0  0  0
    7.6017   48.2994   29.4997 O   0  0  0  0  0  0  0  0  0  0  0  0
    6.9908   50.3530   32.4125 C   0  0  0  0  0  0  0  0  0  0  0  0
    5.5389   50.7232   32.2086 C   0  0  0  0  0  0  0  0  0  0  0  0
    4.5501   49.9491   32.8452 C   0  0  0  0  0  0  0  0  0  0  0  0
    5.1443   51.8595   31.4486 C   0  0  0  0  0  0  0  0  0  0  0  0
    3.1982   50.2650   32.7108 C   0  0  0  0  0  0  0  0  0  0  0  0
    3.7746   52.1653   31.3377 C   0  0  0  0  0  0  0  0  0  0  0  0
    6.1031   52.7385   30.8294 N   0  0  0  0  0  0  0  0  0  0  0  0
    2.8109   51.3689   31.9559 C   0  0  0  0  0  0  0  0  0  0  0  0
    7.2223   52.2408   30.2056 O   0  0  0  0  0  0  0  0  0  0  0  0
    5.8508   53.9562   30.7181 O   0  0  0  0  0  0  0  0  0  0  0  0
    8.5375   39.1400   34.0125 O   0  0  0  0  0  0  0  0  0  0  0  0
   10.9796   40.0898   33.6814 O   0  0  0  0  0  0  0  0  0  0  0  0
   10.7982   40.0850   32.2818 C   0  0  0  0  0  0  0  0  0  0  0  0
   11.5886   38.9143   31.7009 C   0  0  0  0  0  0  0  0  0  0  0  0
   12.9213   38.9368   32.1699 O   0  0  0  0  0  0  0  0  0  0  0  0
   11.0047   37.5661   32.0991 C   0  0  0  0  0  0  0  0  0  0  0  0
   13.3510   37.5885   32.2602 C   0  0  0  0  0  0  0  0  0  0  0  0
    9.9296   37.1962   31.2780 O   0  0  0  0  0  0  0  0  0  0  0  0
   12.1923   36.6659   31.9047 C   0  0  0  0  0  0  0  0  0  0  0  0
   13.8033   37.2967   33.6188 N   0  0  0  0  0  0  0  0  0  0  0  0
   12.3006   36.2865   30.5562 O   0  0  0  0  0  0  0  0  0  0  0  0
   14.7933   36.4724   33.9860 C   0  0  0  0  0  0  0  0  0  0  0  0
   13.2753   37.7296   34.7935 C   0  0  0  0  0  0  0  0  0  0  0  0
   15.6243   35.7579   33.1860 N   0  0  0  0  0  0  0  0  0  0  0  0
   14.8728   36.4410   35.3328 C   0  0  0  0  0  0  0  0  0  0  0  0
   13.9209   37.2263   35.8804 N   0  0  0  0  0  0  0  0  0  0  0  0
   16.5873   34.9919   33.7803 C   0  0  0  0  0  0  0  0  0  0  0  0
   15.8577   35.6716   35.9443 C   0  0  0  0  0  0  0  0  0  0  0  0
   16.7025   34.9583   35.1440 N   0  0  0  0  0  0  0  0  0  0  0  0
   16.0100   35.6384   37.3563 N   0  0  0  0  0  0  0  0  0  0  0  0
    7.6761   44.0636   34.0542 H   0  0  0  0  0  0  0  0  0  0  0  0
    8.6461   46.1559   34.1430 H   0  0  0  0  0  0  0  0  0  0  0  0
   10.2146   45.5884   33.8740 H   0  0  0  0  0  0  0  0  0  0  0  0
    8.4829   43.0815   31.8663 H   0  0  0  0  0  0  0  0  0  0  0  0
    9.9709   44.0637   31.9678 H   0  0  0  0  0  0  0  0  0  0  0  0
    8.5228   45.0971   30.3802 H   0  0  0  0  0  0  0  0  0  0  0  0
    8.5708   46.1481   31.8179 H   0  0  0  0  0  0  0  0  0  0  0  0
    6.3172   44.1815   30.9702 H   0  0  0  0  0  0  0  0  0  0  0  0
    6.3125   45.0665   32.5350 H   0  0  0  0  0  0  0  0  0  0  0  0
    4.9235   46.2754   30.9459 H   0  0  0  0  0  0  0  0  0  0  0  0
    6.2316   46.2972   29.7245 H   0  0  0  0  0  0  0  0  0  0  0  0
    6.3614   47.6899   32.4477 H   0  0  0  0  0  0  0  0  0  0  0  0
    7.1266   49.6455   33.2579 H   0  0  0  0  0  0  0  0  0  0  0  0
    7.5603   51.2648   32.6893 H   0  0  0  0  0  0  0  0  0  0  0  0
    4.8218   49.1022   33.4611 H   0  0  0  0  0  0  0  0  0  0  0  0
    2.4493   49.6567   33.2016 H   0  0  0  0  0  0  0  0  0  0  0  0
    3.4506   53.0237   30.7628 H   0  0  0  0  0  0  0  0  0  0  0  0
    1.7614   51.6145   31.8569 H   0  0  0  0  0  0  0  0  0  0  0  0
    9.7426   40.0141   31.9266 H   0  0  0  0  0  0  0  0  0  0  0  0
   11.2129   41.0321   31.8751 H   0  0  0  0  0  0  0  0  0  0  0  0
   11.5980   39.0108   30.5905 H   0  0  0  0  0  0  0  0  0  0  0  0
   10.7008   37.5603   33.1721 H   0  0  0  0  0  0  0  0  0  0  0  0
   14.1976   37.4380   31.5532 H   0  0  0  0  0  0  0  0  0  0  0  0
    9.5180   36.3962   31.6978 H   0  0  0  0  0  0  0  0  0  0  0  0
   12.1418   35.7698   32.5692 H   0  0  0  0  0  0  0  0  0  0  0  0
   11.7729   35.4524   30.4489 H   0  0  0  0  0  0  0  0  0  0  0  0
   12.4321   38.3985   34.8692 H   0  0  0  0  0  0  0  0  0  0  0  0
   17.2667   34.4138   33.1694 H   0  0  0  0  0  0  0  0  0  0  0  0
   16.7634   35.0598   37.7897 H   0  0  0  0  0  0  0  0  0  0  0  0
   15.3758   36.1867   37.9790 H   0  0  0  0  0  0  0  0  0  0  0  0
  1  2  2  0
  1  3  1  0
  3  4  1  0
  4  5  1  0
  6  1  1  0
  7  6  1  0
  6  8  1  0
  8  9  1  0
  9 10  1  0
 10 11  1  0
 11 12  1  0
 12 13  1  0
 13 14  1  0
 13 15  2  0
 14 16  1  0
 16 17  1  0
 17 18  2  0
 19 17  1  0
 18 20  1  0
 21 19  2  0
 19 22  1  0
 20 23  2  0
 23 21  1  0
 22 24  1  0
 22 25  2  0
  4 26  2  0
  4 27  1  0
 28 27  1  0
 28 29  1  0
 29 30  1  0
 29 31  1  0
 30 32  1  0
 31 33  1  0
 31 34  1  0
 34 32  1  0
 32 35  1  0
 34 36  1  0
 37 35  1  0
 38 35  1  0
 39 37  2  0
 37 40  1  0
 41 38  2  0
 42 39  1  0
 40 43  2  0
 40 41  1  0
 44 42  2  0
 44 43  1  0
 43 45  1  0
  6 46  1  6
  7 47  1  0
  7 48  1  0
  8 49  1  0
  8 50  1  0
  9 51  1  0
  9 52  1  0
 10 53  1  0
 10 54  1  0
 11 55  1  0
 11 56  1  0
 12 57  1  0
 16 58  1  0
 16 59  1  0
 18 60  1  0
 20 61  1  0
 21 62  1  0
 23 63  1  0
 28 64  1  0
 28 65  1  0
 29 66  1  0
 31 67  1  0
 32 68  1  0
 33 69  1  0
 34 70  1  0
 36 71  1  0
 38 72  1  0
 42 73  1  0
 45 74  1  0
 45 75  1  0
M  CHG  3   5  -1  22   1  24  -1
M  END
>  <EmbedRMS>  (621) 
0.0731467395176

$$$$

     RDKit          3D

 75 78  0  0  0  0  0  0  0  0999 V2000
    9.4330   42.9366   34.3462 C   0  0  0  0  0  0  0  0  0  0  0  0
   10.4906   43.0331   35.0318 O   0  0  0  0  0  0  0  0  0  0  0  0
    8.8558   41.7104   34.0299 O   0  0  0  0  0  0  0  0  0  0  0  0
    9.4944   40.2142   34.4677 P   0  0  0  0  0  0  0  0  0  0  0  0
    9.7317   40.1724   36.1287 O   0  0  0  0  0  0  0  0  0  0  0  0
    8.7504   44.1350   33.7741 C   0  0  1  0  0  0  0  0  0  0  0  0
    9.2961   45.3822   34.3134 N   0  0  0  0  0  0  0  0  0  0  0  0
    8.8892   44.0529   32.2359 C   0  0  0  0  0  0  0  0  0  0  0  0
    8.2030   45.1828   31.4617 C   0  0  0  0  0  0  0  0  0  0  0  0
    6.6656   45.1041   31.4832 C   0  0  0  0  0  0  0  0  0  0  0  0
    6.0282   46.3233   30.8087 C   0  0  0  0  0  0  0  0  0  0  0  0
    6.5051   47.5635   31.4212 N   0  0  0  0  0  0  0  0  0  0  0  0
    7.2484   48.5413   30.6835 C   0  0  0  0  0  0  0  0  0  0  0  0
    7.6338   49.7566   31.2612 O   0  0  0  0  0  0  0  0  0  0  0  0
    7.5889   48.3083   29.4943 O   0  0  0  0  0  0  0  0  0  0  0  0
    7.3361   50.1302   32.6032 C   0  0  0  0  0  0  0  0  0  0  0  0
    7.8691   51.5149   32.8754 C   0  0  0  0  0  0  0  0  0  0  0  0
    8.7913   51.6887   33.9246 C   0  0  0  0  0  0  0  0  0  0  0  0
    7.5023   52.6365   32.0824 C   0  0  0  0  0  0  0  0  0  0  0  0
    9.3506   52.9406   34.1828 C   0  0  0  0  0  0  0  0  0  0  0  0
    8.0906   53.8864   32.3518 C   0  0  0  0  0  0  0  0  0  0  0  0
    6.5617   52.5277   30.9975 N   0  0  0  0  0  0  0  0  0  0  0  0
    9.0038   54.0363   33.3958 C   0  0  0  0  0  0  0  0  0  0  0  0
    5.4355   51.7476   31.1172 O   0  0  0  0  0  0  0  0  0  0  0  0
    6.6743   53.2657   29.9967 O   0  0  0  0  0  0  0  0  0  0  0  0
    8.5372   39.1383   34.0122 O   0  0  0  0  0  0  0  0  0  0  0  0
   10.9795   40.0889   33.6815 O   0  0  0  0  0  0  0  0  0  0  0  0
   10.7982   40.0848   32.2819 C   0  0  0  0  0  0  0  0  0  0  0  0
   11.5886   38.9142   31.7009 C   0  0  0  0  0  0  0  0  0  0  0  0
   12.9214   38.9367   32.1698 O   0  0  0  0  0  0  0  0  0  0  0  0
   11.0047   37.5660   32.0990 C   0  0  0  0  0  0  0  0  0  0  0  0
   13.3511   37.5885   32.2601 C   0  0  0  0  0  0  0  0  0  0  0  0
    9.9296   37.1961   31.2780 O   0  0  0  0  0  0  0  0  0  0  0  0
   12.1923   36.6659   31.9047 C   0  0  0  0  0  0  0  0  0  0  0  0
   13.8033   37.2966   33.6188 N   0  0  0  0  0  0  0  0  0  0  0  0
   12.3007   36.2864   30.5561 O   0  0  0  0  0  0  0  0  0  0  0  0
   14.7933   36.4724   33.9860 C   0  0  0  0  0  0  0  0  0  0  0  0
   13.2753   37.7296   34.7935 C   0  0  0  0  0  0  0  0  0  0  0  0
   15.6243   35.7579   33.1860 N   0  0  0  0  0  0  0  0  0  0  0  0
   14.8728   36.4410   35.3328 C   0  0  0  0  0  0  0  0  0  0  0  0
   13.9209   37.2263   35.8804 N   0  0  0  0  0  0  0  0  0  0  0  0
   16.5873   34.9919   33.7803 C   0  0  0  0  0  0  0  0  0  0  0  0
   15.8577   35.6717   35.9443 C   0  0  0  0  0  0  0  0  0  0  0  0
   16.7025   34.9583   35.1440 N   0  0  0  0  0  0  0  0  0  0  0  0
   16.0100   35.6384   37.3563 N   0  0  0  0  0  0  0  0  0  0  0  0
    7.6767   44.0710   34.0502 H   0  0  0  0  0  0  0  0  0  0  0  0
    9.1822   45.3824   35.3535 H   0  0  0  0  0  0  0  0  0  0  0  0
   10.3190   45.4409   34.1002 H   0  0  0  0  0  0  0  0  0  0  0  0
    8.4814   43.0854   31.8668 H   0  0  0  0  0  0  0  0  0  0  0  0
    9.9710   44.0682   31.9742 H   0  0  0  0  0  0  0  0  0  0  0  0
    8.5541   46.1514   31.8760 H   0  0  0  0  0  0  0  0  0  0  0  0
    8.5403   45.1381   30.4030 H   0  0  0  0  0  0  0  0  0  0  0  0
    6.3005   45.0617   32.5303 H   0  0  0  0  0  0  0  0  0  0  0  0
    6.3313   44.1803   30.9632 H   0  0  0  0  0  0  0  0  0  0  0  0
    4.9245   46.2668   30.9219 H   0  0  0  0  0  0  0  0  0  0  0  0
    6.2497   46.2922   29.7204 H   0  0  0  0  0  0  0  0  0  0  0  0
    6.2742   47.7248   32.4261 H   0  0  0  0  0  0  0  0  0  0  0  0
    7.7939   49.3875   33.2930 H   0  0  0  0  0  0  0  0  0  0  0  0
    6.2400   50.1144   32.7766 H   0  0  0  0  0  0  0  0  0  0  0  0
    9.0875   50.8506   34.5435 H   0  0  0  0  0  0  0  0  0  0  0  0
   10.0596   53.0596   34.9920 H   0  0  0  0  0  0  0  0  0  0  0  0
    7.8291   54.7536   31.7585 H   0  0  0  0  0  0  0  0  0  0  0  0
    9.4422   55.0055   33.5959 H   0  0  0  0  0  0  0  0  0  0  0  0
    9.7427   40.0140   31.9266 H   0  0  0  0  0  0  0  0  0  0  0  0
   11.2131   41.0320   31.8757 H   0  0  0  0  0  0  0  0  0  0  0  0
   11.5980   39.0108   30.5904 H   0  0  0  0  0  0  0  0  0  0  0  0
   10.7009   37.5602   33.1721 H   0  0  0  0  0  0  0  0  0  0  0  0
   14.1977   37.4380   31.5532 H   0  0  0  0  0  0  0  0  0  0  0  0
    9.5181   36.3960   31.6977 H   0  0  0  0  0  0  0  0  0  0  0  0
   12.1419   35.7697   32.5692 H   0  0  0  0  0  0  0  0  0  0  0  0
   11.7730   35.4523   30.4488 H   0  0  0  0  0  0  0  0  0  0  0  0
   12.4321   38.3984   34.8692 H   0  0  0  0  0  0  0  0  0  0  0  0
   17.2667   34.4138   33.1694 H   0  0  0  0  0  0  0  0  0  0  0  0
   16.7634   35.0598   37.7897 H   0  0  0  0  0  0  0  0  0  0  0  0
   15.3757   36.1867   37.9790 H   0  0  0  0  0  0  0  0  0  0  0  0
  1  2  2  0
  1  3  1  0
  3  4  1  0
  4  5  1  0
  6  1  1  0
  7  6  1  0
  6  8  1  0
  8  9  1  0
  9 10  1  0
 10 11  1  0
 11 12  1  0
 12 13  1  0
 13 14  1  0
 13 15  2  0
 14 16  1  0
 16 17  1  0
 17 18  2  0
 19 17  1  0
 18 20  1  0
 21 19  2  0
 19 22  1  0
 20 23  2  0
 23 21  1  0
 22 24  1  0
 22 25  2  0
  4 26  2  0
  4 27  1  0
 28 27  1  0
 28 29  1  0
 29 30  1  0
 29 31  1  0
 30 32  1  0
 31 33  1  0
 31 34  1  0
 34 32  1  0
 32 35  1  0
 34 36  1  0
 37 35  1  0
 38 35  1  0
 39 37  2  0
 37 40  1  0
 41 38  2  0
 42 39  1  0
 40 43  2  0
 40 41  1  0
 44 42  2  0
 44 43  1  0
 43 45  1  0
  6 46  1  6
  7 47  1  0
  7 48  1  0
  8 49  1  0
  8 50  1  0
  9 51  1  0
  9 52  1  0
 10 53  1  0
 10 54  1  0
 11 55  1  0
 11 56  1  0
 12 57  1  0
 16 58  1  0
 16 59  1  0
 18 60  1  0
 20 61  1  0
 21 62  1  0
 23 63  1  0
 28 64  1  0
 28 65  1  0
 29 66  1  0
 31 67  1  0
 32 68  1  0
 33 69  1  0
 34 70  1  0
 36 71  1  0
 38 72  1  0
 42 73  1  0
 45 74  1  0
 45 75  1  0
M  CHG  3   5  -1  22   1  24  -1
M  END
>  <EmbedRMS>  (622) 
0.0744661120139

$$$$

     RDKit          3D

 75 78  0  0  0  0  0  0  0  0999 V2000
    9.4315   42.9408   34.3434 C   0  0  0  0  0  0  0  0  0  0  0  0
   10.4886   43.0413   35.0293 O   0  0  0  0  0  0  0  0  0  0  0  0
    8.8561   41.7125   34.0298 O   0  0  0  0  0  0  0  0  0  0  0  0
    9.4935   40.2162   34.4709 P   0  0  0  0  0  0  0  0  0  0  0  0
    9.7291   40.1744   36.1318 O   0  0  0  0  0  0  0  0  0  0  0  0
    8.7484   44.1345   33.7708 C   0  0  1  0  0  0  0  0  0  0  0  0
    9.3007   45.3656   34.3367 N   0  0  0  0  0  0  0  0  0  0  0  0
    8.8902   44.0518   32.2298 C   0  0  0  0  0  0  0  0  0  0  0  0
    8.2025   45.1728   31.4428 C   0  0  0  0  0  0  0  0  0  0  0  0
    6.6655   45.1083   31.4899 C   0  0  0  0  0  0  0  0  0  0  0  0
    6.0283   46.3258   30.8141 C   0  0  0  0  0  0  0  0  0  0  0  0
    6.5075   47.5671   31.4234 N   0  0  0  0  0  0  0  0  0  0  0  0
    7.2320   48.5503   30.6752 C   0  0  0  0  0  0  0  0  0  0  0  0
    7.5434   49.8061   31.2122 O   0  0  0  0  0  0  0  0  0  0  0  0
    7.6021   48.2971   29.4992 O   0  0  0  0  0  0  0  0  0  0  0  0
    7.1527   50.2678   32.5046 C   0  0  0  0  0  0  0  0  0  0  0  0
    7.9963   49.6455   33.5941 C   0  0  0  0  0  0  0  0  0  0  0  0
    7.3459   49.0657   34.6993 C   0  0  0  0  0  0  0  0  0  0  0  0
    9.4163   49.6379   33.5448 C   0  0  0  0  0  0  0  0  0  0  0  0
    8.0788   48.4780   35.7309 C   0  0  0  0  0  0  0  0  0  0  0  0
   10.1349   49.0180   34.5836 C   0  0  0  0  0  0  0  0  0  0  0  0
   10.1414   50.2469   32.4618 N   0  0  0  0  0  0  0  0  0  0  0  0
    9.4705   48.4514   35.6717 C   0  0  0  0  0  0  0  0  0  0  0  0
    9.7543   51.4671   31.9589 O   0  0  0  0  0  0  0  0  0  0  0  0
   11.2275   49.7598   32.0850 O   0  0  0  0  0  0  0  0  0  0  0  0
    8.5370   39.1401   34.0144 O   0  0  0  0  0  0  0  0  0  0  0  0
   10.9797   40.0882   33.6889 O   0  0  0  0  0  0  0  0  0  0  0  0
   10.8018   40.0949   32.2901 C   0  0  0  0  0  0  0  0  0  0  0  0
   11.5885   38.9267   31.7041 C   0  0  0  0  0  0  0  0  0  0  0  0
   12.9237   38.9445   32.1722 O   0  0  0  0  0  0  0  0  0  0  0  0
   11.0029   37.5726   32.0908 C   0  0  0  0  0  0  0  0  0  0  0  0
   13.3555   37.5960   32.2595 C   0  0  0  0  0  0  0  0  0  0  0  0
    9.9379   37.1847   31.2657 O   0  0  0  0  0  0  0  0  0  0  0  0
   12.1931   36.6769   31.8952 C   0  0  0  0  0  0  0  0  0  0  0  0
   13.8028   37.2977   33.6186 N   0  0  0  0  0  0  0  0  0  0  0  0
   12.2918   36.2396   30.5587 O   0  0  0  0  0  0  0  0  0  0  0  0
   14.7926   36.4727   33.9858 C   0  0  0  0  0  0  0  0  0  0  0  0
   13.2750   37.7302   34.7935 C   0  0  0  0  0  0  0  0  0  0  0  0
   15.6241   35.7586   33.1857 N   0  0  0  0  0  0  0  0  0  0  0  0
   14.8721   36.4408   35.3326 C   0  0  0  0  0  0  0  0  0  0  0  0
   13.9204   37.2263   35.8802 N   0  0  0  0  0  0  0  0  0  0  0  0
   16.5870   34.9925   33.7800 C   0  0  0  0  0  0  0  0  0  0  0  0
   15.8572   35.6717   35.9441 C   0  0  0  0  0  0  0  0  0  0  0  0
   16.7022   34.9585   35.1437 N   0  0  0  0  0  0  0  0  0  0  0  0
   16.0097   35.6384   37.3561 N   0  0  0  0  0  0  0  0  0  0  0  0
    7.6763   44.0608   34.0526 H   0  0  0  0  0  0  0  0  0  0  0  0
   10.2176   45.5828   33.8817 H   0  0  0  0  0  0  0  0  0  0  0  0
    8.6468   46.1511   34.1201 H   0  0  0  0  0  0  0  0  0  0  0  0
    9.9719   44.0651   31.9677 H   0  0  0  0  0  0  0  0  0  0  0  0
    8.4847   43.0818   31.8647 H   0  0  0  0  0  0  0  0  0  0  0  0
    8.5192   45.0950   30.3796 H   0  0  0  0  0  0  0  0  0  0  0  0
    8.5736   46.1502   31.8139 H   0  0  0  0  0  0  0  0  0  0  0  0
    6.3146   44.1819   30.9855 H   0  0  0  0  0  0  0  0  0  0  0  0
    6.3167   45.0810   32.5430 H   0  0  0  0  0  0  0  0  0  0  0  0
    6.2460   46.2922   29.7251 H   0  0  0  0  0  0  0  0  0  0  0  0
    4.9249   46.2705   30.9311 H   0  0  0  0  0  0  0  0  0  0  0  0
    6.2748   47.7332   32.4262 H   0  0  0  0  0  0  0  0  0  0  0  0
    7.2875   51.3682   32.5424 H   0  0  0  0  0  0  0  0  0  0  0  0
    6.0666   50.0841   32.6564 H   0  0  0  0  0  0  0  0  0  0  0  0
    6.2649   49.0678   34.7651 H   0  0  0  0  0  0  0  0  0  0  0  0
    7.5656   48.0349   36.5746 H   0  0  0  0  0  0  0  0  0  0  0  0
   11.2171   48.9951   34.5622 H   0  0  0  0  0  0  0  0  0  0  0  0
   10.0365   47.9878   36.4694 H   0  0  0  0  0  0  0  0  0  0  0  0
   11.2241   41.0428   31.8930 H   0  0  0  0  0  0  0  0  0  0  0  0
    9.7472   40.0379   31.9305 H   0  0  0  0  0  0  0  0  0  0  0  0
   11.5927   39.0434   30.5966 H   0  0  0  0  0  0  0  0  0  0  0  0
   10.7003   37.5444   33.1640 H   0  0  0  0  0  0  0  0  0  0  0  0
   14.2051   37.4477   31.5560 H   0  0  0  0  0  0  0  0  0  0  0  0
    9.1374   37.6722   31.5905 H   0  0  0  0  0  0  0  0  0  0  0  0
   12.1305   35.7856   32.5586 H   0  0  0  0  0  0  0  0  0  0  0  0
   12.4606   37.0186   29.9674 H   0  0  0  0  0  0  0  0  0  0  0  0
   12.4327   38.4001   34.8694 H   0  0  0  0  0  0  0  0  0  0  0  0
   17.2666   34.4146   33.1690 H   0  0  0  0  0  0  0  0  0  0  0  0
   16.7634   35.0601   37.7894 H   0  0  0  0  0  0  0  0  0  0  0  0
   15.3754   36.1866   37.9788 H   0  0  0  0  0  0  0  0  0  0  0  0
  1  2  2  0
  1  3  1  0
  3  4  1  0
  4  5  1  0
  6  1  1  0
  7  6  1  0
  6  8  1  0
  8  9  1  0
  9 10  1  0
 10 11  1  0
 11 12  1  0
 12 13  1  0
 13 14  1  0
 13 15  2  0
 14 16  1  0
 16 17  1  0
 17 18  2  0
 19 17  1  0
 18 20  1  0
 21 19  2  0
 19 22  1  0
 20 23  2  0
 23 21  1  0
 22 24  1  0
 22 25  2  0
  4 26  2  0
  4 27  1  0
 28 27  1  0
 28 29  1  0
 29 30  1  0
 29 31  1  0
 30 32  1  0
 31 33  1  0
 31 34  1  0
 34 32  1  0
 32 35  1  0
 34 36  1  0
 37 35  1  0
 38 35  1  0
 39 37  2  0
 37 40  1  0
 41 38  2  0
 42 39  1  0
 40 43  2  0
 40 41  1  0
 44 42  2  0
 44 43  1  0
 43 45  1  0
  6 46  1  6
  7 47  1  0
  7 48  1  0
  8 49  1  0
  8 50  1  0
  9 51  1  0
  9 52  1  0
 10 53  1  0
 10 54  1  0
 11 55  1  0
 11 56  1  0
 12 57  1  0
 16 58  1  0
 16 59  1  0
 18 60  1  0
 20 61  1  0
 21 62  1  0
 23 63  1  0
 28 64  1  0
 28 65  1  0
 29 66  1  0
 31 67  1  0
 32 68  1  0
 33 69  1  0
 34 70  1  0
 36 71  1  0
 38 72  1  0
 42 73  1  0
 45 74  1  0
 45 75  1  0
M  CHG  3   5  -1  22   1  24  -1
M  END
>  <EmbedRMS>  (623) 
0.0748867674618

$$$$

     RDKit          3D

 75 78  0  0  0  0  0  0  0  0999 V2000
    9.4309   42.9415   34.3442 C   0  0  0  0  0  0  0  0  0  0  0  0
   10.4884   43.0414   35.0294 O   0  0  0  0  0  0  0  0  0  0  0  0
    8.8557   41.7131   34.0299 O   0  0  0  0  0  0  0  0  0  0  0  0
    9.4933   40.2166   34.4707 P   0  0  0  0  0  0  0  0  0  0  0  0
    9.7290   40.1746   36.1317 O   0  0  0  0  0  0  0  0  0  0  0  0
    8.7480   44.1364   33.7724 C   0  0  1  0  0  0  0  0  0  0  0  0
    9.3035   45.3670   34.3388 N   0  0  0  0  0  0  0  0  0  0  0  0
    8.8889   44.0519   32.2312 C   0  0  0  0  0  0  0  0  0  0  0  0
    8.2016   45.1723   31.4438 C   0  0  0  0  0  0  0  0  0  0  0  0
    6.6643   45.1058   31.4860 C   0  0  0  0  0  0  0  0  0  0  0  0
    6.0283   46.3240   30.8096 C   0  0  0  0  0  0  0  0  0  0  0  0
    6.5087   47.5626   31.4213 N   0  0  0  0  0  0  0  0  0  0  0  0
    7.2508   48.5409   30.6847 C   0  0  0  0  0  0  0  0  0  0  0  0
    7.6437   49.7560   31.2625 O   0  0  0  0  0  0  0  0  0  0  0  0
    7.5852   48.3098   29.4935 O   0  0  0  0  0  0  0  0  0  0  0  0
    7.4052   50.1353   32.6188 C   0  0  0  0  0  0  0  0  0  0  0  0
    5.9360   50.3924   32.8784 C   0  0  0  0  0  0  0  0  0  0  0  0
    5.1905   51.0859   31.9061 C   0  0  0  0  0  0  0  0  0  0  0  0
    5.3165   50.0596   34.1117 C   0  0  0  0  0  0  0  0  0  0  0  0
    3.8518   51.4108   32.1304 C   0  0  0  0  0  0  0  0  0  0  0  0
    3.9725   50.4096   34.3253 C   0  0  0  0  0  0  0  0  0  0  0  0
    6.0353   49.4037   35.1663 N   0  0  0  0  0  0  0  0  0  0  0  0
    3.2434   51.0721   33.3373 C   0  0  0  0  0  0  0  0  0  0  0  0
    6.5711   48.1540   34.9604 O   0  0  0  0  0  0  0  0  0  0  0  0
    5.9477   49.8353   36.3343 O   0  0  0  0  0  0  0  0  0  0  0  0
    8.5369   39.1404   34.0143 O   0  0  0  0  0  0  0  0  0  0  0  0
   10.9795   40.0884   33.6889 O   0  0  0  0  0  0  0  0  0  0  0  0
   10.8017   40.0950   32.2900 C   0  0  0  0  0  0  0  0  0  0  0  0
   11.5885   38.9267   31.7042 C   0  0  0  0  0  0  0  0  0  0  0  0
   12.9236   38.9445   32.1722 O   0  0  0  0  0  0  0  0  0  0  0  0
   11.0029   37.5726   32.0908 C   0  0  0  0  0  0  0  0  0  0  0  0
   13.3555   37.5960   32.2595 C   0  0  0  0  0  0  0  0  0  0  0  0
    9.9379   37.1847   31.2657 O   0  0  0  0  0  0  0  0  0  0  0  0
   12.1931   36.6769   31.8952 C   0  0  0  0  0  0  0  0  0  0  0  0
   13.8028   37.2977   33.6186 N   0  0  0  0  0  0  0  0  0  0  0  0
   12.2918   36.2396   30.5587 O   0  0  0  0  0  0  0  0  0  0  0  0
   14.7926   36.4727   33.9858 C   0  0  0  0  0  0  0  0  0  0  0  0
   13.2750   37.7302   34.7935 C   0  0  0  0  0  0  0  0  0  0  0  0
   15.6241   35.7586   33.1857 N   0  0  0  0  0  0  0  0  0  0  0  0
   14.8721   36.4408   35.3326 C   0  0  0  0  0  0  0  0  0  0  0  0
   13.9204   37.2263   35.8802 N   0  0  0  0  0  0  0  0  0  0  0  0
   16.5870   34.9924   33.7800 C   0  0  0  0  0  0  0  0  0  0  0  0
   15.8572   35.6717   35.9441 C   0  0  0  0  0  0  0  0  0  0  0  0
   16.7022   34.9585   35.1437 N   0  0  0  0  0  0  0  0  0  0  0  0
   16.0097   35.6384   37.3561 N   0  0  0  0  0  0  0  0  0  0  0  0
    7.6759   44.0642   34.0548 H   0  0  0  0  0  0  0  0  0  0  0  0
   10.2151   45.5881   33.8751 H   0  0  0  0  0  0  0  0  0  0  0  0
    8.6469   46.1566   34.1424 H   0  0  0  0  0  0  0  0  0  0  0  0
    8.4826   43.0819   31.8671 H   0  0  0  0  0  0  0  0  0  0  0  0
    9.9706   44.0641   31.9684 H   0  0  0  0  0  0  0  0  0  0  0  0
    8.5703   46.1488   31.8192 H   0  0  0  0  0  0  0  0  0  0  0  0
    8.5218   45.0972   30.3815 H   0  0  0  0  0  0  0  0  0  0  0  0
    6.3160   44.1799   30.9790 H   0  0  0  0  0  0  0  0  0  0  0  0
    6.3123   45.0762   32.5381 H   0  0  0  0  0  0  0  0  0  0  0  0
    6.2483   46.2916   29.7210 H   0  0  0  0  0  0  0  0  0  0  0  0
    4.9247   46.2701   30.9252 H   0  0  0  0  0  0  0  0  0  0  0  0
    6.2831   47.7197   32.4259 H   0  0  0  0  0  0  0  0  0  0  0  0
    7.9514   51.0826   32.8087 H   0  0  0  0  0  0  0  0  0  0  0  0
    7.8432   49.3748   33.2929 H   0  0  0  0  0  0  0  0  0  0  0  0
    5.6485   51.3832   30.9708 H   0  0  0  0  0  0  0  0  0  0  0  0
    3.2884   51.9366   31.3703 H   0  0  0  0  0  0  0  0  0  0  0  0
    3.4876   50.1609   35.2611 H   0  0  0  0  0  0  0  0  0  0  0  0
    2.2070   51.3310   33.5117 H   0  0  0  0  0  0  0  0  0  0  0  0
   11.2239   41.0428   31.8929 H   0  0  0  0  0  0  0  0  0  0  0  0
    9.7471   40.0378   31.9304 H   0  0  0  0  0  0  0  0  0  0  0  0
   11.5927   39.0434   30.5966 H   0  0  0  0  0  0  0  0  0  0  0  0
   10.7003   37.5444   33.1641 H   0  0  0  0  0  0  0  0  0  0  0  0
   14.2051   37.4478   31.5560 H   0  0  0  0  0  0  0  0  0  0  0  0
    9.1373   37.6722   31.5906 H   0  0  0  0  0  0  0  0  0  0  0  0
   12.1305   35.7856   32.5586 H   0  0  0  0  0  0  0  0  0  0  0  0
   12.4606   37.0186   29.9674 H   0  0  0  0  0  0  0  0  0  0  0  0
   12.4327   38.4001   34.8694 H   0  0  0  0  0  0  0  0  0  0  0  0
   17.2665   34.4146   33.1690 H   0  0  0  0  0  0  0  0  0  0  0  0
   16.7634   35.0601   37.7894 H   0  0  0  0  0  0  0  0  0  0  0  0
   15.3754   36.1866   37.9788 H   0  0  0  0  0  0  0  0  0  0  0  0
  1  2  2  0
  1  3  1  0
  3  4  1  0
  4  5  1  0
  6  1  1  0
  7  6  1  0
  6  8  1  0
  8  9  1  0
  9 10  1  0
 10 11  1  0
 11 12  1  0
 12 13  1  0
 13 14  1  0
 13 15  2  0
 14 16  1  0
 16 17  1  0
 17 18  2  0
 19 17  1  0
 18 20  1  0
 21 19  2  0
 19 22  1  0
 20 23  2  0
 23 21  1  0
 22 24  1  0
 22 25  2  0
  4 26  2  0
  4 27  1  0
 28 27  1  0
 28 29  1  0
 29 30  1  0
 29 31  1  0
 30 32  1  0
 31 33  1  0
 31 34  1  0
 34 32  1  0
 32 35  1  0
 34 36  1  0
 37 35  1  0
 38 35  1  0
 39 37  2  0
 37 40  1  0
 41 38  2  0
 42 39  1  0
 40 43  2  0
 40 41  1  0
 44 42  2  0
 44 43  1  0
 43 45  1  0
  6 46  1  6
  7 47  1  0
  7 48  1  0
  8 49  1  0
  8 50  1  0
  9 51  1  0
  9 52  1  0
 10 53  1  0
 10 54  1  0
 11 55  1  0
 11 56  1  0
 12 57  1  0
 16 58  1  0
 16 59  1  0
 18 60  1  0
 20 61  1  0
 21 62  1  0
 23 63  1  0
 28 64  1  0
 28 65  1  0
 29 66  1  0
 31 67  1  0
 32 68  1  0
 33 69  1  0
 34 70  1  0
 36 71  1  0
 38 72  1  0
 42 73  1  0
 45 74  1  0
 45 75  1  0
M  CHG  3   5  -1  22   1  24  -1
M  END
>  <EmbedRMS>  (624) 
0.0749242725164

$$$$

     RDKit          3D

 75 78  0  0  0  0  0  0  0  0999 V2000
    9.4311   42.9414   34.3438 C   0  0  0  0  0  0  0  0  0  0  0  0
   10.4885   43.0413   35.0294 O   0  0  0  0  0  0  0  0  0  0  0  0
    8.8562   41.7130   34.0288 O   0  0  0  0  0  0  0  0  0  0  0  0
    9.4947   40.2164   34.4679 P   0  0  0  0  0  0  0  0  0  0  0  0
    9.7310   40.1742   36.1290 O   0  0  0  0  0  0  0  0  0  0  0  0
    8.7481   44.1363   33.7722 C   0  0  1  0  0  0  0  0  0  0  0  0
    9.3035   45.3670   34.3389 N   0  0  0  0  0  0  0  0  0  0  0  0
    8.8891   44.0522   32.2310 C   0  0  0  0  0  0  0  0  0  0  0  0
    8.2016   45.1727   31.4439 C   0  0  0  0  0  0  0  0  0  0  0  0
    6.6643   45.1060   31.4863 C   0  0  0  0  0  0  0  0  0  0  0  0
    6.0277   46.3238   30.8096 C   0  0  0  0  0  0  0  0  0  0  0  0
    6.5057   47.5636   31.4215 N   0  0  0  0  0  0  0  0  0  0  0  0
    7.2527   48.5395   30.6849 C   0  0  0  0  0  0  0  0  0  0  0  0
    7.6542   49.7467   31.2690 O   0  0  0  0  0  0  0  0  0  0  0  0
    7.5860   48.3098   29.4931 O   0  0  0  0  0  0  0  0  0  0  0  0
    7.3868   50.1021   32.6238 C   0  0  0  0  0  0  0  0  0  0  0  0
    7.9534   51.4630   32.9655 C   0  0  0  0  0  0  0  0  0  0  0  0
    8.2872   52.3682   31.9366 C   0  0  0  0  0  0  0  0  0  0  0  0
    8.1645   51.8496   34.3168 C   0  0  0  0  0  0  0  0  0  0  0  0
    8.8536   53.6085   32.2331 C   0  0  0  0  0  0  0  0  0  0  0  0
    8.7524   53.0983   34.5910 C   0  0  0  0  0  0  0  0  0  0  0  0
    7.7957   50.9951   35.4153 N   0  0  0  0  0  0  0  0  0  0  0  0
    9.0933   53.9694   33.5566 C   0  0  0  0  0  0  0  0  0  0  0  0
    6.6255   50.2727   35.3792 O   0  0  0  0  0  0  0  0  0  0  0  0
    8.4468   51.0281   36.4802 O   0  0  0  0  0  0  0  0  0  0  0  0
    8.5375   39.1405   34.0127 O   0  0  0  0  0  0  0  0  0  0  0  0
   10.9805   40.0889   33.6836 O   0  0  0  0  0  0  0  0  0  0  0  0
   10.8025   40.0902   32.2837 C   0  0  0  0  0  0  0  0  0  0  0  0
   11.5888   38.9175   31.7008 C   0  0  0  0  0  0  0  0  0  0  0  0
   12.9219   38.9374   32.1692 O   0  0  0  0  0  0  0  0  0  0  0  0
   11.0028   37.5683   32.0981 C   0  0  0  0  0  0  0  0  0  0  0  0
   13.3496   37.5886   32.2601 C   0  0  0  0  0  0  0  0  0  0  0  0
    9.9343   37.1823   31.2757 O   0  0  0  0  0  0  0  0  0  0  0  0
   12.1890   36.6677   31.9050 C   0  0  0  0  0  0  0  0  0  0  0  0
   13.8025   37.2965   33.6186 N   0  0  0  0  0  0  0  0  0  0  0  0
   12.2990   36.2868   30.5568 O   0  0  0  0  0  0  0  0  0  0  0  0
   14.7929   36.4725   33.9858 C   0  0  0  0  0  0  0  0  0  0  0  0
   13.2749   37.7294   34.7935 C   0  0  0  0  0  0  0  0  0  0  0  0
   15.6240   35.7580   33.1858 N   0  0  0  0  0  0  0  0  0  0  0  0
   14.8727   36.4411   35.3327 C   0  0  0  0  0  0  0  0  0  0  0  0
   13.9208   37.2263   35.8803 N   0  0  0  0  0  0  0  0  0  0  0  0
   16.5871   34.9921   33.7801 C   0  0  0  0  0  0  0  0  0  0  0  0
   15.8576   35.6718   35.9441 C   0  0  0  0  0  0  0  0  0  0  0  0
   16.7024   34.9584   35.1438 N   0  0  0  0  0  0  0  0  0  0  0  0
   16.0099   35.6384   37.3562 N   0  0  0  0  0  0  0  0  0  0  0  0
    7.6760   44.0638   34.0546 H   0  0  0  0  0  0  0  0  0  0  0  0
   10.2144   45.5891   33.8744 H   0  0  0  0  0  0  0  0  0  0  0  0
    8.6460   46.1563   34.1442 H   0  0  0  0  0  0  0  0  0  0  0  0
    9.9707   44.0646   31.9682 H   0  0  0  0  0  0  0  0  0  0  0  0
    8.4829   43.0822   31.8666 H   0  0  0  0  0  0  0  0  0  0  0  0
    8.5218   45.0979   30.3815 H   0  0  0  0  0  0  0  0  0  0  0  0
    8.5700   46.1493   31.8194 H   0  0  0  0  0  0  0  0  0  0  0  0
    6.3124   45.0760   32.5383 H   0  0  0  0  0  0  0  0  0  0  0  0
    6.3164   44.1799   30.9793 H   0  0  0  0  0  0  0  0  0  0  0  0
    4.9240   46.2683   30.9234 H   0  0  0  0  0  0  0  0  0  0  0  0
    6.2491   46.2915   29.7213 H   0  0  0  0  0  0  0  0  0  0  0  0
    6.2744   47.7256   32.4263 H   0  0  0  0  0  0  0  0  0  0  0  0
    6.2889   50.1186   32.7931 H   0  0  0  0  0  0  0  0  0  0  0  0
    7.8576   49.3378   33.2797 H   0  0  0  0  0  0  0  0  0  0  0  0
    8.1146   52.1204   30.8973 H   0  0  0  0  0  0  0  0  0  0  0  0
    9.1102   54.2908   31.4328 H   0  0  0  0  0  0  0  0  0  0  0  0
    8.9288   53.4078   35.6135 H   0  0  0  0  0  0  0  0  0  0  0  0
    9.5358   54.9310   33.7828 H   0  0  0  0  0  0  0  0  0  0  0  0
    9.7476   40.0332   31.9256 H   0  0  0  0  0  0  0  0  0  0  0  0
   11.2257   41.0358   31.8824 H   0  0  0  0  0  0  0  0  0  0  0  0
   11.5975   39.0148   30.5905 H   0  0  0  0  0  0  0  0  0  0  0  0
   10.7023   37.5457   33.1720 H   0  0  0  0  0  0  0  0  0  0  0  0
   14.1957   37.4366   31.5528 H   0  0  0  0  0  0  0  0  0  0  0  0
    9.1339   37.6659   31.6070 H   0  0  0  0  0  0  0  0  0  0  0  0
   12.1380   35.7717   32.5698 H   0  0  0  0  0  0  0  0  0  0  0  0
   11.7706   35.4530   30.4497 H   0  0  0  0  0  0  0  0  0  0  0  0
   12.4314   38.3980   34.8694 H   0  0  0  0  0  0  0  0  0  0  0  0
   17.2665   34.4140   33.1691 H   0  0  0  0  0  0  0  0  0  0  0  0
   16.7633   35.0598   37.7895 H   0  0  0  0  0  0  0  0  0  0  0  0
   15.3757   36.1868   37.9789 H   0  0  0  0  0  0  0  0  0  0  0  0
  1  2  2  0
  1  3  1  0
  3  4  1  0
  4  5  1  0
  6  1  1  0
  7  6  1  0
  6  8  1  0
  8  9  1  0
  9 10  1  0
 10 11  1  0
 11 12  1  0
 12 13  1  0
 13 14  1  0
 13 15  2  0
 14 16  1  0
 16 17  1  0
 17 18  2  0
 19 17  1  0
 18 20  1  0
 21 19  2  0
 19 22  1  0
 20 23  2  0
 23 21  1  0
 22 24  1  0
 22 25  2  0
  4 26  2  0
  4 27  1  0
 28 27  1  0
 28 29  1  0
 29 30  1  0
 29 31  1  0
 30 32  1  0
 31 33  1  0
 31 34  1  0
 34 32  1  0
 32 35  1  0
 34 36  1  0
 37 35  1  0
 38 35  1  0
 39 37  2  0
 37 40  1  0
 41 38  2  0
 42 39  1  0
 40 43  2  0
 40 41  1  0
 44 42  2  0
 44 43  1  0
 43 45  1  0
  6 46  1  6
  7 47  1  0
  7 48  1  0
  8 49  1  0
  8 50  1  0
  9 51  1  0
  9 52  1  0
 10 53  1  0
 10 54  1  0
 11 55  1  0
 11 56  1  0
 12 57  1  0
 16 58  1  0
 16 59  1  0
 18 60  1  0
 20 61  1  0
 21 62  1  0
 23 63  1  0
 28 64  1  0
 28 65  1  0
 29 66  1  0
 31 67  1  0
 32 68  1  0
 33 69  1  0
 34 70  1  0
 36 71  1  0
 38 72  1  0
 42 73  1  0
 45 74  1  0
 45 75  1  0
M  CHG  3   5  -1  22   1  24  -1
M  END
>  <EmbedRMS>  (625) 
0.0735225860847

$$$$

     RDKit          3D

 75 78  0  0  0  0  0  0  0  0999 V2000
    9.4300   42.9395   34.3437 C   0  0  0  0  0  0  0  0  0  0  0  0
   10.4914   43.0381   35.0235 O   0  0  0  0  0  0  0  0  0  0  0  0
    8.8546   41.7116   34.0293 O   0  0  0  0  0  0  0  0  0  0  0  0
    9.4930   40.2157   34.4704 P   0  0  0  0  0  0  0  0  0  0  0  0
    9.7287   40.1743   36.1314 O   0  0  0  0  0  0  0  0  0  0  0  0
    8.7413   44.1377   33.7787 C   0  0  1  0  0  0  0  0  0  0  0  0
    9.3017   45.3718   34.3325 N   0  0  0  0  0  0  0  0  0  0  0  0
    8.8963   44.0591   32.2400 C   0  0  0  0  0  0  0  0  0  0  0  0
    8.2027   45.1686   31.4401 C   0  0  0  0  0  0  0  0  0  0  0  0
    6.6653   45.1062   31.4910 C   0  0  0  0  0  0  0  0  0  0  0  0
    6.0275   46.3222   30.8122 C   0  0  0  0  0  0  0  0  0  0  0  0
    6.5072   47.5641   31.4184 N   0  0  0  0  0  0  0  0  0  0  0  0
    7.2439   48.5391   30.6833 C   0  0  0  0  0  0  0  0  0  0  0  0
    7.5951   49.7397   31.3061 O   0  0  0  0  0  0  0  0  0  0  0  0
    7.5930   48.3114   29.4932 O   0  0  0  0  0  0  0  0  0  0  0  0
    8.3471   50.7571   30.6502 C   0  0  0  0  0  0  0  0  0  0  0  0
    8.5225   51.9352   31.5773 C   0  0  0  0  0  0  0  0  0  0  0  0
    7.3777   52.4725   32.1941 C   0  0  0  0  0  0  0  0  0  0  0  0
    9.7930   52.4945   31.8732 C   0  0  0  0  0  0  0  0  0  0  0  0
    7.4877   53.5105   33.1206 C   0  0  0  0  0  0  0  0  0  0  0  0
    9.8857   53.5266   32.8237 C   0  0  0  0  0  0  0  0  0  0  0  0
   10.9841   52.0592   31.2000 N   0  0  0  0  0  0  0  0  0  0  0  0
    8.7404   54.0294   33.4428 C   0  0  0  0  0  0  0  0  0  0  0  0
   11.0117   51.9990   29.8257 O   0  0  0  0  0  0  0  0  0  0  0  0
   12.0587   51.9699   31.8290 O   0  0  0  0  0  0  0  0  0  0  0  0
    8.5369   39.1392   34.0142 O   0  0  0  0  0  0  0  0  0  0  0  0
   10.9794   40.0882   33.6887 O   0  0  0  0  0  0  0  0  0  0  0  0
   10.8017   40.0949   32.2899 C   0  0  0  0  0  0  0  0  0  0  0  0
   11.5885   38.9266   31.7041 C   0  0  0  0  0  0  0  0  0  0  0  0
   12.9236   38.9445   32.1722 O   0  0  0  0  0  0  0  0  0  0  0  0
   11.0029   37.5726   32.0908 C   0  0  0  0  0  0  0  0  0  0  0  0
   13.3555   37.5960   32.2595 C   0  0  0  0  0  0  0  0  0  0  0  0
    9.9379   37.1846   31.2657 O   0  0  0  0  0  0  0  0  0  0  0  0
   12.1932   36.6769   31.8952 C   0  0  0  0  0  0  0  0  0  0  0  0
   13.8028   37.2977   33.6186 N   0  0  0  0  0  0  0  0  0  0  0  0
   12.2918   36.2396   30.5587 O   0  0  0  0  0  0  0  0  0  0  0  0
   14.7926   36.4727   33.9858 C   0  0  0  0  0  0  0  0  0  0  0  0
   13.2750   37.7302   34.7935 C   0  0  0  0  0  0  0  0  0  0  0  0
   15.6241   35.7586   33.1857 N   0  0  0  0  0  0  0  0  0  0  0  0
   14.8721   36.4408   35.3326 C   0  0  0  0  0  0  0  0  0  0  0  0
   13.9204   37.2263   35.8802 N   0  0  0  0  0  0  0  0  0  0  0  0
   16.5870   34.9925   33.7800 C   0  0  0  0  0  0  0  0  0  0  0  0
   15.8572   35.6717   35.9441 C   0  0  0  0  0  0  0  0  0  0  0  0
   16.7022   34.9585   35.1437 N   0  0  0  0  0  0  0  0  0  0  0  0
   16.0097   35.6384   37.3561 N   0  0  0  0  0  0  0  0  0  0  0  0
    7.6669   44.0652   34.0548 H   0  0  0  0  0  0  0  0  0  0  0  0
    8.6810   46.1668   34.0587 H   0  0  0  0  0  0  0  0  0  0  0  0
    9.2335   45.3274   35.3759 H   0  0  0  0  0  0  0  0  0  0  0  0
    8.5084   43.0838   31.8696 H   0  0  0  0  0  0  0  0  0  0  0  0
    9.9810   44.0906   31.9916 H   0  0  0  0  0  0  0  0  0  0  0  0
    8.5157   45.0754   30.3770 H   0  0  0  0  0  0  0  0  0  0  0  0
    8.5768   46.1512   31.7920 H   0  0  0  0  0  0  0  0  0  0  0  0
    6.3182   45.0836   32.5447 H   0  0  0  0  0  0  0  0  0  0  0  0
    6.3125   44.1780   30.9914 H   0  0  0  0  0  0  0  0  0  0  0  0
    6.2471   46.2872   29.7235 H   0  0  0  0  0  0  0  0  0  0  0  0
    4.9241   46.2676   30.9287 H   0  0  0  0  0  0  0  0  0  0  0  0
    6.2842   47.7534   32.4215 H   0  0  0  0  0  0  0  0  0  0  0  0
    7.8012   51.0947   29.7428 H   0  0  0  0  0  0  0  0  0  0  0  0
    9.3177   50.3232   30.3384 H   0  0  0  0  0  0  0  0  0  0  0  0
    6.3964   52.0723   31.9694 H   0  0  0  0  0  0  0  0  0  0  0  0
    6.5998   53.9078   33.5955 H   0  0  0  0  0  0  0  0  0  0  0  0
   10.8474   53.9615   33.0653 H   0  0  0  0  0  0  0  0  0  0  0  0
    8.8237   54.8316   34.1646 H   0  0  0  0  0  0  0  0  0  0  0  0
    9.7472   40.0378   31.9302 H   0  0  0  0  0  0  0  0  0  0  0  0
   11.2241   41.0427   31.8928 H   0  0  0  0  0  0  0  0  0  0  0  0
   11.5927   39.0433   30.5966 H   0  0  0  0  0  0  0  0  0  0  0  0
   10.7003   37.5443   33.1640 H   0  0  0  0  0  0  0  0  0  0  0  0
   14.2051   37.4477   31.5560 H   0  0  0  0  0  0  0  0  0  0  0  0
    9.1373   37.6721   31.5906 H   0  0  0  0  0  0  0  0  0  0  0  0
   12.1305   35.7856   32.5586 H   0  0  0  0  0  0  0  0  0  0  0  0
   12.4607   37.0186   29.9674 H   0  0  0  0  0  0  0  0  0  0  0  0
   12.4327   38.4001   34.8694 H   0  0  0  0  0  0  0  0  0  0  0  0
   17.2666   34.4146   33.1690 H   0  0  0  0  0  0  0  0  0  0  0  0
   15.3754   36.1866   37.9788 H   0  0  0  0  0  0  0  0  0  0  0  0
   16.7634   35.0601   37.7894 H   0  0  0  0  0  0  0  0  0  0  0  0
  1  2  2  0
  1  3  1  0
  3  4  1  0
  4  5  1  0
  6  1  1  0
  7  6  1  0
  6  8  1  0
  8  9  1  0
  9 10  1  0
 10 11  1  0
 11 12  1  0
 12 13  1  0
 13 14  1  0
 13 15  2  0
 14 16  1  0
 16 17  1  0
 17 18  2  0
 19 17  1  0
 18 20  1  0
 21 19  2  0
 19 22  1  0
 20 23  2  0
 23 21  1  0
 22 24  1  0
 22 25  2  0
  4 26  2  0
  4 27  1  0
 28 27  1  0
 28 29  1  0
 29 30  1  0
 29 31  1  0
 30 32  1  0
 31 33  1  0
 31 34  1  0
 34 32  1  0
 32 35  1  0
 34 36  1  0
 37 35  1  0
 38 35  1  0
 39 37  2  0
 37 40  1  0
 41 38  2  0
 42 39  1  0
 40 43  2  0
 40 41  1  0
 44 42  2  0
 44 43  1  0
 43 45  1  0
  6 46  1  6
  7 47  1  0
  7 48  1  0
  8 49  1  0
  8 50  1  0
  9 51  1  0
  9 52  1  0
 10 53  1  0
 10 54  1  0
 11 55  1  0
 11 56  1  0
 12 57  1  0
 16 58  1  0
 16 59  1  0
 18 60  1  0
 20 61  1  0
 21 62  1  0
 23 63  1  0
 28 64  1  0
 28 65  1  0
 29 66  1  0
 31 67  1  0
 32 68  1  0
 33 69  1  0
 34 70  1  0
 36 71  1  0
 38 72  1  0
 42 73  1  0
 45 74  1  0
 45 75  1  0
M  CHG  3   5  -1  22   1  24  -1
M  END
>  <EmbedRMS>  (626) 
0.0750554854573

$$$$

     RDKit          3D

 75 78  0  0  0  0  0  0  0  0999 V2000
    9.4310   42.9414   34.3441 C   0  0  0  0  0  0  0  0  0  0  0  0
   10.4885   43.0413   35.0294 O   0  0  0  0  0  0  0  0  0  0  0  0
    8.8557   41.7131   34.0298 O   0  0  0  0  0  0  0  0  0  0  0  0
    9.4933   40.2166   34.4707 P   0  0  0  0  0  0  0  0  0  0  0  0
    9.7290   40.1746   36.1317 O   0  0  0  0  0  0  0  0  0  0  0  0
    8.7481   44.1363   33.7723 C   0  0  1  0  0  0  0  0  0  0  0  0
    9.3035   45.3670   34.3389 N   0  0  0  0  0  0  0  0  0  0  0  0
    8.8891   44.0521   32.2311 C   0  0  0  0  0  0  0  0  0  0  0  0
    8.2016   45.1726   31.4439 C   0  0  0  0  0  0  0  0  0  0  0  0
    6.6643   45.1060   31.4863 C   0  0  0  0  0  0  0  0  0  0  0  0
    6.0278   46.3238   30.8096 C   0  0  0  0  0  0  0  0  0  0  0  0
    6.5058   47.5636   31.4215 N   0  0  0  0  0  0  0  0  0  0  0  0
    7.2525   48.5396   30.6848 C   0  0  0  0  0  0  0  0  0  0  0  0
    7.6534   49.7471   31.2686 O   0  0  0  0  0  0  0  0  0  0  0  0
    7.5861   48.3098   29.4931 O   0  0  0  0  0  0  0  0  0  0  0  0
    7.3853   50.1032   32.6231 C   0  0  0  0  0  0  0  0  0  0  0  0
    7.9519   51.4639   32.9690 C   0  0  0  0  0  0  0  0  0  0  0  0
    8.3505   52.3466   31.9431 C   0  0  0  0  0  0  0  0  0  0  0  0
    8.1020   51.8720   34.3237 C   0  0  0  0  0  0  0  0  0  0  0  0
    8.9166   53.5851   32.2469 C   0  0  0  0  0  0  0  0  0  0  0  0
    8.6910   53.1176   34.6049 C   0  0  0  0  0  0  0  0  0  0  0  0
    7.6798   51.0423   35.4224 N   0  0  0  0  0  0  0  0  0  0  0  0
    9.0934   53.9666   33.5743 C   0  0  0  0  0  0  0  0  0  0  0  0
    8.3231   51.1296   36.6357 O   0  0  0  0  0  0  0  0  0  0  0  0
    6.6334   50.3663   35.3471 O   0  0  0  0  0  0  0  0  0  0  0  0
    8.5369   39.1404   34.0143 O   0  0  0  0  0  0  0  0  0  0  0  0
   10.9795   40.0883   33.6889 O   0  0  0  0  0  0  0  0  0  0  0  0
   10.8017   40.0950   32.2900 C   0  0  0  0  0  0  0  0  0  0  0  0
   11.5885   38.9267   31.7042 C   0  0  0  0  0  0  0  0  0  0  0  0
   12.9237   38.9445   32.1722 O   0  0  0  0  0  0  0  0  0  0  0  0
   11.0029   37.5727   32.0908 C   0  0  0  0  0  0  0  0  0  0  0  0
   13.3555   37.5960   32.2595 C   0  0  0  0  0  0  0  0  0  0  0  0
    9.9379   37.1847   31.2657 O   0  0  0  0  0  0  0  0  0  0  0  0
   12.1931   36.6770   31.8952 C   0  0  0  0  0  0  0  0  0  0  0  0
   13.8028   37.2977   33.6186 N   0  0  0  0  0  0  0  0  0  0  0  0
   12.2918   36.2396   30.5587 O   0  0  0  0  0  0  0  0  0  0  0  0
   14.7926   36.4727   33.9858 C   0  0  0  0  0  0  0  0  0  0  0  0
   13.2750   37.7302   34.7935 C   0  0  0  0  0  0  0  0  0  0  0  0
   15.6241   35.7586   33.1857 N   0  0  0  0  0  0  0  0  0  0  0  0
   14.8721   36.4408   35.3326 C   0  0  0  0  0  0  0  0  0  0  0  0
   13.9204   37.2263   35.8802 N   0  0  0  0  0  0  0  0  0  0  0  0
   16.5870   34.9924   33.7800 C   0  0  0  0  0  0  0  0  0  0  0  0
   15.8572   35.6717   35.9441 C   0  0  0  0  0  0  0  0  0  0  0  0
   16.7022   34.9585   35.1437 N   0  0  0  0  0  0  0  0  0  0  0  0
   16.0098   35.6384   37.3561 N   0  0  0  0  0  0  0  0  0  0  0  0
    7.6760   44.0639   34.0546 H   0  0  0  0  0  0  0  0  0  0  0  0
    8.6460   46.1564   34.1440 H   0  0  0  0  0  0  0  0  0  0  0  0
   10.2144   45.5891   33.8744 H   0  0  0  0  0  0  0  0  0  0  0  0
    9.9707   44.0644   31.9683 H   0  0  0  0  0  0  0  0  0  0  0  0
    8.4828   43.0821   31.8668 H   0  0  0  0  0  0  0  0  0  0  0  0
    8.5701   46.1492   31.8193 H   0  0  0  0  0  0  0  0  0  0  0  0
    8.5218   45.0977   30.3815 H   0  0  0  0  0  0  0  0  0  0  0  0
    6.3164   44.1799   30.9793 H   0  0  0  0  0  0  0  0  0  0  0  0
    6.3124   45.0760   32.5383 H   0  0  0  0  0  0  0  0  0  0  0  0
    4.9240   46.2683   30.9235 H   0  0  0  0  0  0  0  0  0  0  0  0
    6.2491   46.2915   29.7213 H   0  0  0  0  0  0  0  0  0  0  0  0
    6.2746   47.7255   32.4264 H   0  0  0  0  0  0  0  0  0  0  0  0
    6.2869   50.1190   32.7901 H   0  0  0  0  0  0  0  0  0  0  0  0
    7.8552   49.3397   33.2808 H   0  0  0  0  0  0  0  0  0  0  0  0
    8.2293   52.0836   30.9004 H   0  0  0  0  0  0  0  0  0  0  0  0
    9.2224   54.2499   31.4492 H   0  0  0  0  0  0  0  0  0  0  0  0
    8.8214   53.4431   35.6291 H   0  0  0  0  0  0  0  0  0  0  0  0
    9.5362   54.9267   33.8061 H   0  0  0  0  0  0  0  0  0  0  0  0
   11.2240   41.0428   31.8929 H   0  0  0  0  0  0  0  0  0  0  0  0
    9.7472   40.0379   31.9304 H   0  0  0  0  0  0  0  0  0  0  0  0
   11.5927   39.0434   30.5966 H   0  0  0  0  0  0  0  0  0  0  0  0
   10.7003   37.5444   33.1641 H   0  0  0  0  0  0  0  0  0  0  0  0
   14.2051   37.4477   31.5560 H   0  0  0  0  0  0  0  0  0  0  0  0
    9.1373   37.6722   31.5906 H   0  0  0  0  0  0  0  0  0  0  0  0
   12.1305   35.7856   32.5586 H   0  0  0  0  0  0  0  0  0  0  0  0
   12.4606   37.0186   29.9674 H   0  0  0  0  0  0  0  0  0  0  0  0
   12.4327   38.4001   34.8694 H   0  0  0  0  0  0  0  0  0  0  0  0
   17.2666   34.4146   33.1690 H   0  0  0  0  0  0  0  0  0  0  0  0
   16.7634   35.0601   37.7894 H   0  0  0  0  0  0  0  0  0  0  0  0
   15.3754   36.1866   37.9788 H   0  0  0  0  0  0  0  0  0  0  0  0
  1  2  2  0
  1  3  1  0
  3  4  1  0
  4  5  1  0
  6  1  1  0
  7  6  1  0
  6  8  1  0
  8  9  1  0
  9 10  1  0
 10 11  1  0
 11 12  1  0
 12 13  1  0
 13 14  1  0
 13 15  2  0
 14 16  1  0
 16 17  1  0
 17 18  2  0
 19 17  1  0
 18 20  1  0
 21 19  2  0
 19 22  1  0
 20 23  2  0
 23 21  1  0
 22 24  1  0
 22 25  2  0
  4 26  2  0
  4 27  1  0
 28 27  1  0
 28 29  1  0
 29 30  1  0
 29 31  1  0
 30 32  1  0
 31 33  1  0
 31 34  1  0
 34 32  1  0
 32 35  1  0
 34 36  1  0
 37 35  1  0
 38 35  1  0
 39 37  2  0
 37 40  1  0
 41 38  2  0
 42 39  1  0
 40 43  2  0
 40 41  1  0
 44 42  2  0
 44 43  1  0
 43 45  1  0
  6 46  1  6
  7 47  1  0
  7 48  1  0
  8 49  1  0
  8 50  1  0
  9 51  1  0
  9 52  1  0
 10 53  1  0
 10 54  1  0
 11 55  1  0
 11 56  1  0
 12 57  1  0
 16 58  1  0
 16 59  1  0
 18 60  1  0
 20 61  1  0
 21 62  1  0
 23 63  1  0
 28 64  1  0
 28 65  1  0
 29 66  1  0
 31 67  1  0
 32 68  1  0
 33 69  1  0
 34 70  1  0
 36 71  1  0
 38 72  1  0
 42 73  1  0
 45 74  1  0
 45 75  1  0
M  CHG  3   5  -1  22   1  24  -1
M  END
>  <EmbedRMS>  (627) 
0.0750244837647

$$$$
