
     RDKit          3D

 78 83  0  0  0  0  0  0  0  0999 V2000
   10.2833   43.7662   33.8252 C   0  0  0  0  0  0  0  0  0  0  0  0
   11.4100   43.5931   34.3750 O   0  0  0  0  0  0  0  0  0  0  0  0
    9.3636   42.7255   33.7347 O   0  0  0  0  0  0  0  0  0  0  0  0
    9.8902   41.2268   34.2941 P   0  0  0  0  0  0  0  0  0  0  0  0
   10.3735   41.4562   35.8835 O   0  0  0  0  0  0  0  0  0  0  0  0
    9.9546   45.0695   33.2030 C   0  0  1  0  0  0  0  0  0  0  0  0
   11.0272   46.0322   33.4753 N   0  0  0  0  0  0  0  0  0  0  0  0
    9.7465   44.8484   31.6869 C   0  0  0  0  0  0  0  0  0  0  0  0
    8.7920   45.8410   31.0838 C   0  0  0  0  0  0  0  0  0  0  0  0
    7.4040   45.6017   31.1009 C   0  0  0  0  0  0  0  0  0  0  0  0
    9.2822   46.9902   30.4427 C   0  0  0  0  0  0  0  0  0  0  0  0
    6.5245   46.5040   30.4872 C   0  0  0  0  0  0  0  0  0  0  0  0
    8.4008   47.8919   29.8340 C   0  0  0  0  0  0  0  0  0  0  0  0
    7.0216   47.6464   29.8431 C   0  0  0  0  0  0  0  0  0  0  0  0
    6.1435   48.5518   29.2423 O   0  0  0  0  0  0  0  0  0  0  0  0
    5.6590   48.4264   27.9014 C   0  0  1  0  0  0  0  0  0  0  0  0
    6.7386   48.8010   26.8803 C   0  0  0  0  0  0  0  0  0  0  0  0
    4.9714   47.0812   27.6706 C   0  0  0  0  0  0  0  0  0  0  0  0
    3.5820   47.0152   27.9445 C   0  0  0  0  0  0  0  0  0  0  0  0
    5.6556   45.8752   27.2896 C   0  0  0  0  0  0  0  0  0  0  0  0
    2.9323   45.7936   27.8256 C   0  0  0  0  0  0  0  0  0  0  0  0
    4.9440   44.6611   27.1877 C   0  0  0  0  0  0  0  0  0  0  0  0
    7.0514   45.8564   26.9887 N   0  0  0  0  0  0  0  0  0  0  0  0
    1.5986   45.5054   28.0432 O   0  0  0  0  0  0  0  0  0  0  0  0
    3.5847   44.6661   27.4639 C   0  0  0  0  0  0  0  0  0  0  0  0
    7.4479   46.0371   25.6843 O   0  0  0  0  0  0  0  0  0  0  0  0
    7.8388   45.3065   27.7848 O   0  0  0  0  0  0  0  0  0  0  0  0
    1.4032   44.1056   27.7996 C   0  0  0  0  0  0  0  0  0  0  0  0
    2.6970   43.6080   27.4321 O   0  0  0  0  0  0  0  0  0  0  0  0
    8.8121   40.1850   34.2131 O   0  0  0  0  0  0  0  0  0  0  0  0
   11.2404   40.7941   33.3690 O   0  0  0  0  0  0  0  0  0  0  0  0
   10.9143   40.6898   31.9972 C   0  0  0  0  0  0  0  0  0  0  0  0
   11.5261   39.3885   31.4376 C   0  0  0  0  0  0  0  0  0  0  0  0
   12.7504   39.0888   32.0816 O   0  0  0  0  0  0  0  0  0  0  0  0
   10.6114   38.1910   31.6460 C   0  0  0  0  0  0  0  0  0  0  0  0
   12.9357   37.6812   32.0303 C   0  0  0  0  0  0  0  0  0  0  0  0
    9.6145   38.0859   30.6533 O   0  0  0  0  0  0  0  0  0  0  0  0
   11.5769   37.0148   31.7012 C   0  0  0  0  0  0  0  0  0  0  0  0
   13.4849   37.2112   33.3247 N   0  0  0  0  0  0  0  0  0  0  0  0
   11.6193   36.3261   30.4724 O   0  0  0  0  0  0  0  0  0  0  0  0
   14.4802   36.3313   33.5730 C   0  0  0  0  0  0  0  0  0  0  0  0
   13.1141   37.6268   34.5698 C   0  0  0  0  0  0  0  0  0  0  0  0
   15.2074   35.6151   32.6740 N   0  0  0  0  0  0  0  0  0  0  0  0
   14.6761   36.2300   34.9184 C   0  0  0  0  0  0  0  0  0  0  0  0
   13.8220   37.0445   35.5789 N   0  0  0  0  0  0  0  0  0  0  0  0
   16.1642   34.7600   33.1547 C   0  0  0  0  0  0  0  0  0  0  0  0
   15.6529   35.3503   35.4131 C   0  0  0  0  0  0  0  0  0  0  0  0
   16.3797   34.6314   34.5042 N   0  0  0  0  0  0  0  0  0  0  0  0
   15.9004   35.1930   36.8090 N   0  0  0  0  0  0  0  0  0  0  0  0
    9.0120   45.4317   33.6709 H   0  0  0  0  0  0  0  0  0  0  0  0
   10.7258   46.9688   33.1212 H   0  0  0  0  0  0  0  0  0  0  0  0
   11.8905   45.7660   32.9466 H   0  0  0  0  0  0  0  0  0  0  0  0
   10.7227   44.8823   31.1547 H   0  0  0  0  0  0  0  0  0  0  0  0
    9.3414   43.8333   31.4752 H   0  0  0  0  0  0  0  0  0  0  0  0
    7.0069   44.7178   31.5846 H   0  0  0  0  0  0  0  0  0  0  0  0
   10.3462   47.1897   30.4135 H   0  0  0  0  0  0  0  0  0  0  0  0
    5.4591   46.3136   30.5094 H   0  0  0  0  0  0  0  0  0  0  0  0
    8.7900   48.7787   29.3507 H   0  0  0  0  0  0  0  0  0  0  0  0
    4.8839   49.2156   27.7816 H   0  0  0  0  0  0  0  0  0  0  0  0
    6.3908   48.5776   25.8494 H   0  0  0  0  0  0  0  0  0  0  0  0
    7.6930   48.2767   27.0809 H   0  0  0  0  0  0  0  0  0  0  0  0
    6.9469   49.8901   26.9467 H   0  0  0  0  0  0  0  0  0  0  0  0
    3.0238   47.8885   28.2581 H   0  0  0  0  0  0  0  0  0  0  0  0
    5.4410   43.7435   26.8994 H   0  0  0  0  0  0  0  0  0  0  0  0
    0.6848   43.9574   26.9663 H   0  0  0  0  0  0  0  0  0  0  0  0
    1.0465   43.6014   28.7221 H   0  0  0  0  0  0  0  0  0  0  0  0
   11.3778   41.5527   31.4726 H   0  0  0  0  0  0  0  0  0  0  0  0
    9.8233   40.7191   31.7646 H   0  0  0  0  0  0  0  0  0  0  0  0
   11.7283   39.5312   30.3515 H   0  0  0  0  0  0  0  0  0  0  0  0
   10.1126   38.2734   32.6376 H   0  0  0  0  0  0  0  0  0  0  0  0
   13.6692   37.4566   31.2242 H   0  0  0  0  0  0  0  0  0  0  0  0
   10.0533   38.1119   29.7635 H   0  0  0  0  0  0  0  0  0  0  0  0
   11.2606   36.3148   32.5102 H   0  0  0  0  0  0  0  0  0  0  0  0
   12.1495   35.5023   30.6324 H   0  0  0  0  0  0  0  0  0  0  0  0
   12.3301   38.3524   34.7455 H   0  0  0  0  0  0  0  0  0  0  0  0
   16.7562   34.1781   32.4619 H   0  0  0  0  0  0  0  0  0  0  0  0
   16.6350   34.5298   37.1416 H   0  0  0  0  0  0  0  0  0  0  0  0
   15.3535   35.7357   37.5139 H   0  0  0  0  0  0  0  0  0  0  0  0
  1  2  2  0
  1  3  1  0
  3  4  1  0
  4  5  1  0
  6  1  1  0
  7  6  1  0
  6  8  1  0
  8  9  1  0
  9 10  2  0
 11  9  1  0
 10 12  1  0
 13 11  2  0
 12 14  2  0
 14 13  1  0
 14 15  1  0
 15 16  1  0
 16 17  1  0
 16 18  1  0
 18 19  2  0
 20 18  1  0
 19 21  1  0
 22 20  2  0
 20 23  1  0
 21 24  1  0
 21 25  2  0
 25 22  1  0
 23 26  1  0
 23 27  2  0
 24 28  1  0
 25 29  1  0
 28 29  1  0
  4 30  2  0
  4 31  1  0
 32 31  1  0
 32 33  1  0
 33 34  1  0
 33 35  1  0
 34 36  1  0
 35 37  1  0
 35 38  1  0
 38 36  1  0
 36 39  1  0
 38 40  1  0
 41 39  1  0
 42 39  1  0
 43 41  2  0
 41 44  1  0
 45 42  2  0
 46 43  1  0
 44 47  2  0
 44 45  1  0
 48 46  2  0
 48 47  1  0
 47 49  1  0
  6 50  1  1
  7 51  1  0
  7 52  1  0
  8 53  1  0
  8 54  1  0
 10 55  1  0
 11 56  1  0
 12 57  1  0
 13 58  1  0
 16 59  1  1
 17 60  1  0
 17 61  1  0
 17 62  1  0
 19 63  1  0
 22 64  1  0
 28 65  1  0
 28 66  1  0
 32 67  1  0
 32 68  1  0
 33 69  1  0
 35 70  1  0
 36 71  1  0
 37 72  1  0
 38 73  1  0
 40 74  1  0
 42 75  1  0
 46 76  1  0
 49 77  1  0
 49 78  1  0
M  CHG  3   5  -1  23   1  26  -1
M  END
>  <EmbedRMS>  (1) 
0.081742688916

$$$$

     RDKit          3D

 78 83  0  0  0  0  0  0  0  0999 V2000
   10.2807   43.7689   33.8266 C   0  0  0  0  0  0  0  0  0  0  0  0
   11.4115   43.5947   34.3677 O   0  0  0  0  0  0  0  0  0  0  0  0
    9.3610   42.7275   33.7383 O   0  0  0  0  0  0  0  0  0  0  0  0
    9.8903   41.2276   34.2929 P   0  0  0  0  0  0  0  0  0  0  0  0
   10.3745   41.4554   35.8822 O   0  0  0  0  0  0  0  0  0  0  0  0
    9.9478   45.0754   33.2105 C   0  0  1  0  0  0  0  0  0  0  0  0
   11.0293   46.0313   33.4684 N   0  0  0  0  0  0  0  0  0  0  0  0
    9.7510   44.8513   31.6949 C   0  0  0  0  0  0  0  0  0  0  0  0
    8.7934   45.8409   31.0848 C   0  0  0  0  0  0  0  0  0  0  0  0
    7.4072   45.5986   31.0936 C   0  0  0  0  0  0  0  0  0  0  0  0
    9.2792   46.9917   30.4484 C   0  0  0  0  0  0  0  0  0  0  0  0
    6.5245   46.4955   30.4725 C   0  0  0  0  0  0  0  0  0  0  0  0
    8.3983   47.8954   29.8453 C   0  0  0  0  0  0  0  0  0  0  0  0
    7.0164   47.6599   29.8462 C   0  0  0  0  0  0  0  0  0  0  0  0
    6.1865   48.6182   29.2371 O   0  0  0  0  0  0  0  0  0  0  0  0
    4.9331   48.3747   28.5836 C   0  0  1  0  0  0  0  0  0  0  0  0
    5.1496   47.4155   27.3993 C   0  0  0  0  0  0  0  0  0  0  0  0
    3.8211   47.9915   29.5696 C   0  0  0  0  0  0  0  0  0  0  0  0
    3.0096   46.8435   29.3370 C   0  0  0  0  0  0  0  0  0  0  0  0
    3.5723   48.7791   30.7499 C   0  0  0  0  0  0  0  0  0  0  0  0
    2.0207   46.5177   30.2591 C   0  0  0  0  0  0  0  0  0  0  0  0
    2.5562   48.3846   31.6606 C   0  0  0  0  0  0  0  0  0  0  0  0
    4.3393   49.9609   31.0481 N   0  0  0  0  0  0  0  0  0  0  0  0
    1.1276   45.4597   30.2204 O   0  0  0  0  0  0  0  0  0  0  0  0
    1.8041   47.2525   31.3747 C   0  0  0  0  0  0  0  0  0  0  0  0
    4.5902   50.9030   30.0756 O   0  0  0  0  0  0  0  0  0  0  0  0
    4.6023   50.2445   32.2358 O   0  0  0  0  0  0  0  0  0  0  0  0
    0.2881   45.5433   31.3845 C   0  0  0  0  0  0  0  0  0  0  0  0
    0.7606   46.6978   32.1018 O   0  0  0  0  0  0  0  0  0  0  0  0
    8.8139   40.1837   34.2139 O   0  0  0  0  0  0  0  0  0  0  0  0
   11.2410   40.7984   33.3658 O   0  0  0  0  0  0  0  0  0  0  0  0
   10.9158   40.6902   31.9937 C   0  0  0  0  0  0  0  0  0  0  0  0
   11.5276   39.3889   31.4363 C   0  0  0  0  0  0  0  0  0  0  0  0
   12.7523   39.0892   32.0823 O   0  0  0  0  0  0  0  0  0  0  0  0
   10.6126   38.1920   31.6460 C   0  0  0  0  0  0  0  0  0  0  0  0
   12.9405   37.6815   32.0297 C   0  0  0  0  0  0  0  0  0  0  0  0
    9.6068   38.0859   30.6623 O   0  0  0  0  0  0  0  0  0  0  0  0
   11.5818   37.0175   31.6863 C   0  0  0  0  0  0  0  0  0  0  0  0
   13.4832   37.2085   33.3260 N   0  0  0  0  0  0  0  0  0  0  0  0
   11.6180   36.3067   30.4657 O   0  0  0  0  0  0  0  0  0  0  0  0
   14.4810   36.3316   33.5745 C   0  0  0  0  0  0  0  0  0  0  0  0
   13.1129   37.6245   34.5714 C   0  0  0  0  0  0  0  0  0  0  0  0
   15.2035   35.6109   32.6755 N   0  0  0  0  0  0  0  0  0  0  0  0
   14.6785   36.2314   34.9201 C   0  0  0  0  0  0  0  0  0  0  0  0
   13.8230   37.0442   35.5803 N   0  0  0  0  0  0  0  0  0  0  0  0
   16.1601   34.7558   33.1562 C   0  0  0  0  0  0  0  0  0  0  0  0
   15.6552   35.3512   35.4152 C   0  0  0  0  0  0  0  0  0  0  0  0
   16.3793   34.6302   34.5056 N   0  0  0  0  0  0  0  0  0  0  0  0
   15.9051   35.1954   36.8117 N   0  0  0  0  0  0  0  0  0  0  0  0
    9.0043   45.4436   33.6717 H   0  0  0  0  0  0  0  0  0  0  0  0
   10.7799   46.9393   33.0126 H   0  0  0  0  0  0  0  0  0  0  0  0
   11.0589   46.2282   34.4969 H   0  0  0  0  0  0  0  0  0  0  0  0
    9.3536   43.8332   31.4773 H   0  0  0  0  0  0  0  0  0  0  0  0
   10.7377   44.8932   31.1805 H   0  0  0  0  0  0  0  0  0  0  0  0
    7.0153   44.7107   31.5741 H   0  0  0  0  0  0  0  0  0  0  0  0
   10.3413   47.1959   30.4214 H   0  0  0  0  0  0  0  0  0  0  0  0
    5.4720   46.2690   30.5019 H   0  0  0  0  0  0  0  0  0  0  0  0
    8.7986   48.7802   29.3662 H   0  0  0  0  0  0  0  0  0  0  0  0
    4.6174   49.3346   28.1233 H   0  0  0  0  0  0  0  0  0  0  0  0
    5.4310   46.4036   27.7513 H   0  0  0  0  0  0  0  0  0  0  0  0
    5.9799   47.7936   26.7585 H   0  0  0  0  0  0  0  0  0  0  0  0
    4.2335   47.3573   26.7761 H   0  0  0  0  0  0  0  0  0  0  0  0
    3.1381   46.2018   28.4801 H   0  0  0  0  0  0  0  0  0  0  0  0
    2.3410   48.9573   32.5521 H   0  0  0  0  0  0  0  0  0  0  0  0
    0.4009   44.6311   32.0070 H   0  0  0  0  0  0  0  0  0  0  0  0
   -0.7719   45.6875   31.0812 H   0  0  0  0  0  0  0  0  0  0  0  0
    9.8261   40.7201   31.7593 H   0  0  0  0  0  0  0  0  0  0  0  0
   11.3826   41.5490   31.4666 H   0  0  0  0  0  0  0  0  0  0  0  0
   11.7281   39.5312   30.3490 H   0  0  0  0  0  0  0  0  0  0  0  0
   10.1252   38.2731   32.6432 H   0  0  0  0  0  0  0  0  0  0  0  0
   13.6822   37.4609   31.2307 H   0  0  0  0  0  0  0  0  0  0  0  0
   10.0253   38.1785   29.7683 H   0  0  0  0  0  0  0  0  0  0  0  0
   11.2730   36.3087   32.4866 H   0  0  0  0  0  0  0  0  0  0  0  0
   11.9837   36.9099   29.7667 H   0  0  0  0  0  0  0  0  0  0  0  0
   12.3269   38.3478   34.7486 H   0  0  0  0  0  0  0  0  0  0  0  0
   16.7417   34.1638   32.4640 H   0  0  0  0  0  0  0  0  0  0  0  0
   15.3560   35.7325   37.5190 H   0  0  0  0  0  0  0  0  0  0  0  0
   16.6371   34.5306   37.1469 H   0  0  0  0  0  0  0  0  0  0  0  0
  1  2  2  0
  1  3  1  0
  3  4  1  0
  4  5  1  0
  6  1  1  0
  7  6  1  0
  6  8  1  0
  8  9  1  0
  9 10  2  0
 11  9  1  0
 10 12  1  0
 13 11  2  0
 12 14  2  0
 14 13  1  0
 14 15  1  0
 15 16  1  0
 16 17  1  0
 16 18  1  0
 18 19  2  0
 20 18  1  0
 19 21  1  0
 22 20  2  0
 20 23  1  0
 21 24  1  0
 21 25  2  0
 25 22  1  0
 23 26  1  0
 23 27  2  0
 24 28  1  0
 25 29  1  0
 28 29  1  0
  4 30  2  0
  4 31  1  0
 32 31  1  0
 32 33  1  0
 33 34  1  0
 33 35  1  0
 34 36  1  0
 35 37  1  0
 35 38  1  0
 38 36  1  0
 36 39  1  0
 38 40  1  0
 41 39  1  0
 42 39  1  0
 43 41  2  0
 41 44  1  0
 45 42  2  0
 46 43  1  0
 44 47  2  0
 44 45  1  0
 48 46  2  0
 48 47  1  0
 47 49  1  0
  6 50  1  1
  7 51  1  0
  7 52  1  0
  8 53  1  0
  8 54  1  0
 10 55  1  0
 11 56  1  0
 12 57  1  0
 13 58  1  0
 16 59  1  6
 17 60  1  0
 17 61  1  0
 17 62  1  0
 19 63  1  0
 22 64  1  0
 28 65  1  0
 28 66  1  0
 32 67  1  0
 32 68  1  0
 33 69  1  0
 35 70  1  0
 36 71  1  0
 37 72  1  0
 38 73  1  0
 40 74  1  0
 42 75  1  0
 46 76  1  0
 49 77  1  0
 49 78  1  0
M  CHG  3   5  -1  23   1  26  -1
M  END
>  <EmbedRMS>  (2) 
0.0806619511166

$$$$

     RDKit          3D

 78 83  0  0  0  0  0  0  0  0999 V2000
   10.2835   43.7662   33.8257 C   0  0  0  0  0  0  0  0  0  0  0  0
   11.4103   43.5930   34.3753 O   0  0  0  0  0  0  0  0  0  0  0  0
    9.3638   42.7255   33.7351 O   0  0  0  0  0  0  0  0  0  0  0  0
    9.8903   41.2268   34.2946 P   0  0  0  0  0  0  0  0  0  0  0  0
   10.3728   41.4561   35.8842 O   0  0  0  0  0  0  0  0  0  0  0  0
    9.9548   45.0695   33.2036 C   0  0  1  0  0  0  0  0  0  0  0  0
   11.0274   46.0322   33.4760 N   0  0  0  0  0  0  0  0  0  0  0  0
    9.7471   44.8484   31.6877 C   0  0  0  0  0  0  0  0  0  0  0  0
    8.7926   45.8410   31.0846 C   0  0  0  0  0  0  0  0  0  0  0  0
    7.4060   45.6010   31.0991 C   0  0  0  0  0  0  0  0  0  0  0  0
    9.2817   46.9876   30.4419 C   0  0  0  0  0  0  0  0  0  0  0  0
    6.5242   46.5006   30.4842 C   0  0  0  0  0  0  0  0  0  0  0  0
    8.4005   47.8875   29.8318 C   0  0  0  0  0  0  0  0  0  0  0  0
    7.0183   47.6578   29.8469 C   0  0  0  0  0  0  0  0  0  0  0  0
    6.1877   48.5961   29.2123 O   0  0  0  0  0  0  0  0  0  0  0  0
    4.7578   48.6020   29.2250 C   0  0  1  0  0  0  0  0  0  0  0  0
    4.2159   49.0245   30.5959 C   0  0  0  0  0  0  0  0  0  0  0  0
    4.2146   49.5187   28.1415 C   0  0  0  0  0  0  0  0  0  0  0  0
    2.9829   49.1568   27.5421 C   0  0  0  0  0  0  0  0  0  0  0  0
    4.8943   50.7012   27.6809 C   0  0  0  0  0  0  0  0  0  0  0  0
    2.4883   49.9397   26.5079 C   0  0  0  0  0  0  0  0  0  0  0  0
    4.3483   51.4472   26.6119 C   0  0  0  0  0  0  0  0  0  0  0  0
    6.1231   51.1587   28.2667 N   0  0  0  0  0  0  0  0  0  0  0  0
    1.3242   49.7699   25.7833 O   0  0  0  0  0  0  0  0  0  0  0  0
    3.1442   51.0336   26.0595 C   0  0  0  0  0  0  0  0  0  0  0  0
    7.1047   51.6892   27.4620 O   0  0  0  0  0  0  0  0  0  0  0  0
    6.2174   51.3018   29.5024 O   0  0  0  0  0  0  0  0  0  0  0  0
    1.2460   50.8274   24.8178 C   0  0  0  0  0  0  0  0  0  0  0  0
    2.4281   51.6115   25.0288 O   0  0  0  0  0  0  0  0  0  0  0  0
    8.8125   40.1848   34.2126 O   0  0  0  0  0  0  0  0  0  0  0  0
   11.2416   40.7948   33.3707 O   0  0  0  0  0  0  0  0  0  0  0  0
   10.9179   40.6922   31.9984 C   0  0  0  0  0  0  0  0  0  0  0  0
   11.5175   39.3838   31.4423 C   0  0  0  0  0  0  0  0  0  0  0  0
   12.7508   39.0887   32.0752 O   0  0  0  0  0  0  0  0  0  0  0  0
   10.6028   38.1916   31.6659 C   0  0  0  0  0  0  0  0  0  0  0  0
   12.9384   37.6818   32.0278 C   0  0  0  0  0  0  0  0  0  0  0  0
    9.6371   38.0806   30.6470 O   0  0  0  0  0  0  0  0  0  0  0  0
   11.5780   37.0215   31.6935 C   0  0  0  0  0  0  0  0  0  0  0  0
   13.4844   37.2119   33.3242 N   0  0  0  0  0  0  0  0  0  0  0  0
   11.6095   36.3201   30.4679 O   0  0  0  0  0  0  0  0  0  0  0  0
   14.4797   36.3318   33.5730 C   0  0  0  0  0  0  0  0  0  0  0  0
   13.1135   37.6278   34.5691 C   0  0  0  0  0  0  0  0  0  0  0  0
   15.2073   35.6155   32.6742 N   0  0  0  0  0  0  0  0  0  0  0  0
   14.6754   36.2305   34.9184 C   0  0  0  0  0  0  0  0  0  0  0  0
   13.8213   37.0452   35.5785 N   0  0  0  0  0  0  0  0  0  0  0  0
   16.1640   34.7604   33.1549 C   0  0  0  0  0  0  0  0  0  0  0  0
   15.6524   35.3507   35.4132 C   0  0  0  0  0  0  0  0  0  0  0  0
   16.3794   34.6318   34.5044 N   0  0  0  0  0  0  0  0  0  0  0  0
   15.8999   35.1934   36.8091 N   0  0  0  0  0  0  0  0  0  0  0  0
    9.0121   45.4317   33.6714 H   0  0  0  0  0  0  0  0  0  0  0  0
   10.7261   46.9688   33.1215 H   0  0  0  0  0  0  0  0  0  0  0  0
   11.8908   45.7659   32.9476 H   0  0  0  0  0  0  0  0  0  0  0  0
   10.7236   44.8824   31.1558 H   0  0  0  0  0  0  0  0  0  0  0  0
    9.3425   43.8331   31.4759 H   0  0  0  0  0  0  0  0  0  0  0  0
    7.0106   44.7149   31.5805 H   0  0  0  0  0  0  0  0  0  0  0  0
   10.3460   47.1858   30.4097 H   0  0  0  0  0  0  0  0  0  0  0  0
    5.4674   46.2790   30.5110 H   0  0  0  0  0  0  0  0  0  0  0  0
    8.7940   48.7691   29.3416 H   0  0  0  0  0  0  0  0  0  0  0  0
    4.4028   47.5710   29.0066 H   0  0  0  0  0  0  0  0  0  0  0  0
    4.4882   50.0728   30.8306 H   0  0  0  0  0  0  0  0  0  0  0  0
    3.1084   48.9375   30.6073 H   0  0  0  0  0  0  0  0  0  0  0  0
    4.6201   48.3718   31.3960 H   0  0  0  0  0  0  0  0  0  0  0  0
    2.4318   48.2824   27.8654 H   0  0  0  0  0  0  0  0  0  0  0  0
    4.8386   52.3370   26.2382 H   0  0  0  0  0  0  0  0  0  0  0  0
    1.2421   50.4092   23.7894 H   0  0  0  0  0  0  0  0  0  0  0  0
    0.3403   51.4442   24.9962 H   0  0  0  0  0  0  0  0  0  0  0  0
   11.3952   41.5478   31.4744 H   0  0  0  0  0  0  0  0  0  0  0  0
    9.8291   40.7409   31.7627 H   0  0  0  0  0  0  0  0  0  0  0  0
   11.6981   39.5115   30.3500 H   0  0  0  0  0  0  0  0  0  0  0  0
   10.1117   38.2604   32.6661 H   0  0  0  0  0  0  0  0  0  0  0  0
   13.6767   37.4556   31.2267 H   0  0  0  0  0  0  0  0  0  0  0  0
    8.8961   38.6952   30.8872 H   0  0  0  0  0  0  0  0  0  0  0  0
   11.2791   36.3072   32.4922 H   0  0  0  0  0  0  0  0  0  0  0  0
   11.8828   36.9598   29.7589 H   0  0  0  0  0  0  0  0  0  0  0  0
   12.3300   38.3539   34.7446 H   0  0  0  0  0  0  0  0  0  0  0  0
   16.7561   34.1785   32.4622 H   0  0  0  0  0  0  0  0  0  0  0  0
   15.3531   35.7360   37.5140 H   0  0  0  0  0  0  0  0  0  0  0  0
   16.6347   34.5303   37.1416 H   0  0  0  0  0  0  0  0  0  0  0  0
  1  2  2  0
  1  3  1  0
  3  4  1  0
  4  5  1  0
  6  1  1  0
  7  6  1  0
  6  8  1  0
  8  9  1  0
  9 10  2  0
 11  9  1  0
 10 12  1  0
 13 11  2  0
 12 14  2  0
 14 13  1  0
 14 15  1  0
 15 16  1  0
 16 17  1  0
 16 18  1  0
 18 19  2  0
 20 18  1  0
 19 21  1  0
 22 20  2  0
 20 23  1  0
 21 24  1  0
 21 25  2  0
 25 22  1  0
 23 26  1  0
 23 27  2  0
 24 28  1  0
 25 29  1  0
 28 29  1  0
  4 30  2  0
  4 31  1  0
 32 31  1  0
 32 33  1  0
 33 34  1  0
 33 35  1  0
 34 36  1  0
 35 37  1  0
 35 38  1  0
 38 36  1  0
 36 39  1  0
 38 40  1  0
 41 39  1  0
 42 39  1  0
 43 41  2  0
 41 44  1  0
 45 42  2  0
 46 43  1  0
 44 47  2  0
 44 45  1  0
 48 46  2  0
 48 47  1  0
 47 49  1  0
  6 50  1  1
  7 51  1  0
  7 52  1  0
  8 53  1  0
  8 54  1  0
 10 55  1  0
 11 56  1  0
 12 57  1  0
 13 58  1  0
 16 59  1  6
 17 60  1  0
 17 61  1  0
 17 62  1  0
 19 63  1  0
 22 64  1  0
 28 65  1  0
 28 66  1  0
 32 67  1  0
 32 68  1  0
 33 69  1  0
 35 70  1  0
 36 71  1  0
 37 72  1  0
 38 73  1  0
 40 74  1  0
 42 75  1  0
 46 76  1  0
 49 77  1  0
 49 78  1  0
M  CHG  3   5  -1  23   1  26  -1
M  END
>  <EmbedRMS>  (3) 
0.0819526161027

$$$$

     RDKit          3D

 78 83  0  0  0  0  0  0  0  0999 V2000
   10.2835   43.7631   33.8277 C   0  0  0  0  0  0  0  0  0  0  0  0
   11.4099   43.5869   34.3768 O   0  0  0  0  0  0  0  0  0  0  0  0
    9.3629   42.7239   33.7353 O   0  0  0  0  0  0  0  0  0  0  0  0
    9.8896   41.2249   34.2934 P   0  0  0  0  0  0  0  0  0  0  0  0
   10.3734   41.4542   35.8829 O   0  0  0  0  0  0  0  0  0  0  0  0
    9.9544   45.0705   33.2063 C   0  0  1  0  0  0  0  0  0  0  0  0
   11.0194   46.0487   33.4565 N   0  0  0  0  0  0  0  0  0  0  0  0
    9.7495   44.8510   31.6924 C   0  0  0  0  0  0  0  0  0  0  0  0
    8.7936   45.8419   31.0868 C   0  0  0  0  0  0  0  0  0  0  0  0
    7.4056   45.5993   31.0976 C   0  0  0  0  0  0  0  0  0  0  0  0
    9.2838   46.9888   30.4424 C   0  0  0  0  0  0  0  0  0  0  0  0
    6.5258   46.5005   30.4814 C   0  0  0  0  0  0  0  0  0  0  0  0
    8.4030   47.8873   29.8293 C   0  0  0  0  0  0  0  0  0  0  0  0
    7.0211   47.6543   29.8588 C   0  0  0  0  0  0  0  0  0  0  0  0
    6.1449   48.5651   29.2612 O   0  0  0  0  0  0  0  0  0  0  0  0
    5.5943   49.6954   29.9460 C   0  0  1  0  0  0  0  0  0  0  0  0
    4.5289   49.2596   30.9620 C   0  0  0  0  0  0  0  0  0  0  0  0
    6.6907   50.5695   30.5483 C   0  0  0  0  0  0  0  0  0  0  0  0
    7.2268   50.2518   31.8240 C   0  0  0  0  0  0  0  0  0  0  0  0
    7.2083   51.7065   29.8417 C   0  0  0  0  0  0  0  0  0  0  0  0
    8.1973   51.0838   32.3646 C   0  0  0  0  0  0  0  0  0  0  0  0
    8.1814   52.5297   30.4541 C   0  0  0  0  0  0  0  0  0  0  0  0
    6.7930   52.0110   28.5003 N   0  0  0  0  0  0  0  0  0  0  0  0
    8.8467   50.9687   33.5787 O   0  0  0  0  0  0  0  0  0  0  0  0
    8.6489   52.1785   31.7126 C   0  0  0  0  0  0  0  0  0  0  0  0
    6.7432   51.0167   27.5509 O   0  0  0  0  0  0  0  0  0  0  0  0
    6.6907   53.2000   28.1332 O   0  0  0  0  0  0  0  0  0  0  0  0
    9.7644   52.0644   33.6950 C   0  0  0  0  0  0  0  0  0  0  0  0
    9.6057   52.8125   32.4818 O   0  0  0  0  0  0  0  0  0  0  0  0
    8.8114   40.1834   34.2127 O   0  0  0  0  0  0  0  0  0  0  0  0
   11.2398   40.7939   33.3670 O   0  0  0  0  0  0  0  0  0  0  0  0
   10.9124   40.6858   31.9954 C   0  0  0  0  0  0  0  0  0  0  0  0
   11.5174   39.3787   31.4404 C   0  0  0  0  0  0  0  0  0  0  0  0
   12.7490   39.0865   32.0752 O   0  0  0  0  0  0  0  0  0  0  0  0
   10.6060   38.1868   31.6655 C   0  0  0  0  0  0  0  0  0  0  0  0
   12.9356   37.6797   32.0291 C   0  0  0  0  0  0  0  0  0  0  0  0
    9.6399   38.0902   30.6469 O   0  0  0  0  0  0  0  0  0  0  0  0
   11.5766   37.0146   31.7043 C   0  0  0  0  0  0  0  0  0  0  0  0
   13.4859   37.2125   33.3243 N   0  0  0  0  0  0  0  0  0  0  0  0
   11.6102   36.3396   30.4673 O   0  0  0  0  0  0  0  0  0  0  0  0
   14.4806   36.3319   33.5729 C   0  0  0  0  0  0  0  0  0  0  0  0
   13.1145   37.6278   34.5693 C   0  0  0  0  0  0  0  0  0  0  0  0
   15.2076   35.6152   32.6741 N   0  0  0  0  0  0  0  0  0  0  0  0
   14.6761   36.2305   34.9184 C   0  0  0  0  0  0  0  0  0  0  0  0
   13.8221   37.0451   35.5786 N   0  0  0  0  0  0  0  0  0  0  0  0
   16.1641   34.7599   33.1549 C   0  0  0  0  0  0  0  0  0  0  0  0
   15.6527   35.3504   35.4133 C   0  0  0  0  0  0  0  0  0  0  0  0
   16.3795   34.6313   34.5044 N   0  0  0  0  0  0  0  0  0  0  0  0
   15.9003   35.1931   36.8092 N   0  0  0  0  0  0  0  0  0  0  0  0
    9.0094   45.4356   33.6669 H   0  0  0  0  0  0  0  0  0  0  0  0
   11.9346   45.6938   33.0926 H   0  0  0  0  0  0  0  0  0  0  0  0
   11.1126   46.2007   34.4877 H   0  0  0  0  0  0  0  0  0  0  0  0
    9.3501   43.8345   31.4765 H   0  0  0  0  0  0  0  0  0  0  0  0
   10.7297   44.8923   31.1674 H   0  0  0  0  0  0  0  0  0  0  0  0
    7.0092   44.7126   31.5768 H   0  0  0  0  0  0  0  0  0  0  0  0
   10.3479   47.1880   30.4124 H   0  0  0  0  0  0  0  0  0  0  0  0
    5.4613   46.3052   30.4939 H   0  0  0  0  0  0  0  0  0  0  0  0
    8.7929   48.7703   29.3389 H   0  0  0  0  0  0  0  0  0  0  0  0
    5.0339   50.2922   29.1971 H   0  0  0  0  0  0  0  0  0  0  0  0
    3.6879   48.7674   30.4294 H   0  0  0  0  0  0  0  0  0  0  0  0
    4.1316   50.1447   31.5026 H   0  0  0  0  0  0  0  0  0  0  0  0
    4.9324   48.5364   31.6987 H   0  0  0  0  0  0  0  0  0  0  0  0
    6.9095   49.3823   32.3814 H   0  0  0  0  0  0  0  0  0  0  0  0
    8.5875   53.3956   29.9473 H   0  0  0  0  0  0  0  0  0  0  0  0
    9.5017   52.6938   34.5708 H   0  0  0  0  0  0  0  0  0  0  0  0
   10.8049   51.6864   33.7788 H   0  0  0  0  0  0  0  0  0  0  0  0
   11.3803   41.5437   31.4668 H   0  0  0  0  0  0  0  0  0  0  0  0
    9.8214   40.7199   31.7635 H   0  0  0  0  0  0  0  0  0  0  0  0
   11.6996   39.5044   30.3480 H   0  0  0  0  0  0  0  0  0  0  0  0
   10.1084   38.2765   32.6601 H   0  0  0  0  0  0  0  0  0  0  0  0
   13.6679   37.4522   31.2227 H   0  0  0  0  0  0  0  0  0  0  0  0
    9.0015   37.3868   30.9347 H   0  0  0  0  0  0  0  0  0  0  0  0
   11.2668   36.3063   32.5084 H   0  0  0  0  0  0  0  0  0  0  0  0
   12.1390   35.5126   30.6151 H   0  0  0  0  0  0  0  0  0  0  0  0
   12.3305   38.3533   34.7447 H   0  0  0  0  0  0  0  0  0  0  0  0
   16.7561   34.1777   32.4624 H   0  0  0  0  0  0  0  0  0  0  0  0
   16.6350   34.5297   37.1415 H   0  0  0  0  0  0  0  0  0  0  0  0
   15.3536   35.7358   37.5142 H   0  0  0  0  0  0  0  0  0  0  0  0
  1  2  2  0
  1  3  1  0
  3  4  1  0
  4  5  1  0
  6  1  1  0
  7  6  1  0
  6  8  1  0
  8  9  1  0
  9 10  2  0
 11  9  1  0
 10 12  1  0
 13 11  2  0
 12 14  2  0
 14 13  1  0
 14 15  1  0
 15 16  1  0
 16 17  1  0
 16 18  1  0
 18 19  2  0
 20 18  1  0
 19 21  1  0
 22 20  2  0
 20 23  1  0
 21 24  1  0
 21 25  2  0
 25 22  1  0
 23 26  1  0
 23 27  2  0
 24 28  1  0
 25 29  1  0
 28 29  1  0
  4 30  2  0
  4 31  1  0
 32 31  1  0
 32 33  1  0
 33 34  1  0
 33 35  1  0
 34 36  1  0
 35 37  1  0
 35 38  1  0
 38 36  1  0
 36 39  1  0
 38 40  1  0
 41 39  1  0
 42 39  1  0
 43 41  2  0
 41 44  1  0
 45 42  2  0
 46 43  1  0
 44 47  2  0
 44 45  1  0
 48 46  2  0
 48 47  1  0
 47 49  1  0
  6 50  1  1
  7 51  1  0
  7 52  1  0
  8 53  1  0
  8 54  1  0
 10 55  1  0
 11 56  1  0
 12 57  1  0
 13 58  1  0
 16 59  1  6
 17 60  1  0
 17 61  1  0
 17 62  1  0
 19 63  1  0
 22 64  1  0
 28 65  1  0
 28 66  1  0
 32 67  1  0
 32 68  1  0
 33 69  1  0
 35 70  1  0
 36 71  1  0
 37 72  1  0
 38 73  1  0
 40 74  1  0
 42 75  1  0
 46 76  1  0
 49 77  1  0
 49 78  1  0
M  CHG  3   5  -1  23   1  26  -1
M  END
>  <EmbedRMS>  (4) 
0.0833848541854

$$$$

     RDKit          3D

 78 83  0  0  0  0  0  0  0  0999 V2000
   10.2803   43.7664   33.8250 C   0  0  0  0  0  0  0  0  0  0  0  0
   11.4110   43.5918   34.3667 O   0  0  0  0  0  0  0  0  0  0  0  0
    9.3618   42.7249   33.7345 O   0  0  0  0  0  0  0  0  0  0  0  0
    9.8902   41.2265   34.2931 P   0  0  0  0  0  0  0  0  0  0  0  0
   10.3743   41.4562   35.8824 O   0  0  0  0  0  0  0  0  0  0  0  0
    9.9459   45.0736   33.2111 C   0  0  1  0  0  0  0  0  0  0  0  0
   11.0267   46.0291   33.4706 N   0  0  0  0  0  0  0  0  0  0  0  0
    9.7537   44.8537   31.6949 C   0  0  0  0  0  0  0  0  0  0  0  0
    8.7956   45.8407   31.0845 C   0  0  0  0  0  0  0  0  0  0  0  0
    7.4090   45.6006   31.1010 C   0  0  0  0  0  0  0  0  0  0  0  0
    9.2827   46.9876   30.4401 C   0  0  0  0  0  0  0  0  0  0  0  0
    6.5286   46.5014   30.4863 C   0  0  0  0  0  0  0  0  0  0  0  0
    8.4024   47.8898   29.8310 C   0  0  0  0  0  0  0  0  0  0  0  0
    7.0129   47.6508   29.8462 C   0  0  0  0  0  0  0  0  0  0  0  0
    6.0794   48.5182   29.2544 O   0  0  0  0  0  0  0  0  0  0  0  0
    6.3831   49.6684   28.4606 C   0  0  1  0  0  0  0  0  0  0  0  0
    6.8819   49.2438   27.0728 C   0  0  0  0  0  0  0  0  0  0  0  0
    5.1301   50.5171   28.3344 C   0  0  0  0  0  0  0  0  0  0  0  0
    3.9690   49.9290   27.7728 C   0  0  0  0  0  0  0  0  0  0  0  0
    5.0935   51.8981   28.7239 C   0  0  0  0  0  0  0  0  0  0  0  0
    2.8475   50.7249   27.5792 C   0  0  0  0  0  0  0  0  0  0  0  0
    3.9299   52.6628   28.4852 C   0  0  0  0  0  0  0  0  0  0  0  0
    6.2035   52.5305   29.3756 N   0  0  0  0  0  0  0  0  0  0  0  0
    1.6243   50.3699   27.0438 O   0  0  0  0  0  0  0  0  0  0  0  0
    2.8309   52.0353   27.9144 C   0  0  0  0  0  0  0  0  0  0  0  0
    6.5567   53.8126   29.0234 O   0  0  0  0  0  0  0  0  0  0  0  0
    6.6576   52.0503   30.4346 O   0  0  0  0  0  0  0  0  0  0  0  0
    0.7868   51.5341   27.0438 C   0  0  0  0  0  0  0  0  0  0  0  0
    1.5964   52.5747   27.6082 O   0  0  0  0  0  0  0  0  0  0  0  0
    8.8123   40.1844   34.2130 O   0  0  0  0  0  0  0  0  0  0  0  0
   11.2401   40.7949   33.3666 O   0  0  0  0  0  0  0  0  0  0  0  0
   10.9124   40.6859   31.9952 C   0  0  0  0  0  0  0  0  0  0  0  0
   11.5175   39.3786   31.4405 C   0  0  0  0  0  0  0  0  0  0  0  0
   12.7490   39.0864   32.0753 O   0  0  0  0  0  0  0  0  0  0  0  0
   10.6060   38.1867   31.6656 C   0  0  0  0  0  0  0  0  0  0  0  0
   12.9355   37.6796   32.0292 C   0  0  0  0  0  0  0  0  0  0  0  0
    9.6399   38.0903   30.6471 O   0  0  0  0  0  0  0  0  0  0  0  0
   11.5765   37.0145   31.7044 C   0  0  0  0  0  0  0  0  0  0  0  0
   13.4858   37.2125   33.3244 N   0  0  0  0  0  0  0  0  0  0  0  0
   11.6101   36.3397   30.4673 O   0  0  0  0  0  0  0  0  0  0  0  0
   14.4805   36.3319   33.5729 C   0  0  0  0  0  0  0  0  0  0  0  0
   13.1143   37.6276   34.5694 C   0  0  0  0  0  0  0  0  0  0  0  0
   15.2076   35.6153   32.6741 N   0  0  0  0  0  0  0  0  0  0  0  0
   14.6760   36.2304   34.9184 C   0  0  0  0  0  0  0  0  0  0  0  0
   13.8219   37.0449   35.5786 N   0  0  0  0  0  0  0  0  0  0  0  0
   16.1641   34.7600   33.1548 C   0  0  0  0  0  0  0  0  0  0  0  0
   15.6528   35.3505   35.4132 C   0  0  0  0  0  0  0  0  0  0  0  0
   16.3795   34.6314   34.5043 N   0  0  0  0  0  0  0  0  0  0  0  0
   15.9002   35.1931   36.8091 N   0  0  0  0  0  0  0  0  0  0  0  0
    8.9995   45.4382   33.6722 H   0  0  0  0  0  0  0  0  0  0  0  0
   11.0504   46.2276   34.4980 H   0  0  0  0  0  0  0  0  0  0  0  0
   10.7764   46.9368   33.0157 H   0  0  0  0  0  0  0  0  0  0  0  0
   10.7408   44.9069   31.1835 H   0  0  0  0  0  0  0  0  0  0  0  0
    9.3638   43.8350   31.4714 H   0  0  0  0  0  0  0  0  0  0  0  0
    7.0133   44.7166   31.5858 H   0  0  0  0  0  0  0  0  0  0  0  0
   10.3469   47.1868   30.4085 H   0  0  0  0  0  0  0  0  0  0  0  0
    5.4642   46.3044   30.5072 H   0  0  0  0  0  0  0  0  0  0  0  0
    8.8194   48.7650   29.3554 H   0  0  0  0  0  0  0  0  0  0  0  0
    7.1930   50.2470   28.9406 H   0  0  0  0  0  0  0  0  0  0  0  0
    7.8483   48.7057   27.1545 H   0  0  0  0  0  0  0  0  0  0  0  0
    7.0386   50.1389   26.4334 H   0  0  0  0  0  0  0  0  0  0  0  0
    6.1534   48.5679   26.5779 H   0  0  0  0  0  0  0  0  0  0  0  0
    3.9449   48.8862   27.4838 H   0  0  0  0  0  0  0  0  0  0  0  0
    3.8765   53.7077   28.7631 H   0  0  0  0  0  0  0  0  0  0  0  0
   -0.1104   51.3619   27.6746 H   0  0  0  0  0  0  0  0  0  0  0  0
    0.4943   51.7968   26.0055 H   0  0  0  0  0  0  0  0  0  0  0  0
    9.8214   40.7199   31.7634 H   0  0  0  0  0  0  0  0  0  0  0  0
   11.3802   41.5436   31.4661 H   0  0  0  0  0  0  0  0  0  0  0  0
   11.6999   39.5040   30.3482 H   0  0  0  0  0  0  0  0  0  0  0  0
   10.1085   38.2766   32.6603 H   0  0  0  0  0  0  0  0  0  0  0  0
   13.6680   37.4521   31.2229 H   0  0  0  0  0  0  0  0  0  0  0  0
    9.0016   37.3867   30.9349 H   0  0  0  0  0  0  0  0  0  0  0  0
   11.2667   36.3062   32.5083 H   0  0  0  0  0  0  0  0  0  0  0  0
   12.1389   35.5126   30.6150 H   0  0  0  0  0  0  0  0  0  0  0  0
   12.3300   38.3529   34.7449 H   0  0  0  0  0  0  0  0  0  0  0  0
   16.7560   34.1779   32.4621 H   0  0  0  0  0  0  0  0  0  0  0  0
   16.6347   34.5298   37.1416 H   0  0  0  0  0  0  0  0  0  0  0  0
   15.3534   35.7359   37.5140 H   0  0  0  0  0  0  0  0  0  0  0  0
  1  2  2  0
  1  3  1  0
  3  4  1  0
  4  5  1  0
  6  1  1  0
  7  6  1  0
  6  8  1  0
  8  9  1  0
  9 10  2  0
 11  9  1  0
 10 12  1  0
 13 11  2  0
 12 14  2  0
 14 13  1  0
 14 15  1  0
 15 16  1  0
 16 17  1  0
 16 18  1  0
 18 19  2  0
 20 18  1  0
 19 21  1  0
 22 20  2  0
 20 23  1  0
 21 24  1  0
 21 25  2  0
 25 22  1  0
 23 26  1  0
 23 27  2  0
 24 28  1  0
 25 29  1  0
 28 29  1  0
  4 30  2  0
  4 31  1  0
 32 31  1  0
 32 33  1  0
 33 34  1  0
 33 35  1  0
 34 36  1  0
 35 37  1  0
 35 38  1  0
 38 36  1  0
 36 39  1  0
 38 40  1  0
 41 39  1  0
 42 39  1  0
 43 41  2  0
 41 44  1  0
 45 42  2  0
 46 43  1  0
 44 47  2  0
 44 45  1  0
 48 46  2  0
 48 47  1  0
 47 49  1  0
  6 50  1  1
  7 51  1  0
  7 52  1  0
  8 53  1  0
  8 54  1  0
 10 55  1  0
 11 56  1  0
 12 57  1  0
 13 58  1  0
 16 59  1  1
 17 60  1  0
 17 61  1  0
 17 62  1  0
 19 63  1  0
 22 64  1  0
 28 65  1  0
 28 66  1  0
 32 67  1  0
 32 68  1  0
 33 69  1  0
 35 70  1  0
 36 71  1  0
 37 72  1  0
 38 73  1  0
 40 74  1  0
 42 75  1  0
 46 76  1  0
 49 77  1  0
 49 78  1  0
M  CHG  3   5  -1  23   1  26  -1
M  END
>  <EmbedRMS>  (5) 
0.0822217678529

$$$$

     RDKit          3D

 78 83  0  0  0  0  0  0  0  0999 V2000
   10.2835   43.7662   33.8256 C   0  0  0  0  0  0  0  0  0  0  0  0
   11.4102   43.5929   34.3752 O   0  0  0  0  0  0  0  0  0  0  0  0
    9.3637   42.7255   33.7349 O   0  0  0  0  0  0  0  0  0  0  0  0
    9.8902   41.2267   34.2942 P   0  0  0  0  0  0  0  0  0  0  0  0
   10.3736   41.4561   35.8836 O   0  0  0  0  0  0  0  0  0  0  0  0
    9.9548   45.0695   33.2036 C   0  0  1  0  0  0  0  0  0  0  0  0
   11.0274   46.0322   33.4760 N   0  0  0  0  0  0  0  0  0  0  0  0
    9.7471   44.8484   31.6876 C   0  0  0  0  0  0  0  0  0  0  0  0
    8.7925   45.8410   31.0846 C   0  0  0  0  0  0  0  0  0  0  0  0
    7.4059   45.6010   31.0991 C   0  0  0  0  0  0  0  0  0  0  0  0
    9.2817   46.9876   30.4419 C   0  0  0  0  0  0  0  0  0  0  0  0
    6.5242   46.5006   30.4841 C   0  0  0  0  0  0  0  0  0  0  0  0
    8.4005   47.8875   29.8318 C   0  0  0  0  0  0  0  0  0  0  0  0
    7.0184   47.6578   29.8469 C   0  0  0  0  0  0  0  0  0  0  0  0
    6.1878   48.5963   29.2127 O   0  0  0  0  0  0  0  0  0  0  0  0
    4.7579   48.6010   29.2234 C   0  0  1  0  0  0  0  0  0  0  0  0
    4.2147   49.0229   30.5939 C   0  0  0  0  0  0  0  0  0  0  0  0
    4.2128   49.5170   28.1403 C   0  0  0  0  0  0  0  0  0  0  0  0
    2.9626   49.1735   27.5691 C   0  0  0  0  0  0  0  0  0  0  0  0
    4.9067   50.6797   27.6538 C   0  0  0  0  0  0  0  0  0  0  0  0
    2.4627   49.9555   26.5367 C   0  0  0  0  0  0  0  0  0  0  0  0
    4.3533   51.4272   26.5884 C   0  0  0  0  0  0  0  0  0  0  0  0
    6.1529   51.1177   28.2173 N   0  0  0  0  0  0  0  0  0  0  0  0
    1.2813   49.8014   25.8371 O   0  0  0  0  0  0  0  0  0  0  0  0
    3.1306   51.0318   26.0642 C   0  0  0  0  0  0  0  0  0  0  0  0
    6.2701   51.3112   29.5735 O   0  0  0  0  0  0  0  0  0  0  0  0
    7.0588   51.5397   27.4693 O   0  0  0  0  0  0  0  0  0  0  0  0
    1.2043   50.8509   24.8627 C   0  0  0  0  0  0  0  0  0  0  0  0
    2.4054   51.6136   25.0422 O   0  0  0  0  0  0  0  0  0  0  0  0
    8.8121   40.1850   34.2131 O   0  0  0  0  0  0  0  0  0  0  0  0
   11.2404   40.7941   33.3690 O   0  0  0  0  0  0  0  0  0  0  0  0
   10.9143   40.6898   31.9972 C   0  0  0  0  0  0  0  0  0  0  0  0
   11.5261   39.3885   31.4376 C   0  0  0  0  0  0  0  0  0  0  0  0
   12.7504   39.0888   32.0816 O   0  0  0  0  0  0  0  0  0  0  0  0
   10.6115   38.1910   31.6460 C   0  0  0  0  0  0  0  0  0  0  0  0
   12.9357   37.6812   32.0303 C   0  0  0  0  0  0  0  0  0  0  0  0
    9.6146   38.0859   30.6534 O   0  0  0  0  0  0  0  0  0  0  0  0
   11.5769   37.0148   31.7012 C   0  0  0  0  0  0  0  0  0  0  0  0
   13.4849   37.2112   33.3247 N   0  0  0  0  0  0  0  0  0  0  0  0
   11.6193   36.3261   30.4724 O   0  0  0  0  0  0  0  0  0  0  0  0
   14.4802   36.3313   33.5730 C   0  0  0  0  0  0  0  0  0  0  0  0
   13.1141   37.6268   34.5698 C   0  0  0  0  0  0  0  0  0  0  0  0
   15.2075   35.6151   32.6741 N   0  0  0  0  0  0  0  0  0  0  0  0
   14.6761   36.2300   34.9184 C   0  0  0  0  0  0  0  0  0  0  0  0
   13.8220   37.0445   35.5789 N   0  0  0  0  0  0  0  0  0  0  0  0
   16.1642   34.7600   33.1547 C   0  0  0  0  0  0  0  0  0  0  0  0
   15.6529   35.3503   35.4131 C   0  0  0  0  0  0  0  0  0  0  0  0
   16.3798   34.6314   34.5042 N   0  0  0  0  0  0  0  0  0  0  0  0
   15.9004   35.1930   36.8090 N   0  0  0  0  0  0  0  0  0  0  0  0
    9.0121   45.4317   33.6713 H   0  0  0  0  0  0  0  0  0  0  0  0
   10.7261   46.9688   33.1215 H   0  0  0  0  0  0  0  0  0  0  0  0
   11.8908   45.7658   32.9476 H   0  0  0  0  0  0  0  0  0  0  0  0
    9.3425   43.8332   31.4759 H   0  0  0  0  0  0  0  0  0  0  0  0
   10.7235   44.8824   31.1558 H   0  0  0  0  0  0  0  0  0  0  0  0
    7.0106   44.7150   31.5805 H   0  0  0  0  0  0  0  0  0  0  0  0
   10.3461   47.1858   30.4097 H   0  0  0  0  0  0  0  0  0  0  0  0
    5.4673   46.2793   30.5112 H   0  0  0  0  0  0  0  0  0  0  0  0
    8.7940   48.7692   29.3417 H   0  0  0  0  0  0  0  0  0  0  0  0
    4.4045   47.5699   29.0028 H   0  0  0  0  0  0  0  0  0  0  0  0
    3.1082   48.9254   30.6082 H   0  0  0  0  0  0  0  0  0  0  0  0
    4.4774   50.0750   30.8228 H   0  0  0  0  0  0  0  0  0  0  0  0
    4.6271   48.3776   31.3958 H   0  0  0  0  0  0  0  0  0  0  0  0
    2.4014   48.3133   27.9125 H   0  0  0  0  0  0  0  0  0  0  0  0
    4.8533   52.3037   26.1967 H   0  0  0  0  0  0  0  0  0  0  0  0
    0.3145   51.4869   25.0527 H   0  0  0  0  0  0  0  0  0  0  0  0
    1.1717   50.4228   23.8389 H   0  0  0  0  0  0  0  0  0  0  0  0
   11.3779   41.5526   31.4726 H   0  0  0  0  0  0  0  0  0  0  0  0
    9.8233   40.7191   31.7647 H   0  0  0  0  0  0  0  0  0  0  0  0
   11.7283   39.5312   30.3515 H   0  0  0  0  0  0  0  0  0  0  0  0
   10.1127   38.2734   32.6377 H   0  0  0  0  0  0  0  0  0  0  0  0
   13.6692   37.4566   31.2242 H   0  0  0  0  0  0  0  0  0  0  0  0
   10.0533   38.1118   29.7636 H   0  0  0  0  0  0  0  0  0  0  0  0
   11.2607   36.3148   32.5102 H   0  0  0  0  0  0  0  0  0  0  0  0
   12.1496   35.5023   30.6324 H   0  0  0  0  0  0  0  0  0  0  0  0
   12.3301   38.3524   34.7455 H   0  0  0  0  0  0  0  0  0  0  0  0
   16.7563   34.1781   32.4619 H   0  0  0  0  0  0  0  0  0  0  0  0
   15.3536   35.7357   37.5139 H   0  0  0  0  0  0  0  0  0  0  0  0
   16.6351   34.5298   37.1415 H   0  0  0  0  0  0  0  0  0  0  0  0
  1  2  2  0
  1  3  1  0
  3  4  1  0
  4  5  1  0
  6  1  1  0
  7  6  1  0
  6  8  1  0
  8  9  1  0
  9 10  2  0
 11  9  1  0
 10 12  1  0
 13 11  2  0
 12 14  2  0
 14 13  1  0
 14 15  1  0
 15 16  1  0
 16 17  1  0
 16 18  1  0
 18 19  2  0
 20 18  1  0
 19 21  1  0
 22 20  2  0
 20 23  1  0
 21 24  1  0
 21 25  2  0
 25 22  1  0
 23 26  1  0
 23 27  2  0
 24 28  1  0
 25 29  1  0
 28 29  1  0
  4 30  2  0
  4 31  1  0
 32 31  1  0
 32 33  1  0
 33 34  1  0
 33 35  1  0
 34 36  1  0
 35 37  1  0
 35 38  1  0
 38 36  1  0
 36 39  1  0
 38 40  1  0
 41 39  1  0
 42 39  1  0
 43 41  2  0
 41 44  1  0
 45 42  2  0
 46 43  1  0
 44 47  2  0
 44 45  1  0
 48 46  2  0
 48 47  1  0
 47 49  1  0
  6 50  1  1
  7 51  1  0
  7 52  1  0
  8 53  1  0
  8 54  1  0
 10 55  1  0
 11 56  1  0
 12 57  1  0
 13 58  1  0
 16 59  1  6
 17 60  1  0
 17 61  1  0
 17 62  1  0
 19 63  1  0
 22 64  1  0
 28 65  1  0
 28 66  1  0
 32 67  1  0
 32 68  1  0
 33 69  1  0
 35 70  1  0
 36 71  1  0
 37 72  1  0
 38 73  1  0
 40 74  1  0
 42 75  1  0
 46 76  1  0
 49 77  1  0
 49 78  1  0
M  CHG  3   5  -1  23   1  26  -1
M  END
>  <EmbedRMS>  (6) 
0.0815981980935

$$$$

     RDKit          3D

 78 83  0  0  0  0  0  0  0  0999 V2000
   10.2835   43.7661   33.8255 C   0  0  0  0  0  0  0  0  0  0  0  0
   11.4102   43.5930   34.3753 O   0  0  0  0  0  0  0  0  0  0  0  0
    9.3639   42.7253   33.7346 O   0  0  0  0  0  0  0  0  0  0  0  0
    9.8906   41.2265   34.2938 P   0  0  0  0  0  0  0  0  0  0  0  0
   10.3733   41.4559   35.8835 O   0  0  0  0  0  0  0  0  0  0  0  0
    9.9547   45.0694   33.2034 C   0  0  1  0  0  0  0  0  0  0  0  0
   11.0273   46.0322   33.4758 N   0  0  0  0  0  0  0  0  0  0  0  0
    9.7471   44.8483   31.6874 C   0  0  0  0  0  0  0  0  0  0  0  0
    8.7925   45.8407   31.0841 C   0  0  0  0  0  0  0  0  0  0  0  0
    7.4058   45.6011   31.0997 C   0  0  0  0  0  0  0  0  0  0  0  0
    9.2816   46.9882   30.4425 C   0  0  0  0  0  0  0  0  0  0  0  0
    6.5244   46.5014   30.4859 C   0  0  0  0  0  0  0  0  0  0  0  0
    8.4004   47.8887   29.8330 C   0  0  0  0  0  0  0  0  0  0  0  0
    7.0189   47.6555   29.8442 C   0  0  0  0  0  0  0  0  0  0  0  0
    6.1825   48.5882   29.2091 O   0  0  0  0  0  0  0  0  0  0  0  0
    4.7671   48.4557   29.0512 C   0  0  1  0  0  0  0  0  0  0  0  0
    4.2069   49.7727   28.5174 C   0  0  0  0  0  0  0  0  0  0  0  0
    4.4405   47.3247   28.0901 C   0  0  0  0  0  0  0  0  0  0  0  0
    5.2058   47.2033   26.9041 C   0  0  0  0  0  0  0  0  0  0  0  0
    3.4245   46.3515   28.3717 C   0  0  0  0  0  0  0  0  0  0  0  0
    4.9709   46.1177   26.0711 C   0  0  0  0  0  0  0  0  0  0  0  0
    3.2428   45.2585   27.4945 C   0  0  0  0  0  0  0  0  0  0  0  0
    2.5687   46.4603   29.5197 N   0  0  0  0  0  0  0  0  0  0  0  0
    5.5996   45.7939   24.8842 O   0  0  0  0  0  0  0  0  0  0  0  0
    4.0350   45.1836   26.3566 C   0  0  0  0  0  0  0  0  0  0  0  0
    2.1550   45.3227   30.1734 O   0  0  0  0  0  0  0  0  0  0  0  0
    2.0107   47.5443   29.7868 O   0  0  0  0  0  0  0  0  0  0  0  0
    5.0188   44.5778   24.3937 C   0  0  0  0  0  0  0  0  0  0  0  0
    4.0239   44.2228   25.3637 O   0  0  0  0  0  0  0  0  0  0  0  0
    8.8126   40.1848   34.2122 O   0  0  0  0  0  0  0  0  0  0  0  0
   11.2417   40.7943   33.3694 O   0  0  0  0  0  0  0  0  0  0  0  0
   10.9179   40.6904   31.9970 C   0  0  0  0  0  0  0  0  0  0  0  0
   11.5181   39.3814   31.4408 C   0  0  0  0  0  0  0  0  0  0  0  0
   12.7497   39.0870   32.0745 O   0  0  0  0  0  0  0  0  0  0  0  0
   10.6045   38.1891   31.6655 C   0  0  0  0  0  0  0  0  0  0  0  0
   12.9344   37.6801   32.0290 C   0  0  0  0  0  0  0  0  0  0  0  0
    9.6418   38.0758   30.6441 O   0  0  0  0  0  0  0  0  0  0  0  0
   11.5741   37.0170   31.7045 C   0  0  0  0  0  0  0  0  0  0  0  0
   13.4851   37.2125   33.3241 N   0  0  0  0  0  0  0  0  0  0  0  0
   11.6079   36.3407   30.4680 O   0  0  0  0  0  0  0  0  0  0  0  0
   14.4801   36.3321   33.5727 C   0  0  0  0  0  0  0  0  0  0  0  0
   13.1140   37.6277   34.5693 C   0  0  0  0  0  0  0  0  0  0  0  0
   15.2073   35.6155   32.6739 N   0  0  0  0  0  0  0  0  0  0  0  0
   14.6758   36.2306   34.9182 C   0  0  0  0  0  0  0  0  0  0  0  0
   13.8217   37.0451   35.5785 N   0  0  0  0  0  0  0  0  0  0  0  0
   16.1639   34.7602   33.1546 C   0  0  0  0  0  0  0  0  0  0  0  0
   15.6526   35.3506   35.4130 C   0  0  0  0  0  0  0  0  0  0  0  0
   16.3794   34.6316   34.5041 N   0  0  0  0  0  0  0  0  0  0  0  0
   15.9001   35.1933   36.8089 N   0  0  0  0  0  0  0  0  0  0  0  0
    9.0120   45.4316   33.6711 H   0  0  0  0  0  0  0  0  0  0  0  0
   11.8907   45.7659   32.9474 H   0  0  0  0  0  0  0  0  0  0  0  0
   10.7260   46.9688   33.1214 H   0  0  0  0  0  0  0  0  0  0  0  0
    9.3425   43.8330   31.4756 H   0  0  0  0  0  0  0  0  0  0  0  0
   10.7235   44.8823   31.1556 H   0  0  0  0  0  0  0  0  0  0  0  0
    7.0100   44.7164   31.5833 H   0  0  0  0  0  0  0  0  0  0  0  0
   10.3459   47.1867   30.4109 H   0  0  0  0  0  0  0  0  0  0  0  0
    5.4659   46.2887   30.5207 H   0  0  0  0  0  0  0  0  0  0  0  0
    8.7937   48.7700   29.3424 H   0  0  0  0  0  0  0  0  0  0  0  0
    4.3238   48.2860   30.0538 H   0  0  0  0  0  0  0  0  0  0  0  0
    4.6727   50.0299   27.5421 H   0  0  0  0  0  0  0  0  0  0  0  0
    4.4210   50.5903   29.2380 H   0  0  0  0  0  0  0  0  0  0  0  0
    3.1065   49.6995   28.3847 H   0  0  0  0  0  0  0  0  0  0  0  0
    5.9764   47.9208   26.6518 H   0  0  0  0  0  0  0  0  0  0  0  0
    2.4893   44.5044   27.6819 H   0  0  0  0  0  0  0  0  0  0  0  0
    4.5451   44.7502   23.4045 H   0  0  0  0  0  0  0  0  0  0  0  0
    5.7908   43.7827   24.3280 H   0  0  0  0  0  0  0  0  0  0  0  0
    9.8290   40.7386   31.7617 H   0  0  0  0  0  0  0  0  0  0  0  0
   11.3945   41.5458   31.4722 H   0  0  0  0  0  0  0  0  0  0  0  0
   11.6994   39.5069   30.3484 H   0  0  0  0  0  0  0  0  0  0  0  0
   10.1090   38.2635   32.6632 H   0  0  0  0  0  0  0  0  0  0  0  0
   13.6662   37.4515   31.2224 H   0  0  0  0  0  0  0  0  0  0  0  0
    8.9010   38.6926   30.8792 H   0  0  0  0  0  0  0  0  0  0  0  0
   11.2650   36.3083   32.5087 H   0  0  0  0  0  0  0  0  0  0  0  0
   12.1372   35.5140   30.6163 H   0  0  0  0  0  0  0  0  0  0  0  0
   12.3297   38.3530   34.7450 H   0  0  0  0  0  0  0  0  0  0  0  0
   16.7558   34.1781   32.4618 H   0  0  0  0  0  0  0  0  0  0  0  0
   16.6346   34.5300   37.1414 H   0  0  0  0  0  0  0  0  0  0  0  0
   15.3533   35.7360   37.5138 H   0  0  0  0  0  0  0  0  0  0  0  0
  1  2  2  0
  1  3  1  0
  3  4  1  0
  4  5  1  0
  6  1  1  0
  7  6  1  0
  6  8  1  0
  8  9  1  0
  9 10  2  0
 11  9  1  0
 10 12  1  0
 13 11  2  0
 12 14  2  0
 14 13  1  0
 14 15  1  0
 15 16  1  0
 16 17  1  0
 16 18  1  0
 18 19  2  0
 20 18  1  0
 19 21  1  0
 22 20  2  0
 20 23  1  0
 21 24  1  0
 21 25  2  0
 25 22  1  0
 23 26  1  0
 23 27  2  0
 24 28  1  0
 25 29  1  0
 28 29  1  0
  4 30  2  0
  4 31  1  0
 32 31  1  0
 32 33  1  0
 33 34  1  0
 33 35  1  0
 34 36  1  0
 35 37  1  0
 35 38  1  0
 38 36  1  0
 36 39  1  0
 38 40  1  0
 41 39  1  0
 42 39  1  0
 43 41  2  0
 41 44  1  0
 45 42  2  0
 46 43  1  0
 44 47  2  0
 44 45  1  0
 48 46  2  0
 48 47  1  0
 47 49  1  0
  6 50  1  1
  7 51  1  0
  7 52  1  0
  8 53  1  0
  8 54  1  0
 10 55  1  0
 11 56  1  0
 12 57  1  0
 13 58  1  0
 16 59  1  1
 17 60  1  0
 17 61  1  0
 17 62  1  0
 19 63  1  0
 22 64  1  0
 28 65  1  0
 28 66  1  0
 32 67  1  0
 32 68  1  0
 33 69  1  0
 35 70  1  0
 36 71  1  0
 37 72  1  0
 38 73  1  0
 40 74  1  0
 42 75  1  0
 46 76  1  0
 49 77  1  0
 49 78  1  0
M  CHG  3   5  -1  23   1  26  -1
M  END
>  <EmbedRMS>  (7) 
0.0828279568895

$$$$

     RDKit          3D

 78 83  0  0  0  0  0  0  0  0999 V2000
   10.2834   43.7662   33.8256 C   0  0  0  0  0  0  0  0  0  0  0  0
   11.4101   43.5930   34.3752 O   0  0  0  0  0  0  0  0  0  0  0  0
    9.3636   42.7255   33.7348 O   0  0  0  0  0  0  0  0  0  0  0  0
    9.8905   41.2266   34.2933 P   0  0  0  0  0  0  0  0  0  0  0  0
   10.3743   41.4557   35.8827 O   0  0  0  0  0  0  0  0  0  0  0  0
    9.9547   45.0695   33.2035 C   0  0  1  0  0  0  0  0  0  0  0  0
   11.0273   46.0322   33.4759 N   0  0  0  0  0  0  0  0  0  0  0  0
    9.7471   44.8484   31.6874 C   0  0  0  0  0  0  0  0  0  0  0  0
    8.7925   45.8409   31.0843 C   0  0  0  0  0  0  0  0  0  0  0  0
    7.4058   45.6011   31.0996 C   0  0  0  0  0  0  0  0  0  0  0  0
    9.2816   46.9881   30.4423 C   0  0  0  0  0  0  0  0  0  0  0  0
    6.5246   46.5015   30.4856 C   0  0  0  0  0  0  0  0  0  0  0  0
    8.4003   47.8884   29.8326 C   0  0  0  0  0  0  0  0  0  0  0  0
    7.0187   47.6558   29.8449 C   0  0  0  0  0  0  0  0  0  0  0  0
    6.1822   48.5888   29.2106 O   0  0  0  0  0  0  0  0  0  0  0  0
    4.7603   48.4826   29.0926 C   0  0  1  0  0  0  0  0  0  0  0  0
    4.2146   49.7982   28.5426 C   0  0  0  0  0  0  0  0  0  0  0  0
    4.3699   47.3424   28.1664 C   0  0  0  0  0  0  0  0  0  0  0  0
    5.1633   47.0915   27.0191 C   0  0  0  0  0  0  0  0  0  0  0  0
    3.1703   46.5838   28.3655 C   0  0  0  0  0  0  0  0  0  0  0  0
    4.7581   46.0995   26.1357 C   0  0  0  0  0  0  0  0  0  0  0  0
    2.8000   45.5966   27.4251 C   0  0  0  0  0  0  0  0  0  0  0  0
    2.3142   46.8156   29.4920 N   0  0  0  0  0  0  0  0  0  0  0  0
    5.3727   45.6840   24.9702 O   0  0  0  0  0  0  0  0  0  0  0  0
    3.6264   45.3839   26.3298 C   0  0  0  0  0  0  0  0  0  0  0  0
    2.7900   46.6139   30.7665 O   0  0  0  0  0  0  0  0  0  0  0  0
    1.0829   46.9254   29.3192 O   0  0  0  0  0  0  0  0  0  0  0  0
    4.5754   44.6379   24.3984 C   0  0  0  0  0  0  0  0  0  0  0  0
    3.4698   44.4785   25.2980 O   0  0  0  0  0  0  0  0  0  0  0  0
    8.8121   40.1851   34.2127 O   0  0  0  0  0  0  0  0  0  0  0  0
   11.2403   40.7946   33.3668 O   0  0  0  0  0  0  0  0  0  0  0  0
   10.9126   40.6859   31.9953 C   0  0  0  0  0  0  0  0  0  0  0  0
   11.5175   39.3787   31.4405 C   0  0  0  0  0  0  0  0  0  0  0  0
   12.7490   39.0864   32.0752 O   0  0  0  0  0  0  0  0  0  0  0  0
   10.6061   38.1868   31.6656 C   0  0  0  0  0  0  0  0  0  0  0  0
   12.9355   37.6796   32.0292 C   0  0  0  0  0  0  0  0  0  0  0  0
    9.6399   38.0903   30.6471 O   0  0  0  0  0  0  0  0  0  0  0  0
   11.5765   37.0145   31.7044 C   0  0  0  0  0  0  0  0  0  0  0  0
   13.4858   37.2125   33.3244 N   0  0  0  0  0  0  0  0  0  0  0  0
   11.6101   36.3397   30.4673 O   0  0  0  0  0  0  0  0  0  0  0  0
   14.4805   36.3319   33.5729 C   0  0  0  0  0  0  0  0  0  0  0  0
   13.1143   37.6276   34.5694 C   0  0  0  0  0  0  0  0  0  0  0  0
   15.2076   35.6153   32.6741 N   0  0  0  0  0  0  0  0  0  0  0  0
   14.6760   36.2304   34.9184 C   0  0  0  0  0  0  0  0  0  0  0  0
   13.8219   37.0449   35.5786 N   0  0  0  0  0  0  0  0  0  0  0  0
   16.1641   34.7600   33.1548 C   0  0  0  0  0  0  0  0  0  0  0  0
   15.6528   35.3505   35.4132 C   0  0  0  0  0  0  0  0  0  0  0  0
   16.3795   34.6314   34.5043 N   0  0  0  0  0  0  0  0  0  0  0  0
   15.9001   35.1932   36.8091 N   0  0  0  0  0  0  0  0  0  0  0  0
    9.0120   45.4317   33.6712 H   0  0  0  0  0  0  0  0  0  0  0  0
   10.7261   46.9688   33.1214 H   0  0  0  0  0  0  0  0  0  0  0  0
   11.8908   45.7658   32.9475 H   0  0  0  0  0  0  0  0  0  0  0  0
   10.7235   44.8824   31.1556 H   0  0  0  0  0  0  0  0  0  0  0  0
    9.3425   43.8331   31.4757 H   0  0  0  0  0  0  0  0  0  0  0  0
    7.0100   44.7159   31.5822 H   0  0  0  0  0  0  0  0  0  0  0  0
   10.3459   47.1865   30.4104 H   0  0  0  0  0  0  0  0  0  0  0  0
    5.4669   46.2873   30.5155 H   0  0  0  0  0  0  0  0  0  0  0  0
    8.7936   48.7696   29.3417 H   0  0  0  0  0  0  0  0  0  0  0  0
    4.3367   48.3533   30.1075 H   0  0  0  0  0  0  0  0  0  0  0  0
    3.1068   49.7532   28.4666 H   0  0  0  0  0  0  0  0  0  0  0  0
    4.6400   50.0071   27.5374 H   0  0  0  0  0  0  0  0  0  0  0  0
    4.4872   50.6321   29.2237 H   0  0  0  0  0  0  0  0  0  0  0  0
    6.0616   47.6598   26.8142 H   0  0  0  0  0  0  0  0  0  0  0  0
    1.8991   45.0100   27.5514 H   0  0  0  0  0  0  0  0  0  0  0  0
    4.2115   44.9380   23.3935 H   0  0  0  0  0  0  0  0  0  0  0  0
    5.1611   43.6965   24.3407 H   0  0  0  0  0  0  0  0  0  0  0  0
   11.3804   41.5437   31.4663 H   0  0  0  0  0  0  0  0  0  0  0  0
    9.8215   40.7200   31.7635 H   0  0  0  0  0  0  0  0  0  0  0  0
   11.6998   39.5041   30.3482 H   0  0  0  0  0  0  0  0  0  0  0  0
   10.1085   38.2767   32.6603 H   0  0  0  0  0  0  0  0  0  0  0  0
   13.6679   37.4520   31.2229 H   0  0  0  0  0  0  0  0  0  0  0  0
    9.0016   37.3868   30.9349 H   0  0  0  0  0  0  0  0  0  0  0  0
   11.2666   36.3062   32.5083 H   0  0  0  0  0  0  0  0  0  0  0  0
   12.1389   35.5126   30.6150 H   0  0  0  0  0  0  0  0  0  0  0  0
   12.3300   38.3529   34.7449 H   0  0  0  0  0  0  0  0  0  0  0  0
   16.7560   34.1779   32.4621 H   0  0  0  0  0  0  0  0  0  0  0  0
   16.6347   34.5299   37.1416 H   0  0  0  0  0  0  0  0  0  0  0  0
   15.3534   35.7359   37.5140 H   0  0  0  0  0  0  0  0  0  0  0  0
  1  2  2  0
  1  3  1  0
  3  4  1  0
  4  5  1  0
  6  1  1  0
  7  6  1  0
  6  8  1  0
  8  9  1  0
  9 10  2  0
 11  9  1  0
 10 12  1  0
 13 11  2  0
 12 14  2  0
 14 13  1  0
 14 15  1  0
 15 16  1  0
 16 17  1  0
 16 18  1  0
 18 19  2  0
 20 18  1  0
 19 21  1  0
 22 20  2  0
 20 23  1  0
 21 24  1  0
 21 25  2  0
 25 22  1  0
 23 26  1  0
 23 27  2  0
 24 28  1  0
 25 29  1  0
 28 29  1  0
  4 30  2  0
  4 31  1  0
 32 31  1  0
 32 33  1  0
 33 34  1  0
 33 35  1  0
 34 36  1  0
 35 37  1  0
 35 38  1  0
 38 36  1  0
 36 39  1  0
 38 40  1  0
 41 39  1  0
 42 39  1  0
 43 41  2  0
 41 44  1  0
 45 42  2  0
 46 43  1  0
 44 47  2  0
 44 45  1  0
 48 46  2  0
 48 47  1  0
 47 49  1  0
  6 50  1  1
  7 51  1  0
  7 52  1  0
  8 53  1  0
  8 54  1  0
 10 55  1  0
 11 56  1  0
 12 57  1  0
 13 58  1  0
 16 59  1  1
 17 60  1  0
 17 61  1  0
 17 62  1  0
 19 63  1  0
 22 64  1  0
 28 65  1  0
 28 66  1  0
 32 67  1  0
 32 68  1  0
 33 69  1  0
 35 70  1  0
 36 71  1  0
 37 72  1  0
 38 73  1  0
 40 74  1  0
 42 75  1  0
 46 76  1  0
 49 77  1  0
 49 78  1  0
M  CHG  3   5  -1  23   1  26  -1
M  END
>  <EmbedRMS>  (8) 
0.0823940879987

$$$$

     RDKit          3D

 78 83  0  0  0  0  0  0  0  0999 V2000
   10.2839   43.7626   33.8277 C   0  0  0  0  0  0  0  0  0  0  0  0
   11.4104   43.5863   34.3767 O   0  0  0  0  0  0  0  0  0  0  0  0
    9.3631   42.7236   33.7357 O   0  0  0  0  0  0  0  0  0  0  0  0
    9.8895   41.2249   34.2948 P   0  0  0  0  0  0  0  0  0  0  0  0
   10.3720   41.4546   35.8844 O   0  0  0  0  0  0  0  0  0  0  0  0
    9.9549   45.0698   33.2064 C   0  0  1  0  0  0  0  0  0  0  0  0
   11.0198   46.0480   33.4568 N   0  0  0  0  0  0  0  0  0  0  0  0
    9.7503   44.8506   31.6924 C   0  0  0  0  0  0  0  0  0  0  0  0
    8.7943   45.8412   31.0870 C   0  0  0  0  0  0  0  0  0  0  0  0
    7.4082   45.6011   31.1003 C   0  0  0  0  0  0  0  0  0  0  0  0
    9.2821   46.9883   30.4453 C   0  0  0  0  0  0  0  0  0  0  0  0
    6.5299   46.5025   30.4845 C   0  0  0  0  0  0  0  0  0  0  0  0
    8.4025   47.8894   29.8332 C   0  0  0  0  0  0  0  0  0  0  0  0
    7.0136   47.6535   29.8454 C   0  0  0  0  0  0  0  0  0  0  0  0
    6.0694   48.5071   29.2457 O   0  0  0  0  0  0  0  0  0  0  0  0
    6.2961   49.7109   28.5008 C   0  0  1  0  0  0  0  0  0  0  0  0
    6.7314   50.8493   29.4369 C   0  0  0  0  0  0  0  0  0  0  0  0
    7.1665   49.4770   27.2647 C   0  0  0  0  0  0  0  0  0  0  0  0
    8.4433   50.0927   27.1467 C   0  0  0  0  0  0  0  0  0  0  0  0
    6.6712   48.7034   26.1565 C   0  0  0  0  0  0  0  0  0  0  0  0
    9.1779   49.8947   25.9859 C   0  0  0  0  0  0  0  0  0  0  0  0
    7.4625   48.5512   24.9956 C   0  0  0  0  0  0  0  0  0  0  0  0
    5.3559   48.1233   26.1578 N   0  0  0  0  0  0  0  0  0  0  0  0
   10.4322   50.3815   25.6712 O   0  0  0  0  0  0  0  0  0  0  0  0
    8.7094   49.1557   24.9570 C   0  0  0  0  0  0  0  0  0  0  0  0
    4.6150   48.1173   24.9985 O   0  0  0  0  0  0  0  0  0  0  0  0
    4.9660   47.4325   27.1200 O   0  0  0  0  0  0  0  0  0  0  0  0
   10.7715   49.9140   24.3587 C   0  0  0  0  0  0  0  0  0  0  0  0
    9.6429   49.1355   23.9386 O   0  0  0  0  0  0  0  0  0  0  0  0
    8.8117   40.1831   34.2124 O   0  0  0  0  0  0  0  0  0  0  0  0
   11.2411   40.7939   33.3709 O   0  0  0  0  0  0  0  0  0  0  0  0
   10.9179   40.6920   31.9985 C   0  0  0  0  0  0  0  0  0  0  0  0
   11.5175   39.3837   31.4422 C   0  0  0  0  0  0  0  0  0  0  0  0
   12.7508   39.0887   32.0751 O   0  0  0  0  0  0  0  0  0  0  0  0
   10.6028   38.1916   31.6658 C   0  0  0  0  0  0  0  0  0  0  0  0
   12.9385   37.6818   32.0278 C   0  0  0  0  0  0  0  0  0  0  0  0
    9.6371   38.0805   30.6470 O   0  0  0  0  0  0  0  0  0  0  0  0
   11.5780   37.0215   31.6935 C   0  0  0  0  0  0  0  0  0  0  0  0
   13.4844   37.2119   33.3242 N   0  0  0  0  0  0  0  0  0  0  0  0
   11.6095   36.3201   30.4679 O   0  0  0  0  0  0  0  0  0  0  0  0
   14.4797   36.3318   33.5730 C   0  0  0  0  0  0  0  0  0  0  0  0
   13.1135   37.6277   34.5691 C   0  0  0  0  0  0  0  0  0  0  0  0
   15.2073   35.6155   32.6743 N   0  0  0  0  0  0  0  0  0  0  0  0
   14.6754   36.2305   34.9184 C   0  0  0  0  0  0  0  0  0  0  0  0
   13.8213   37.0452   35.5785 N   0  0  0  0  0  0  0  0  0  0  0  0
   16.1640   34.7604   33.1549 C   0  0  0  0  0  0  0  0  0  0  0  0
   15.6524   35.3507   35.4132 C   0  0  0  0  0  0  0  0  0  0  0  0
   16.3794   34.6317   34.5044 N   0  0  0  0  0  0  0  0  0  0  0  0
   15.8999   35.1934   36.8091 N   0  0  0  0  0  0  0  0  0  0  0  0
    9.0099   45.4348   33.6670 H   0  0  0  0  0  0  0  0  0  0  0  0
   11.9349   45.6933   33.0924 H   0  0  0  0  0  0  0  0  0  0  0  0
   11.1134   46.1992   34.4881 H   0  0  0  0  0  0  0  0  0  0  0  0
    9.3513   43.8340   31.4763 H   0  0  0  0  0  0  0  0  0  0  0  0
   10.7306   44.8922   31.1676 H   0  0  0  0  0  0  0  0  0  0  0  0
    7.0112   44.7160   31.5821 H   0  0  0  0  0  0  0  0  0  0  0  0
   10.3464   47.1880   30.4176 H   0  0  0  0  0  0  0  0  0  0  0  0
    5.4658   46.3033   30.5014 H   0  0  0  0  0  0  0  0  0  0  0  0
    8.8243   48.7572   29.3620 H   0  0  0  0  0  0  0  0  0  0  0  0
    5.3049   50.0350   28.1154 H   0  0  0  0  0  0  0  0  0  0  0  0
    5.9528   51.0051   30.2136 H   0  0  0  0  0  0  0  0  0  0  0  0
    7.6830   50.6235   29.9560 H   0  0  0  0  0  0  0  0  0  0  0  0
    6.8397   51.7960   28.8657 H   0  0  0  0  0  0  0  0  0  0  0  0
    8.8675   50.7080   27.9269 H   0  0  0  0  0  0  0  0  0  0  0  0
    7.1134   47.9756   24.1478 H   0  0  0  0  0  0  0  0  0  0  0  0
   11.6811   49.2788   24.4003 H   0  0  0  0  0  0  0  0  0  0  0  0
   10.9215   50.7732   23.6718 H   0  0  0  0  0  0  0  0  0  0  0  0
   11.3955   41.5477   31.4751 H   0  0  0  0  0  0  0  0  0  0  0  0
    9.8292   40.7410   31.7624 H   0  0  0  0  0  0  0  0  0  0  0  0
   11.6981   39.5116   30.3500 H   0  0  0  0  0  0  0  0  0  0  0  0
   10.1117   38.2603   32.6660 H   0  0  0  0  0  0  0  0  0  0  0  0
   13.6767   37.4555   31.2267 H   0  0  0  0  0  0  0  0  0  0  0  0
    8.8961   38.6951   30.8872 H   0  0  0  0  0  0  0  0  0  0  0  0
   11.2792   36.3072   32.4922 H   0  0  0  0  0  0  0  0  0  0  0  0
   11.8828   36.9598   29.7588 H   0  0  0  0  0  0  0  0  0  0  0  0
   12.3300   38.3538   34.7446 H   0  0  0  0  0  0  0  0  0  0  0  0
   16.7561   34.1785   32.4622 H   0  0  0  0  0  0  0  0  0  0  0  0
   16.6347   34.5303   37.1416 H   0  0  0  0  0  0  0  0  0  0  0  0
   15.3531   35.7360   37.5140 H   0  0  0  0  0  0  0  0  0  0  0  0
  1  2  2  0
  1  3  1  0
  3  4  1  0
  4  5  1  0
  6  1  1  0
  7  6  1  0
  6  8  1  0
  8  9  1  0
  9 10  2  0
 11  9  1  0
 10 12  1  0
 13 11  2  0
 12 14  2  0
 14 13  1  0
 14 15  1  0
 15 16  1  0
 16 17  1  0
 16 18  1  0
 18 19  2  0
 20 18  1  0
 19 21  1  0
 22 20  2  0
 20 23  1  0
 21 24  1  0
 21 25  2  0
 25 22  1  0
 23 26  1  0
 23 27  2  0
 24 28  1  0
 25 29  1  0
 28 29  1  0
  4 30  2  0
  4 31  1  0
 32 31  1  0
 32 33  1  0
 33 34  1  0
 33 35  1  0
 34 36  1  0
 35 37  1  0
 35 38  1  0
 38 36  1  0
 36 39  1  0
 38 40  1  0
 41 39  1  0
 42 39  1  0
 43 41  2  0
 41 44  1  0
 45 42  2  0
 46 43  1  0
 44 47  2  0
 44 45  1  0
 48 46  2  0
 48 47  1  0
 47 49  1  0
  6 50  1  1
  7 51  1  0
  7 52  1  0
  8 53  1  0
  8 54  1  0
 10 55  1  0
 11 56  1  0
 12 57  1  0
 13 58  1  0
 16 59  1  6
 17 60  1  0
 17 61  1  0
 17 62  1  0
 19 63  1  0
 22 64  1  0
 28 65  1  0
 28 66  1  0
 32 67  1  0
 32 68  1  0
 33 69  1  0
 35 70  1  0
 36 71  1  0
 37 72  1  0
 38 73  1  0
 40 74  1  0
 42 75  1  0
 46 76  1  0
 49 77  1  0
 49 78  1  0
M  CHG  3   5  -1  23   1  26  -1
M  END
>  <EmbedRMS>  (9) 
0.0828684348512

$$$$

     RDKit          3D

 78 83  0  0  0  0  0  0  0  0999 V2000
   10.2804   43.7664   33.8250 C   0  0  0  0  0  0  0  0  0  0  0  0
   11.4110   43.5918   34.3666 O   0  0  0  0  0  0  0  0  0  0  0  0
    9.3618   42.7250   33.7344 O   0  0  0  0  0  0  0  0  0  0  0  0
    9.8902   41.2265   34.2931 P   0  0  0  0  0  0  0  0  0  0  0  0
   10.3743   41.4563   35.8823 O   0  0  0  0  0  0  0  0  0  0  0  0
    9.9460   45.0736   33.2113 C   0  0  1  0  0  0  0  0  0  0  0  0
   11.0267   46.0292   33.4710 N   0  0  0  0  0  0  0  0  0  0  0  0
    9.7540   44.8543   31.6950 C   0  0  0  0  0  0  0  0  0  0  0  0
    8.7958   45.8414   31.0851 C   0  0  0  0  0  0  0  0  0  0  0  0
    7.4091   45.6000   31.1009 C   0  0  0  0  0  0  0  0  0  0  0  0
    9.2824   46.9876   30.4395 C   0  0  0  0  0  0  0  0  0  0  0  0
    6.5257   46.4984   30.4857 C   0  0  0  0  0  0  0  0  0  0  0  0
    8.3997   47.8866   29.8304 C   0  0  0  0  0  0  0  0  0  0  0  0
    7.0178   47.6561   29.8473 C   0  0  0  0  0  0  0  0  0  0  0  0
    6.1849   48.5934   29.2136 O   0  0  0  0  0  0  0  0  0  0  0  0
    4.7537   48.5913   29.2241 C   0  0  1  0  0  0  0  0  0  0  0  0
    4.2353   49.0416   30.5945 C   0  0  0  0  0  0  0  0  0  0  0  0
    4.2471   49.5362   28.1505 C   0  0  0  0  0  0  0  0  0  0  0  0
    4.8751   50.7989   28.0095 C   0  0  0  0  0  0  0  0  0  0  0  0
    3.1828   49.1798   27.2551 C   0  0  0  0  0  0  0  0  0  0  0  0
    4.4639   51.6340   26.9792 C   0  0  0  0  0  0  0  0  0  0  0  0
    2.8205   50.0645   26.2142 C   0  0  0  0  0  0  0  0  0  0  0  0
    2.4504   47.9524   27.3972 N   0  0  0  0  0  0  0  0  0  0  0  0
    4.9375   52.8895   26.6503 O   0  0  0  0  0  0  0  0  0  0  0  0
    3.4843   51.2800   26.1161 C   0  0  0  0  0  0  0  0  0  0  0  0
    1.9998   47.2927   26.2770 O   0  0  0  0  0  0  0  0  0  0  0  0
    2.0138   47.6072   28.5144 O   0  0  0  0  0  0  0  0  0  0  0  0
    4.2063   53.3525   25.5067 C   0  0  0  0  0  0  0  0  0  0  0  0
    3.2886   52.2943   25.1986 O   0  0  0  0  0  0  0  0  0  0  0  0
    8.8123   40.1844   34.2130 O   0  0  0  0  0  0  0  0  0  0  0  0
   11.2401   40.7949   33.3666 O   0  0  0  0  0  0  0  0  0  0  0  0
   10.9125   40.6859   31.9952 C   0  0  0  0  0  0  0  0  0  0  0  0
   11.5175   39.3786   31.4405 C   0  0  0  0  0  0  0  0  0  0  0  0
   12.7490   39.0864   32.0753 O   0  0  0  0  0  0  0  0  0  0  0  0
   10.6060   38.1867   31.6656 C   0  0  0  0  0  0  0  0  0  0  0  0
   12.9356   37.6796   32.0292 C   0  0  0  0  0  0  0  0  0  0  0  0
    9.6399   38.0902   30.6471 O   0  0  0  0  0  0  0  0  0  0  0  0
   11.5765   37.0145   31.7044 C   0  0  0  0  0  0  0  0  0  0  0  0
   13.4858   37.2125   33.3244 N   0  0  0  0  0  0  0  0  0  0  0  0
   11.6101   36.3397   30.4673 O   0  0  0  0  0  0  0  0  0  0  0  0
   14.4805   36.3319   33.5729 C   0  0  0  0  0  0  0  0  0  0  0  0
   13.1144   37.6277   34.5694 C   0  0  0  0  0  0  0  0  0  0  0  0
   15.2076   35.6153   32.6741 N   0  0  0  0  0  0  0  0  0  0  0  0
   14.6760   36.2304   34.9184 C   0  0  0  0  0  0  0  0  0  0  0  0
   13.8219   37.0449   35.5786 N   0  0  0  0  0  0  0  0  0  0  0  0
   16.1641   34.7600   33.1548 C   0  0  0  0  0  0  0  0  0  0  0  0
   15.6528   35.3505   35.4132 C   0  0  0  0  0  0  0  0  0  0  0  0
   16.3795   34.6314   34.5043 N   0  0  0  0  0  0  0  0  0  0  0  0
   15.9002   35.1931   36.8091 N   0  0  0  0  0  0  0  0  0  0  0  0
    8.9996   45.4382   33.6722 H   0  0  0  0  0  0  0  0  0  0  0  0
   11.0502   46.2277   34.4984 H   0  0  0  0  0  0  0  0  0  0  0  0
   10.7765   46.9369   33.0160 H   0  0  0  0  0  0  0  0  0  0  0  0
   10.7412   44.9081   31.1837 H   0  0  0  0  0  0  0  0  0  0  0  0
    9.3646   43.8355   31.4711 H   0  0  0  0  0  0  0  0  0  0  0  0
    7.0154   44.7143   31.5843 H   0  0  0  0  0  0  0  0  0  0  0  0
   10.3463   47.1872   30.4047 H   0  0  0  0  0  0  0  0  0  0  0  0
    5.4694   46.2752   30.5139 H   0  0  0  0  0  0  0  0  0  0  0  0
    8.7923   48.7679   29.3390 H   0  0  0  0  0  0  0  0  0  0  0  0
    4.4023   47.5625   29.0116 H   0  0  0  0  0  0  0  0  0  0  0  0
    4.6307   50.0484   30.8478 H   0  0  0  0  0  0  0  0  0  0  0  0
    4.5539   48.3326   31.3854 H   0  0  0  0  0  0  0  0  0  0  0  0
    3.1253   49.0813   30.5921 H   0  0  0  0  0  0  0  0  0  0  0  0
    5.6721   51.1124   28.6719 H   0  0  0  0  0  0  0  0  0  0  0  0
    2.0256   49.8232   25.5203 H   0  0  0  0  0  0  0  0  0  0  0  0
    3.6509   54.2808   25.7560 H   0  0  0  0  0  0  0  0  0  0  0  0
    4.8955   53.5225   24.6531 H   0  0  0  0  0  0  0  0  0  0  0  0
   11.3802   41.5436   31.4661 H   0  0  0  0  0  0  0  0  0  0  0  0
    9.8214   40.7199   31.7634 H   0  0  0  0  0  0  0  0  0  0  0  0
   11.6999   39.5040   30.3482 H   0  0  0  0  0  0  0  0  0  0  0  0
   10.1085   38.2766   32.6603 H   0  0  0  0  0  0  0  0  0  0  0  0
   13.6680   37.4521   31.2229 H   0  0  0  0  0  0  0  0  0  0  0  0
    9.0016   37.3867   30.9350 H   0  0  0  0  0  0  0  0  0  0  0  0
   11.2667   36.3062   32.5083 H   0  0  0  0  0  0  0  0  0  0  0  0
   12.1389   35.5126   30.6150 H   0  0  0  0  0  0  0  0  0  0  0  0
   12.3301   38.3529   34.7449 H   0  0  0  0  0  0  0  0  0  0  0  0
   16.7560   34.1779   32.4621 H   0  0  0  0  0  0  0  0  0  0  0  0
   15.3534   35.7359   37.5140 H   0  0  0  0  0  0  0  0  0  0  0  0
   16.6347   34.5299   37.1416 H   0  0  0  0  0  0  0  0  0  0  0  0
  1  2  2  0
  1  3  1  0
  3  4  1  0
  4  5  1  0
  6  1  1  0
  7  6  1  0
  6  8  1  0
  8  9  1  0
  9 10  2  0
 11  9  1  0
 10 12  1  0
 13 11  2  0
 12 14  2  0
 14 13  1  0
 14 15  1  0
 15 16  1  0
 16 17  1  0
 16 18  1  0
 18 19  2  0
 20 18  1  0
 19 21  1  0
 22 20  2  0
 20 23  1  0
 21 24  1  0
 21 25  2  0
 25 22  1  0
 23 26  1  0
 23 27  2  0
 24 28  1  0
 25 29  1  0
 28 29  1  0
  4 30  2  0
  4 31  1  0
 32 31  1  0
 32 33  1  0
 33 34  1  0
 33 35  1  0
 34 36  1  0
 35 37  1  0
 35 38  1  0
 38 36  1  0
 36 39  1  0
 38 40  1  0
 41 39  1  0
 42 39  1  0
 43 41  2  0
 41 44  1  0
 45 42  2  0
 46 43  1  0
 44 47  2  0
 44 45  1  0
 48 46  2  0
 48 47  1  0
 47 49  1  0
  6 50  1  1
  7 51  1  0
  7 52  1  0
  8 53  1  0
  8 54  1  0
 10 55  1  0
 11 56  1  0
 12 57  1  0
 13 58  1  0
 16 59  1  6
 17 60  1  0
 17 61  1  0
 17 62  1  0
 19 63  1  0
 22 64  1  0
 28 65  1  0
 28 66  1  0
 32 67  1  0
 32 68  1  0
 33 69  1  0
 35 70  1  0
 36 71  1  0
 37 72  1  0
 38 73  1  0
 40 74  1  0
 42 75  1  0
 46 76  1  0
 49 77  1  0
 49 78  1  0
M  CHG  3   5  -1  23   1  26  -1
M  END
>  <EmbedRMS>  (10) 
0.0821964218332

$$$$

     RDKit          3D

 78 83  0  0  0  0  0  0  0  0999 V2000
   10.2835   43.7662   33.8256 C   0  0  0  0  0  0  0  0  0  0  0  0
   11.4102   43.5929   34.3753 O   0  0  0  0  0  0  0  0  0  0  0  0
    9.3638   42.7255   33.7348 O   0  0  0  0  0  0  0  0  0  0  0  0
    9.8906   41.2265   34.2933 P   0  0  0  0  0  0  0  0  0  0  0  0
   10.3743   41.4557   35.8827 O   0  0  0  0  0  0  0  0  0  0  0  0
    9.9548   45.0695   33.2036 C   0  0  1  0  0  0  0  0  0  0  0  0
   11.0274   46.0322   33.4760 N   0  0  0  0  0  0  0  0  0  0  0  0
    9.7471   44.8484   31.6877 C   0  0  0  0  0  0  0  0  0  0  0  0
    8.7926   45.8411   31.0847 C   0  0  0  0  0  0  0  0  0  0  0  0
    7.4061   45.6011   31.0991 C   0  0  0  0  0  0  0  0  0  0  0  0
    9.2817   46.9876   30.4419 C   0  0  0  0  0  0  0  0  0  0  0  0
    6.5243   46.5005   30.4841 C   0  0  0  0  0  0  0  0  0  0  0  0
    8.4005   47.8874   29.8318 C   0  0  0  0  0  0  0  0  0  0  0  0
    7.0181   47.6581   29.8468 C   0  0  0  0  0  0  0  0  0  0  0  0
    6.1875   48.5966   29.2118 O   0  0  0  0  0  0  0  0  0  0  0  0
    4.7575   48.6008   29.2244 C   0  0  1  0  0  0  0  0  0  0  0  0
    4.2360   49.0485   30.5966 C   0  0  0  0  0  0  0  0  0  0  0  0
    4.2640   49.5417   28.1395 C   0  0  0  0  0  0  0  0  0  0  0  0
    4.6759   50.8974   28.1816 C   0  0  0  0  0  0  0  0  0  0  0  0
    3.3670   49.1175   27.1023 C   0  0  0  0  0  0  0  0  0  0  0  0
    4.1606   51.7788   27.2403 C   0  0  0  0  0  0  0  0  0  0  0  0
    2.8610   50.0636   26.1833 C   0  0  0  0  0  0  0  0  0  0  0  0
    2.9792   47.7451   26.9513 N   0  0  0  0  0  0  0  0  0  0  0  0
    4.4112   53.1304   27.1014 O   0  0  0  0  0  0  0  0  0  0  0  0
    3.2868   51.3809   26.2875 C   0  0  0  0  0  0  0  0  0  0  0  0
    1.6740   47.4385   26.6431 O   0  0  0  0  0  0  0  0  0  0  0  0
    3.8531   46.8645   26.8134 O   0  0  0  0  0  0  0  0  0  0  0  0
    3.6441   53.6104   25.9887 C   0  0  0  0  0  0  0  0  0  0  0  0
    2.9411   52.4608   25.4979 O   0  0  0  0  0  0  0  0  0  0  0  0
    8.8122   40.1851   34.2127 O   0  0  0  0  0  0  0  0  0  0  0  0
   11.2406   40.7945   33.3670 O   0  0  0  0  0  0  0  0  0  0  0  0
   10.9134   40.6866   31.9954 C   0  0  0  0  0  0  0  0  0  0  0  0
   11.5167   39.3787   31.4404 C   0  0  0  0  0  0  0  0  0  0  0  0
   12.7486   39.0849   32.0734 O   0  0  0  0  0  0  0  0  0  0  0  0
   10.6039   38.1884   31.6669 C   0  0  0  0  0  0  0  0  0  0  0  0
   12.9329   37.6776   32.0284 C   0  0  0  0  0  0  0  0  0  0  0  0
    9.6374   38.0938   30.6484 O   0  0  0  0  0  0  0  0  0  0  0  0
   11.5737   37.0141   31.7055 C   0  0  0  0  0  0  0  0  0  0  0  0
   13.4853   37.2120   33.3238 N   0  0  0  0  0  0  0  0  0  0  0  0
   11.6210   36.3379   30.4683 O   0  0  0  0  0  0  0  0  0  0  0  0
   14.4804   36.3319   33.5726 C   0  0  0  0  0  0  0  0  0  0  0  0
   13.1141   37.6275   34.5689 C   0  0  0  0  0  0  0  0  0  0  0  0
   15.2076   35.6152   32.6740 N   0  0  0  0  0  0  0  0  0  0  0  0
   14.6761   36.2306   34.9181 C   0  0  0  0  0  0  0  0  0  0  0  0
   13.8218   37.0451   35.5783 N   0  0  0  0  0  0  0  0  0  0  0  0
   16.1642   34.7600   33.1548 C   0  0  0  0  0  0  0  0  0  0  0  0
   15.6528   35.3507   35.4131 C   0  0  0  0  0  0  0  0  0  0  0  0
   16.3795   34.6315   34.5043 N   0  0  0  0  0  0  0  0  0  0  0  0
   15.9001   35.1933   36.8090 N   0  0  0  0  0  0  0  0  0  0  0  0
    9.0121   45.4317   33.6714 H   0  0  0  0  0  0  0  0  0  0  0  0
   10.7261   46.9688   33.1215 H   0  0  0  0  0  0  0  0  0  0  0  0
   11.8908   45.7659   32.9477 H   0  0  0  0  0  0  0  0  0  0  0  0
    9.3425   43.8332   31.4758 H   0  0  0  0  0  0  0  0  0  0  0  0
   10.7236   44.8825   31.1559 H   0  0  0  0  0  0  0  0  0  0  0  0
    7.0108   44.7147   31.5802 H   0  0  0  0  0  0  0  0  0  0  0  0
   10.3460   47.1857   30.4097 H   0  0  0  0  0  0  0  0  0  0  0  0
    5.4681   46.2770   30.5104 H   0  0  0  0  0  0  0  0  0  0  0  0
    8.7945   48.7686   29.3414 H   0  0  0  0  0  0  0  0  0  0  0  0
    4.3821   47.5768   29.0458 H   0  0  0  0  0  0  0  0  0  0  0  0
    3.1280   49.1290   30.5759 H   0  0  0  0  0  0  0  0  0  0  0  0
    4.5130   48.3113   31.3776 H   0  0  0  0  0  0  0  0  0  0  0  0
    4.6655   50.0310   30.8840 H   0  0  0  0  0  0  0  0  0  0  0  0
    5.3669   51.2568   28.9334 H   0  0  0  0  0  0  0  0  0  0  0  0
    2.1785   49.7730   25.3949 H   0  0  0  0  0  0  0  0  0  0  0  0
    4.3175   54.0122   25.2029 H   0  0  0  0  0  0  0  0  0  0  0  0
    2.9237   54.3855   26.3246 H   0  0  0  0  0  0  0  0  0  0  0  0
    9.8225   40.7225   31.7631 H   0  0  0  0  0  0  0  0  0  0  0  0
   11.3828   41.5438   31.4669 H   0  0  0  0  0  0  0  0  0  0  0  0
   11.6979   39.5037   30.3478 H   0  0  0  0  0  0  0  0  0  0  0  0
   10.1084   38.2787   32.6627 H   0  0  0  0  0  0  0  0  0  0  0  0
   13.6638   37.4472   31.2214 H   0  0  0  0  0  0  0  0  0  0  0  0
    8.9763   37.4191   30.9532 H   0  0  0  0  0  0  0  0  0  0  0  0
   11.2821   36.3054   32.5172 H   0  0  0  0  0  0  0  0  0  0  0  0
   10.8658   35.6935   30.4653 H   0  0  0  0  0  0  0  0  0  0  0  0
   12.3293   38.3523   34.7444 H   0  0  0  0  0  0  0  0  0  0  0  0
   16.7561   34.1778   32.4621 H   0  0  0  0  0  0  0  0  0  0  0  0
   16.6345   34.5300   37.1416 H   0  0  0  0  0  0  0  0  0  0  0  0
   15.3533   35.7361   37.5138 H   0  0  0  0  0  0  0  0  0  0  0  0
  1  2  2  0
  1  3  1  0
  3  4  1  0
  4  5  1  0
  6  1  1  0
  7  6  1  0
  6  8  1  0
  8  9  1  0
  9 10  2  0
 11  9  1  0
 10 12  1  0
 13 11  2  0
 12 14  2  0
 14 13  1  0
 14 15  1  0
 15 16  1  0
 16 17  1  0
 16 18  1  0
 18 19  2  0
 20 18  1  0
 19 21  1  0
 22 20  2  0
 20 23  1  0
 21 24  1  0
 21 25  2  0
 25 22  1  0
 23 26  1  0
 23 27  2  0
 24 28  1  0
 25 29  1  0
 28 29  1  0
  4 30  2  0
  4 31  1  0
 32 31  1  0
 32 33  1  0
 33 34  1  0
 33 35  1  0
 34 36  1  0
 35 37  1  0
 35 38  1  0
 38 36  1  0
 36 39  1  0
 38 40  1  0
 41 39  1  0
 42 39  1  0
 43 41  2  0
 41 44  1  0
 45 42  2  0
 46 43  1  0
 44 47  2  0
 44 45  1  0
 48 46  2  0
 48 47  1  0
 47 49  1  0
  6 50  1  1
  7 51  1  0
  7 52  1  0
  8 53  1  0
  8 54  1  0
 10 55  1  0
 11 56  1  0
 12 57  1  0
 13 58  1  0
 16 59  1  6
 17 60  1  0
 17 61  1  0
 17 62  1  0
 19 63  1  0
 22 64  1  0
 28 65  1  0
 28 66  1  0
 32 67  1  0
 32 68  1  0
 33 69  1  0
 35 70  1  0
 36 71  1  0
 37 72  1  0
 38 73  1  0
 40 74  1  0
 42 75  1  0
 46 76  1  0
 49 77  1  0
 49 78  1  0
M  CHG  3   5  -1  23   1  26  -1
M  END
>  <EmbedRMS>  (11) 
0.082529495306

$$$$

     RDKit          3D

 78 83  0  0  0  0  0  0  0  0999 V2000
   10.2837   43.7627   33.8276 C   0  0  0  0  0  0  0  0  0  0  0  0
   11.4103   43.5863   34.3766 O   0  0  0  0  0  0  0  0  0  0  0  0
    9.3628   42.7238   33.7357 O   0  0  0  0  0  0  0  0  0  0  0  0
    9.8893   41.2251   34.2943 P   0  0  0  0  0  0  0  0  0  0  0  0
   10.3730   41.4546   35.8836 O   0  0  0  0  0  0  0  0  0  0  0  0
    9.9549   45.0700   33.2063 C   0  0  1  0  0  0  0  0  0  0  0  0
   11.0198   46.0481   33.4570 N   0  0  0  0  0  0  0  0  0  0  0  0
    9.7506   44.8510   31.6921 C   0  0  0  0  0  0  0  0  0  0  0  0
    8.7945   45.8416   31.0865 C   0  0  0  0  0  0  0  0  0  0  0  0
    7.4078   45.6009   31.1008 C   0  0  0  0  0  0  0  0  0  0  0  0
    9.2826   46.9896   30.4453 C   0  0  0  0  0  0  0  0  0  0  0  0
    6.5258   46.5005   30.4862 C   0  0  0  0  0  0  0  0  0  0  0  0
    8.4007   47.8887   29.8346 C   0  0  0  0  0  0  0  0  0  0  0  0
    7.0193   47.6538   29.8431 C   0  0  0  0  0  0  0  0  0  0  0  0
    6.1848   48.5868   29.2060 O   0  0  0  0  0  0  0  0  0  0  0  0
    4.7813   48.4364   28.9893 C   0  0  1  0  0  0  0  0  0  0  0  0
    4.1899   49.7690   28.5282 C   0  0  0  0  0  0  0  0  0  0  0  0
    4.4871   47.3294   27.9856 C   0  0  0  0  0  0  0  0  0  0  0  0
    3.6187   46.2852   28.3900 C   0  0  0  0  0  0  0  0  0  0  0  0
    4.9973   47.3288   26.6411 C   0  0  0  0  0  0  0  0  0  0  0  0
    3.2934   45.2948   27.4731 C   0  0  0  0  0  0  0  0  0  0  0  0
    4.6168   46.3024   25.7483 C   0  0  0  0  0  0  0  0  0  0  0  0
    5.8658   48.3600   26.1529 N   0  0  0  0  0  0  0  0  0  0  0  0
    2.4769   44.1945   27.6510 O   0  0  0  0  0  0  0  0  0  0  0  0
    3.7701   45.3037   26.2079 C   0  0  0  0  0  0  0  0  0  0  0  0
    5.6270   48.9138   24.9165 O   0  0  0  0  0  0  0  0  0  0  0  0
    6.9715   48.5572   26.6950 O   0  0  0  0  0  0  0  0  0  0  0  0
    2.4417   43.4656   26.4165 C   0  0  0  0  0  0  0  0  0  0  0  0
    3.2805   44.2090   25.5218 O   0  0  0  0  0  0  0  0  0  0  0  0
    8.8113   40.1835   34.2130 O   0  0  0  0  0  0  0  0  0  0  0  0
   11.2397   40.7942   33.3684 O   0  0  0  0  0  0  0  0  0  0  0  0
   10.9125   40.6875   31.9969 C   0  0  0  0  0  0  0  0  0  0  0  0
   11.5169   39.3810   31.4420 C   0  0  0  0  0  0  0  0  0  0  0  0
   12.7500   39.0881   32.0758 O   0  0  0  0  0  0  0  0  0  0  0  0
   10.6043   38.1892   31.6659 C   0  0  0  0  0  0  0  0  0  0  0  0
   12.9395   37.6813   32.0279 C   0  0  0  0  0  0  0  0  0  0  0  0
    9.6353   38.0950   30.6499 O   0  0  0  0  0  0  0  0  0  0  0  0
   11.5803   37.0191   31.6934 C   0  0  0  0  0  0  0  0  0  0  0  0
   13.4851   37.2119   33.3244 N   0  0  0  0  0  0  0  0  0  0  0  0
   11.6118   36.3188   30.4673 O   0  0  0  0  0  0  0  0  0  0  0  0
   14.4801   36.3317   33.5732 C   0  0  0  0  0  0  0  0  0  0  0  0
   13.1139   37.6277   34.5692 C   0  0  0  0  0  0  0  0  0  0  0  0
   15.2076   35.6154   32.6744 N   0  0  0  0  0  0  0  0  0  0  0  0
   14.6757   36.2303   34.9186 C   0  0  0  0  0  0  0  0  0  0  0  0
   13.8215   37.0451   35.5786 N   0  0  0  0  0  0  0  0  0  0  0  0
   16.1642   34.7602   33.1550 C   0  0  0  0  0  0  0  0  0  0  0  0
   15.6526   35.3505   35.4134 C   0  0  0  0  0  0  0  0  0  0  0  0
   16.3795   34.6316   34.5045 N   0  0  0  0  0  0  0  0  0  0  0  0
   15.9001   35.1933   36.8093 N   0  0  0  0  0  0  0  0  0  0  0  0
    9.0098   45.4350   33.6667 H   0  0  0  0  0  0  0  0  0  0  0  0
   11.9349   45.6934   33.0928 H   0  0  0  0  0  0  0  0  0  0  0  0
   11.1132   46.1992   34.4883 H   0  0  0  0  0  0  0  0  0  0  0  0
    9.3519   43.8344   31.4758 H   0  0  0  0  0  0  0  0  0  0  0  0
   10.7310   44.8930   31.1675 H   0  0  0  0  0  0  0  0  0  0  0  0
    7.0125   44.7169   31.5860 H   0  0  0  0  0  0  0  0  0  0  0  0
   10.3466   47.1901   30.4160 H   0  0  0  0  0  0  0  0  0  0  0  0
    5.4682   46.2895   30.5270 H   0  0  0  0  0  0  0  0  0  0  0  0
    8.7937   48.7703   29.3442 H   0  0  0  0  0  0  0  0  0  0  0  0
    4.2990   48.2134   29.9671 H   0  0  0  0  0  0  0  0  0  0  0  0
    3.1026   49.6576   28.3283 H   0  0  0  0  0  0  0  0  0  0  0  0
    4.3230   50.5308   29.3255 H   0  0  0  0  0  0  0  0  0  0  0  0
    4.6910   50.1400   27.6115 H   0  0  0  0  0  0  0  0  0  0  0  0
    3.1979   46.2494   29.3868 H   0  0  0  0  0  0  0  0  0  0  0  0
    4.9817   46.2803   24.7294 H   0  0  0  0  0  0  0  0  0  0  0  0
    2.8486   42.4430   26.5624 H   0  0  0  0  0  0  0  0  0  0  0  0
    1.4040   43.4248   26.0240 H   0  0  0  0  0  0  0  0  0  0  0  0
    9.8216   40.7223   31.7644 H   0  0  0  0  0  0  0  0  0  0  0  0
   11.3811   41.5456   31.4692 H   0  0  0  0  0  0  0  0  0  0  0  0
   11.6985   39.5089   30.3498 H   0  0  0  0  0  0  0  0  0  0  0  0
   10.1109   38.2736   32.6630 H   0  0  0  0  0  0  0  0  0  0  0  0
   13.6783   37.4561   31.2271 H   0  0  0  0  0  0  0  0  0  0  0  0
    9.0020   37.3859   30.9348 H   0  0  0  0  0  0  0  0  0  0  0  0
   11.2808   36.3052   32.4921 H   0  0  0  0  0  0  0  0  0  0  0  0
   11.8818   36.9599   29.7584 H   0  0  0  0  0  0  0  0  0  0  0  0
   12.3303   38.3538   34.7445 H   0  0  0  0  0  0  0  0  0  0  0  0
   16.7563   34.1783   32.4623 H   0  0  0  0  0  0  0  0  0  0  0  0
   16.6348   34.5301   37.1418 H   0  0  0  0  0  0  0  0  0  0  0  0
   15.3532   35.7359   37.5142 H   0  0  0  0  0  0  0  0  0  0  0  0
  1  2  2  0
  1  3  1  0
  3  4  1  0
  4  5  1  0
  6  1  1  0
  7  6  1  0
  6  8  1  0
  8  9  1  0
  9 10  2  0
 11  9  1  0
 10 12  1  0
 13 11  2  0
 12 14  2  0
 14 13  1  0
 14 15  1  0
 15 16  1  0
 16 17  1  0
 16 18  1  0
 18 19  2  0
 20 18  1  0
 19 21  1  0
 22 20  2  0
 20 23  1  0
 21 24  1  0
 21 25  2  0
 25 22  1  0
 23 26  1  0
 23 27  2  0
 24 28  1  0
 25 29  1  0
 28 29  1  0
  4 30  2  0
  4 31  1  0
 32 31  1  0
 32 33  1  0
 33 34  1  0
 33 35  1  0
 34 36  1  0
 35 37  1  0
 35 38  1  0
 38 36  1  0
 36 39  1  0
 38 40  1  0
 41 39  1  0
 42 39  1  0
 43 41  2  0
 41 44  1  0
 45 42  2  0
 46 43  1  0
 44 47  2  0
 44 45  1  0
 48 46  2  0
 48 47  1  0
 47 49  1  0
  6 50  1  1
  7 51  1  0
  7 52  1  0
  8 53  1  0
  8 54  1  0
 10 55  1  0
 11 56  1  0
 12 57  1  0
 13 58  1  0
 16 59  1  1
 17 60  1  0
 17 61  1  0
 17 62  1  0
 19 63  1  0
 22 64  1  0
 28 65  1  0
 28 66  1  0
 32 67  1  0
 32 68  1  0
 33 69  1  0
 35 70  1  0
 36 71  1  0
 37 72  1  0
 38 73  1  0
 40 74  1  0
 42 75  1  0
 46 76  1  0
 49 77  1  0
 49 78  1  0
M  CHG  3   5  -1  23   1  26  -1
M  END
>  <EmbedRMS>  (12) 
0.0824736481244

$$$$

     RDKit          3D

 78 83  0  0  0  0  0  0  0  0999 V2000
   10.2834   43.7653   33.8250 C   0  0  0  0  0  0  0  0  0  0  0  0
   11.4098   43.5921   34.3752 O   0  0  0  0  0  0  0  0  0  0  0  0
    9.3633   42.7248   33.7344 O   0  0  0  0  0  0  0  0  0  0  0  0
    9.8899   41.2263   34.2944 P   0  0  0  0  0  0  0  0  0  0  0  0
   10.3753   41.4578   35.8826 O   0  0  0  0  0  0  0  0  0  0  0  0
    9.9546   45.0687   33.2031 C   0  0  1  0  0  0  0  0  0  0  0  0
   11.0261   46.0323   33.4761 N   0  0  0  0  0  0  0  0  0  0  0  0
    9.7475   44.8476   31.6870 C   0  0  0  0  0  0  0  0  0  0  0  0
    8.7932   45.8406   31.0844 C   0  0  0  0  0  0  0  0  0  0  0  0
    7.4068   45.6030   31.1016 C   0  0  0  0  0  0  0  0  0  0  0  0
    9.2819   46.9875   30.4432 C   0  0  0  0  0  0  0  0  0  0  0  0
    6.5254   46.5015   30.4853 C   0  0  0  0  0  0  0  0  0  0  0  0
    8.4002   47.8869   29.8333 C   0  0  0  0  0  0  0  0  0  0  0  0
    7.0180   47.6550   29.8404 C   0  0  0  0  0  0  0  0  0  0  0  0
    6.1940   48.5984   29.1992 O   0  0  0  0  0  0  0  0  0  0  0  0
    4.7750   48.5289   28.9985 C   0  0  1  0  0  0  0  0  0  0  0  0
    4.4367   47.4200   27.9878 C   0  0  0  0  0  0  0  0  0  0  0  0
    4.0201   48.4971   30.3280 C   0  0  0  0  0  0  0  0  0  0  0  0
    3.0139   47.5233   30.5730 C   0  0  0  0  0  0  0  0  0  0  0  0
    4.3281   49.4458   31.3633 C   0  0  0  0  0  0  0  0  0  0  0  0
    2.3955   47.5008   31.8158 C   0  0  0  0  0  0  0  0  0  0  0  0
    3.6756   49.3588   32.6148 C   0  0  0  0  0  0  0  0  0  0  0  0
    5.2991   50.4879   31.1738 N   0  0  0  0  0  0  0  0  0  0  0  0
    1.4080   46.6468   32.2667 O   0  0  0  0  0  0  0  0  0  0  0  0
    2.7149   48.3762   32.7952 C   0  0  0  0  0  0  0  0  0  0  0  0
    6.0735   50.9006   32.2348 O   0  0  0  0  0  0  0  0  0  0  0  0
    5.2954   51.1730   30.1305 O   0  0  0  0  0  0  0  0  0  0  0  0
    1.0833   47.0156   33.6152 C   0  0  0  0  0  0  0  0  0  0  0  0
    1.9448   48.1221   33.9154 O   0  0  0  0  0  0  0  0  0  0  0  0
    8.8121   40.1840   34.2146 O   0  0  0  0  0  0  0  0  0  0  0  0
   11.2400   40.7930   33.3699 O   0  0  0  0  0  0  0  0  0  0  0  0
   10.9142   40.6906   31.9982 C   0  0  0  0  0  0  0  0  0  0  0  0
   11.5249   39.3892   31.4380 C   0  0  0  0  0  0  0  0  0  0  0  0
   12.7499   39.0877   32.0803 O   0  0  0  0  0  0  0  0  0  0  0  0
   10.6091   38.1933   31.6473 C   0  0  0  0  0  0  0  0  0  0  0  0
   12.9333   37.6795   32.0298 C   0  0  0  0  0  0  0  0  0  0  0  0
    9.6119   38.0934   30.6541 O   0  0  0  0  0  0  0  0  0  0  0  0
   11.5741   37.0143   31.7026 C   0  0  0  0  0  0  0  0  0  0  0  0
   13.4845   37.2104   33.3243 N   0  0  0  0  0  0  0  0  0  0  0  0
   11.6297   36.3253   30.4736 O   0  0  0  0  0  0  0  0  0  0  0  0
   14.4805   36.3313   33.5727 C   0  0  0  0  0  0  0  0  0  0  0  0
   13.1138   37.6255   34.5695 C   0  0  0  0  0  0  0  0  0  0  0  0
   15.2076   35.6154   32.6736 N   0  0  0  0  0  0  0  0  0  0  0  0
   14.6767   36.2303   34.9181 C   0  0  0  0  0  0  0  0  0  0  0  0
   13.8222   37.0439   35.5787 N   0  0  0  0  0  0  0  0  0  0  0  0
   16.1642   34.7603   33.1539 C   0  0  0  0  0  0  0  0  0  0  0  0
   15.6532   35.3506   35.4129 C   0  0  0  0  0  0  0  0  0  0  0  0
   16.3796   34.6313   34.5037 N   0  0  0  0  0  0  0  0  0  0  0  0
   15.9000   35.1934   36.8091 N   0  0  0  0  0  0  0  0  0  0  0  0
    9.0116   45.4302   33.6707 H   0  0  0  0  0  0  0  0  0  0  0  0
   10.7243   46.9677   33.1190 H   0  0  0  0  0  0  0  0  0  0  0  0
   11.8897   45.7667   32.9483 H   0  0  0  0  0  0  0  0  0  0  0  0
   10.7243   44.8821   31.1554 H   0  0  0  0  0  0  0  0  0  0  0  0
    9.3425   43.8322   31.4752 H   0  0  0  0  0  0  0  0  0  0  0  0
    7.0109   44.7206   31.5886 H   0  0  0  0  0  0  0  0  0  0  0  0
   10.3459   47.1871   30.4136 H   0  0  0  0  0  0  0  0  0  0  0  0
    5.4723   46.2806   30.5254 H   0  0  0  0  0  0  0  0  0  0  0  0
    8.7949   48.7678   29.3438 H   0  0  0  0  0  0  0  0  0  0  0  0
    4.4765   49.4720   28.4938 H   0  0  0  0  0  0  0  0  0  0  0  0
    3.3729   47.4962   27.6717 H   0  0  0  0  0  0  0  0  0  0  0  0
    4.6239   46.4098   28.4026 H   0  0  0  0  0  0  0  0  0  0  0  0
    5.0681   47.5414   27.0812 H   0  0  0  0  0  0  0  0  0  0  0  0
    2.7193   46.7893   29.8368 H   0  0  0  0  0  0  0  0  0  0  0  0
    3.8946   50.0533   33.4169 H   0  0  0  0  0  0  0  0  0  0  0  0
    1.2899   46.1702   34.3057 H   0  0  0  0  0  0  0  0  0  0  0  0
    0.0191   47.3288   33.6810 H   0  0  0  0  0  0  0  0  0  0  0  0
   11.3768   41.5544   31.4741 H   0  0  0  0  0  0  0  0  0  0  0  0
    9.8230   40.7209   31.7666 H   0  0  0  0  0  0  0  0  0  0  0  0
   11.7241   39.5323   30.3513 H   0  0  0  0  0  0  0  0  0  0  0  0
   10.1118   38.2744   32.6395 H   0  0  0  0  0  0  0  0  0  0  0  0
   13.6665   37.4543   31.2238 H   0  0  0  0  0  0  0  0  0  0  0  0
   10.0511   38.1147   29.7642 H   0  0  0  0  0  0  0  0  0  0  0  0
   11.2774   36.3118   32.5189 H   0  0  0  0  0  0  0  0  0  0  0  0
   10.8608   35.6974   30.4641 H   0  0  0  0  0  0  0  0  0  0  0  0
   12.3296   38.3503   34.7446 H   0  0  0  0  0  0  0  0  0  0  0  0
   16.7547   34.1779   32.4600 H   0  0  0  0  0  0  0  0  0  0  0  0
   16.6346   34.5307   37.1421 H   0  0  0  0  0  0  0  0  0  0  0  0
   15.3538   35.7361   37.5147 H   0  0  0  0  0  0  0  0  0  0  0  0
  1  2  2  0
  1  3  1  0
  3  4  1  0
  4  5  1  0
  6  1  1  0
  7  6  1  0
  6  8  1  0
  8  9  1  0
  9 10  2  0
 11  9  1  0
 10 12  1  0
 13 11  2  0
 12 14  2  0
 14 13  1  0
 14 15  1  0
 15 16  1  0
 16 17  1  0
 16 18  1  0
 18 19  2  0
 20 18  1  0
 19 21  1  0
 22 20  2  0
 20 23  1  0
 21 24  1  0
 21 25  2  0
 25 22  1  0
 23 26  1  0
 23 27  2  0
 24 28  1  0
 25 29  1  0
 28 29  1  0
  4 30  2  0
  4 31  1  0
 32 31  1  0
 32 33  1  0
 33 34  1  0
 33 35  1  0
 34 36  1  0
 35 37  1  0
 35 38  1  0
 38 36  1  0
 36 39  1  0
 38 40  1  0
 41 39  1  0
 42 39  1  0
 43 41  2  0
 41 44  1  0
 45 42  2  0
 46 43  1  0
 44 47  2  0
 44 45  1  0
 48 46  2  0
 48 47  1  0
 47 49  1  0
  6 50  1  1
  7 51  1  0
  7 52  1  0
  8 53  1  0
  8 54  1  0
 10 55  1  0
 11 56  1  0
 12 57  1  0
 13 58  1  0
 16 59  1  6
 17 60  1  0
 17 61  1  0
 17 62  1  0
 19 63  1  0
 22 64  1  0
 28 65  1  0
 28 66  1  0
 32 67  1  0
 32 68  1  0
 33 69  1  0
 35 70  1  0
 36 71  1  0
 37 72  1  0
 38 73  1  0
 40 74  1  0
 42 75  1  0
 46 76  1  0
 49 77  1  0
 49 78  1  0
M  CHG  3   5  -1  23   1  26  -1
M  END
>  <EmbedRMS>  (13) 
0.0817202552675

$$$$

     RDKit          3D

 78 83  0  0  0  0  0  0  0  0999 V2000
   10.2836   43.7661   33.8258 C   0  0  0  0  0  0  0  0  0  0  0  0
   11.4103   43.5929   34.3754 O   0  0  0  0  0  0  0  0  0  0  0  0
    9.3638   42.7255   33.7352 O   0  0  0  0  0  0  0  0  0  0  0  0
    9.8904   41.2267   34.2946 P   0  0  0  0  0  0  0  0  0  0  0  0
   10.3729   41.4561   35.8842 O   0  0  0  0  0  0  0  0  0  0  0  0
    9.9548   45.0694   33.2038 C   0  0  1  0  0  0  0  0  0  0  0  0
   11.0275   46.0321   33.4757 N   0  0  0  0  0  0  0  0  0  0  0  0
    9.7464   44.8482   31.6881 C   0  0  0  0  0  0  0  0  0  0  0  0
    8.7922   45.8414   31.0858 C   0  0  0  0  0  0  0  0  0  0  0  0
    7.4059   45.6014   31.0985 C   0  0  0  0  0  0  0  0  0  0  0  0
    9.2820   46.9868   30.4416 C   0  0  0  0  0  0  0  0  0  0  0  0
    6.5277   46.5021   30.4816 C   0  0  0  0  0  0  0  0  0  0  0  0
    8.4031   47.8884   29.8303 C   0  0  0  0  0  0  0  0  0  0  0  0
    7.0128   47.6559   29.8500 C   0  0  0  0  0  0  0  0  0  0  0  0
    6.0769   48.5199   29.2477 O   0  0  0  0  0  0  0  0  0  0  0  0
    6.2894   49.8706   28.8038 C   0  0  1  0  0  0  0  0  0  0  0  0
    6.8945   50.7221   29.9388 C   0  0  0  0  0  0  0  0  0  0  0  0
    7.0698   49.9599   27.4893 C   0  0  0  0  0  0  0  0  0  0  0  0
    7.4931   48.7752   26.8285 C   0  0  0  0  0  0  0  0  0  0  0  0
    7.3777   51.2281   26.8858 C   0  0  0  0  0  0  0  0  0  0  0  0
    8.2648   48.8882   25.6800 C   0  0  0  0  0  0  0  0  0  0  0  0
    8.1824   51.2801   25.7248 C   0  0  0  0  0  0  0  0  0  0  0  0
    6.8520   52.4577   27.4062 N   0  0  0  0  0  0  0  0  0  0  0  0
    8.7980   47.8784   24.9021 O   0  0  0  0  0  0  0  0  0  0  0  0
    8.6037   50.0872   25.1575 C   0  0  0  0  0  0  0  0  0  0  0  0
    5.5018   52.5840   27.6369 O   0  0  0  0  0  0  0  0  0  0  0  0
    7.5651   53.4822   27.4244 O   0  0  0  0  0  0  0  0  0  0  0  0
    9.5212   48.4862   23.8232 C   0  0  0  0  0  0  0  0  0  0  0  0
    9.3702   49.8980   24.0237 O   0  0  0  0  0  0  0  0  0  0  0  0
    8.8125   40.1848   34.2126 O   0  0  0  0  0  0  0  0  0  0  0  0
   11.2416   40.7947   33.3707 O   0  0  0  0  0  0  0  0  0  0  0  0
   10.9179   40.6922   31.9984 C   0  0  0  0  0  0  0  0  0  0  0  0
   11.5175   39.3838   31.4423 C   0  0  0  0  0  0  0  0  0  0  0  0
   12.7508   39.0887   32.0752 O   0  0  0  0  0  0  0  0  0  0  0  0
   10.6028   38.1916   31.6659 C   0  0  0  0  0  0  0  0  0  0  0  0
   12.9385   37.6818   32.0278 C   0  0  0  0  0  0  0  0  0  0  0  0
    9.6371   38.0806   30.6470 O   0  0  0  0  0  0  0  0  0  0  0  0
   11.5780   37.0215   31.6935 C   0  0  0  0  0  0  0  0  0  0  0  0
   13.4844   37.2119   33.3242 N   0  0  0  0  0  0  0  0  0  0  0  0
   11.6095   36.3201   30.4679 O   0  0  0  0  0  0  0  0  0  0  0  0
   14.4797   36.3318   33.5730 C   0  0  0  0  0  0  0  0  0  0  0  0
   13.1136   37.6278   34.5691 C   0  0  0  0  0  0  0  0  0  0  0  0
   15.2073   35.6155   32.6742 N   0  0  0  0  0  0  0  0  0  0  0  0
   14.6754   36.2305   34.9184 C   0  0  0  0  0  0  0  0  0  0  0  0
   13.8213   37.0452   35.5785 N   0  0  0  0  0  0  0  0  0  0  0  0
   16.1640   34.7604   33.1549 C   0  0  0  0  0  0  0  0  0  0  0  0
   15.6524   35.3507   35.4132 C   0  0  0  0  0  0  0  0  0  0  0  0
   16.3794   34.6318   34.5044 N   0  0  0  0  0  0  0  0  0  0  0  0
   15.8999   35.1934   36.8091 N   0  0  0  0  0  0  0  0  0  0  0  0
    9.0123   45.4317   33.6720 H   0  0  0  0  0  0  0  0  0  0  0  0
   11.8907   45.7656   32.9471 H   0  0  0  0  0  0  0  0  0  0  0  0
   10.7261   46.9686   33.1210 H   0  0  0  0  0  0  0  0  0  0  0  0
   10.7227   44.8814   31.1558 H   0  0  0  0  0  0  0  0  0  0  0  0
    9.3410   43.8332   31.4766 H   0  0  0  0  0  0  0  0  0  0  0  0
    7.0086   44.7160   31.5793 H   0  0  0  0  0  0  0  0  0  0  0  0
   10.3472   47.1791   30.4026 H   0  0  0  0  0  0  0  0  0  0  0  0
    5.4634   46.3040   30.4978 H   0  0  0  0  0  0  0  0  0  0  0  0
    8.8230   48.7394   29.3177 H   0  0  0  0  0  0  0  0  0  0  0  0
    5.2766   50.2753   28.5995 H   0  0  0  0  0  0  0  0  0  0  0  0
    6.5905   50.3176   30.9275 H   0  0  0  0  0  0  0  0  0  0  0  0
    8.0017   50.7514   29.8885 H   0  0  0  0  0  0  0  0  0  0  0  0
    6.5238   51.7656   29.8913 H   0  0  0  0  0  0  0  0  0  0  0  0
    7.2409   47.7880   27.1867 H   0  0  0  0  0  0  0  0  0  0  0  0
    8.4382   52.2228   25.2582 H   0  0  0  0  0  0  0  0  0  0  0  0
   10.5939   48.2046   23.8730 H   0  0  0  0  0  0  0  0  0  0  0  0
    9.0799   48.1880   22.8491 H   0  0  0  0  0  0  0  0  0  0  0  0
    9.8292   40.7410   31.7627 H   0  0  0  0  0  0  0  0  0  0  0  0
   11.3953   41.5478   31.4745 H   0  0  0  0  0  0  0  0  0  0  0  0
   11.6982   39.5115   30.3500 H   0  0  0  0  0  0  0  0  0  0  0  0
   10.1117   38.2604   32.6661 H   0  0  0  0  0  0  0  0  0  0  0  0
   13.6767   37.4556   31.2267 H   0  0  0  0  0  0  0  0  0  0  0  0
    8.8961   38.6952   30.8872 H   0  0  0  0  0  0  0  0  0  0  0  0
   11.2791   36.3072   32.4922 H   0  0  0  0  0  0  0  0  0  0  0  0
   11.8828   36.9598   29.7589 H   0  0  0  0  0  0  0  0  0  0  0  0
   12.3300   38.3539   34.7446 H   0  0  0  0  0  0  0  0  0  0  0  0
   16.7561   34.1785   32.4622 H   0  0  0  0  0  0  0  0  0  0  0  0
   15.3531   35.7360   37.5140 H   0  0  0  0  0  0  0  0  0  0  0  0
   16.6347   34.5303   37.1416 H   0  0  0  0  0  0  0  0  0  0  0  0
  1  2  2  0
  1  3  1  0
  3  4  1  0
  4  5  1  0
  6  1  1  0
  7  6  1  0
  6  8  1  0
  8  9  1  0
  9 10  2  0
 11  9  1  0
 10 12  1  0
 13 11  2  0
 12 14  2  0
 14 13  1  0
 14 15  1  0
 15 16  1  0
 16 17  1  0
 16 18  1  0
 18 19  2  0
 20 18  1  0
 19 21  1  0
 22 20  2  0
 20 23  1  0
 21 24  1  0
 21 25  2  0
 25 22  1  0
 23 26  1  0
 23 27  2  0
 24 28  1  0
 25 29  1  0
 28 29  1  0
  4 30  2  0
  4 31  1  0
 32 31  1  0
 32 33  1  0
 33 34  1  0
 33 35  1  0
 34 36  1  0
 35 37  1  0
 35 38  1  0
 38 36  1  0
 36 39  1  0
 38 40  1  0
 41 39  1  0
 42 39  1  0
 43 41  2  0
 41 44  1  0
 45 42  2  0
 46 43  1  0
 44 47  2  0
 44 45  1  0
 48 46  2  0
 48 47  1  0
 47 49  1  0
  6 50  1  1
  7 51  1  0
  7 52  1  0
  8 53  1  0
  8 54  1  0
 10 55  1  0
 11 56  1  0
 12 57  1  0
 13 58  1  0
 16 59  1  6
 17 60  1  0
 17 61  1  0
 17 62  1  0
 19 63  1  0
 22 64  1  0
 28 65  1  0
 28 66  1  0
 32 67  1  0
 32 68  1  0
 33 69  1  0
 35 70  1  0
 36 71  1  0
 37 72  1  0
 38 73  1  0
 40 74  1  0
 42 75  1  0
 46 76  1  0
 49 77  1  0
 49 78  1  0
M  CHG  3   5  -1  23   1  26  -1
M  END
>  <EmbedRMS>  (14) 
0.08195641848

$$$$

     RDKit          3D

 78 83  0  0  0  0  0  0  0  0999 V2000
   10.2834   43.7662   33.8257 C   0  0  0  0  0  0  0  0  0  0  0  0
   11.4102   43.5930   34.3752 O   0  0  0  0  0  0  0  0  0  0  0  0
    9.3635   42.7257   33.7353 O   0  0  0  0  0  0  0  0  0  0  0  0
    9.8899   41.2270   34.2948 P   0  0  0  0  0  0  0  0  0  0  0  0
   10.3732   41.4562   35.8841 O   0  0  0  0  0  0  0  0  0  0  0  0
    9.9547   45.0695   33.2035 C   0  0  1  0  0  0  0  0  0  0  0  0
   11.0274   46.0321   33.4756 N   0  0  0  0  0  0  0  0  0  0  0  0
    9.7467   44.8479   31.6876 C   0  0  0  0  0  0  0  0  0  0  0  0
    8.7924   45.8404   31.0841 C   0  0  0  0  0  0  0  0  0  0  0  0
    7.4058   45.6016   31.0993 C   0  0  0  0  0  0  0  0  0  0  0  0
    9.2820   46.9876   30.4426 C   0  0  0  0  0  0  0  0  0  0  0  0
    6.5271   46.5036   30.4848 C   0  0  0  0  0  0  0  0  0  0  0  0
    8.4032   47.8906   29.8324 C   0  0  0  0  0  0  0  0  0  0  0  0
    7.0134   47.6526   29.8456 C   0  0  0  0  0  0  0  0  0  0  0  0
    6.0815   48.5210   29.2528 O   0  0  0  0  0  0  0  0  0  0  0  0
    6.3874   49.6710   28.4598 C   0  0  1  0  0  0  0  0  0  0  0  0
    6.8875   49.2466   27.0723 C   0  0  0  0  0  0  0  0  0  0  0  0
    5.1363   50.5218   28.3334 C   0  0  0  0  0  0  0  0  0  0  0  0
    3.9756   49.9398   27.7648 C   0  0  0  0  0  0  0  0  0  0  0  0
    5.1023   51.8995   28.7315 C   0  0  0  0  0  0  0  0  0  0  0  0
    2.8563   50.7393   27.5735 C   0  0  0  0  0  0  0  0  0  0  0  0
    3.9399   52.6685   28.4965 C   0  0  0  0  0  0  0  0  0  0  0  0
    6.2128   52.5180   29.3960 N   0  0  0  0  0  0  0  0  0  0  0  0
    1.6338   50.3904   27.0325 O   0  0  0  0  0  0  0  0  0  0  0  0
    2.8413   52.0473   27.9180 C   0  0  0  0  0  0  0  0  0  0  0  0
    6.6995   51.9728   30.5617 O   0  0  0  0  0  0  0  0  0  0  0  0
    6.5588   53.6753   29.0810 O   0  0  0  0  0  0  0  0  0  0  0  0
    0.7985   51.5562   27.0387 C   0  0  0  0  0  0  0  0  0  0  0  0
    1.6085   52.5912   27.6127 O   0  0  0  0  0  0  0  0  0  0  0  0
    8.8120   40.1850   34.2133 O   0  0  0  0  0  0  0  0  0  0  0  0
   11.2403   40.7947   33.3700 O   0  0  0  0  0  0  0  0  0  0  0  0
   10.9144   40.6914   31.9982 C   0  0  0  0  0  0  0  0  0  0  0  0
   11.5270   39.3912   31.4385 C   0  0  0  0  0  0  0  0  0  0  0  0
   12.7520   39.0911   32.0836 O   0  0  0  0  0  0  0  0  0  0  0  0
   10.6113   38.1932   31.6451 C   0  0  0  0  0  0  0  0  0  0  0  0
   12.9413   37.6838   32.0297 C   0  0  0  0  0  0  0  0  0  0  0  0
    9.6064   38.0878   30.6599 O   0  0  0  0  0  0  0  0  0  0  0  0
   11.5822   37.0198   31.6877 C   0  0  0  0  0  0  0  0  0  0  0  0
   13.4840   37.2104   33.3254 N   0  0  0  0  0  0  0  0  0  0  0  0
   11.6179   36.3072   30.4690 O   0  0  0  0  0  0  0  0  0  0  0  0
   14.4797   36.3309   33.5738 C   0  0  0  0  0  0  0  0  0  0  0  0
   13.1136   37.6269   34.5702 C   0  0  0  0  0  0  0  0  0  0  0  0
   15.2074   35.6152   32.6747 N   0  0  0  0  0  0  0  0  0  0  0  0
   14.6756   36.2298   34.9190 C   0  0  0  0  0  0  0  0  0  0  0  0
   13.8217   37.0445   35.5793 N   0  0  0  0  0  0  0  0  0  0  0  0
   16.1643   34.7603   33.1551 C   0  0  0  0  0  0  0  0  0  0  0  0
   15.6528   35.3503   35.4136 C   0  0  0  0  0  0  0  0  0  0  0  0
   16.3798   34.6316   34.5046 N   0  0  0  0  0  0  0  0  0  0  0  0
   15.9004   35.1930   36.8094 N   0  0  0  0  0  0  0  0  0  0  0  0
    9.0121   45.4318   33.6713 H   0  0  0  0  0  0  0  0  0  0  0  0
   11.8906   45.7658   32.9469 H   0  0  0  0  0  0  0  0  0  0  0  0
   10.7260   46.9687   33.1213 H   0  0  0  0  0  0  0  0  0  0  0  0
    9.3416   43.8327   31.4763 H   0  0  0  0  0  0  0  0  0  0  0  0
   10.7231   44.8812   31.1556 H   0  0  0  0  0  0  0  0  0  0  0  0
    7.0085   44.7171   31.5820 H   0  0  0  0  0  0  0  0  0  0  0  0
   10.3466   47.1853   30.4137 H   0  0  0  0  0  0  0  0  0  0  0  0
    5.4625   46.3075   30.5042 H   0  0  0  0  0  0  0  0  0  0  0  0
    8.8215   48.7658   29.3579 H   0  0  0  0  0  0  0  0  0  0  0  0
    7.1971   50.2494   28.9408 H   0  0  0  0  0  0  0  0  0  0  0  0
    7.0448   50.1418   26.4332 H   0  0  0  0  0  0  0  0  0  0  0  0
    6.1596   48.5707   26.5767 H   0  0  0  0  0  0  0  0  0  0  0  0
    7.8538   48.7086   27.1549 H   0  0  0  0  0  0  0  0  0  0  0  0
    3.9501   48.8988   27.4692 H   0  0  0  0  0  0  0  0  0  0  0  0
    3.8876   53.7112   28.7828 H   0  0  0  0  0  0  0  0  0  0  0  0
    0.5091   51.8269   26.0016 H   0  0  0  0  0  0  0  0  0  0  0  0
   -0.1006   51.3811   27.6659 H   0  0  0  0  0  0  0  0  0  0  0  0
    9.8234   40.7201   31.7654 H   0  0  0  0  0  0  0  0  0  0  0  0
   11.3776   41.5549   31.4744 H   0  0  0  0  0  0  0  0  0  0  0  0
   11.7312   39.5363   30.3532 H   0  0  0  0  0  0  0  0  0  0  0  0
   10.1203   38.2696   32.6410 H   0  0  0  0  0  0  0  0  0  0  0  0
   13.6850   37.4639   31.2321 H   0  0  0  0  0  0  0  0  0  0  0  0
   10.0251   38.1793   29.7654 H   0  0  0  0  0  0  0  0  0  0  0  0
   11.2757   36.3135   32.4907 H   0  0  0  0  0  0  0  0  0  0  0  0
   11.9838   36.9111   29.7708 H   0  0  0  0  0  0  0  0  0  0  0  0
   12.3307   38.3536   34.7458 H   0  0  0  0  0  0  0  0  0  0  0  0
   16.7566   34.1787   32.4623 H   0  0  0  0  0  0  0  0  0  0  0  0
   15.3535   35.7355   37.5144 H   0  0  0  0  0  0  0  0  0  0  0  0
   16.6353   34.5301   37.1419 H   0  0  0  0  0  0  0  0  0  0  0  0
  1  2  2  0
  1  3  1  0
  3  4  1  0
  4  5  1  0
  6  1  1  0
  7  6  1  0
  6  8  1  0
  8  9  1  0
  9 10  2  0
 11  9  1  0
 10 12  1  0
 13 11  2  0
 12 14  2  0
 14 13  1  0
 14 15  1  0
 15 16  1  0
 16 17  1  0
 16 18  1  0
 18 19  2  0
 20 18  1  0
 19 21  1  0
 22 20  2  0
 20 23  1  0
 21 24  1  0
 21 25  2  0
 25 22  1  0
 23 26  1  0
 23 27  2  0
 24 28  1  0
 25 29  1  0
 28 29  1  0
  4 30  2  0
  4 31  1  0
 32 31  1  0
 32 33  1  0
 33 34  1  0
 33 35  1  0
 34 36  1  0
 35 37  1  0
 35 38  1  0
 38 36  1  0
 36 39  1  0
 38 40  1  0
 41 39  1  0
 42 39  1  0
 43 41  2  0
 41 44  1  0
 45 42  2  0
 46 43  1  0
 44 47  2  0
 44 45  1  0
 48 46  2  0
 48 47  1  0
 47 49  1  0
  6 50  1  1
  7 51  1  0
  7 52  1  0
  8 53  1  0
  8 54  1  0
 10 55  1  0
 11 56  1  0
 12 57  1  0
 13 58  1  0
 16 59  1  1
 17 60  1  0
 17 61  1  0
 17 62  1  0
 19 63  1  0
 22 64  1  0
 28 65  1  0
 28 66  1  0
 32 67  1  0
 32 68  1  0
 33 69  1  0
 35 70  1  0
 36 71  1  0
 37 72  1  0
 38 73  1  0
 40 74  1  0
 42 75  1  0
 46 76  1  0
 49 77  1  0
 49 78  1  0
M  CHG  3   5  -1  23   1  26  -1
M  END
>  <EmbedRMS>  (15) 
0.0808301732667

$$$$

     RDKit          3D

 78 83  0  0  0  0  0  0  0  0999 V2000
   10.2804   43.7664   33.8249 C   0  0  0  0  0  0  0  0  0  0  0  0
   11.4110   43.5919   34.3666 O   0  0  0  0  0  0  0  0  0  0  0  0
    9.3619   42.7249   33.7344 O   0  0  0  0  0  0  0  0  0  0  0  0
    9.8899   41.2266   34.2940 P   0  0  0  0  0  0  0  0  0  0  0  0
   10.3734   41.4567   35.8833 O   0  0  0  0  0  0  0  0  0  0  0  0
    9.9460   45.0736   33.2110 C   0  0  1  0  0  0  0  0  0  0  0  0
   11.0267   46.0292   33.4707 N   0  0  0  0  0  0  0  0  0  0  0  0
    9.7541   44.8541   31.6947 C   0  0  0  0  0  0  0  0  0  0  0  0
    8.7958   45.8409   31.0844 C   0  0  0  0  0  0  0  0  0  0  0  0
    7.4091   45.6003   31.1015 C   0  0  0  0  0  0  0  0  0  0  0  0
    9.2824   46.9882   30.4402 C   0  0  0  0  0  0  0  0  0  0  0  0
    6.5260   46.4996   30.4875 C   0  0  0  0  0  0  0  0  0  0  0  0
    8.3995   47.8878   29.8323 C   0  0  0  0  0  0  0  0  0  0  0  0
    7.0182   47.6534   29.8440 C   0  0  0  0  0  0  0  0  0  0  0  0
    6.1822   48.5870   29.2092 O   0  0  0  0  0  0  0  0  0  0  0  0
    4.7717   48.4529   29.0303 C   0  0  1  0  0  0  0  0  0  0  0  0
    4.1863   49.7915   28.5796 C   0  0  0  0  0  0  0  0  0  0  0  0
    4.4403   47.3495   28.0358 C   0  0  0  0  0  0  0  0  0  0  0  0
    3.5509   46.3271   28.4489 C   0  0  0  0  0  0  0  0  0  0  0  0
    4.9425   47.3338   26.6909 C   0  0  0  0  0  0  0  0  0  0  0  0
    3.1994   45.3410   27.5364 C   0  0  0  0  0  0  0  0  0  0  0  0
    4.5386   46.3128   25.8024 C   0  0  0  0  0  0  0  0  0  0  0  0
    5.8364   48.3429   26.2063 N   0  0  0  0  0  0  0  0  0  0  0  0
    2.3597   44.2595   27.7216 O   0  0  0  0  0  0  0  0  0  0  0  0
    3.6713   45.3347   26.2689 C   0  0  0  0  0  0  0  0  0  0  0  0
    7.1138   48.4217   26.7076 O   0  0  0  0  0  0  0  0  0  0  0  0
    5.5692   48.9415   25.1442 O   0  0  0  0  0  0  0  0  0  0  0  0
    2.3035   43.5272   26.4898 C   0  0  0  0  0  0  0  0  0  0  0  0
    3.1549   44.2485   25.5889 O   0  0  0  0  0  0  0  0  0  0  0  0
    8.8123   40.1844   34.2133 O   0  0  0  0  0  0  0  0  0  0  0  0
   11.2405   40.7942   33.3691 O   0  0  0  0  0  0  0  0  0  0  0  0
   10.9150   40.6905   31.9972 C   0  0  0  0  0  0  0  0  0  0  0  0
   11.5252   39.3886   31.4375 C   0  0  0  0  0  0  0  0  0  0  0  0
   12.7499   39.0874   32.0799 O   0  0  0  0  0  0  0  0  0  0  0  0
   10.6092   38.1926   31.6470 C   0  0  0  0  0  0  0  0  0  0  0  0
   12.9332   37.6793   32.0294 C   0  0  0  0  0  0  0  0  0  0  0  0
    9.6121   38.0894   30.6542 O   0  0  0  0  0  0  0  0  0  0  0  0
   11.5743   37.0145   31.7024 C   0  0  0  0  0  0  0  0  0  0  0  0
   13.4844   37.2108   33.3241 N   0  0  0  0  0  0  0  0  0  0  0  0
   11.6297   36.3239   30.4740 O   0  0  0  0  0  0  0  0  0  0  0  0
   14.4802   36.3313   33.5727 C   0  0  0  0  0  0  0  0  0  0  0  0
   13.1138   37.6267   34.5692 C   0  0  0  0  0  0  0  0  0  0  0  0
   15.2075   35.6149   32.6739 N   0  0  0  0  0  0  0  0  0  0  0  0
   14.6761   36.2303   34.9181 C   0  0  0  0  0  0  0  0  0  0  0  0
   13.8220   37.0447   35.5785 N   0  0  0  0  0  0  0  0  0  0  0  0
   16.1643   34.7600   33.1547 C   0  0  0  0  0  0  0  0  0  0  0  0
   15.6529   35.3505   35.4130 C   0  0  0  0  0  0  0  0  0  0  0  0
   16.3798   34.6315   34.5042 N   0  0  0  0  0  0  0  0  0  0  0  0
   15.9003   35.1932   36.8090 N   0  0  0  0  0  0  0  0  0  0  0  0
    8.9995   45.4381   33.6719 H   0  0  0  0  0  0  0  0  0  0  0  0
   11.0501   46.2277   34.4981 H   0  0  0  0  0  0  0  0  0  0  0  0
   10.7765   46.9369   33.0158 H   0  0  0  0  0  0  0  0  0  0  0  0
   10.7413   44.9078   31.1834 H   0  0  0  0  0  0  0  0  0  0  0  0
    9.3647   43.8353   31.4709 H   0  0  0  0  0  0  0  0  0  0  0  0
    7.0148   44.7168   31.5884 H   0  0  0  0  0  0  0  0  0  0  0  0
   10.3462   47.1883   30.4061 H   0  0  0  0  0  0  0  0  0  0  0  0
    5.4686   46.2875   30.5288 H   0  0  0  0  0  0  0  0  0  0  0  0
    8.7917   48.7693   29.3410 H   0  0  0  0  0  0  0  0  0  0  0  0
    4.3110   48.2368   30.0200 H   0  0  0  0  0  0  0  0  0  0  0  0
    3.0930   49.6938   28.4070 H   0  0  0  0  0  0  0  0  0  0  0  0
    4.6698   50.1523   27.6493 H   0  0  0  0  0  0  0  0  0  0  0  0
    4.3493   50.5540   29.3706 H   0  0  0  0  0  0  0  0  0  0  0  0
    3.1360   46.3042   29.4486 H   0  0  0  0  0  0  0  0  0  0  0  0
    4.9002   46.2807   24.7825 H   0  0  0  0  0  0  0  0  0  0  0  0
    2.6883   42.4964   26.6380 H   0  0  0  0  0  0  0  0  0  0  0  0
    1.2636   43.5078   26.1016 H   0  0  0  0  0  0  0  0  0  0  0  0
   11.3800   41.5528   31.4730 H   0  0  0  0  0  0  0  0  0  0  0  0
    9.8241   40.7215   31.7641 H   0  0  0  0  0  0  0  0  0  0  0  0
   11.7266   39.5310   30.3513 H   0  0  0  0  0  0  0  0  0  0  0  0
   10.1110   38.2747   32.6387 H   0  0  0  0  0  0  0  0  0  0  0  0
   13.6652   37.4520   31.2226 H   0  0  0  0  0  0  0  0  0  0  0  0
   10.0511   38.1143   29.7645 H   0  0  0  0  0  0  0  0  0  0  0  0
   11.2762   36.3141   32.5189 H   0  0  0  0  0  0  0  0  0  0  0  0
   10.8593   35.6978   30.4640 H   0  0  0  0  0  0  0  0  0  0  0  0
   12.3295   38.3518   34.7449 H   0  0  0  0  0  0  0  0  0  0  0  0
   16.7564   34.1780   32.4620 H   0  0  0  0  0  0  0  0  0  0  0  0
   16.6349   34.5300   37.1415 H   0  0  0  0  0  0  0  0  0  0  0  0
   15.3534   35.7359   37.5138 H   0  0  0  0  0  0  0  0  0  0  0  0
  1  2  2  0
  1  3  1  0
  3  4  1  0
  4  5  1  0
  6  1  1  0
  7  6  1  0
  6  8  1  0
  8  9  1  0
  9 10  2  0
 11  9  1  0
 10 12  1  0
 13 11  2  0
 12 14  2  0
 14 13  1  0
 14 15  1  0
 15 16  1  0
 16 17  1  0
 16 18  1  0
 18 19  2  0
 20 18  1  0
 19 21  1  0
 22 20  2  0
 20 23  1  0
 21 24  1  0
 21 25  2  0
 25 22  1  0
 23 26  1  0
 23 27  2  0
 24 28  1  0
 25 29  1  0
 28 29  1  0
  4 30  2  0
  4 31  1  0
 32 31  1  0
 32 33  1  0
 33 34  1  0
 33 35  1  0
 34 36  1  0
 35 37  1  0
 35 38  1  0
 38 36  1  0
 36 39  1  0
 38 40  1  0
 41 39  1  0
 42 39  1  0
 43 41  2  0
 41 44  1  0
 45 42  2  0
 46 43  1  0
 44 47  2  0
 44 45  1  0
 48 46  2  0
 48 47  1  0
 47 49  1  0
  6 50  1  1
  7 51  1  0
  7 52  1  0
  8 53  1  0
  8 54  1  0
 10 55  1  0
 11 56  1  0
 12 57  1  0
 13 58  1  0
 16 59  1  1
 17 60  1  0
 17 61  1  0
 17 62  1  0
 19 63  1  0
 22 64  1  0
 28 65  1  0
 28 66  1  0
 32 67  1  0
 32 68  1  0
 33 69  1  0
 35 70  1  0
 36 71  1  0
 37 72  1  0
 38 73  1  0
 40 74  1  0
 42 75  1  0
 46 76  1  0
 49 77  1  0
 49 78  1  0
M  CHG  3   5  -1  23   1  26  -1
M  END
>  <EmbedRMS>  (16) 
0.0816409771193

$$$$

     RDKit          3D

 78 83  0  0  0  0  0  0  0  0999 V2000
   10.2835   43.7663   33.8257 C   0  0  0  0  0  0  0  0  0  0  0  0
   11.4101   43.5931   34.3755 O   0  0  0  0  0  0  0  0  0  0  0  0
    9.3637   42.7256   33.7348 O   0  0  0  0  0  0  0  0  0  0  0  0
    9.8905   41.2266   34.2933 P   0  0  0  0  0  0  0  0  0  0  0  0
   10.3743   41.4558   35.8827 O   0  0  0  0  0  0  0  0  0  0  0  0
    9.9547   45.0697   33.2036 C   0  0  1  0  0  0  0  0  0  0  0  0
   11.0272   46.0325   33.4759 N   0  0  0  0  0  0  0  0  0  0  0  0
    9.7468   44.8485   31.6877 C   0  0  0  0  0  0  0  0  0  0  0  0
    8.7924   45.8410   31.0844 C   0  0  0  0  0  0  0  0  0  0  0  0
    7.4058   45.6012   31.0984 C   0  0  0  0  0  0  0  0  0  0  0  0
    9.2821   46.9875   30.4413 C   0  0  0  0  0  0  0  0  0  0  0  0
    6.5267   46.5028   30.4834 C   0  0  0  0  0  0  0  0  0  0  0  0
    8.4030   47.8894   29.8306 C   0  0  0  0  0  0  0  0  0  0  0  0
    7.0133   47.6544   29.8500 C   0  0  0  0  0  0  0  0  0  0  0  0
    6.0866   48.5299   29.2604 O   0  0  0  0  0  0  0  0  0  0  0  0
    6.4040   49.7905   28.6638 C   0  0  1  0  0  0  0  0  0  0  0  0
    5.1611   50.3244   27.9538 C   0  0  0  0  0  0  0  0  0  0  0  0
    6.8644   50.7801   29.7209 C   0  0  0  0  0  0  0  0  0  0  0  0
    6.1456   50.8517   30.9396 C   0  0  0  0  0  0  0  0  0  0  0  0
    8.0314   51.5947   29.5459 C   0  0  0  0  0  0  0  0  0  0  0  0
    6.6208   51.6868   31.9420 C   0  0  0  0  0  0  0  0  0  0  0  0
    8.4766   52.4146   30.6085 C   0  0  0  0  0  0  0  0  0  0  0  0
    8.7561   51.6143   28.3062 N   0  0  0  0  0  0  0  0  0  0  0  0
    6.0952   51.9024   33.2015 O   0  0  0  0  0  0  0  0  0  0  0  0
    7.7398   52.4310   31.7855 C   0  0  0  0  0  0  0  0  0  0  0  0
    8.0840   51.7729   27.1165 O   0  0  0  0  0  0  0  0  0  0  0  0
   10.0005   51.7128   28.3127 O   0  0  0  0  0  0  0  0  0  0  0  0
    6.9396   52.8440   33.8778 C   0  0  0  0  0  0  0  0  0  0  0  0
    7.9771   53.1557   32.9377 O   0  0  0  0  0  0  0  0  0  0  0  0
    8.8123   40.1850   34.2126 O   0  0  0  0  0  0  0  0  0  0  0  0
   11.2404   40.7947   33.3669 O   0  0  0  0  0  0  0  0  0  0  0  0
   10.9127   40.6860   31.9954 C   0  0  0  0  0  0  0  0  0  0  0  0
   11.5176   39.3786   31.4406 C   0  0  0  0  0  0  0  0  0  0  0  0
   12.7491   39.0862   32.0752 O   0  0  0  0  0  0  0  0  0  0  0  0
   10.6061   38.1867   31.6657 C   0  0  0  0  0  0  0  0  0  0  0  0
   12.9356   37.6794   32.0292 C   0  0  0  0  0  0  0  0  0  0  0  0
    9.6400   38.0902   30.6472 O   0  0  0  0  0  0  0  0  0  0  0  0
   11.5765   37.0144   31.7045 C   0  0  0  0  0  0  0  0  0  0  0  0
   13.4859   37.2123   33.3243 N   0  0  0  0  0  0  0  0  0  0  0  0
   11.6101   36.3398   30.4672 O   0  0  0  0  0  0  0  0  0  0  0  0
   14.4807   36.3319   33.5729 C   0  0  0  0  0  0  0  0  0  0  0  0
   13.1141   37.6272   34.5693 C   0  0  0  0  0  0  0  0  0  0  0  0
   15.2077   35.6152   32.6741 N   0  0  0  0  0  0  0  0  0  0  0  0
   14.6761   36.2304   34.9183 C   0  0  0  0  0  0  0  0  0  0  0  0
   13.8217   37.0446   35.5786 N   0  0  0  0  0  0  0  0  0  0  0  0
   16.1641   34.7598   33.1550 C   0  0  0  0  0  0  0  0  0  0  0  0
   15.6527   35.3504   35.4132 C   0  0  0  0  0  0  0  0  0  0  0  0
   16.3795   34.6313   34.5045 N   0  0  0  0  0  0  0  0  0  0  0  0
   15.9001   35.1935   36.8092 N   0  0  0  0  0  0  0  0  0  0  0  0
    9.0120   45.4317   33.6715 H   0  0  0  0  0  0  0  0  0  0  0  0
   10.7257   46.9691   33.1214 H   0  0  0  0  0  0  0  0  0  0  0  0
   11.8905   45.7662   32.9473 H   0  0  0  0  0  0  0  0  0  0  0  0
   10.7234   44.8822   31.1560 H   0  0  0  0  0  0  0  0  0  0  0  0
    9.3421   43.8333   31.4759 H   0  0  0  0  0  0  0  0  0  0  0  0
    7.0087   44.7164   31.5804 H   0  0  0  0  0  0  0  0  0  0  0  0
   10.3466   47.1839   30.4089 H   0  0  0  0  0  0  0  0  0  0  0  0
    5.4622   46.3073   30.5033 H   0  0  0  0  0  0  0  0  0  0  0  0
    8.8173   48.7598   29.3431 H   0  0  0  0  0  0  0  0  0  0  0  0
    7.1825   49.6200   27.8920 H   0  0  0  0  0  0  0  0  0  0  0  0
    5.3750   51.3088   27.4862 H   0  0  0  0  0  0  0  0  0  0  0  0
    4.8513   49.6159   27.1567 H   0  0  0  0  0  0  0  0  0  0  0  0
    4.3196   50.4392   28.6702 H   0  0  0  0  0  0  0  0  0  0  0  0
    5.2572   50.2561   31.1085 H   0  0  0  0  0  0  0  0  0  0  0  0
    9.3564   53.0376   30.5097 H   0  0  0  0  0  0  0  0  0  0  0  0
    7.3744   52.3840   34.7898 H   0  0  0  0  0  0  0  0  0  0  0  0
    6.3662   53.7597   34.1331 H   0  0  0  0  0  0  0  0  0  0  0  0
   11.3805   41.5437   31.4664 H   0  0  0  0  0  0  0  0  0  0  0  0
    9.8218   40.7204   31.7635 H   0  0  0  0  0  0  0  0  0  0  0  0
   11.7001   39.5042   30.3482 H   0  0  0  0  0  0  0  0  0  0  0  0
   10.1087   38.2764   32.6604 H   0  0  0  0  0  0  0  0  0  0  0  0
   13.6680   37.4517   31.2230 H   0  0  0  0  0  0  0  0  0  0  0  0
    9.0016   37.3868   30.9350 H   0  0  0  0  0  0  0  0  0  0  0  0
   11.2666   36.3058   32.5083 H   0  0  0  0  0  0  0  0  0  0  0  0
   12.1387   35.5126   30.6146 H   0  0  0  0  0  0  0  0  0  0  0  0
   12.3293   38.3519   34.7449 H   0  0  0  0  0  0  0  0  0  0  0  0
   16.7561   34.1775   32.4625 H   0  0  0  0  0  0  0  0  0  0  0  0
   15.3530   35.7363   37.5138 H   0  0  0  0  0  0  0  0  0  0  0  0
   16.6345   34.5301   37.1419 H   0  0  0  0  0  0  0  0  0  0  0  0
  1  2  2  0
  1  3  1  0
  3  4  1  0
  4  5  1  0
  6  1  1  0
  7  6  1  0
  6  8  1  0
  8  9  1  0
  9 10  2  0
 11  9  1  0
 10 12  1  0
 13 11  2  0
 12 14  2  0
 14 13  1  0
 14 15  1  0
 15 16  1  0
 16 17  1  0
 16 18  1  0
 18 19  2  0
 20 18  1  0
 19 21  1  0
 22 20  2  0
 20 23  1  0
 21 24  1  0
 21 25  2  0
 25 22  1  0
 23 26  1  0
 23 27  2  0
 24 28  1  0
 25 29  1  0
 28 29  1  0
  4 30  2  0
  4 31  1  0
 32 31  1  0
 32 33  1  0
 33 34  1  0
 33 35  1  0
 34 36  1  0
 35 37  1  0
 35 38  1  0
 38 36  1  0
 36 39  1  0
 38 40  1  0
 41 39  1  0
 42 39  1  0
 43 41  2  0
 41 44  1  0
 45 42  2  0
 46 43  1  0
 44 47  2  0
 44 45  1  0
 48 46  2  0
 48 47  1  0
 47 49  1  0
  6 50  1  1
  7 51  1  0
  7 52  1  0
  8 53  1  0
  8 54  1  0
 10 55  1  0
 11 56  1  0
 12 57  1  0
 13 58  1  0
 16 59  1  6
 17 60  1  0
 17 61  1  0
 17 62  1  0
 19 63  1  0
 22 64  1  0
 28 65  1  0
 28 66  1  0
 32 67  1  0
 32 68  1  0
 33 69  1  0
 35 70  1  0
 36 71  1  0
 37 72  1  0
 38 73  1  0
 40 74  1  0
 42 75  1  0
 46 76  1  0
 49 77  1  0
 49 78  1  0
M  CHG  3   5  -1  23   1  26  -1
M  END
>  <EmbedRMS>  (17) 
0.0824297842477

$$$$

     RDKit          3D

 78 83  0  0  0  0  0  0  0  0999 V2000
   10.2804   43.7664   33.8250 C   0  0  0  0  0  0  0  0  0  0  0  0
   11.4111   43.5919   34.3667 O   0  0  0  0  0  0  0  0  0  0  0  0
    9.3621   42.7248   33.7344 O   0  0  0  0  0  0  0  0  0  0  0  0
    9.8903   41.2264   34.2936 P   0  0  0  0  0  0  0  0  0  0  0  0
   10.3732   41.4564   35.8831 O   0  0  0  0  0  0  0  0  0  0  0  0
    9.9458   45.0736   33.2113 C   0  0  1  0  0  0  0  0  0  0  0  0
   11.0265   46.0293   33.4706 N   0  0  0  0  0  0  0  0  0  0  0  0
    9.7535   44.8539   31.6951 C   0  0  0  0  0  0  0  0  0  0  0  0
    8.7955   45.8411   31.0849 C   0  0  0  0  0  0  0  0  0  0  0  0
    7.4087   45.6001   31.1001 C   0  0  0  0  0  0  0  0  0  0  0  0
    9.2831   46.9874   30.4395 C   0  0  0  0  0  0  0  0  0  0  0  0
    6.5282   46.5006   30.4846 C   0  0  0  0  0  0  0  0  0  0  0  0
    8.4027   47.8885   29.8297 C   0  0  0  0  0  0  0  0  0  0  0  0
    7.0134   47.6523   29.8501 C   0  0  0  0  0  0  0  0  0  0  0  0
    6.0859   48.5266   29.2598 O   0  0  0  0  0  0  0  0  0  0  0  0
    6.4030   49.7870   28.6626 C   0  0  1  0  0  0  0  0  0  0  0  0
    5.1609   50.3198   27.9508 C   0  0  0  0  0  0  0  0  0  0  0  0
    6.8616   50.7784   29.7193 C   0  0  0  0  0  0  0  0  0  0  0  0
    6.1509   50.8387   30.9432 C   0  0  0  0  0  0  0  0  0  0  0  0
    8.0175   51.6088   29.5379 C   0  0  0  0  0  0  0  0  0  0  0  0
    6.6248   51.6751   31.9450 C   0  0  0  0  0  0  0  0  0  0  0  0
    8.4620   52.4279   30.6002 C   0  0  0  0  0  0  0  0  0  0  0  0
    8.7367   51.6452   28.2954 N   0  0  0  0  0  0  0  0  0  0  0  0
    6.1066   51.8803   33.2092 O   0  0  0  0  0  0  0  0  0  0  0  0
    7.7344   52.4317   31.7829 C   0  0  0  0  0  0  0  0  0  0  0  0
   10.1030   51.8061   28.3016 O   0  0  0  0  0  0  0  0  0  0  0  0
    8.1212   51.7686   27.2167 O   0  0  0  0  0  0  0  0  0  0  0  0
    6.9460   52.8283   33.8827 C   0  0  0  0  0  0  0  0  0  0  0  0
    7.9728   53.1545   32.9360 O   0  0  0  0  0  0  0  0  0  0  0  0
    8.8128   40.1841   34.2125 O   0  0  0  0  0  0  0  0  0  0  0  0
   11.2416   40.7945   33.3692 O   0  0  0  0  0  0  0  0  0  0  0  0
   10.9178   40.6904   31.9968 C   0  0  0  0  0  0  0  0  0  0  0  0
   11.5181   39.3813   31.4408 C   0  0  0  0  0  0  0  0  0  0  0  0
   12.7497   39.0870   32.0746 O   0  0  0  0  0  0  0  0  0  0  0  0
   10.6045   38.1891   31.6655 C   0  0  0  0  0  0  0  0  0  0  0  0
   12.9344   37.6801   32.0290 C   0  0  0  0  0  0  0  0  0  0  0  0
    9.6418   38.0758   30.6441 O   0  0  0  0  0  0  0  0  0  0  0  0
   11.5741   37.0170   31.7045 C   0  0  0  0  0  0  0  0  0  0  0  0
   13.4851   37.2126   33.3241 N   0  0  0  0  0  0  0  0  0  0  0  0
   11.6079   36.3407   30.4680 O   0  0  0  0  0  0  0  0  0  0  0  0
   14.4801   36.3321   33.5727 C   0  0  0  0  0  0  0  0  0  0  0  0
   13.1140   37.6277   34.5693 C   0  0  0  0  0  0  0  0  0  0  0  0
   15.2073   35.6155   32.6739 N   0  0  0  0  0  0  0  0  0  0  0  0
   14.6758   36.2306   34.9182 C   0  0  0  0  0  0  0  0  0  0  0  0
   13.8217   37.0451   35.5785 N   0  0  0  0  0  0  0  0  0  0  0  0
   16.1639   34.7602   33.1546 C   0  0  0  0  0  0  0  0  0  0  0  0
   15.6526   35.3506   35.4130 C   0  0  0  0  0  0  0  0  0  0  0  0
   16.3794   34.6316   34.5041 N   0  0  0  0  0  0  0  0  0  0  0  0
   15.9001   35.1933   36.8089 N   0  0  0  0  0  0  0  0  0  0  0  0
    8.9995   45.4381   33.6724 H   0  0  0  0  0  0  0  0  0  0  0  0
   11.0503   46.2279   34.4980 H   0  0  0  0  0  0  0  0  0  0  0  0
   10.7761   46.9369   33.0157 H   0  0  0  0  0  0  0  0  0  0  0  0
   10.7406   44.9069   31.1836 H   0  0  0  0  0  0  0  0  0  0  0  0
    9.3634   43.8352   31.4716 H   0  0  0  0  0  0  0  0  0  0  0  0
    7.0131   44.7157   31.5841 H   0  0  0  0  0  0  0  0  0  0  0  0
   10.3474   47.1852   30.4051 H   0  0  0  0  0  0  0  0  0  0  0  0
    5.4637   46.3044   30.5054 H   0  0  0  0  0  0  0  0  0  0  0  0
    8.8161   48.7590   29.3414 H   0  0  0  0  0  0  0  0  0  0  0  0
    7.1822   49.6157   27.8918 H   0  0  0  0  0  0  0  0  0  0  0  0
    5.3778   51.3003   27.4761 H   0  0  0  0  0  0  0  0  0  0  0  0
    4.8481   49.6066   27.1589 H   0  0  0  0  0  0  0  0  0  0  0  0
    4.3210   50.4427   28.6677 H   0  0  0  0  0  0  0  0  0  0  0  0
    5.2699   50.2338   31.1167 H   0  0  0  0  0  0  0  0  0  0  0  0
    9.3338   53.0610   30.4973 H   0  0  0  0  0  0  0  0  0  0  0  0
    7.3928   52.3693   34.7895 H   0  0  0  0  0  0  0  0  0  0  0  0
    6.3649   53.7368   34.1460 H   0  0  0  0  0  0  0  0  0  0  0  0
   11.3944   41.5458   31.4719 H   0  0  0  0  0  0  0  0  0  0  0  0
    9.8288   40.7385   31.7615 H   0  0  0  0  0  0  0  0  0  0  0  0
   11.6994   39.5068   30.3484 H   0  0  0  0  0  0  0  0  0  0  0  0
   10.1090   38.2634   32.6632 H   0  0  0  0  0  0  0  0  0  0  0  0
   13.6662   37.4515   31.2224 H   0  0  0  0  0  0  0  0  0  0  0  0
    8.9008   38.6923   30.8794 H   0  0  0  0  0  0  0  0  0  0  0  0
   11.2650   36.3083   32.5087 H   0  0  0  0  0  0  0  0  0  0  0  0
   12.1372   35.5141   30.6163 H   0  0  0  0  0  0  0  0  0  0  0  0
   12.3297   38.3530   34.7450 H   0  0  0  0  0  0  0  0  0  0  0  0
   16.7558   34.1781   32.4619 H   0  0  0  0  0  0  0  0  0  0  0  0
   16.6346   34.5300   37.1414 H   0  0  0  0  0  0  0  0  0  0  0  0
   15.3533   35.7360   37.5138 H   0  0  0  0  0  0  0  0  0  0  0  0
  1  2  2  0
  1  3  1  0
  3  4  1  0
  4  5  1  0
  6  1  1  0
  7  6  1  0
  6  8  1  0
  8  9  1  0
  9 10  2  0
 11  9  1  0
 10 12  1  0
 13 11  2  0
 12 14  2  0
 14 13  1  0
 14 15  1  0
 15 16  1  0
 16 17  1  0
 16 18  1  0
 18 19  2  0
 20 18  1  0
 19 21  1  0
 22 20  2  0
 20 23  1  0
 21 24  1  0
 21 25  2  0
 25 22  1  0
 23 26  1  0
 23 27  2  0
 24 28  1  0
 25 29  1  0
 28 29  1  0
  4 30  2  0
  4 31  1  0
 32 31  1  0
 32 33  1  0
 33 34  1  0
 33 35  1  0
 34 36  1  0
 35 37  1  0
 35 38  1  0
 38 36  1  0
 36 39  1  0
 38 40  1  0
 41 39  1  0
 42 39  1  0
 43 41  2  0
 41 44  1  0
 45 42  2  0
 46 43  1  0
 44 47  2  0
 44 45  1  0
 48 46  2  0
 48 47  1  0
 47 49  1  0
  6 50  1  1
  7 51  1  0
  7 52  1  0
  8 53  1  0
  8 54  1  0
 10 55  1  0
 11 56  1  0
 12 57  1  0
 13 58  1  0
 16 59  1  6
 17 60  1  0
 17 61  1  0
 17 62  1  0
 19 63  1  0
 22 64  1  0
 28 65  1  0
 28 66  1  0
 32 67  1  0
 32 68  1  0
 33 69  1  0
 35 70  1  0
 36 71  1  0
 37 72  1  0
 38 73  1  0
 40 74  1  0
 42 75  1  0
 46 76  1  0
 49 77  1  0
 49 78  1  0
M  CHG  3   5  -1  23   1  26  -1
M  END
>  <EmbedRMS>  (18) 
0.0826613336708

$$$$

     RDKit          3D

 78 83  0  0  0  0  0  0  0  0999 V2000
   10.2835   43.7662   33.8258 C   0  0  0  0  0  0  0  0  0  0  0  0
   11.4103   43.5931   34.3753 O   0  0  0  0  0  0  0  0  0  0  0  0
    9.3638   42.7255   33.7352 O   0  0  0  0  0  0  0  0  0  0  0  0
    9.8904   41.2268   34.2946 P   0  0  0  0  0  0  0  0  0  0  0  0
   10.3729   41.4561   35.8842 O   0  0  0  0  0  0  0  0  0  0  0  0
    9.9546   45.0695   33.2037 C   0  0  1  0  0  0  0  0  0  0  0  0
   11.0273   46.0323   33.4757 N   0  0  0  0  0  0  0  0  0  0  0  0
    9.7465   44.8480   31.6879 C   0  0  0  0  0  0  0  0  0  0  0  0
    8.7922   45.8409   31.0849 C   0  0  0  0  0  0  0  0  0  0  0  0
    7.4056   45.6012   31.0984 C   0  0  0  0  0  0  0  0  0  0  0  0
    9.2822   46.9872   30.4419 C   0  0  0  0  0  0  0  0  0  0  0  0
    6.5271   46.5026   30.4827 C   0  0  0  0  0  0  0  0  0  0  0  0
    8.4032   47.8890   29.8305 C   0  0  0  0  0  0  0  0  0  0  0  0
    7.0138   47.6548   29.8498 C   0  0  0  0  0  0  0  0  0  0  0  0
    6.0858   48.5274   29.2580 O   0  0  0  0  0  0  0  0  0  0  0  0
    6.3849   49.8089   28.7032 C   0  0  1  0  0  0  0  0  0  0  0  0
    5.1778   50.3187   27.9150 C   0  0  0  0  0  0  0  0  0  0  0  0
    6.7945   50.8026   29.7823 C   0  0  0  0  0  0  0  0  0  0  0  0
    8.0446   51.4543   29.6394 C   0  0  0  0  0  0  0  0  0  0  0  0
    5.9520   51.1495   30.8949 C   0  0  0  0  0  0  0  0  0  0  0  0
    8.4140   52.4038   30.5825 C   0  0  0  0  0  0  0  0  0  0  0  0
    6.3753   52.1361   31.8127 C   0  0  0  0  0  0  0  0  0  0  0  0
    4.6664   50.5472   31.0967 N   0  0  0  0  0  0  0  0  0  0  0  0
    9.5749   53.1509   30.6397 O   0  0  0  0  0  0  0  0  0  0  0  0
    7.6143   52.7313   31.6223 C   0  0  0  0  0  0  0  0  0  0  0  0
    3.5918   51.3432   31.4189 O   0  0  0  0  0  0  0  0  0  0  0  0
    4.5703   49.3147   31.2604 O   0  0  0  0  0  0  0  0  0  0  0  0
    9.4975   54.0008   31.7923 C   0  0  0  0  0  0  0  0  0  0  0  0
    8.2291   53.7012   32.3906 O   0  0  0  0  0  0  0  0  0  0  0  0
    8.8125   40.1848   34.2126 O   0  0  0  0  0  0  0  0  0  0  0  0
   11.2416   40.7948   33.3707 O   0  0  0  0  0  0  0  0  0  0  0  0
   10.9179   40.6922   31.9984 C   0  0  0  0  0  0  0  0  0  0  0  0
   11.5175   39.3838   31.4423 C   0  0  0  0  0  0  0  0  0  0  0  0
   12.7508   39.0887   32.0752 O   0  0  0  0  0  0  0  0  0  0  0  0
   10.6028   38.1916   31.6659 C   0  0  0  0  0  0  0  0  0  0  0  0
   12.9385   37.6818   32.0278 C   0  0  0  0  0  0  0  0  0  0  0  0
    9.6371   38.0806   30.6470 O   0  0  0  0  0  0  0  0  0  0  0  0
   11.5780   37.0215   31.6935 C   0  0  0  0  0  0  0  0  0  0  0  0
   13.4844   37.2119   33.3242 N   0  0  0  0  0  0  0  0  0  0  0  0
   11.6095   36.3202   30.4679 O   0  0  0  0  0  0  0  0  0  0  0  0
   14.4797   36.3318   33.5730 C   0  0  0  0  0  0  0  0  0  0  0  0
   13.1135   37.6278   34.5691 C   0  0  0  0  0  0  0  0  0  0  0  0
   15.2073   35.6155   32.6742 N   0  0  0  0  0  0  0  0  0  0  0  0
   14.6754   36.2305   34.9184 C   0  0  0  0  0  0  0  0  0  0  0  0
   13.8213   37.0452   35.5785 N   0  0  0  0  0  0  0  0  0  0  0  0
   16.1640   34.7604   33.1549 C   0  0  0  0  0  0  0  0  0  0  0  0
   15.6524   35.3507   35.4132 C   0  0  0  0  0  0  0  0  0  0  0  0
   16.3794   34.6318   34.5044 N   0  0  0  0  0  0  0  0  0  0  0  0
   15.8999   35.1934   36.8091 N   0  0  0  0  0  0  0  0  0  0  0  0
    9.0121   45.4318   33.6716 H   0  0  0  0  0  0  0  0  0  0  0  0
   11.8905   45.7660   32.9469 H   0  0  0  0  0  0  0  0  0  0  0  0
   10.7257   46.9688   33.1213 H   0  0  0  0  0  0  0  0  0  0  0  0
   10.7228   44.8813   31.1558 H   0  0  0  0  0  0  0  0  0  0  0  0
    9.3412   43.8329   31.4765 H   0  0  0  0  0  0  0  0  0  0  0  0
    7.0083   44.7163   31.5801 H   0  0  0  0  0  0  0  0  0  0  0  0
   10.3470   47.1826   30.4084 H   0  0  0  0  0  0  0  0  0  0  0  0
    5.4624   46.3070   30.5017 H   0  0  0  0  0  0  0  0  0  0  0  0
    8.8192   48.7544   29.3378 H   0  0  0  0  0  0  0  0  0  0  0  0
    7.2023   49.6846   27.9583 H   0  0  0  0  0  0  0  0  0  0  0  0
    4.9689   49.6307   27.0684 H   0  0  0  0  0  0  0  0  0  0  0  0
    4.2701   50.3681   28.5496 H   0  0  0  0  0  0  0  0  0  0  0  0
    5.3880   51.3286   27.5020 H   0  0  0  0  0  0  0  0  0  0  0  0
    8.7077   51.2377   28.8115 H   0  0  0  0  0  0  0  0  0  0  0  0
    5.7590   52.4202   32.6561 H   0  0  0  0  0  0  0  0  0  0  0  0
    9.5345   55.0673   31.4863 H   0  0  0  0  0  0  0  0  0  0  0  0
   10.3201   53.7646   32.4995 H   0  0  0  0  0  0  0  0  0  0  0  0
   11.3952   41.5478   31.4744 H   0  0  0  0  0  0  0  0  0  0  0  0
    9.8291   40.7409   31.7627 H   0  0  0  0  0  0  0  0  0  0  0  0
   11.6981   39.5115   30.3500 H   0  0  0  0  0  0  0  0  0  0  0  0
   10.1117   38.2604   32.6661 H   0  0  0  0  0  0  0  0  0  0  0  0
   13.6767   37.4556   31.2267 H   0  0  0  0  0  0  0  0  0  0  0  0
    8.8961   38.6952   30.8872 H   0  0  0  0  0  0  0  0  0  0  0  0
   11.2791   36.3072   32.4922 H   0  0  0  0  0  0  0  0  0  0  0  0
   11.8828   36.9598   29.7589 H   0  0  0  0  0  0  0  0  0  0  0  0
   12.3300   38.3539   34.7446 H   0  0  0  0  0  0  0  0  0  0  0  0
   16.7562   34.1785   32.4622 H   0  0  0  0  0  0  0  0  0  0  0  0
   16.6347   34.5303   37.1416 H   0  0  0  0  0  0  0  0  0  0  0  0
   15.3531   35.7360   37.5140 H   0  0  0  0  0  0  0  0  0  0  0  0
  1  2  2  0
  1  3  1  0
  3  4  1  0
  4  5  1  0
  6  1  1  0
  7  6  1  0
  6  8  1  0
  8  9  1  0
  9 10  2  0
 11  9  1  0
 10 12  1  0
 13 11  2  0
 12 14  2  0
 14 13  1  0
 14 15  1  0
 15 16  1  0
 16 17  1  0
 16 18  1  0
 18 19  2  0
 20 18  1  0
 19 21  1  0
 22 20  2  0
 20 23  1  0
 21 24  1  0
 21 25  2  0
 25 22  1  0
 23 26  1  0
 23 27  2  0
 24 28  1  0
 25 29  1  0
 28 29  1  0
  4 30  2  0
  4 31  1  0
 32 31  1  0
 32 33  1  0
 33 34  1  0
 33 35  1  0
 34 36  1  0
 35 37  1  0
 35 38  1  0
 38 36  1  0
 36 39  1  0
 38 40  1  0
 41 39  1  0
 42 39  1  0
 43 41  2  0
 41 44  1  0
 45 42  2  0
 46 43  1  0
 44 47  2  0
 44 45  1  0
 48 46  2  0
 48 47  1  0
 47 49  1  0
  6 50  1  1
  7 51  1  0
  7 52  1  0
  8 53  1  0
  8 54  1  0
 10 55  1  0
 11 56  1  0
 12 57  1  0
 13 58  1  0
 16 59  1  6
 17 60  1  0
 17 61  1  0
 17 62  1  0
 19 63  1  0
 22 64  1  0
 28 65  1  0
 28 66  1  0
 32 67  1  0
 32 68  1  0
 33 69  1  0
 35 70  1  0
 36 71  1  0
 37 72  1  0
 38 73  1  0
 40 74  1  0
 42 75  1  0
 46 76  1  0
 49 77  1  0
 49 78  1  0
M  CHG  3   5  -1  23   1  26  -1
M  END
>  <EmbedRMS>  (19) 
0.0819739337566

$$$$

     RDKit          3D

 78 83  0  0  0  0  0  0  0  0999 V2000
   10.2838   43.7627   33.8276 C   0  0  0  0  0  0  0  0  0  0  0  0
   11.4103   43.5863   34.3766 O   0  0  0  0  0  0  0  0  0  0  0  0
    9.3628   42.7238   33.7356 O   0  0  0  0  0  0  0  0  0  0  0  0
    9.8890   41.2252   34.2949 P   0  0  0  0  0  0  0  0  0  0  0  0
   10.3723   41.4548   35.8843 O   0  0  0  0  0  0  0  0  0  0  0  0
    9.9549   45.0700   33.2062 C   0  0  1  0  0  0  0  0  0  0  0  0
   11.0198   46.0481   33.4570 N   0  0  0  0  0  0  0  0  0  0  0  0
    9.7507   44.8510   31.6921 C   0  0  0  0  0  0  0  0  0  0  0  0
    8.7945   45.8416   31.0865 C   0  0  0  0  0  0  0  0  0  0  0  0
    7.4078   45.6008   31.1008 C   0  0  0  0  0  0  0  0  0  0  0  0
    9.2826   46.9894   30.4450 C   0  0  0  0  0  0  0  0  0  0  0  0
    6.5258   46.5005   30.4864 C   0  0  0  0  0  0  0  0  0  0  0  0
    8.4007   47.8885   29.8342 C   0  0  0  0  0  0  0  0  0  0  0  0
    7.0192   47.6542   29.8436 C   0  0  0  0  0  0  0  0  0  0  0  0
    6.1844   48.5878   29.2073 O   0  0  0  0  0  0  0  0  0  0  0  0
    4.7735   48.4562   29.0301 C   0  0  1  0  0  0  0  0  0  0  0  0
    4.1903   49.7954   28.5783 C   0  0  0  0  0  0  0  0  0  0  0  0
    4.4386   47.3524   28.0373 C   0  0  0  0  0  0  0  0  0  0  0  0
    3.5458   46.3336   28.4517 C   0  0  0  0  0  0  0  0  0  0  0  0
    4.9403   47.3335   26.6922 C   0  0  0  0  0  0  0  0  0  0  0  0
    3.1905   45.3477   27.5404 C   0  0  0  0  0  0  0  0  0  0  0  0
    4.5326   46.3130   25.8050 C   0  0  0  0  0  0  0  0  0  0  0  0
    5.8376   48.3390   26.2064 N   0  0  0  0  0  0  0  0  0  0  0  0
    2.3469   44.2696   27.7270 O   0  0  0  0  0  0  0  0  0  0  0  0
    3.6619   45.3385   26.2728 C   0  0  0  0  0  0  0  0  0  0  0  0
    7.1161   48.4123   26.7059 O   0  0  0  0  0  0  0  0  0  0  0  0
    5.5714   48.9383   25.1445 O   0  0  0  0  0  0  0  0  0  0  0  0
    2.2876   43.5362   26.4959 C   0  0  0  0  0  0  0  0  0  0  0  0
    3.1413   44.2535   25.5941 O   0  0  0  0  0  0  0  0  0  0  0  0
    8.8112   40.1834   34.2131 O   0  0  0  0  0  0  0  0  0  0  0  0
   11.2398   40.7938   33.3702 O   0  0  0  0  0  0  0  0  0  0  0  0
   10.9144   40.6912   31.9983 C   0  0  0  0  0  0  0  0  0  0  0  0
   11.5270   39.3911   31.4385 C   0  0  0  0  0  0  0  0  0  0  0  0
   12.7520   39.0911   32.0835 O   0  0  0  0  0  0  0  0  0  0  0  0
   10.6114   38.1931   31.6451 C   0  0  0  0  0  0  0  0  0  0  0  0
   12.9413   37.6837   32.0297 C   0  0  0  0  0  0  0  0  0  0  0  0
    9.6064   38.0877   30.6599 O   0  0  0  0  0  0  0  0  0  0  0  0
   11.5822   37.0197   31.6876 C   0  0  0  0  0  0  0  0  0  0  0  0
   13.4840   37.2104   33.3254 N   0  0  0  0  0  0  0  0  0  0  0  0
   11.6179   36.3071   30.4690 O   0  0  0  0  0  0  0  0  0  0  0  0
   14.4797   36.3309   33.5738 C   0  0  0  0  0  0  0  0  0  0  0  0
   13.1136   37.6269   34.5702 C   0  0  0  0  0  0  0  0  0  0  0  0
   15.2074   35.6152   32.6747 N   0  0  0  0  0  0  0  0  0  0  0  0
   14.6756   36.2298   34.9190 C   0  0  0  0  0  0  0  0  0  0  0  0
   13.8217   37.0445   35.5793 N   0  0  0  0  0  0  0  0  0  0  0  0
   16.1643   34.7603   33.1551 C   0  0  0  0  0  0  0  0  0  0  0  0
   15.6528   35.3503   35.4136 C   0  0  0  0  0  0  0  0  0  0  0  0
   16.3798   34.6316   34.5046 N   0  0  0  0  0  0  0  0  0  0  0  0
   15.9004   35.1930   36.8094 N   0  0  0  0  0  0  0  0  0  0  0  0
    9.0098   45.4349   33.6667 H   0  0  0  0  0  0  0  0  0  0  0  0
   11.1132   46.1992   34.4883 H   0  0  0  0  0  0  0  0  0  0  0  0
   11.9349   45.6933   33.0928 H   0  0  0  0  0  0  0  0  0  0  0  0
    9.3519   43.8344   31.4758 H   0  0  0  0  0  0  0  0  0  0  0  0
   10.7310   44.8930   31.1675 H   0  0  0  0  0  0  0  0  0  0  0  0
    7.0125   44.7166   31.5856 H   0  0  0  0  0  0  0  0  0  0  0  0
   10.3466   47.1899   30.4155 H   0  0  0  0  0  0  0  0  0  0  0  0
    5.4683   46.2884   30.5257 H   0  0  0  0  0  0  0  0  0  0  0  0
    8.7938   48.7701   29.3440 H   0  0  0  0  0  0  0  0  0  0  0  0
    4.3136   48.2422   30.0206 H   0  0  0  0  0  0  0  0  0  0  0  0
    4.3562   50.5587   29.3679 H   0  0  0  0  0  0  0  0  0  0  0  0
    4.6732   50.1536   27.6467 H   0  0  0  0  0  0  0  0  0  0  0  0
    3.0966   49.6998   28.4075 H   0  0  0  0  0  0  0  0  0  0  0  0
    3.1311   46.3133   29.4516 H   0  0  0  0  0  0  0  0  0  0  0  0
    4.8938   46.2785   24.7851 H   0  0  0  0  0  0  0  0  0  0  0  0
    1.2475   43.5204   26.1081 H   0  0  0  0  0  0  0  0  0  0  0  0
    2.6685   42.5041   26.6450 H   0  0  0  0  0  0  0  0  0  0  0  0
    9.8235   40.7202   31.7651 H   0  0  0  0  0  0  0  0  0  0  0  0
   11.3780   41.5548   31.4750 H   0  0  0  0  0  0  0  0  0  0  0  0
   11.7311   39.5363   30.3531 H   0  0  0  0  0  0  0  0  0  0  0  0
   10.1203   38.2695   32.6409 H   0  0  0  0  0  0  0  0  0  0  0  0
   13.6850   37.4638   31.2321 H   0  0  0  0  0  0  0  0  0  0  0  0
   10.0250   38.1792   29.7654 H   0  0  0  0  0  0  0  0  0  0  0  0
   11.2757   36.3135   32.4907 H   0  0  0  0  0  0  0  0  0  0  0  0
   11.9838   36.9111   29.7708 H   0  0  0  0  0  0  0  0  0  0  0  0
   12.3307   38.3536   34.7457 H   0  0  0  0  0  0  0  0  0  0  0  0
   16.7566   34.1786   32.4623 H   0  0  0  0  0  0  0  0  0  0  0  0
   16.6353   34.5301   37.1419 H   0  0  0  0  0  0  0  0  0  0  0  0
   15.3535   35.7355   37.5144 H   0  0  0  0  0  0  0  0  0  0  0  0
  1  2  2  0
  1  3  1  0
  3  4  1  0
  4  5  1  0
  6  1  1  0
  7  6  1  0
  6  8  1  0
  8  9  1  0
  9 10  2  0
 11  9  1  0
 10 12  1  0
 13 11  2  0
 12 14  2  0
 14 13  1  0
 14 15  1  0
 15 16  1  0
 16 17  1  0
 16 18  1  0
 18 19  2  0
 20 18  1  0
 19 21  1  0
 22 20  2  0
 20 23  1  0
 21 24  1  0
 21 25  2  0
 25 22  1  0
 23 26  1  0
 23 27  2  0
 24 28  1  0
 25 29  1  0
 28 29  1  0
  4 30  2  0
  4 31  1  0
 32 31  1  0
 32 33  1  0
 33 34  1  0
 33 35  1  0
 34 36  1  0
 35 37  1  0
 35 38  1  0
 38 36  1  0
 36 39  1  0
 38 40  1  0
 41 39  1  0
 42 39  1  0
 43 41  2  0
 41 44  1  0
 45 42  2  0
 46 43  1  0
 44 47  2  0
 44 45  1  0
 48 46  2  0
 48 47  1  0
 47 49  1  0
  6 50  1  1
  7 51  1  0
  7 52  1  0
  8 53  1  0
  8 54  1  0
 10 55  1  0
 11 56  1  0
 12 57  1  0
 13 58  1  0
 16 59  1  1
 17 60  1  0
 17 61  1  0
 17 62  1  0
 19 63  1  0
 22 64  1  0
 28 65  1  0
 28 66  1  0
 32 67  1  0
 32 68  1  0
 33 69  1  0
 35 70  1  0
 36 71  1  0
 37 72  1  0
 38 73  1  0
 40 74  1  0
 42 75  1  0
 46 76  1  0
 49 77  1  0
 49 78  1  0
M  CHG  3   5  -1  23   1  26  -1
M  END
>  <EmbedRMS>  (20) 
0.0817429879489

$$$$

     RDKit          3D

 78 83  0  0  0  0  0  0  0  0999 V2000
   10.2805   43.7663   33.8248 C   0  0  0  0  0  0  0  0  0  0  0  0
   11.4111   43.5918   34.3667 O   0  0  0  0  0  0  0  0  0  0  0  0
    9.3621   42.7248   33.7342 O   0  0  0  0  0  0  0  0  0  0  0  0
    9.8903   41.2264   34.2936 P   0  0  0  0  0  0  0  0  0  0  0  0
   10.3732   41.4565   35.8831 O   0  0  0  0  0  0  0  0  0  0  0  0
    9.9460   45.0735   33.2111 C   0  0  1  0  0  0  0  0  0  0  0  0
   11.0266   46.0292   33.4708 N   0  0  0  0  0  0  0  0  0  0  0  0
    9.7540   44.8541   31.6948 C   0  0  0  0  0  0  0  0  0  0  0  0
    8.7957   45.8412   31.0848 C   0  0  0  0  0  0  0  0  0  0  0  0
    7.4089   45.6001   31.1013 C   0  0  0  0  0  0  0  0  0  0  0  0
    9.2823   46.9882   30.4400 C   0  0  0  0  0  0  0  0  0  0  0  0
    6.5261   46.4992   30.4869 C   0  0  0  0  0  0  0  0  0  0  0  0
    8.3995   47.8877   29.8314 C   0  0  0  0  0  0  0  0  0  0  0  0
    7.0183   47.6538   29.8452 C   0  0  0  0  0  0  0  0  0  0  0  0
    6.1803   48.5854   29.2110 O   0  0  0  0  0  0  0  0  0  0  0  0
    4.7595   48.4721   29.0859 C   0  0  1  0  0  0  0  0  0  0  0  0
    4.2095   49.7862   28.5364 C   0  0  0  0  0  0  0  0  0  0  0  0
    4.3814   47.3322   28.1533 C   0  0  0  0  0  0  0  0  0  0  0  0
    5.1753   47.1035   27.0017 C   0  0  0  0  0  0  0  0  0  0  0  0
    3.1940   46.5518   28.3490 C   0  0  0  0  0  0  0  0  0  0  0  0
    4.7825   46.1144   26.1096 C   0  0  0  0  0  0  0  0  0  0  0  0
    2.8354   45.5705   27.3987 C   0  0  0  0  0  0  0  0  0  0  0  0
    2.3326   46.7564   29.4769 N   0  0  0  0  0  0  0  0  0  0  0  0
    5.4000   45.7196   24.9385 O   0  0  0  0  0  0  0  0  0  0  0  0
    3.6618   45.3808   26.2993 C   0  0  0  0  0  0  0  0  0  0  0  0
    0.9713   46.8068   29.2863 O   0  0  0  0  0  0  0  0  0  0  0  0
    2.7720   46.5976   30.6339 O   0  0  0  0  0  0  0  0  0  0  0  0
    4.6164   44.6679   24.3582 C   0  0  0  0  0  0  0  0  0  0  0  0
    3.5156   44.4837   25.2588 O   0  0  0  0  0  0  0  0  0  0  0  0
    8.8128   40.1841   34.2125 O   0  0  0  0  0  0  0  0  0  0  0  0
   11.2416   40.7945   33.3692 O   0  0  0  0  0  0  0  0  0  0  0  0
   10.9178   40.6904   31.9968 C   0  0  0  0  0  0  0  0  0  0  0  0
   11.5181   39.3813   31.4408 C   0  0  0  0  0  0  0  0  0  0  0  0
   12.7497   39.0870   32.0746 O   0  0  0  0  0  0  0  0  0  0  0  0
   10.6045   38.1891   31.6655 C   0  0  0  0  0  0  0  0  0  0  0  0
   12.9344   37.6801   32.0290 C   0  0  0  0  0  0  0  0  0  0  0  0
    9.6418   38.0758   30.6441 O   0  0  0  0  0  0  0  0  0  0  0  0
   11.5741   37.0170   31.7045 C   0  0  0  0  0  0  0  0  0  0  0  0
   13.4851   37.2126   33.3241 N   0  0  0  0  0  0  0  0  0  0  0  0
   11.6078   36.3407   30.4680 O   0  0  0  0  0  0  0  0  0  0  0  0
   14.4801   36.3321   33.5727 C   0  0  0  0  0  0  0  0  0  0  0  0
   13.1140   37.6277   34.5693 C   0  0  0  0  0  0  0  0  0  0  0  0
   15.2073   35.6155   32.6739 N   0  0  0  0  0  0  0  0  0  0  0  0
   14.6758   36.2306   34.9182 C   0  0  0  0  0  0  0  0  0  0  0  0
   13.8217   37.0451   35.5785 N   0  0  0  0  0  0  0  0  0  0  0  0
   16.1639   34.7602   33.1546 C   0  0  0  0  0  0  0  0  0  0  0  0
   15.6526   35.3506   35.4130 C   0  0  0  0  0  0  0  0  0  0  0  0
   16.3794   34.6316   34.5041 N   0  0  0  0  0  0  0  0  0  0  0  0
   15.9001   35.1933   36.8089 N   0  0  0  0  0  0  0  0  0  0  0  0
    8.9995   45.4380   33.6721 H   0  0  0  0  0  0  0  0  0  0  0  0
   10.7764   46.9369   33.0159 H   0  0  0  0  0  0  0  0  0  0  0  0
   11.0501   46.2276   34.4983 H   0  0  0  0  0  0  0  0  0  0  0  0
   10.7412   44.9080   31.1835 H   0  0  0  0  0  0  0  0  0  0  0  0
    9.3646   43.8354   31.4709 H   0  0  0  0  0  0  0  0  0  0  0  0
    7.0147   44.7154   31.5861 H   0  0  0  0  0  0  0  0  0  0  0  0
   10.3462   47.1881   30.4057 H   0  0  0  0  0  0  0  0  0  0  0  0
    5.4685   46.2843   30.5186 H   0  0  0  0  0  0  0  0  0  0  0  0
    8.7915   48.7689   29.3395 H   0  0  0  0  0  0  0  0  0  0  0  0
    4.3325   48.3401   30.0986 H   0  0  0  0  0  0  0  0  0  0  0  0
    4.6398   50.0010   27.5346 H   0  0  0  0  0  0  0  0  0  0  0  0
    4.4731   50.6196   29.2218 H   0  0  0  0  0  0  0  0  0  0  0  0
    3.1026   49.7349   28.4537 H   0  0  0  0  0  0  0  0  0  0  0  0
    6.0646   47.6869   26.7998 H   0  0  0  0  0  0  0  0  0  0  0  0
    1.9436   44.9693   27.5209 H   0  0  0  0  0  0  0  0  0  0  0  0
    4.2456   44.9729   23.3572 H   0  0  0  0  0  0  0  0  0  0  0  0
    5.2154   43.7357   24.2896 H   0  0  0  0  0  0  0  0  0  0  0  0
   11.3945   41.5458   31.4720 H   0  0  0  0  0  0  0  0  0  0  0  0
    9.8289   40.7385   31.7615 H   0  0  0  0  0  0  0  0  0  0  0  0
   11.6994   39.5068   30.3484 H   0  0  0  0  0  0  0  0  0  0  0  0
   10.1090   38.2634   32.6633 H   0  0  0  0  0  0  0  0  0  0  0  0
   13.6662   37.4515   31.2224 H   0  0  0  0  0  0  0  0  0  0  0  0
    8.9009   38.6924   30.8794 H   0  0  0  0  0  0  0  0  0  0  0  0
   11.2650   36.3083   32.5086 H   0  0  0  0  0  0  0  0  0  0  0  0
   12.1372   35.5141   30.6163 H   0  0  0  0  0  0  0  0  0  0  0  0
   12.3297   38.3530   34.7450 H   0  0  0  0  0  0  0  0  0  0  0  0
   16.7557   34.1780   32.4619 H   0  0  0  0  0  0  0  0  0  0  0  0
   15.3533   35.7360   37.5138 H   0  0  0  0  0  0  0  0  0  0  0  0
   16.6346   34.5300   37.1414 H   0  0  0  0  0  0  0  0  0  0  0  0
  1  2  2  0
  1  3  1  0
  3  4  1  0
  4  5  1  0
  6  1  1  0
  7  6  1  0
  6  8  1  0
  8  9  1  0
  9 10  2  0
 11  9  1  0
 10 12  1  0
 13 11  2  0
 12 14  2  0
 14 13  1  0
 14 15  1  0
 15 16  1  0
 16 17  1  0
 16 18  1  0
 18 19  2  0
 20 18  1  0
 19 21  1  0
 22 20  2  0
 20 23  1  0
 21 24  1  0
 21 25  2  0
 25 22  1  0
 23 26  1  0
 23 27  2  0
 24 28  1  0
 25 29  1  0
 28 29  1  0
  4 30  2  0
  4 31  1  0
 32 31  1  0
 32 33  1  0
 33 34  1  0
 33 35  1  0
 34 36  1  0
 35 37  1  0
 35 38  1  0
 38 36  1  0
 36 39  1  0
 38 40  1  0
 41 39  1  0
 42 39  1  0
 43 41  2  0
 41 44  1  0
 45 42  2  0
 46 43  1  0
 44 47  2  0
 44 45  1  0
 48 46  2  0
 48 47  1  0
 47 49  1  0
  6 50  1  1
  7 51  1  0
  7 52  1  0
  8 53  1  0
  8 54  1  0
 10 55  1  0
 11 56  1  0
 12 57  1  0
 13 58  1  0
 16 59  1  1
 17 60  1  0
 17 61  1  0
 17 62  1  0
 19 63  1  0
 22 64  1  0
 28 65  1  0
 28 66  1  0
 32 67  1  0
 32 68  1  0
 33 69  1  0
 35 70  1  0
 36 71  1  0
 37 72  1  0
 38 73  1  0
 40 74  1  0
 42 75  1  0
 46 76  1  0
 49 77  1  0
 49 78  1  0
M  CHG  3   5  -1  23   1  26  -1
M  END
>  <EmbedRMS>  (21) 
0.0826530102377

$$$$

     RDKit          3D

 78 83  0  0  0  0  0  0  0  0999 V2000
   10.2840   43.7626   33.8277 C   0  0  0  0  0  0  0  0  0  0  0  0
   11.4105   43.5862   34.3767 O   0  0  0  0  0  0  0  0  0  0  0  0
    9.3632   42.7235   33.7354 O   0  0  0  0  0  0  0  0  0  0  0  0
    9.8895   41.2248   34.2944 P   0  0  0  0  0  0  0  0  0  0  0  0
   10.3727   41.4546   35.8839 O   0  0  0  0  0  0  0  0  0  0  0  0
    9.9549   45.0699   33.2067 C   0  0  1  0  0  0  0  0  0  0  0  0
   11.0200   46.0480   33.4570 N   0  0  0  0  0  0  0  0  0  0  0  0
    9.7499   44.8510   31.6928 C   0  0  0  0  0  0  0  0  0  0  0  0
    8.7941   45.8425   31.0884 C   0  0  0  0  0  0  0  0  0  0  0  0
    7.4078   45.6010   31.0996 C   0  0  0  0  0  0  0  0  0  0  0  0
    9.2829   46.9881   30.4441 C   0  0  0  0  0  0  0  0  0  0  0  0
    6.5289   46.5009   30.4819 C   0  0  0  0  0  0  0  0  0  0  0  0
    8.4036   47.8883   29.8309 C   0  0  0  0  0  0  0  0  0  0  0  0
    7.0134   47.6548   29.8499 C   0  0  0  0  0  0  0  0  0  0  0  0
    6.0771   48.5173   29.2461 O   0  0  0  0  0  0  0  0  0  0  0  0
    6.2876   49.8684   28.8021 C   0  0  1  0  0  0  0  0  0  0  0  0
    6.8969   50.7206   29.9344 C   0  0  0  0  0  0  0  0  0  0  0  0
    7.0631   49.9592   27.4847 C   0  0  0  0  0  0  0  0  0  0  0  0
    7.4983   48.7762   26.8289 C   0  0  0  0  0  0  0  0  0  0  0  0
    7.3559   51.2283   26.8736 C   0  0  0  0  0  0  0  0  0  0  0  0
    8.2681   48.8923   25.6794 C   0  0  0  0  0  0  0  0  0  0  0  0
    8.1604   51.2835   25.7136 C   0  0  0  0  0  0  0  0  0  0  0  0
    6.8211   52.4573   27.3856 N   0  0  0  0  0  0  0  0  0  0  0  0
    8.8118   47.8848   24.9058 O   0  0  0  0  0  0  0  0  0  0  0  0
    8.5942   50.0925   25.1515 C   0  0  0  0  0  0  0  0  0  0  0  0
    7.5907   53.5974   27.3650 O   0  0  0  0  0  0  0  0  0  0  0  0
    5.5980   52.5604   27.6116 O   0  0  0  0  0  0  0  0  0  0  0  0
    9.5283   48.4954   23.8240 C   0  0  0  0  0  0  0  0  0  0  0  0
    9.3624   49.9065   24.0184 O   0  0  0  0  0  0  0  0  0  0  0  0
    8.8114   40.1833   34.2129 O   0  0  0  0  0  0  0  0  0  0  0  0
   11.2402   40.7930   33.3696 O   0  0  0  0  0  0  0  0  0  0  0  0
   10.9151   40.6903   31.9975 C   0  0  0  0  0  0  0  0  0  0  0  0
   11.5252   39.3885   31.4375 C   0  0  0  0  0  0  0  0  0  0  0  0
   12.7500   39.0873   32.0798 O   0  0  0  0  0  0  0  0  0  0  0  0
   10.6092   38.1925   31.6469 C   0  0  0  0  0  0  0  0  0  0  0  0
   12.9332   37.6792   32.0294 C   0  0  0  0  0  0  0  0  0  0  0  0
    9.6122   38.0894   30.6542 O   0  0  0  0  0  0  0  0  0  0  0  0
   11.5743   37.0144   31.7024 C   0  0  0  0  0  0  0  0  0  0  0  0
   13.4844   37.2107   33.3241 N   0  0  0  0  0  0  0  0  0  0  0  0
   11.6297   36.3238   30.4740 O   0  0  0  0  0  0  0  0  0  0  0  0
   14.4802   36.3313   33.5727 C   0  0  0  0  0  0  0  0  0  0  0  0
   13.1138   37.6266   34.5692 C   0  0  0  0  0  0  0  0  0  0  0  0
   15.2075   35.6149   32.6739 N   0  0  0  0  0  0  0  0  0  0  0  0
   14.6761   36.2303   34.9181 C   0  0  0  0  0  0  0  0  0  0  0  0
   13.8220   37.0447   35.5785 N   0  0  0  0  0  0  0  0  0  0  0  0
   16.1643   34.7600   33.1547 C   0  0  0  0  0  0  0  0  0  0  0  0
   15.6529   35.3505   35.4130 C   0  0  0  0  0  0  0  0  0  0  0  0
   16.3798   34.6315   34.5042 N   0  0  0  0  0  0  0  0  0  0  0  0
   15.9003   35.1932   36.8090 N   0  0  0  0  0  0  0  0  0  0  0  0
    9.0101   45.4348   33.6678 H   0  0  0  0  0  0  0  0  0  0  0  0
   11.9349   45.6931   33.0924 H   0  0  0  0  0  0  0  0  0  0  0  0
   11.1138   46.1991   34.4883 H   0  0  0  0  0  0  0  0  0  0  0  0
   10.7301   44.8922   31.1677 H   0  0  0  0  0  0  0  0  0  0  0  0
    9.3503   43.8346   31.4766 H   0  0  0  0  0  0  0  0  0  0  0  0
    7.0110   44.7152   31.5804 H   0  0  0  0  0  0  0  0  0  0  0  0
   10.3479   47.1821   30.4069 H   0  0  0  0  0  0  0  0  0  0  0  0
    5.4649   46.3017   30.4974 H   0  0  0  0  0  0  0  0  0  0  0  0
    8.8231   48.7390   29.3177 H   0  0  0  0  0  0  0  0  0  0  0  0
    5.2735   50.2725   28.6020 H   0  0  0  0  0  0  0  0  0  0  0  0
    6.5987   50.3152   30.9246 H   0  0  0  0  0  0  0  0  0  0  0  0
    6.5244   51.7636   29.8895 H   0  0  0  0  0  0  0  0  0  0  0  0
    8.0037   50.7524   29.8784 H   0  0  0  0  0  0  0  0  0  0  0  0
    7.2571   47.7879   27.1915 H   0  0  0  0  0  0  0  0  0  0  0  0
    8.4061   52.2266   25.2426 H   0  0  0  0  0  0  0  0  0  0  0  0
    9.0900   48.1883   22.8513 H   0  0  0  0  0  0  0  0  0  0  0  0
   10.6039   48.2254   23.8748 H   0  0  0  0  0  0  0  0  0  0  0  0
   11.3805   41.5528   31.4739 H   0  0  0  0  0  0  0  0  0  0  0  0
    9.8243   40.7216   31.7640 H   0  0  0  0  0  0  0  0  0  0  0  0
   11.7265   39.5311   30.3512 H   0  0  0  0  0  0  0  0  0  0  0  0
   10.1110   38.2746   32.6387 H   0  0  0  0  0  0  0  0  0  0  0  0
   13.6652   37.4518   31.2226 H   0  0  0  0  0  0  0  0  0  0  0  0
   10.0511   38.1142   29.7644 H   0  0  0  0  0  0  0  0  0  0  0  0
   11.2762   36.3141   32.5189 H   0  0  0  0  0  0  0  0  0  0  0  0
   10.8593   35.6977   30.4640 H   0  0  0  0  0  0  0  0  0  0  0  0
   12.3294   38.3518   34.7449 H   0  0  0  0  0  0  0  0  0  0  0  0
   16.7564   34.1780   32.4620 H   0  0  0  0  0  0  0  0  0  0  0  0
   15.3534   35.7359   37.5138 H   0  0  0  0  0  0  0  0  0  0  0  0
   16.6349   34.5300   37.1415 H   0  0  0  0  0  0  0  0  0  0  0  0
  1  2  2  0
  1  3  1  0
  3  4  1  0
  4  5  1  0
  6  1  1  0
  7  6  1  0
  6  8  1  0
  8  9  1  0
  9 10  2  0
 11  9  1  0
 10 12  1  0
 13 11  2  0
 12 14  2  0
 14 13  1  0
 14 15  1  0
 15 16  1  0
 16 17  1  0
 16 18  1  0
 18 19  2  0
 20 18  1  0
 19 21  1  0
 22 20  2  0
 20 23  1  0
 21 24  1  0
 21 25  2  0
 25 22  1  0
 23 26  1  0
 23 27  2  0
 24 28  1  0
 25 29  1  0
 28 29  1  0
  4 30  2  0
  4 31  1  0
 32 31  1  0
 32 33  1  0
 33 34  1  0
 33 35  1  0
 34 36  1  0
 35 37  1  0
 35 38  1  0
 38 36  1  0
 36 39  1  0
 38 40  1  0
 41 39  1  0
 42 39  1  0
 43 41  2  0
 41 44  1  0
 45 42  2  0
 46 43  1  0
 44 47  2  0
 44 45  1  0
 48 46  2  0
 48 47  1  0
 47 49  1  0
  6 50  1  1
  7 51  1  0
  7 52  1  0
  8 53  1  0
  8 54  1  0
 10 55  1  0
 11 56  1  0
 12 57  1  0
 13 58  1  0
 16 59  1  6
 17 60  1  0
 17 61  1  0
 17 62  1  0
 19 63  1  0
 22 64  1  0
 28 65  1  0
 28 66  1  0
 32 67  1  0
 32 68  1  0
 33 69  1  0
 35 70  1  0
 36 71  1  0
 37 72  1  0
 38 73  1  0
 40 74  1  0
 42 75  1  0
 46 76  1  0
 49 77  1  0
 49 78  1  0
M  CHG  3   5  -1  23   1  26  -1
M  END
>  <EmbedRMS>  (22) 
0.0826942595532

$$$$

     RDKit          3D

 78 83  0  0  0  0  0  0  0  0999 V2000
   10.2833   43.7663   33.8256 C   0  0  0  0  0  0  0  0  0  0  0  0
   11.4100   43.5931   34.3752 O   0  0  0  0  0  0  0  0  0  0  0  0
    9.3636   42.7256   33.7348 O   0  0  0  0  0  0  0  0  0  0  0  0
    9.8905   41.2266   34.2933 P   0  0  0  0  0  0  0  0  0  0  0  0
   10.3743   41.4557   35.8827 O   0  0  0  0  0  0  0  0  0  0  0  0
    9.9546   45.0695   33.2032 C   0  0  1  0  0  0  0  0  0  0  0  0
   11.0271   46.0323   33.4758 N   0  0  0  0  0  0  0  0  0  0  0  0
    9.7474   44.8480   31.6872 C   0  0  0  0  0  0  0  0  0  0  0  0
    8.7929   45.8399   31.0829 C   0  0  0  0  0  0  0  0  0  0  0  0
    7.4064   45.6016   31.1001 C   0  0  0  0  0  0  0  0  0  0  0  0
    9.2816   46.9878   30.4425 C   0  0  0  0  0  0  0  0  0  0  0  0
    6.5250   46.5020   30.4868 C   0  0  0  0  0  0  0  0  0  0  0  0
    8.3999   47.8888   29.8349 C   0  0  0  0  0  0  0  0  0  0  0  0
    7.0180   47.6556   29.8423 C   0  0  0  0  0  0  0  0  0  0  0  0
    6.1866   48.6042   29.2146 O   0  0  0  0  0  0  0  0  0  0  0  0
    4.8052   48.4531   28.8463 C   0  0  1  0  0  0  0  0  0  0  0  0
    4.6079   47.1778   28.0012 C   0  0  0  0  0  0  0  0  0  0  0  0
    3.8465   48.5513   30.0365 C   0  0  0  0  0  0  0  0  0  0  0  0
    4.3532   48.7714   31.3457 C   0  0  0  0  0  0  0  0  0  0  0  0
    2.4228   48.4401   29.8630 C   0  0  0  0  0  0  0  0  0  0  0  0
    3.4675   48.7746   32.4147 C   0  0  0  0  0  0  0  0  0  0  0  0
    1.5733   48.4319   30.9917 C   0  0  0  0  0  0  0  0  0  0  0  0
    1.8209   48.3742   28.5622 N   0  0  0  0  0  0  0  0  0  0  0  0
    3.7448   48.9426   33.7579 O   0  0  0  0  0  0  0  0  0  0  0  0
    2.1382   48.6013   32.2466 C   0  0  0  0  0  0  0  0  0  0  0  0
    0.7253   47.5677   28.3573 O   0  0  0  0  0  0  0  0  0  0  0  0
    2.1177   49.2190   27.6928 O   0  0  0  0  0  0  0  0  0  0  0  0
    2.5071   48.8660   34.4781 C   0  0  0  0  0  0  0  0  0  0  0  0
    1.5062   48.6486   33.4744 O   0  0  0  0  0  0  0  0  0  0  0  0
    8.8121   40.1851   34.2128 O   0  0  0  0  0  0  0  0  0  0  0  0
   11.2403   40.7947   33.3668 O   0  0  0  0  0  0  0  0  0  0  0  0
   10.9126   40.6859   31.9954 C   0  0  0  0  0  0  0  0  0  0  0  0
   11.5175   39.3787   31.4405 C   0  0  0  0  0  0  0  0  0  0  0  0
   12.7490   39.0864   32.0752 O   0  0  0  0  0  0  0  0  0  0  0  0
   10.6061   38.1868   31.6656 C   0  0  0  0  0  0  0  0  0  0  0  0
   12.9355   37.6796   32.0292 C   0  0  0  0  0  0  0  0  0  0  0  0
    9.6399   38.0903   30.6471 O   0  0  0  0  0  0  0  0  0  0  0  0
   11.5765   37.0145   31.7044 C   0  0  0  0  0  0  0  0  0  0  0  0
   13.4858   37.2125   33.3244 N   0  0  0  0  0  0  0  0  0  0  0  0
   11.6101   36.3397   30.4673 O   0  0  0  0  0  0  0  0  0  0  0  0
   14.4805   36.3319   33.5729 C   0  0  0  0  0  0  0  0  0  0  0  0
   13.1143   37.6276   34.5694 C   0  0  0  0  0  0  0  0  0  0  0  0
   15.2076   35.6153   32.6741 N   0  0  0  0  0  0  0  0  0  0  0  0
   14.6760   36.2304   34.9184 C   0  0  0  0  0  0  0  0  0  0  0  0
   13.8219   37.0449   35.5786 N   0  0  0  0  0  0  0  0  0  0  0  0
   16.1641   34.7600   33.1548 C   0  0  0  0  0  0  0  0  0  0  0  0
   15.6528   35.3505   35.4132 C   0  0  0  0  0  0  0  0  0  0  0  0
   16.3795   34.6314   34.5043 N   0  0  0  0  0  0  0  0  0  0  0  0
   15.9002   35.1931   36.8091 N   0  0  0  0  0  0  0  0  0  0  0  0
    9.0117   45.4318   33.6705 H   0  0  0  0  0  0  0  0  0  0  0  0
   10.7258   46.9688   33.1213 H   0  0  0  0  0  0  0  0  0  0  0  0
   11.8906   45.7660   32.9475 H   0  0  0  0  0  0  0  0  0  0  0  0
   10.7241   44.8820   31.1557 H   0  0  0  0  0  0  0  0  0  0  0  0
    9.3430   43.8326   31.4756 H   0  0  0  0  0  0  0  0  0  0  0  0
    7.0100   44.7212   31.5912 H   0  0  0  0  0  0  0  0  0  0  0  0
   10.3458   47.1871   30.4118 H   0  0  0  0  0  0  0  0  0  0  0  0
    5.4671   46.3031   30.5523 H   0  0  0  0  0  0  0  0  0  0  0  0
    8.7937   48.7721   29.3481 H   0  0  0  0  0  0  0  0  0  0  0  0
    4.5815   49.3171   28.1865 H   0  0  0  0  0  0  0  0  0  0  0  0
    3.8186   47.3270   27.2374 H   0  0  0  0  0  0  0  0  0  0  0  0
    4.3168   46.3089   28.6253 H   0  0  0  0  0  0  0  0  0  0  0  0
    5.5421   46.9301   27.4538 H   0  0  0  0  0  0  0  0  0  0  0  0
    5.4025   48.9326   31.5438 H   0  0  0  0  0  0  0  0  0  0  0  0
    0.5000   48.3359   30.8886 H   0  0  0  0  0  0  0  0  0  0  0  0
    2.3136   49.8200   35.0119 H   0  0  0  0  0  0  0  0  0  0  0  0
    2.5284   48.0135   35.1889 H   0  0  0  0  0  0  0  0  0  0  0  0
   11.3803   41.5437   31.4663 H   0  0  0  0  0  0  0  0  0  0  0  0
    9.8215   40.7200   31.7636 H   0  0  0  0  0  0  0  0  0  0  0  0
   11.6998   39.5041   30.3482 H   0  0  0  0  0  0  0  0  0  0  0  0
   10.1085   38.2767   32.6603 H   0  0  0  0  0  0  0  0  0  0  0  0
   13.6680   37.4520   31.2229 H   0  0  0  0  0  0  0  0  0  0  0  0
    9.0016   37.3868   30.9349 H   0  0  0  0  0  0  0  0  0  0  0  0
   11.2666   36.3062   32.5084 H   0  0  0  0  0  0  0  0  0  0  0  0
   12.1389   35.5126   30.6150 H   0  0  0  0  0  0  0  0  0  0  0  0
   12.3300   38.3529   34.7449 H   0  0  0  0  0  0  0  0  0  0  0  0
   16.7560   34.1779   32.4621 H   0  0  0  0  0  0  0  0  0  0  0  0
   15.3534   35.7359   37.5140 H   0  0  0  0  0  0  0  0  0  0  0  0
   16.6347   34.5298   37.1416 H   0  0  0  0  0  0  0  0  0  0  0  0
  1  2  2  0
  1  3  1  0
  3  4  1  0
  4  5  1  0
  6  1  1  0
  7  6  1  0
  6  8  1  0
  8  9  1  0
  9 10  2  0
 11  9  1  0
 10 12  1  0
 13 11  2  0
 12 14  2  0
 14 13  1  0
 14 15  1  0
 15 16  1  0
 16 17  1  0
 16 18  1  0
 18 19  2  0
 20 18  1  0
 19 21  1  0
 22 20  2  0
 20 23  1  0
 21 24  1  0
 21 25  2  0
 25 22  1  0
 23 26  1  0
 23 27  2  0
 24 28  1  0
 25 29  1  0
 28 29  1  0
  4 30  2  0
  4 31  1  0
 32 31  1  0
 32 33  1  0
 33 34  1  0
 33 35  1  0
 34 36  1  0
 35 37  1  0
 35 38  1  0
 38 36  1  0
 36 39  1  0
 38 40  1  0
 41 39  1  0
 42 39  1  0
 43 41  2  0
 41 44  1  0
 45 42  2  0
 46 43  1  0
 44 47  2  0
 44 45  1  0
 48 46  2  0
 48 47  1  0
 47 49  1  0
  6 50  1  1
  7 51  1  0
  7 52  1  0
  8 53  1  0
  8 54  1  0
 10 55  1  0
 11 56  1  0
 12 57  1  0
 13 58  1  0
 16 59  1  6
 17 60  1  0
 17 61  1  0
 17 62  1  0
 19 63  1  0
 22 64  1  0
 28 65  1  0
 28 66  1  0
 32 67  1  0
 32 68  1  0
 33 69  1  0
 35 70  1  0
 36 71  1  0
 37 72  1  0
 38 73  1  0
 40 74  1  0
 42 75  1  0
 46 76  1  0
 49 77  1  0
 49 78  1  0
M  CHG  3   5  -1  23   1  26  -1
M  END
>  <EmbedRMS>  (23) 
0.0824116857619

$$$$

     RDKit          3D

 78 83  0  0  0  0  0  0  0  0999 V2000
   10.2840   43.7625   33.8276 C   0  0  0  0  0  0  0  0  0  0  0  0
   11.4104   43.5863   34.3767 O   0  0  0  0  0  0  0  0  0  0  0  0
    9.3633   42.7234   33.7353 O   0  0  0  0  0  0  0  0  0  0  0  0
    9.8898   41.2246   34.2940 P   0  0  0  0  0  0  0  0  0  0  0  0
   10.3725   41.4544   35.8837 O   0  0  0  0  0  0  0  0  0  0  0  0
    9.9549   45.0698   33.2065 C   0  0  1  0  0  0  0  0  0  0  0  0
   11.0198   46.0480   33.4569 N   0  0  0  0  0  0  0  0  0  0  0  0
    9.7501   44.8507   31.6925 C   0  0  0  0  0  0  0  0  0  0  0  0
    8.7942   45.8417   31.0873 C   0  0  0  0  0  0  0  0  0  0  0  0
    7.4080   45.6011   31.1002 C   0  0  0  0  0  0  0  0  0  0  0  0
    9.2826   46.9884   30.4450 C   0  0  0  0  0  0  0  0  0  0  0  0
    6.5293   46.5019   30.4839 C   0  0  0  0  0  0  0  0  0  0  0  0
    8.4034   47.8894   29.8325 C   0  0  0  0  0  0  0  0  0  0  0  0
    7.0133   47.6532   29.8467 C   0  0  0  0  0  0  0  0  0  0  0  0
    6.0736   48.5089   29.2425 O   0  0  0  0  0  0  0  0  0  0  0  0
    6.3244   49.7471   28.5640 C   0  0  1  0  0  0  0  0  0  0  0  0
    6.7219   50.8321   29.5775 C   0  0  0  0  0  0  0  0  0  0  0  0
    7.2570   49.5561   27.3666 C   0  0  0  0  0  0  0  0  0  0  0  0
    8.3824   50.4041   27.1757 C   0  0  0  0  0  0  0  0  0  0  0  0
    7.0246   48.4952   26.4243 C   0  0  0  0  0  0  0  0  0  0  0  0
    9.2368   50.1499   26.1115 C   0  0  0  0  0  0  0  0  0  0  0  0
    7.9403   48.2788   25.3690 C   0  0  0  0  0  0  0  0  0  0  0  0
    5.8808   47.6300   26.5278 N   0  0  0  0  0  0  0  0  0  0  0  0
   10.3844   50.8303   25.7518 O   0  0  0  0  0  0  0  0  0  0  0  0
    9.0282   49.1301   25.2499 C   0  0  0  0  0  0  0  0  0  0  0  0
    4.6291   48.1524   26.7558 O   0  0  0  0  0  0  0  0  0  0  0  0
    5.9821   46.4229   26.2257 O   0  0  0  0  0  0  0  0  0  0  0  0
   10.9297   50.1941   24.5881 C   0  0  0  0  0  0  0  0  0  0  0  0
   10.0323   49.1132   24.3010 O   0  0  0  0  0  0  0  0  0  0  0  0
    8.8118   40.1831   34.2121 O   0  0  0  0  0  0  0  0  0  0  0  0
   11.2413   40.7933   33.3696 O   0  0  0  0  0  0  0  0  0  0  0  0
   10.9179   40.6902   31.9971 C   0  0  0  0  0  0  0  0  0  0  0  0
   11.5181   39.3813   31.4408 C   0  0  0  0  0  0  0  0  0  0  0  0
   12.7498   39.0870   32.0745 O   0  0  0  0  0  0  0  0  0  0  0  0
   10.6045   38.1891   31.6655 C   0  0  0  0  0  0  0  0  0  0  0  0
   12.9344   37.6801   32.0290 C   0  0  0  0  0  0  0  0  0  0  0  0
    9.6418   38.0758   30.6441 O   0  0  0  0  0  0  0  0  0  0  0  0
   11.5741   37.0169   31.7045 C   0  0  0  0  0  0  0  0  0  0  0  0
   13.4851   37.2125   33.3241 N   0  0  0  0  0  0  0  0  0  0  0  0
   11.6079   36.3407   30.4679 O   0  0  0  0  0  0  0  0  0  0  0  0
   14.4801   36.3321   33.5727 C   0  0  0  0  0  0  0  0  0  0  0  0
   13.1140   37.6277   34.5692 C   0  0  0  0  0  0  0  0  0  0  0  0
   15.2073   35.6155   32.6739 N   0  0  0  0  0  0  0  0  0  0  0  0
   14.6758   36.2306   34.9182 C   0  0  0  0  0  0  0  0  0  0  0  0
   13.8217   37.0451   35.5784 N   0  0  0  0  0  0  0  0  0  0  0  0
   16.1639   34.7602   33.1546 C   0  0  0  0  0  0  0  0  0  0  0  0
   15.6526   35.3506   35.4130 C   0  0  0  0  0  0  0  0  0  0  0  0
   16.3794   34.6316   34.5041 N   0  0  0  0  0  0  0  0  0  0  0  0
   15.9000   35.1933   36.8089 N   0  0  0  0  0  0  0  0  0  0  0  0
    9.0099   45.4347   33.6672 H   0  0  0  0  0  0  0  0  0  0  0  0
   11.9348   45.6932   33.0924 H   0  0  0  0  0  0  0  0  0  0  0  0
   11.1135   46.1991   34.4881 H   0  0  0  0  0  0  0  0  0  0  0  0
    9.3509   43.8342   31.4763 H   0  0  0  0  0  0  0  0  0  0  0  0
   10.7304   44.8922   31.1675 H   0  0  0  0  0  0  0  0  0  0  0  0
    7.0112   44.7158   31.5816 H   0  0  0  0  0  0  0  0  0  0  0  0
   10.3471   47.1864   30.4150 H   0  0  0  0  0  0  0  0  0  0  0  0
    5.4653   46.3024   30.4997 H   0  0  0  0  0  0  0  0  0  0  0  0
    8.8257   48.7545   29.3496 H   0  0  0  0  0  0  0  0  0  0  0  0
    5.3528   50.0878   28.1489 H   0  0  0  0  0  0  0  0  0  0  0  0
    7.7213   50.6425   30.0168 H   0  0  0  0  0  0  0  0  0  0  0  0
    6.7167   51.8319   29.0935 H   0  0  0  0  0  0  0  0  0  0  0  0
    5.9810   50.8543   30.4047 H   0  0  0  0  0  0  0  0  0  0  0  0
    8.6121   51.2274   27.8358 H   0  0  0  0  0  0  0  0  0  0  0  0
    7.7952   47.4819   24.6510 H   0  0  0  0  0  0  0  0  0  0  0  0
   10.9558   50.9069   23.7373 H   0  0  0  0  0  0  0  0  0  0  0  0
   11.9452   49.8016   24.8052 H   0  0  0  0  0  0  0  0  0  0  0  0
    9.8291   40.7386   31.7615 H   0  0  0  0  0  0  0  0  0  0  0  0
   11.3949   41.5458   31.4729 H   0  0  0  0  0  0  0  0  0  0  0  0
   11.6994   39.5070   30.3483 H   0  0  0  0  0  0  0  0  0  0  0  0
   10.1090   38.2634   32.6632 H   0  0  0  0  0  0  0  0  0  0  0  0
   13.6662   37.4514   31.2224 H   0  0  0  0  0  0  0  0  0  0  0  0
    8.9009   38.6925   30.8793 H   0  0  0  0  0  0  0  0  0  0  0  0
   11.2650   36.3082   32.5086 H   0  0  0  0  0  0  0  0  0  0  0  0
   12.1372   35.5140   30.6162 H   0  0  0  0  0  0  0  0  0  0  0  0
   12.3297   38.3530   34.7449 H   0  0  0  0  0  0  0  0  0  0  0  0
   16.7558   34.1781   32.4619 H   0  0  0  0  0  0  0  0  0  0  0  0
   16.6346   34.5300   37.1414 H   0  0  0  0  0  0  0  0  0  0  0  0
   15.3533   35.7360   37.5138 H   0  0  0  0  0  0  0  0  0  0  0  0
  1  2  2  0
  1  3  1  0
  3  4  1  0
  4  5  1  0
  6  1  1  0
  7  6  1  0
  6  8  1  0
  8  9  1  0
  9 10  2  0
 11  9  1  0
 10 12  1  0
 13 11  2  0
 12 14  2  0
 14 13  1  0
 14 15  1  0
 15 16  1  0
 16 17  1  0
 16 18  1  0
 18 19  2  0
 20 18  1  0
 19 21  1  0
 22 20  2  0
 20 23  1  0
 21 24  1  0
 21 25  2  0
 25 22  1  0
 23 26  1  0
 23 27  2  0
 24 28  1  0
 25 29  1  0
 28 29  1  0
  4 30  2  0
  4 31  1  0
 32 31  1  0
 32 33  1  0
 33 34  1  0
 33 35  1  0
 34 36  1  0
 35 37  1  0
 35 38  1  0
 38 36  1  0
 36 39  1  0
 38 40  1  0
 41 39  1  0
 42 39  1  0
 43 41  2  0
 41 44  1  0
 45 42  2  0
 46 43  1  0
 44 47  2  0
 44 45  1  0
 48 46  2  0
 48 47  1  0
 47 49  1  0
  6 50  1  1
  7 51  1  0
  7 52  1  0
  8 53  1  0
  8 54  1  0
 10 55  1  0
 11 56  1  0
 12 57  1  0
 13 58  1  0
 16 59  1  6
 17 60  1  0
 17 61  1  0
 17 62  1  0
 19 63  1  0
 22 64  1  0
 28 65  1  0
 28 66  1  0
 32 67  1  0
 32 68  1  0
 33 69  1  0
 35 70  1  0
 36 71  1  0
 37 72  1  0
 38 73  1  0
 40 74  1  0
 42 75  1  0
 46 76  1  0
 49 77  1  0
 49 78  1  0
M  CHG  3   5  -1  23   1  26  -1
M  END
>  <EmbedRMS>  (24) 
0.0837092498314

$$$$

     RDKit          3D

 78 83  0  0  0  0  0  0  0  0999 V2000
   10.2835   43.7662   33.8257 C   0  0  0  0  0  0  0  0  0  0  0  0
   11.4102   43.5930   34.3753 O   0  0  0  0  0  0  0  0  0  0  0  0
    9.3638   42.7255   33.7349 O   0  0  0  0  0  0  0  0  0  0  0  0
    9.8907   41.2265   34.2934 P   0  0  0  0  0  0  0  0  0  0  0  0
   10.3743   41.4557   35.8828 O   0  0  0  0  0  0  0  0  0  0  0  0
    9.9546   45.0695   33.2037 C   0  0  1  0  0  0  0  0  0  0  0  0
   11.0273   46.0323   33.4757 N   0  0  0  0  0  0  0  0  0  0  0  0
    9.7465   44.8481   31.6879 C   0  0  0  0  0  0  0  0  0  0  0  0
    8.7922   45.8410   31.0849 C   0  0  0  0  0  0  0  0  0  0  0  0
    7.4057   45.6012   31.0985 C   0  0  0  0  0  0  0  0  0  0  0  0
    9.2821   46.9873   30.4419 C   0  0  0  0  0  0  0  0  0  0  0  0
    6.5271   46.5025   30.4827 C   0  0  0  0  0  0  0  0  0  0  0  0
    8.4032   47.8891   29.8305 C   0  0  0  0  0  0  0  0  0  0  0  0
    7.0138   47.6547   29.8497 C   0  0  0  0  0  0  0  0  0  0  0  0
    6.0857   48.5270   29.2576 O   0  0  0  0  0  0  0  0  0  0  0  0
    6.3847   49.8079   28.7014 C   0  0  1  0  0  0  0  0  0  0  0  0
    5.1775   50.3168   27.9127 C   0  0  0  0  0  0  0  0  0  0  0  0
    6.7940   50.8028   29.7795 C   0  0  0  0  0  0  0  0  0  0  0  0
    8.0436   51.4554   29.6354 C   0  0  0  0  0  0  0  0  0  0  0  0
    5.9516   51.1502   30.8919 C   0  0  0  0  0  0  0  0  0  0  0  0
    8.4124   52.4064   30.5773 C   0  0  0  0  0  0  0  0  0  0  0  0
    6.3743   52.1382   31.8085 C   0  0  0  0  0  0  0  0  0  0  0  0
    4.6666   50.5470   31.0947 N   0  0  0  0  0  0  0  0  0  0  0  0
    9.5725   53.1547   30.6332 O   0  0  0  0  0  0  0  0  0  0  0  0
    7.6127   52.7344   31.6169 C   0  0  0  0  0  0  0  0  0  0  0  0
    3.5911   51.3426   31.4150 O   0  0  0  0  0  0  0  0  0  0  0  0
    4.5719   49.3148   31.2613 O   0  0  0  0  0  0  0  0  0  0  0  0
    9.4947   54.0059   31.7847 C   0  0  0  0  0  0  0  0  0  0  0  0
    8.2267   53.7058   32.3839 O   0  0  0  0  0  0  0  0  0  0  0  0
    8.8123   40.1851   34.2127 O   0  0  0  0  0  0  0  0  0  0  0  0
   11.2407   40.7945   33.3670 O   0  0  0  0  0  0  0  0  0  0  0  0
   10.9134   40.6866   31.9954 C   0  0  0  0  0  0  0  0  0  0  0  0
   11.5167   39.3787   31.4404 C   0  0  0  0  0  0  0  0  0  0  0  0
   12.7486   39.0849   32.0734 O   0  0  0  0  0  0  0  0  0  0  0  0
   10.6039   38.1884   31.6669 C   0  0  0  0  0  0  0  0  0  0  0  0
   12.9329   37.6776   32.0284 C   0  0  0  0  0  0  0  0  0  0  0  0
    9.6374   38.0938   30.6484 O   0  0  0  0  0  0  0  0  0  0  0  0
   11.5737   37.0141   31.7055 C   0  0  0  0  0  0  0  0  0  0  0  0
   13.4853   37.2120   33.3238 N   0  0  0  0  0  0  0  0  0  0  0  0
   11.6210   36.3379   30.4683 O   0  0  0  0  0  0  0  0  0  0  0  0
   14.4804   36.3319   33.5726 C   0  0  0  0  0  0  0  0  0  0  0  0
   13.1141   37.6275   34.5689 C   0  0  0  0  0  0  0  0  0  0  0  0
   15.2075   35.6152   32.6740 N   0  0  0  0  0  0  0  0  0  0  0  0
   14.6761   36.2306   34.9181 C   0  0  0  0  0  0  0  0  0  0  0  0
   13.8218   37.0451   35.5783 N   0  0  0  0  0  0  0  0  0  0  0  0
   16.1642   34.7600   33.1548 C   0  0  0  0  0  0  0  0  0  0  0  0
   15.6527   35.3507   35.4131 C   0  0  0  0  0  0  0  0  0  0  0  0
   16.3795   34.6315   34.5043 N   0  0  0  0  0  0  0  0  0  0  0  0
   15.9000   35.1933   36.8090 N   0  0  0  0  0  0  0  0  0  0  0  0
    9.0121   45.4318   33.6716 H   0  0  0  0  0  0  0  0  0  0  0  0
   11.8905   45.7660   32.9470 H   0  0  0  0  0  0  0  0  0  0  0  0
   10.7258   46.9688   33.1214 H   0  0  0  0  0  0  0  0  0  0  0  0
    9.3413   43.8330   31.4764 H   0  0  0  0  0  0  0  0  0  0  0  0
   10.7229   44.8815   31.1558 H   0  0  0  0  0  0  0  0  0  0  0  0
    7.0084   44.7163   31.5802 H   0  0  0  0  0  0  0  0  0  0  0  0
   10.3470   47.1828   30.4084 H   0  0  0  0  0  0  0  0  0  0  0  0
    5.4624   46.3069   30.5017 H   0  0  0  0  0  0  0  0  0  0  0  0
    8.8190   48.7545   29.3379 H   0  0  0  0  0  0  0  0  0  0  0  0
    7.2021   49.6829   27.9567 H   0  0  0  0  0  0  0  0  0  0  0  0
    5.3877   51.3261   27.4984 H   0  0  0  0  0  0  0  0  0  0  0  0
    4.9685   49.6277   27.0670 H   0  0  0  0  0  0  0  0  0  0  0  0
    4.2700   50.3670   28.5474 H   0  0  0  0  0  0  0  0  0  0  0  0
    8.7065   51.2383   28.8076 H   0  0  0  0  0  0  0  0  0  0  0  0
    5.7579   52.4228   32.6516 H   0  0  0  0  0  0  0  0  0  0  0  0
   10.3177   53.7715   32.4920 H   0  0  0  0  0  0  0  0  0  0  0  0
    9.5305   55.0720   31.4773 H   0  0  0  0  0  0  0  0  0  0  0  0
   11.3827   41.5438   31.4669 H   0  0  0  0  0  0  0  0  0  0  0  0
    9.8225   40.7225   31.7631 H   0  0  0  0  0  0  0  0  0  0  0  0
   11.6979   39.5037   30.3478 H   0  0  0  0  0  0  0  0  0  0  0  0
   10.1084   38.2787   32.6626 H   0  0  0  0  0  0  0  0  0  0  0  0
   13.6638   37.4472   31.2214 H   0  0  0  0  0  0  0  0  0  0  0  0
    8.9763   37.4191   30.9532 H   0  0  0  0  0  0  0  0  0  0  0  0
   11.2821   36.3054   32.5171 H   0  0  0  0  0  0  0  0  0  0  0  0
   10.8658   35.6935   30.4652 H   0  0  0  0  0  0  0  0  0  0  0  0
   12.3293   38.3523   34.7444 H   0  0  0  0  0  0  0  0  0  0  0  0
   16.7561   34.1778   32.4621 H   0  0  0  0  0  0  0  0  0  0  0  0
   16.6345   34.5300   37.1416 H   0  0  0  0  0  0  0  0  0  0  0  0
   15.3533   35.7361   37.5138 H   0  0  0  0  0  0  0  0  0  0  0  0
  1  2  2  0
  1  3  1  0
  3  4  1  0
  4  5  1  0
  6  1  1  0
  7  6  1  0
  6  8  1  0
  8  9  1  0
  9 10  2  0
 11  9  1  0
 10 12  1  0
 13 11  2  0
 12 14  2  0
 14 13  1  0
 14 15  1  0
 15 16  1  0
 16 17  1  0
 16 18  1  0
 18 19  2  0
 20 18  1  0
 19 21  1  0
 22 20  2  0
 20 23  1  0
 21 24  1  0
 21 25  2  0
 25 22  1  0
 23 26  1  0
 23 27  2  0
 24 28  1  0
 25 29  1  0
 28 29  1  0
  4 30  2  0
  4 31  1  0
 32 31  1  0
 32 33  1  0
 33 34  1  0
 33 35  1  0
 34 36  1  0
 35 37  1  0
 35 38  1  0
 38 36  1  0
 36 39  1  0
 38 40  1  0
 41 39  1  0
 42 39  1  0
 43 41  2  0
 41 44  1  0
 45 42  2  0
 46 43  1  0
 44 47  2  0
 44 45  1  0
 48 46  2  0
 48 47  1  0
 47 49  1  0
  6 50  1  1
  7 51  1  0
  7 52  1  0
  8 53  1  0
  8 54  1  0
 10 55  1  0
 11 56  1  0
 12 57  1  0
 13 58  1  0
 16 59  1  6
 17 60  1  0
 17 61  1  0
 17 62  1  0
 19 63  1  0
 22 64  1  0
 28 65  1  0
 28 66  1  0
 32 67  1  0
 32 68  1  0
 33 69  1  0
 35 70  1  0
 36 71  1  0
 37 72  1  0
 38 73  1  0
 40 74  1  0
 42 75  1  0
 46 76  1  0
 49 77  1  0
 49 78  1  0
M  CHG  3   5  -1  23   1  26  -1
M  END
>  <EmbedRMS>  (25) 
0.0825568594274

$$$$

     RDKit          3D

 78 83  0  0  0  0  0  0  0  0999 V2000
   10.2835   43.7622   33.8273 C   0  0  0  0  0  0  0  0  0  0  0  0
   11.4101   43.5860   34.3760 O   0  0  0  0  0  0  0  0  0  0  0  0
    9.3630   42.7229   33.7354 O   0  0  0  0  0  0  0  0  0  0  0  0
    9.8899   41.2244   34.2945 P   0  0  0  0  0  0  0  0  0  0  0  0
   10.3719   41.4548   35.8843 O   0  0  0  0  0  0  0  0  0  0  0  0
    9.9544   45.0692   33.2056 C   0  0  1  0  0  0  0  0  0  0  0  0
   11.0193   46.0475   33.4556 N   0  0  0  0  0  0  0  0  0  0  0  0
    9.7494   44.8496   31.6915 C   0  0  0  0  0  0  0  0  0  0  0  0
    8.7943   45.8403   31.0849 C   0  0  0  0  0  0  0  0  0  0  0  0
    7.4076   45.6011   31.0996 C   0  0  0  0  0  0  0  0  0  0  0  0
    9.2828   46.9875   30.4439 C   0  0  0  0  0  0  0  0  0  0  0  0
    6.5262   46.5021   30.4863 C   0  0  0  0  0  0  0  0  0  0  0  0
    8.4016   47.8885   29.8357 C   0  0  0  0  0  0  0  0  0  0  0  0
    7.0194   47.6581   29.8460 C   0  0  0  0  0  0  0  0  0  0  0  0
    6.1895   48.6174   29.2324 O   0  0  0  0  0  0  0  0  0  0  0  0
    4.8016   48.4866   28.8820 C   0  0  1  0  0  0  0  0  0  0  0  0
    4.5785   47.2244   28.0245 C   0  0  0  0  0  0  0  0  0  0  0  0
    3.8586   48.5822   30.0848 C   0  0  0  0  0  0  0  0  0  0  0  0
    4.3832   48.7638   31.3933 C   0  0  0  0  0  0  0  0  0  0  0  0
    2.4318   48.4997   29.9245 C   0  0  0  0  0  0  0  0  0  0  0  0
    3.5099   48.7516   32.4722 C   0  0  0  0  0  0  0  0  0  0  0  0
    1.5940   48.4819   31.0618 C   0  0  0  0  0  0  0  0  0  0  0  0
    1.8153   48.4654   28.6293 N   0  0  0  0  0  0  0  0  0  0  0  0
    3.8053   48.8634   33.8168 O   0  0  0  0  0  0  0  0  0  0  0  0
    2.1756   48.6082   32.3143 C   0  0  0  0  0  0  0  0  0  0  0  0
    0.7045   47.6810   28.4239 O   0  0  0  0  0  0  0  0  0  0  0  0
    2.1089   49.3269   27.7749 O   0  0  0  0  0  0  0  0  0  0  0  0
    2.5742   48.7765   34.5488 C   0  0  0  0  0  0  0  0  0  0  0  0
    1.5582   48.6226   33.5502 O   0  0  0  0  0  0  0  0  0  0  0  0
    8.8117   40.1831   34.2123 O   0  0  0  0  0  0  0  0  0  0  0  0
   11.2419   40.7929   33.3706 O   0  0  0  0  0  0  0  0  0  0  0  0
   10.9186   40.6907   31.9980 C   0  0  0  0  0  0  0  0  0  0  0  0
   11.5173   39.3816   31.4412 C   0  0  0  0  0  0  0  0  0  0  0  0
   12.7494   39.0856   32.0729 O   0  0  0  0  0  0  0  0  0  0  0  0
   10.6022   38.1909   31.6668 C   0  0  0  0  0  0  0  0  0  0  0  0
   12.9318   37.6781   32.0280 C   0  0  0  0  0  0  0  0  0  0  0  0
    9.6394   38.0801   30.6453 O   0  0  0  0  0  0  0  0  0  0  0  0
   11.5713   37.0168   31.7056 C   0  0  0  0  0  0  0  0  0  0  0  0
   13.4850   37.2120   33.3232 N   0  0  0  0  0  0  0  0  0  0  0  0
   11.6179   36.3392   30.4691 O   0  0  0  0  0  0  0  0  0  0  0  0
   14.4803   36.3317   33.5722 C   0  0  0  0  0  0  0  0  0  0  0  0
   13.1141   37.6277   34.5683 C   0  0  0  0  0  0  0  0  0  0  0  0
   15.2079   35.6149   32.6739 N   0  0  0  0  0  0  0  0  0  0  0  0
   14.6759   36.2306   34.9177 C   0  0  0  0  0  0  0  0  0  0  0  0
   13.8218   37.0453   35.5777 N   0  0  0  0  0  0  0  0  0  0  0  0
   16.1649   34.7602   33.1551 C   0  0  0  0  0  0  0  0  0  0  0  0
   15.6524   35.3506   35.4130 C   0  0  0  0  0  0  0  0  0  0  0  0
   16.3799   34.6318   34.5046 N   0  0  0  0  0  0  0  0  0  0  0  0
   15.8999   35.1942   36.8088 N   0  0  0  0  0  0  0  0  0  0  0  0
    9.0093   45.4336   33.6662 H   0  0  0  0  0  0  0  0  0  0  0  0
   11.9346   45.6923   33.0918 H   0  0  0  0  0  0  0  0  0  0  0  0
   11.1116   46.2017   34.4866 H   0  0  0  0  0  0  0  0  0  0  0  0
   10.7292   44.8893   31.1658 H   0  0  0  0  0  0  0  0  0  0  0  0
    9.3479   43.8337   31.4768 H   0  0  0  0  0  0  0  0  0  0  0  0
    7.0112   44.7209   31.5904 H   0  0  0  0  0  0  0  0  0  0  0  0
   10.3466   47.1875   30.4148 H   0  0  0  0  0  0  0  0  0  0  0  0
    5.4685   46.3035   30.5533 H   0  0  0  0  0  0  0  0  0  0  0  0
    8.7955   48.7724   29.3503 H   0  0  0  0  0  0  0  0  0  0  0  0
    4.5808   49.3608   28.2347 H   0  0  0  0  0  0  0  0  0  0  0  0
    4.3065   46.3455   28.6431 H   0  0  0  0  0  0  0  0  0  0  0  0
    3.7661   47.3847   27.2872 H   0  0  0  0  0  0  0  0  0  0  0  0
    5.4972   46.9877   27.4462 H   0  0  0  0  0  0  0  0  0  0  0  0
    5.4369   48.9008   31.5836 H   0  0  0  0  0  0  0  0  0  0  0  0
    0.5179   48.4010   30.9687 H   0  0  0  0  0  0  0  0  0  0  0  0
    2.4051   49.7080   35.1281 H   0  0  0  0  0  0  0  0  0  0  0  0
    2.5880   47.8924   35.2195 H   0  0  0  0  0  0  0  0  0  0  0  0
    9.8301   40.7408   31.7621 H   0  0  0  0  0  0  0  0  0  0  0  0
   11.3958   41.5460   31.4741 H   0  0  0  0  0  0  0  0  0  0  0  0
   11.6977   39.5071   30.3487 H   0  0  0  0  0  0  0  0  0  0  0  0
   10.1072   38.2641   32.6648 H   0  0  0  0  0  0  0  0  0  0  0  0
   13.6612   37.4464   31.2202 H   0  0  0  0  0  0  0  0  0  0  0  0
    8.8975   38.6946   30.8833 H   0  0  0  0  0  0  0  0  0  0  0  0
   11.2812   36.3072   32.5170 H   0  0  0  0  0  0  0  0  0  0  0  0
   10.8492   35.7108   30.4584 H   0  0  0  0  0  0  0  0  0  0  0  0
   12.3288   38.3520   34.7437 H   0  0  0  0  0  0  0  0  0  0  0  0
   16.7574   34.1782   32.4630 H   0  0  0  0  0  0  0  0  0  0  0  0
   16.6338   34.5306   37.1419 H   0  0  0  0  0  0  0  0  0  0  0  0
   15.3523   35.7368   37.5130 H   0  0  0  0  0  0  0  0  0  0  0  0
  1  2  2  0
  1  3  1  0
  3  4  1  0
  4  5  1  0
  6  1  1  0
  7  6  1  0
  6  8  1  0
  8  9  1  0
  9 10  2  0
 11  9  1  0
 10 12  1  0
 13 11  2  0
 12 14  2  0
 14 13  1  0
 14 15  1  0
 15 16  1  0
 16 17  1  0
 16 18  1  0
 18 19  2  0
 20 18  1  0
 19 21  1  0
 22 20  2  0
 20 23  1  0
 21 24  1  0
 21 25  2  0
 25 22  1  0
 23 26  1  0
 23 27  2  0
 24 28  1  0
 25 29  1  0
 28 29  1  0
  4 30  2  0
  4 31  1  0
 32 31  1  0
 32 33  1  0
 33 34  1  0
 33 35  1  0
 34 36  1  0
 35 37  1  0
 35 38  1  0
 38 36  1  0
 36 39  1  0
 38 40  1  0
 41 39  1  0
 42 39  1  0
 43 41  2  0
 41 44  1  0
 45 42  2  0
 46 43  1  0
 44 47  2  0
 44 45  1  0
 48 46  2  0
 48 47  1  0
 47 49  1  0
  6 50  1  1
  7 51  1  0
  7 52  1  0
  8 53  1  0
  8 54  1  0
 10 55  1  0
 11 56  1  0
 12 57  1  0
 13 58  1  0
 16 59  1  6
 17 60  1  0
 17 61  1  0
 17 62  1  0
 19 63  1  0
 22 64  1  0
 28 65  1  0
 28 66  1  0
 32 67  1  0
 32 68  1  0
 33 69  1  0
 35 70  1  0
 36 71  1  0
 37 72  1  0
 38 73  1  0
 40 74  1  0
 42 75  1  0
 46 76  1  0
 49 77  1  0
 49 78  1  0
M  CHG  3   5  -1  23   1  26  -1
M  END
>  <EmbedRMS>  (26) 
0.0838635046339

$$$$

     RDKit          3D

 78 83  0  0  0  0  0  0  0  0999 V2000
   10.2836   43.7630   33.8277 C   0  0  0  0  0  0  0  0  0  0  0  0
   11.4102   43.5866   34.3765 O   0  0  0  0  0  0  0  0  0  0  0  0
    9.3628   42.7240   33.7357 O   0  0  0  0  0  0  0  0  0  0  0  0
    9.8893   41.2252   34.2943 P   0  0  0  0  0  0  0  0  0  0  0  0
   10.3731   41.4546   35.8836 O   0  0  0  0  0  0  0  0  0  0  0  0
    9.9545   45.0704   33.2065 C   0  0  1  0  0  0  0  0  0  0  0  0
   11.0195   46.0486   33.4569 N   0  0  0  0  0  0  0  0  0  0  0  0
    9.7498   44.8515   31.6925 C   0  0  0  0  0  0  0  0  0  0  0  0
    8.7938   45.8425   31.0872 C   0  0  0  0  0  0  0  0  0  0  0  0
    7.4059   45.5997   31.0983 C   0  0  0  0  0  0  0  0  0  0  0  0
    9.2836   46.9897   30.4430 C   0  0  0  0  0  0  0  0  0  0  0  0
    6.5259   46.5000   30.4812 C   0  0  0  0  0  0  0  0  0  0  0  0
    8.4024   47.8878   29.8295 C   0  0  0  0  0  0  0  0  0  0  0  0
    7.0207   47.6530   29.8567 C   0  0  0  0  0  0  0  0  0  0  0  0
    6.1434   48.5564   29.2496 O   0  0  0  0  0  0  0  0  0  0  0  0
    5.5926   49.6940   29.9216 C   0  0  1  0  0  0  0  0  0  0  0  0
    4.5581   49.2673   30.9732 C   0  0  0  0  0  0  0  0  0  0  0  0
    6.6916   50.5979   30.4730 C   0  0  0  0  0  0  0  0  0  0  0  0
    7.2468   50.3368   31.7533 C   0  0  0  0  0  0  0  0  0  0  0  0
    7.1929   51.7086   29.7128 C   0  0  0  0  0  0  0  0  0  0  0  0
    8.2152   51.1995   32.2477 C   0  0  0  0  0  0  0  0  0  0  0  0
    8.1640   52.5648   30.2793 C   0  0  0  0  0  0  0  0  0  0  0  0
    6.7607   51.9606   28.3660 N   0  0  0  0  0  0  0  0  0  0  0  0
    8.8787   51.1415   33.4582 O   0  0  0  0  0  0  0  0  0  0  0  0
    8.6486   52.2706   31.5458 C   0  0  0  0  0  0  0  0  0  0  0  0
    6.6659   53.2550   27.9092 O   0  0  0  0  0  0  0  0  0  0  0  0
    6.6966   51.0257   27.5414 O   0  0  0  0  0  0  0  0  0  0  0  0
    9.7861   52.2503   33.5188 C   0  0  0  0  0  0  0  0  0  0  0  0
    9.6070   52.9454   32.2772 O   0  0  0  0  0  0  0  0  0  0  0  0
    8.8113   40.1836   34.2130 O   0  0  0  0  0  0  0  0  0  0  0  0
   11.2397   40.7943   33.3684 O   0  0  0  0  0  0  0  0  0  0  0  0
   10.9125   40.6875   31.9969 C   0  0  0  0  0  0  0  0  0  0  0  0
   11.5169   39.3810   31.4420 C   0  0  0  0  0  0  0  0  0  0  0  0
   12.7500   39.0880   32.0758 O   0  0  0  0  0  0  0  0  0  0  0  0
   10.6043   38.1892   31.6658 C   0  0  0  0  0  0  0  0  0  0  0  0
   12.9395   37.6813   32.0279 C   0  0  0  0  0  0  0  0  0  0  0  0
    9.6353   38.0950   30.6499 O   0  0  0  0  0  0  0  0  0  0  0  0
   11.5804   37.0190   31.6934 C   0  0  0  0  0  0  0  0  0  0  0  0
   13.4851   37.2118   33.3244 N   0  0  0  0  0  0  0  0  0  0  0  0
   11.6118   36.3188   30.4673 O   0  0  0  0  0  0  0  0  0  0  0  0
   14.4801   36.3316   33.5732 C   0  0  0  0  0  0  0  0  0  0  0  0
   13.1139   37.6277   34.5692 C   0  0  0  0  0  0  0  0  0  0  0  0
   15.2076   35.6154   32.6744 N   0  0  0  0  0  0  0  0  0  0  0  0
   14.6756   36.2303   34.9186 C   0  0  0  0  0  0  0  0  0  0  0  0
   13.8215   37.0451   35.5786 N   0  0  0  0  0  0  0  0  0  0  0  0
   16.1642   34.7602   33.1551 C   0  0  0  0  0  0  0  0  0  0  0  0
   15.6526   35.3505   35.4134 C   0  0  0  0  0  0  0  0  0  0  0  0
   16.3795   34.6316   34.5046 N   0  0  0  0  0  0  0  0  0  0  0  0
   15.9001   35.1933   36.8093 N   0  0  0  0  0  0  0  0  0  0  0  0
    9.0095   45.4354   33.6672 H   0  0  0  0  0  0  0  0  0  0  0  0
   11.9346   45.6937   33.0927 H   0  0  0  0  0  0  0  0  0  0  0  0
   11.1128   46.2001   34.4882 H   0  0  0  0  0  0  0  0  0  0  0  0
    9.3506   43.8350   31.4763 H   0  0  0  0  0  0  0  0  0  0  0  0
   10.7300   44.8931   31.1676 H   0  0  0  0  0  0  0  0  0  0  0  0
    7.0097   44.7132   31.5779 H   0  0  0  0  0  0  0  0  0  0  0  0
   10.3477   47.1891   30.4125 H   0  0  0  0  0  0  0  0  0  0  0  0
    5.4615   46.3035   30.4923 H   0  0  0  0  0  0  0  0  0  0  0  0
    8.7922   48.7696   29.3370 H   0  0  0  0  0  0  0  0  0  0  0  0
    5.0050   50.2654   29.1738 H   0  0  0  0  0  0  0  0  0  0  0  0
    4.9889   48.5658   31.7153 H   0  0  0  0  0  0  0  0  0  0  0  0
    4.1616   50.1593   31.5035 H   0  0  0  0  0  0  0  0  0  0  0  0
    3.7112   48.7520   30.4723 H   0  0  0  0  0  0  0  0  0  0  0  0
    6.9442   49.4888   32.3507 H   0  0  0  0  0  0  0  0  0  0  0  0
    8.5561   53.4128   29.7327 H   0  0  0  0  0  0  0  0  0  0  0  0
    9.5260   52.9134   34.3703 H   0  0  0  0  0  0  0  0  0  0  0  0
   10.8313   51.8866   33.6070 H   0  0  0  0  0  0  0  0  0  0  0  0
    9.8216   40.7222   31.7644 H   0  0  0  0  0  0  0  0  0  0  0  0
   11.3811   41.5456   31.4691 H   0  0  0  0  0  0  0  0  0  0  0  0
   11.6985   39.5089   30.3498 H   0  0  0  0  0  0  0  0  0  0  0  0
   10.1109   38.2736   32.6630 H   0  0  0  0  0  0  0  0  0  0  0  0
   13.6783   37.4561   31.2271 H   0  0  0  0  0  0  0  0  0  0  0  0
    9.0020   37.3859   30.9348 H   0  0  0  0  0  0  0  0  0  0  0  0
   11.2808   36.3052   32.4921 H   0  0  0  0  0  0  0  0  0  0  0  0
   11.8819   36.9599   29.7584 H   0  0  0  0  0  0  0  0  0  0  0  0
   12.3303   38.3538   34.7445 H   0  0  0  0  0  0  0  0  0  0  0  0
   16.7564   34.1783   32.4624 H   0  0  0  0  0  0  0  0  0  0  0  0
   15.3532   35.7359   37.5142 H   0  0  0  0  0  0  0  0  0  0  0  0
   16.6348   34.5301   37.1418 H   0  0  0  0  0  0  0  0  0  0  0  0
  1  2  2  0
  1  3  1  0
  3  4  1  0
  4  5  1  0
  6  1  1  0
  7  6  1  0
  6  8  1  0
  8  9  1  0
  9 10  2  0
 11  9  1  0
 10 12  1  0
 13 11  2  0
 12 14  2  0
 14 13  1  0
 14 15  1  0
 15 16  1  0
 16 17  1  0
 16 18  1  0
 18 19  2  0
 20 18  1  0
 19 21  1  0
 22 20  2  0
 20 23  1  0
 21 24  1  0
 21 25  2  0
 25 22  1  0
 23 26  1  0
 23 27  2  0
 24 28  1  0
 25 29  1  0
 28 29  1  0
  4 30  2  0
  4 31  1  0
 32 31  1  0
 32 33  1  0
 33 34  1  0
 33 35  1  0
 34 36  1  0
 35 37  1  0
 35 38  1  0
 38 36  1  0
 36 39  1  0
 38 40  1  0
 41 39  1  0
 42 39  1  0
 43 41  2  0
 41 44  1  0
 45 42  2  0
 46 43  1  0
 44 47  2  0
 44 45  1  0
 48 46  2  0
 48 47  1  0
 47 49  1  0
  6 50  1  1
  7 51  1  0
  7 52  1  0
  8 53  1  0
  8 54  1  0
 10 55  1  0
 11 56  1  0
 12 57  1  0
 13 58  1  0
 16 59  1  6
 17 60  1  0
 17 61  1  0
 17 62  1  0
 19 63  1  0
 22 64  1  0
 28 65  1  0
 28 66  1  0
 32 67  1  0
 32 68  1  0
 33 69  1  0
 35 70  1  0
 36 71  1  0
 37 72  1  0
 38 73  1  0
 40 74  1  0
 42 75  1  0
 46 76  1  0
 49 77  1  0
 49 78  1  0
M  CHG  3   5  -1  23   1  26  -1
M  END
>  <EmbedRMS>  (27) 
0.0825596221257

$$$$

     RDKit          3D

 78 83  0  0  0  0  0  0  0  0999 V2000
   10.2807   43.7658   33.8245 C   0  0  0  0  0  0  0  0  0  0  0  0
   11.4113   43.5913   34.3666 O   0  0  0  0  0  0  0  0  0  0  0  0
    9.3625   42.7242   33.7333 O   0  0  0  0  0  0  0  0  0  0  0  0
    9.8900   41.2265   34.2945 P   0  0  0  0  0  0  0  0  0  0  0  0
   10.3723   41.4572   35.8841 O   0  0  0  0  0  0  0  0  0  0  0  0
    9.9457   45.0732   33.2109 C   0  0  1  0  0  0  0  0  0  0  0  0
   11.0255   46.0288   33.4721 N   0  0  0  0  0  0  0  0  0  0  0  0
    9.7560   44.8552   31.6940 C   0  0  0  0  0  0  0  0  0  0  0  0
    8.7968   45.8421   31.0846 C   0  0  0  0  0  0  0  0  0  0  0  0
    7.4111   45.5989   31.0990 C   0  0  0  0  0  0  0  0  0  0  0  0
    9.2818   46.9898   30.4395 C   0  0  0  0  0  0  0  0  0  0  0  0
    6.5305   46.4990   30.4842 C   0  0  0  0  0  0  0  0  0  0  0  0
    8.4005   47.8910   29.8302 C   0  0  0  0  0  0  0  0  0  0  0  0
    7.0109   47.6543   29.8515 C   0  0  0  0  0  0  0  0  0  0  0  0
    6.0662   48.5161   29.2657 O   0  0  0  0  0  0  0  0  0  0  0  0
    6.2972   49.8065   28.6849 C   0  0  1  0  0  0  0  0  0  0  0  0
    6.6919   50.8136   29.7782 C   0  0  0  0  0  0  0  0  0  0  0  0
    7.2203   49.7252   27.4670 C   0  0  0  0  0  0  0  0  0  0  0  0
    8.3206   50.6153   27.3270 C   0  0  0  0  0  0  0  0  0  0  0  0
    6.9929   48.7446   26.4388 C   0  0  0  0  0  0  0  0  0  0  0  0
    9.1519   50.4834   26.2224 C   0  0  0  0  0  0  0  0  0  0  0  0
    7.8885   48.6488   25.3482 C   0  0  0  0  0  0  0  0  0  0  0  0
    5.8725   47.8425   26.4800 N   0  0  0  0  0  0  0  0  0  0  0  0
   10.2619   51.2355   25.8911 O   0  0  0  0  0  0  0  0  0  0  0  0
    8.9488   49.5401   25.2779 C   0  0  0  0  0  0  0  0  0  0  0  0
    5.9932   46.5783   25.9496 O   0  0  0  0  0  0  0  0  0  0  0  0
    4.7345   48.2580   26.7779 O   0  0  0  0  0  0  0  0  0  0  0  0
   10.7862   50.7325   24.6544 C   0  0  0  0  0  0  0  0  0  0  0  0
    9.9215   49.6460   24.3009 O   0  0  0  0  0  0  0  0  0  0  0  0
    8.8122   40.1846   34.2144 O   0  0  0  0  0  0  0  0  0  0  0  0
   11.2397   40.7932   33.3690 O   0  0  0  0  0  0  0  0  0  0  0  0
   10.9130   40.6894   31.9972 C   0  0  0  0  0  0  0  0  0  0  0  0
   11.5242   39.3883   31.4369 C   0  0  0  0  0  0  0  0  0  0  0  0
   12.7496   39.0872   32.0782 O   0  0  0  0  0  0  0  0  0  0  0  0
   10.6090   38.1922   31.6469 C   0  0  0  0  0  0  0  0  0  0  0  0
   12.9331   37.6786   32.0291 C   0  0  0  0  0  0  0  0  0  0  0  0
    9.6123   38.0895   30.6540 O   0  0  0  0  0  0  0  0  0  0  0  0
   11.5738   37.0135   31.7026 C   0  0  0  0  0  0  0  0  0  0  0  0
   13.4848   37.2107   33.3242 N   0  0  0  0  0  0  0  0  0  0  0  0
   11.6293   36.3242   30.4733 O   0  0  0  0  0  0  0  0  0  0  0  0
   14.4806   36.3308   33.5725 C   0  0  0  0  0  0  0  0  0  0  0  0
   13.1149   37.6274   34.5696 C   0  0  0  0  0  0  0  0  0  0  0  0
   15.2072   35.6128   32.6739 N   0  0  0  0  0  0  0  0  0  0  0  0
   14.6770   36.2308   34.9181 C   0  0  0  0  0  0  0  0  0  0  0  0
   13.8237   37.0459   35.5787 N   0  0  0  0  0  0  0  0  0  0  0  0
   16.1648   34.7587   33.1554 C   0  0  0  0  0  0  0  0  0  0  0  0
   15.6532   35.3511   35.4134 C   0  0  0  0  0  0  0  0  0  0  0  0
   16.3805   34.6319   34.5051 N   0  0  0  0  0  0  0  0  0  0  0  0
   15.8986   35.1940   36.8094 N   0  0  0  0  0  0  0  0  0  0  0  0
    8.9980   45.4379   33.6702 H   0  0  0  0  0  0  0  0  0  0  0  0
   10.7745   46.9358   33.0163 H   0  0  0  0  0  0  0  0  0  0  0  0
   11.0469   46.2273   34.4995 H   0  0  0  0  0  0  0  0  0  0  0  0
   10.7433   44.9098   31.1824 H   0  0  0  0  0  0  0  0  0  0  0  0
    9.3673   43.8365   31.4695 H   0  0  0  0  0  0  0  0  0  0  0  0
    7.0159   44.7122   31.5797 H   0  0  0  0  0  0  0  0  0  0  0  0
   10.3453   47.1907   30.4042 H   0  0  0  0  0  0  0  0  0  0  0  0
    5.4665   46.3011   30.5067 H   0  0  0  0  0  0  0  0  0  0  0  0
    8.8202   48.7570   29.3443 H   0  0  0  0  0  0  0  0  0  0  0  0
    5.3174   50.1650   28.3051 H   0  0  0  0  0  0  0  0  0  0  0  0
    6.6592   51.8494   29.3776 H   0  0  0  0  0  0  0  0  0  0  0  0
    7.7039   50.6088   30.1829 H   0  0  0  0  0  0  0  0  0  0  0  0
    5.9664   50.7511   30.6171 H   0  0  0  0  0  0  0  0  0  0  0  0
    8.5432   51.3869   28.0481 H   0  0  0  0  0  0  0  0  0  0  0  0
    7.7451   47.9174   24.5620 H   0  0  0  0  0  0  0  0  0  0  0  0
   10.7510   51.5209   23.8736 H   0  0  0  0  0  0  0  0  0  0  0  0
   11.8241   50.3657   24.7977 H   0  0  0  0  0  0  0  0  0  0  0  0
   11.3768   41.5518   31.4724 H   0  0  0  0  0  0  0  0  0  0  0  0
    9.8214   40.7178   31.7644 H   0  0  0  0  0  0  0  0  0  0  0  0
   11.7239   39.5310   30.3501 H   0  0  0  0  0  0  0  0  0  0  0  0
   10.1091   38.2751   32.6377 H   0  0  0  0  0  0  0  0  0  0  0  0
   13.6657   37.4508   31.2226 H   0  0  0  0  0  0  0  0  0  0  0  0
   10.0501   38.1176   29.7637 H   0  0  0  0  0  0  0  0  0  0  0  0
   11.2757   36.3120   32.5187 H   0  0  0  0  0  0  0  0  0  0  0  0
   10.8606   35.6959   30.4617 H   0  0  0  0  0  0  0  0  0  0  0  0
   12.3311   38.3537   34.7460 H   0  0  0  0  0  0  0  0  0  0  0  0
   16.7573   34.1758   32.4633 H   0  0  0  0  0  0  0  0  0  0  0  0
   16.6332   34.5313   37.1429 H   0  0  0  0  0  0  0  0  0  0  0  0
   15.3505   35.7382   37.5124 H   0  0  0  0  0  0  0  0  0  0  0  0
  1  2  2  0
  1  3  1  0
  3  4  1  0
  4  5  1  0
  6  1  1  0
  7  6  1  0
  6  8  1  0
  8  9  1  0
  9 10  2  0
 11  9  1  0
 10 12  1  0
 13 11  2  0
 12 14  2  0
 14 13  1  0
 14 15  1  0
 15 16  1  0
 16 17  1  0
 16 18  1  0
 18 19  2  0
 20 18  1  0
 19 21  1  0
 22 20  2  0
 20 23  1  0
 21 24  1  0
 21 25  2  0
 25 22  1  0
 23 26  1  0
 23 27  2  0
 24 28  1  0
 25 29  1  0
 28 29  1  0
  4 30  2  0
  4 31  1  0
 32 31  1  0
 32 33  1  0
 33 34  1  0
 33 35  1  0
 34 36  1  0
 35 37  1  0
 35 38  1  0
 38 36  1  0
 36 39  1  0
 38 40  1  0
 41 39  1  0
 42 39  1  0
 43 41  2  0
 41 44  1  0
 45 42  2  0
 46 43  1  0
 44 47  2  0
 44 45  1  0
 48 46  2  0
 48 47  1  0
 47 49  1  0
  6 50  1  1
  7 51  1  0
  7 52  1  0
  8 53  1  0
  8 54  1  0
 10 55  1  0
 11 56  1  0
 12 57  1  0
 13 58  1  0
 16 59  1  6
 17 60  1  0
 17 61  1  0
 17 62  1  0
 19 63  1  0
 22 64  1  0
 28 65  1  0
 28 66  1  0
 32 67  1  0
 32 68  1  0
 33 69  1  0
 35 70  1  0
 36 71  1  0
 37 72  1  0
 38 73  1  0
 40 74  1  0
 42 75  1  0
 46 76  1  0
 49 77  1  0
 49 78  1  0
M  CHG  3   5  -1  23   1  26  -1
M  END
>  <EmbedRMS>  (28) 
0.0816677688079

$$$$

     RDKit          3D

 78 83  0  0  0  0  0  0  0  0999 V2000
   10.2839   43.7626   33.8276 C   0  0  0  0  0  0  0  0  0  0  0  0
   11.4104   43.5862   34.3767 O   0  0  0  0  0  0  0  0  0  0  0  0
    9.3630   42.7236   33.7354 O   0  0  0  0  0  0  0  0  0  0  0  0
    9.8893   41.2249   34.2943 P   0  0  0  0  0  0  0  0  0  0  0  0
   10.3727   41.4546   35.8837 O   0  0  0  0  0  0  0  0  0  0  0  0
    9.9550   45.0700   33.2065 C   0  0  1  0  0  0  0  0  0  0  0  0
   11.0199   46.0481   33.4572 N   0  0  0  0  0  0  0  0  0  0  0  0
    9.7506   44.8512   31.6924 C   0  0  0  0  0  0  0  0  0  0  0  0
    8.7944   45.8422   31.0874 C   0  0  0  0  0  0  0  0  0  0  0  0
    7.4079   45.6005   31.1000 C   0  0  0  0  0  0  0  0  0  0  0  0
    9.2827   46.9888   30.4443 C   0  0  0  0  0  0  0  0  0  0  0  0
    6.5255   46.4992   30.4841 C   0  0  0  0  0  0  0  0  0  0  0  0
    8.4010   47.8871   29.8323 C   0  0  0  0  0  0  0  0  0  0  0  0
    7.0187   47.6572   29.8473 C   0  0  0  0  0  0  0  0  0  0  0  0
    6.1879   48.5952   29.2122 O   0  0  0  0  0  0  0  0  0  0  0  0
    4.7602   48.6196   29.2511 C   0  0  1  0  0  0  0  0  0  0  0  0
    4.2505   49.0436   30.6354 C   0  0  0  0  0  0  0  0  0  0  0  0
    4.2359   49.5440   28.1633 C   0  0  0  0  0  0  0  0  0  0  0  0
    3.3954   48.9864   27.1670 C   0  0  0  0  0  0  0  0  0  0  0  0
    4.5179   50.9534   28.1259 C   0  0  0  0  0  0  0  0  0  0  0  0
    2.8598   49.8256   26.1990 C   0  0  0  0  0  0  0  0  0  0  0  0
    3.9312   51.7590   27.1237 C   0  0  0  0  0  0  0  0  0  0  0  0
    5.3733   51.5838   29.0892 N   0  0  0  0  0  0  0  0  0  0  0  0
    2.0222   49.5009   25.1492 O   0  0  0  0  0  0  0  0  0  0  0  0
    3.1139   51.1534   26.1800 C   0  0  0  0  0  0  0  0  0  0  0  0
    6.6836   51.1869   29.2118 O   0  0  0  0  0  0  0  0  0  0  0  0
    5.0170   52.6539   29.6240 O   0  0  0  0  0  0  0  0  0  0  0  0
    1.7337   50.7046   24.4249 C   0  0  0  0  0  0  0  0  0  0  0  0
    2.4507   51.7358   25.1170 O   0  0  0  0  0  0  0  0  0  0  0  0
    8.8113   40.1834   34.2130 O   0  0  0  0  0  0  0  0  0  0  0  0
   11.2399   40.7932   33.3693 O   0  0  0  0  0  0  0  0  0  0  0  0
   10.9143   40.6896   31.9973 C   0  0  0  0  0  0  0  0  0  0  0  0
   11.5261   39.3884   31.4375 C   0  0  0  0  0  0  0  0  0  0  0  0
   12.7504   39.0887   32.0815 O   0  0  0  0  0  0  0  0  0  0  0  0
   10.6115   38.1909   31.6460 C   0  0  0  0  0  0  0  0  0  0  0  0
   12.9357   37.6812   32.0303 C   0  0  0  0  0  0  0  0  0  0  0  0
    9.6146   38.0858   30.6533 O   0  0  0  0  0  0  0  0  0  0  0  0
   11.5769   37.0148   31.7012 C   0  0  0  0  0  0  0  0  0  0  0  0
   13.4849   37.2112   33.3247 N   0  0  0  0  0  0  0  0  0  0  0  0
   11.6193   36.3260   30.4724 O   0  0  0  0  0  0  0  0  0  0  0  0
   14.4802   36.3313   33.5730 C   0  0  0  0  0  0  0  0  0  0  0  0
   13.1141   37.6268   34.5697 C   0  0  0  0  0  0  0  0  0  0  0  0
   15.2075   35.6151   32.6741 N   0  0  0  0  0  0  0  0  0  0  0  0
   14.6761   36.2300   34.9184 C   0  0  0  0  0  0  0  0  0  0  0  0
   13.8220   37.0445   35.5789 N   0  0  0  0  0  0  0  0  0  0  0  0
   16.1642   34.7600   33.1547 C   0  0  0  0  0  0  0  0  0  0  0  0
   15.6529   35.3503   35.4131 C   0  0  0  0  0  0  0  0  0  0  0  0
   16.3798   34.6314   34.5042 N   0  0  0  0  0  0  0  0  0  0  0  0
   15.9004   35.1930   36.8090 N   0  0  0  0  0  0  0  0  0  0  0  0
    9.0099   45.4349   33.6671 H   0  0  0  0  0  0  0  0  0  0  0  0
   11.9350   45.6933   33.0930 H   0  0  0  0  0  0  0  0  0  0  0  0
   11.1133   46.1992   34.4886 H   0  0  0  0  0  0  0  0  0  0  0  0
   10.7309   44.8933   31.1677 H   0  0  0  0  0  0  0  0  0  0  0  0
    9.3518   43.8346   31.4759 H   0  0  0  0  0  0  0  0  0  0  0  0
    7.0133   44.7134   31.5802 H   0  0  0  0  0  0  0  0  0  0  0  0
   10.3467   47.1888   30.4140 H   0  0  0  0  0  0  0  0  0  0  0  0
    5.4699   46.2732   30.5067 H   0  0  0  0  0  0  0  0  0  0  0  0
    8.7944   48.7687   29.3421 H   0  0  0  0  0  0  0  0  0  0  0  0
    4.3820   47.5931   29.0541 H   0  0  0  0  0  0  0  0  0  0  0  0
    3.1490   49.1864   30.6109 H   0  0  0  0  0  0  0  0  0  0  0  0
    4.7308   49.9832   30.9734 H   0  0  0  0  0  0  0  0  0  0  0  0
    4.4764   48.2606   31.3874 H   0  0  0  0  0  0  0  0  0  0  0  0
    3.1532   47.9312   27.1508 H   0  0  0  0  0  0  0  0  0  0  0  0
    4.1215   52.8236   27.0756 H   0  0  0  0  0  0  0  0  0  0  0  0
    2.0976   50.6203   23.3794 H   0  0  0  0  0  0  0  0  0  0  0  0
    0.6437   50.9145   24.4474 H   0  0  0  0  0  0  0  0  0  0  0  0
   11.3782   41.5525   31.4733 H   0  0  0  0  0  0  0  0  0  0  0  0
    9.8234   40.7192   31.7644 H   0  0  0  0  0  0  0  0  0  0  0  0
   11.7283   39.5312   30.3515 H   0  0  0  0  0  0  0  0  0  0  0  0
   10.1127   38.2733   32.6376 H   0  0  0  0  0  0  0  0  0  0  0  0
   13.6693   37.4565   31.2242 H   0  0  0  0  0  0  0  0  0  0  0  0
   10.0533   38.1117   29.7635 H   0  0  0  0  0  0  0  0  0  0  0  0
   11.2607   36.3147   32.5101 H   0  0  0  0  0  0  0  0  0  0  0  0
   12.1496   35.5022   30.6323 H   0  0  0  0  0  0  0  0  0  0  0  0
   12.3301   38.3524   34.7455 H   0  0  0  0  0  0  0  0  0  0  0  0
   16.7563   34.1781   32.4619 H   0  0  0  0  0  0  0  0  0  0  0  0
   15.3536   35.7357   37.5140 H   0  0  0  0  0  0  0  0  0  0  0  0
   16.6351   34.5298   37.1416 H   0  0  0  0  0  0  0  0  0  0  0  0
  1  2  2  0
  1  3  1  0
  3  4  1  0
  4  5  1  0
  6  1  1  0
  7  6  1  0
  6  8  1  0
  8  9  1  0
  9 10  2  0
 11  9  1  0
 10 12  1  0
 13 11  2  0
 12 14  2  0
 14 13  1  0
 14 15  1  0
 15 16  1  0
 16 17  1  0
 16 18  1  0
 18 19  2  0
 20 18  1  0
 19 21  1  0
 22 20  2  0
 20 23  1  0
 21 24  1  0
 21 25  2  0
 25 22  1  0
 23 26  1  0
 23 27  2  0
 24 28  1  0
 25 29  1  0
 28 29  1  0
  4 30  2  0
  4 31  1  0
 32 31  1  0
 32 33  1  0
 33 34  1  0
 33 35  1  0
 34 36  1  0
 35 37  1  0
 35 38  1  0
 38 36  1  0
 36 39  1  0
 38 40  1  0
 41 39  1  0
 42 39  1  0
 43 41  2  0
 41 44  1  0
 45 42  2  0
 46 43  1  0
 44 47  2  0
 44 45  1  0
 48 46  2  0
 48 47  1  0
 47 49  1  0
  6 50  1  1
  7 51  1  0
  7 52  1  0
  8 53  1  0
  8 54  1  0
 10 55  1  0
 11 56  1  0
 12 57  1  0
 13 58  1  0
 16 59  1  6
 17 60  1  0
 17 61  1  0
 17 62  1  0
 19 63  1  0
 22 64  1  0
 28 65  1  0
 28 66  1  0
 32 67  1  0
 32 68  1  0
 33 69  1  0
 35 70  1  0
 36 71  1  0
 37 72  1  0
 38 73  1  0
 40 74  1  0
 42 75  1  0
 46 76  1  0
 49 77  1  0
 49 78  1  0
M  CHG  3   5  -1  23   1  26  -1
M  END
>  <EmbedRMS>  (29) 
0.0824932490172

$$$$

     RDKit          3D

 78 83  0  0  0  0  0  0  0  0999 V2000
   10.2838   43.7627   33.8277 C   0  0  0  0  0  0  0  0  0  0  0  0
   11.4103   43.5864   34.3767 O   0  0  0  0  0  0  0  0  0  0  0  0
    9.3631   42.7236   33.7354 O   0  0  0  0  0  0  0  0  0  0  0  0
    9.8895   41.2249   34.2944 P   0  0  0  0  0  0  0  0  0  0  0  0
   10.3727   41.4546   35.8838 O   0  0  0  0  0  0  0  0  0  0  0  0
    9.9548   45.0700   33.2065 C   0  0  1  0  0  0  0  0  0  0  0  0
   11.0197   46.0482   33.4568 N   0  0  0  0  0  0  0  0  0  0  0  0
    9.7500   44.8508   31.6925 C   0  0  0  0  0  0  0  0  0  0  0  0
    8.7942   45.8418   31.0871 C   0  0  0  0  0  0  0  0  0  0  0  0
    7.4074   45.6007   31.0993 C   0  0  0  0  0  0  0  0  0  0  0  0
    9.2833   46.9887   30.4444 C   0  0  0  0  0  0  0  0  0  0  0  0
    6.5280   46.5015   30.4834 C   0  0  0  0  0  0  0  0  0  0  0  0
    8.4040   47.8892   29.8317 C   0  0  0  0  0  0  0  0  0  0  0  0
    7.0144   47.6531   29.8496 C   0  0  0  0  0  0  0  0  0  0  0  0
    6.0881   48.5275   29.2578 O   0  0  0  0  0  0  0  0  0  0  0  0
    6.4065   49.7874   28.6600 C   0  0  1  0  0  0  0  0  0  0  0  0
    5.1657   50.3200   27.9459 C   0  0  0  0  0  0  0  0  0  0  0  0
    6.8639   50.7795   29.7165 C   0  0  0  0  0  0  0  0  0  0  0  0
    6.1514   50.8411   30.9394 C   0  0  0  0  0  0  0  0  0  0  0  0
    8.0203   51.6095   29.5361 C   0  0  0  0  0  0  0  0  0  0  0  0
    6.6240   51.6783   31.9412 C   0  0  0  0  0  0  0  0  0  0  0  0
    8.4634   52.4295   30.5984 C   0  0  0  0  0  0  0  0  0  0  0  0
    8.7412   51.6446   28.2947 N   0  0  0  0  0  0  0  0  0  0  0  0
    6.1041   51.8847   33.2044 O   0  0  0  0  0  0  0  0  0  0  0  0
    7.7341   52.4345   31.7800 C   0  0  0  0  0  0  0  0  0  0  0  0
   10.1076   51.8052   28.3027 O   0  0  0  0  0  0  0  0  0  0  0  0
    8.1273   51.7672   27.2149 O   0  0  0  0  0  0  0  0  0  0  0  0
    6.9428   52.8330   33.8783 C   0  0  0  0  0  0  0  0  0  0  0  0
    7.9710   53.1582   32.9328 O   0  0  0  0  0  0  0  0  0  0  0  0
    8.8114   40.1834   34.2129 O   0  0  0  0  0  0  0  0  0  0  0  0
   11.2402   40.7931   33.3696 O   0  0  0  0  0  0  0  0  0  0  0  0
   10.9151   40.6903   31.9975 C   0  0  0  0  0  0  0  0  0  0  0  0
   11.5252   39.3885   31.4375 C   0  0  0  0  0  0  0  0  0  0  0  0
   12.7500   39.0873   32.0798 O   0  0  0  0  0  0  0  0  0  0  0  0
   10.6092   38.1925   31.6469 C   0  0  0  0  0  0  0  0  0  0  0  0
   12.9332   37.6792   32.0294 C   0  0  0  0  0  0  0  0  0  0  0  0
    9.6122   38.0894   30.6542 O   0  0  0  0  0  0  0  0  0  0  0  0
   11.5743   37.0144   31.7024 C   0  0  0  0  0  0  0  0  0  0  0  0
   13.4844   37.2108   33.3241 N   0  0  0  0  0  0  0  0  0  0  0  0
   11.6297   36.3238   30.4740 O   0  0  0  0  0  0  0  0  0  0  0  0
   14.4802   36.3313   33.5727 C   0  0  0  0  0  0  0  0  0  0  0  0
   13.1138   37.6267   34.5692 C   0  0  0  0  0  0  0  0  0  0  0  0
   15.2075   35.6149   32.6739 N   0  0  0  0  0  0  0  0  0  0  0  0
   14.6761   36.2303   34.9181 C   0  0  0  0  0  0  0  0  0  0  0  0
   13.8220   37.0447   35.5785 N   0  0  0  0  0  0  0  0  0  0  0  0
   16.1643   34.7600   33.1547 C   0  0  0  0  0  0  0  0  0  0  0  0
   15.6529   35.3505   35.4130 C   0  0  0  0  0  0  0  0  0  0  0  0
   16.3798   34.6315   34.5042 N   0  0  0  0  0  0  0  0  0  0  0  0
   15.9003   35.1932   36.8090 N   0  0  0  0  0  0  0  0  0  0  0  0
    9.0098   45.4349   33.6672 H   0  0  0  0  0  0  0  0  0  0  0  0
   11.9348   45.6933   33.0924 H   0  0  0  0  0  0  0  0  0  0  0  0
   11.1133   46.1995   34.4881 H   0  0  0  0  0  0  0  0  0  0  0  0
   10.7303   44.8921   31.1676 H   0  0  0  0  0  0  0  0  0  0  0  0
    9.3506   43.8343   31.4765 H   0  0  0  0  0  0  0  0  0  0  0  0
    7.0108   44.7155   31.5811 H   0  0  0  0  0  0  0  0  0  0  0  0
   10.3478   47.1869   30.4146 H   0  0  0  0  0  0  0  0  0  0  0  0
    5.4635   46.3053   30.5021 H   0  0  0  0  0  0  0  0  0  0  0  0
    8.8182   48.7600   29.3446 H   0  0  0  0  0  0  0  0  0  0  0  0
    7.1868   49.6152   27.8906 H   0  0  0  0  0  0  0  0  0  0  0  0
    4.8537   49.6062   27.1543 H   0  0  0  0  0  0  0  0  0  0  0  0
    4.3249   50.4440   28.6615 H   0  0  0  0  0  0  0  0  0  0  0  0
    5.3838   51.2999   27.4705 H   0  0  0  0  0  0  0  0  0  0  0  0
    5.2700   50.2365   31.1121 H   0  0  0  0  0  0  0  0  0  0  0  0
    9.3355   53.0623   30.4962 H   0  0  0  0  0  0  0  0  0  0  0  0
    7.3881   52.3748   34.7861 H   0  0  0  0  0  0  0  0  0  0  0  0
    6.3616   53.7419   34.1400 H   0  0  0  0  0  0  0  0  0  0  0  0
    9.8243   40.7216   31.7640 H   0  0  0  0  0  0  0  0  0  0  0  0
   11.3805   41.5528   31.4739 H   0  0  0  0  0  0  0  0  0  0  0  0
   11.7265   39.5311   30.3512 H   0  0  0  0  0  0  0  0  0  0  0  0
   10.1110   38.2746   32.6387 H   0  0  0  0  0  0  0  0  0  0  0  0
   13.6652   37.4519   31.2226 H   0  0  0  0  0  0  0  0  0  0  0  0
   10.0511   38.1142   29.7644 H   0  0  0  0  0  0  0  0  0  0  0  0
   11.2762   36.3141   32.5189 H   0  0  0  0  0  0  0  0  0  0  0  0
   10.8593   35.6977   30.4640 H   0  0  0  0  0  0  0  0  0  0  0  0
   12.3294   38.3518   34.7449 H   0  0  0  0  0  0  0  0  0  0  0  0
   16.7564   34.1780   32.4620 H   0  0  0  0  0  0  0  0  0  0  0  0
   16.6349   34.5300   37.1416 H   0  0  0  0  0  0  0  0  0  0  0  0
   15.3534   35.7359   37.5138 H   0  0  0  0  0  0  0  0  0  0  0  0
  1  2  2  0
  1  3  1  0
  3  4  1  0
  4  5  1  0
  6  1  1  0
  7  6  1  0
  6  8  1  0
  8  9  1  0
  9 10  2  0
 11  9  1  0
 10 12  1  0
 13 11  2  0
 12 14  2  0
 14 13  1  0
 14 15  1  0
 15 16  1  0
 16 17  1  0
 16 18  1  0
 18 19  2  0
 20 18  1  0
 19 21  1  0
 22 20  2  0
 20 23  1  0
 21 24  1  0
 21 25  2  0
 25 22  1  0
 23 26  1  0
 23 27  2  0
 24 28  1  0
 25 29  1  0
 28 29  1  0
  4 30  2  0
  4 31  1  0
 32 31  1  0
 32 33  1  0
 33 34  1  0
 33 35  1  0
 34 36  1  0
 35 37  1  0
 35 38  1  0
 38 36  1  0
 36 39  1  0
 38 40  1  0
 41 39  1  0
 42 39  1  0
 43 41  2  0
 41 44  1  0
 45 42  2  0
 46 43  1  0
 44 47  2  0
 44 45  1  0
 48 46  2  0
 48 47  1  0
 47 49  1  0
  6 50  1  1
  7 51  1  0
  7 52  1  0
  8 53  1  0
  8 54  1  0
 10 55  1  0
 11 56  1  0
 12 57  1  0
 13 58  1  0
 16 59  1  6
 17 60  1  0
 17 61  1  0
 17 62  1  0
 19 63  1  0
 22 64  1  0
 28 65  1  0
 28 66  1  0
 32 67  1  0
 32 68  1  0
 33 69  1  0
 35 70  1  0
 36 71  1  0
 37 72  1  0
 38 73  1  0
 40 74  1  0
 42 75  1  0
 46 76  1  0
 49 77  1  0
 49 78  1  0
M  CHG  3   5  -1  23   1  26  -1
M  END
>  <EmbedRMS>  (30) 
0.082719223728

$$$$

     RDKit          3D

 78 83  0  0  0  0  0  0  0  0999 V2000
   10.2804   43.7665   33.8250 C   0  0  0  0  0  0  0  0  0  0  0  0
   11.4110   43.5919   34.3667 O   0  0  0  0  0  0  0  0  0  0  0  0
    9.3618   42.7250   33.7346 O   0  0  0  0  0  0  0  0  0  0  0  0
    9.8899   41.2267   34.2940 P   0  0  0  0  0  0  0  0  0  0  0  0
   10.3735   41.4566   35.8832 O   0  0  0  0  0  0  0  0  0  0  0  0
    9.9458   45.0737   33.2113 C   0  0  1  0  0  0  0  0  0  0  0  0
   11.0266   46.0293   33.4706 N   0  0  0  0  0  0  0  0  0  0  0  0
    9.7535   44.8539   31.6951 C   0  0  0  0  0  0  0  0  0  0  0  0
    8.7955   45.8411   31.0849 C   0  0  0  0  0  0  0  0  0  0  0  0
    7.4087   45.6002   31.1001 C   0  0  0  0  0  0  0  0  0  0  0  0
    9.2830   46.9874   30.4395 C   0  0  0  0  0  0  0  0  0  0  0  0
    6.5282   46.5006   30.4846 C   0  0  0  0  0  0  0  0  0  0  0  0
    8.4027   47.8885   29.8296 C   0  0  0  0  0  0  0  0  0  0  0  0
    7.0134   47.6523   29.8500 C   0  0  0  0  0  0  0  0  0  0  0  0
    6.0858   48.5263   29.2596 O   0  0  0  0  0  0  0  0  0  0  0  0
    6.4017   49.7881   28.6647 C   0  0  1  0  0  0  0  0  0  0  0  0
    5.1596   50.3190   27.9510 C   0  0  0  0  0  0  0  0  0  0  0  0
    6.8561   50.7781   29.7239 C   0  0  0  0  0  0  0  0  0  0  0  0
    6.1332   50.8466   30.9403 C   0  0  0  0  0  0  0  0  0  0  0  0
    8.0209   51.5967   29.5532 C   0  0  0  0  0  0  0  0  0  0  0  0
    6.6023   51.6826   31.9447 C   0  0  0  0  0  0  0  0  0  0  0  0
    8.4595   52.4176   30.6176 C   0  0  0  0  0  0  0  0  0  0  0  0
    8.7497   51.6197   28.3159 N   0  0  0  0  0  0  0  0  0  0  0  0
    6.0721   51.8955   33.2025 O   0  0  0  0  0  0  0  0  0  0  0  0
    7.7191   52.4308   31.7922 C   0  0  0  0  0  0  0  0  0  0  0  0
    8.0809   51.7750   27.1239 O   0  0  0  0  0  0  0  0  0  0  0  0
    9.9936   51.7245   28.3267 O   0  0  0  0  0  0  0  0  0  0  0  0
    6.9109   52.8396   33.8821 C   0  0  0  0  0  0  0  0  0  0  0  0
    7.9501   53.1556   32.9455 O   0  0  0  0  0  0  0  0  0  0  0  0
    8.8123   40.1844   34.2134 O   0  0  0  0  0  0  0  0  0  0  0  0
   11.2402   40.7944   33.3688 O   0  0  0  0  0  0  0  0  0  0  0  0
   10.9142   40.6898   31.9971 C   0  0  0  0  0  0  0  0  0  0  0  0
   11.5260   39.3884   31.4376 C   0  0  0  0  0  0  0  0  0  0  0  0
   12.7504   39.0888   32.0816 O   0  0  0  0  0  0  0  0  0  0  0  0
   10.6114   38.1909   31.6460 C   0  0  0  0  0  0  0  0  0  0  0  0
   12.9357   37.6812   32.0303 C   0  0  0  0  0  0  0  0  0  0  0  0
    9.6145   38.0858   30.6534 O   0  0  0  0  0  0  0  0  0  0  0  0
   11.5769   37.0148   31.7012 C   0  0  0  0  0  0  0  0  0  0  0  0
   13.4849   37.2112   33.3247 N   0  0  0  0  0  0  0  0  0  0  0  0
   11.6193   36.3261   30.4724 O   0  0  0  0  0  0  0  0  0  0  0  0
   14.4802   36.3313   33.5730 C   0  0  0  0  0  0  0  0  0  0  0  0
   13.1141   37.6268   34.5698 C   0  0  0  0  0  0  0  0  0  0  0  0
   15.2075   35.6151   32.6741 N   0  0  0  0  0  0  0  0  0  0  0  0
   14.6761   36.2300   34.9184 C   0  0  0  0  0  0  0  0  0  0  0  0
   13.8220   37.0445   35.5789 N   0  0  0  0  0  0  0  0  0  0  0  0
   16.1642   34.7600   33.1547 C   0  0  0  0  0  0  0  0  0  0  0  0
   15.6529   35.3503   35.4131 C   0  0  0  0  0  0  0  0  0  0  0  0
   16.3797   34.6314   34.5042 N   0  0  0  0  0  0  0  0  0  0  0  0
   15.9004   35.1930   36.8090 N   0  0  0  0  0  0  0  0  0  0  0  0
    8.9995   45.4383   33.6724 H   0  0  0  0  0  0  0  0  0  0  0  0
   10.7762   46.9369   33.0156 H   0  0  0  0  0  0  0  0  0  0  0  0
   11.0503   46.2279   34.4980 H   0  0  0  0  0  0  0  0  0  0  0  0
    9.3635   43.8353   31.4716 H   0  0  0  0  0  0  0  0  0  0  0  0
   10.7406   44.9070   31.1836 H   0  0  0  0  0  0  0  0  0  0  0  0
    7.0131   44.7158   31.5841 H   0  0  0  0  0  0  0  0  0  0  0  0
   10.3473   47.1853   30.4050 H   0  0  0  0  0  0  0  0  0  0  0  0
    5.4637   46.3043   30.5053 H   0  0  0  0  0  0  0  0  0  0  0  0
    8.8160   48.7587   29.3410 H   0  0  0  0  0  0  0  0  0  0  0  0
    7.1830   49.6204   27.8952 H   0  0  0  0  0  0  0  0  0  0  0  0
    4.3165   50.4343   28.6653 H   0  0  0  0  0  0  0  0  0  0  0  0
    5.3733   51.3031   27.4822 H   0  0  0  0  0  0  0  0  0  0  0  0
    4.8530   49.6085   27.1544 H   0  0  0  0  0  0  0  0  0  0  0  0
    5.2462   50.2482   31.1059 H   0  0  0  0  0  0  0  0  0  0  0  0
    9.3374   53.0436   30.5220 H   0  0  0  0  0  0  0  0  0  0  0  0
    6.3335   53.7531   34.1362 H   0  0  0  0  0  0  0  0  0  0  0  0
    7.3446   52.3805   34.7951 H   0  0  0  0  0  0  0  0  0  0  0  0
   11.3778   41.5525   31.4723 H   0  0  0  0  0  0  0  0  0  0  0  0
    9.8232   40.7190   31.7645 H   0  0  0  0  0  0  0  0  0  0  0  0
   11.7283   39.5311   30.3515 H   0  0  0  0  0  0  0  0  0  0  0  0
   10.1127   38.2733   32.6376 H   0  0  0  0  0  0  0  0  0  0  0  0
   13.6692   37.4566   31.2242 H   0  0  0  0  0  0  0  0  0  0  0  0
   10.0533   38.1117   29.7636 H   0  0  0  0  0  0  0  0  0  0  0  0
   11.2607   36.3148   32.5102 H   0  0  0  0  0  0  0  0  0  0  0  0
   12.1496   35.5023   30.6324 H   0  0  0  0  0  0  0  0  0  0  0  0
   12.3301   38.3524   34.7455 H   0  0  0  0  0  0  0  0  0  0  0  0
   16.7562   34.1780   32.4619 H   0  0  0  0  0  0  0  0  0  0  0  0
   15.3536   35.7357   37.5140 H   0  0  0  0  0  0  0  0  0  0  0  0
   16.6351   34.5298   37.1416 H   0  0  0  0  0  0  0  0  0  0  0  0
  1  2  2  0
  1  3  1  0
  3  4  1  0
  4  5  1  0
  6  1  1  0
  7  6  1  0
  6  8  1  0
  8  9  1  0
  9 10  2  0
 11  9  1  0
 10 12  1  0
 13 11  2  0
 12 14  2  0
 14 13  1  0
 14 15  1  0
 15 16  1  0
 16 17  1  0
 16 18  1  0
 18 19  2  0
 20 18  1  0
 19 21  1  0
 22 20  2  0
 20 23  1  0
 21 24  1  0
 21 25  2  0
 25 22  1  0
 23 26  1  0
 23 27  2  0
 24 28  1  0
 25 29  1  0
 28 29  1  0
  4 30  2  0
  4 31  1  0
 32 31  1  0
 32 33  1  0
 33 34  1  0
 33 35  1  0
 34 36  1  0
 35 37  1  0
 35 38  1  0
 38 36  1  0
 36 39  1  0
 38 40  1  0
 41 39  1  0
 42 39  1  0
 43 41  2  0
 41 44  1  0
 45 42  2  0
 46 43  1  0
 44 47  2  0
 44 45  1  0
 48 46  2  0
 48 47  1  0
 47 49  1  0
  6 50  1  1
  7 51  1  0
  7 52  1  0
  8 53  1  0
  8 54  1  0
 10 55  1  0
 11 56  1  0
 12 57  1  0
 13 58  1  0
 16 59  1  6
 17 60  1  0
 17 61  1  0
 17 62  1  0
 19 63  1  0
 22 64  1  0
 28 65  1  0
 28 66  1  0
 32 67  1  0
 32 68  1  0
 33 69  1  0
 35 70  1  0
 36 71  1  0
 37 72  1  0
 38 73  1  0
 40 74  1  0
 42 75  1  0
 46 76  1  0
 49 77  1  0
 49 78  1  0
M  CHG  3   5  -1  23   1  26  -1
M  END
>  <EmbedRMS>  (31) 
0.0814508438232

$$$$

     RDKit          3D

 78 83  0  0  0  0  0  0  0  0999 V2000
   10.2802   43.7664   33.8246 C   0  0  0  0  0  0  0  0  0  0  0  0
   11.4109   43.5919   34.3664 O   0  0  0  0  0  0  0  0  0  0  0  0
    9.3617   42.7250   33.7343 O   0  0  0  0  0  0  0  0  0  0  0  0
    9.8898   41.2267   34.2939 P   0  0  0  0  0  0  0  0  0  0  0  0
   10.3734   41.4567   35.8831 O   0  0  0  0  0  0  0  0  0  0  0  0
    9.9458   45.0736   33.2107 C   0  0  1  0  0  0  0  0  0  0  0  0
   11.0265   46.0292   33.4703 N   0  0  0  0  0  0  0  0  0  0  0  0
    9.7535   44.8541   31.6942 C   0  0  0  0  0  0  0  0  0  0  0  0
    8.7952   45.8411   31.0839 C   0  0  0  0  0  0  0  0  0  0  0  0
    7.4071   45.6005   31.1020 C   0  0  0  0  0  0  0  0  0  0  0  0
    9.2828   46.9900   30.4400 C   0  0  0  0  0  0  0  0  0  0  0  0
    6.5260   46.5023   30.4892 C   0  0  0  0  0  0  0  0  0  0  0  0
    8.4000   47.8909   29.8325 C   0  0  0  0  0  0  0  0  0  0  0  0
    7.0210   47.6450   29.8442 C   0  0  0  0  0  0  0  0  0  0  0  0
    6.1416   48.5439   29.2335 O   0  0  0  0  0  0  0  0  0  0  0  0
    5.6877   48.4119   27.8824 C   0  0  1  0  0  0  0  0  0  0  0  0
    6.8236   48.6916   26.8877 C   0  0  0  0  0  0  0  0  0  0  0  0
    4.9927   47.0724   27.6582 C   0  0  0  0  0  0  0  0  0  0  0  0
    5.7587   45.9234   27.3289 C   0  0  0  0  0  0  0  0  0  0  0  0
    3.5685   46.9447   27.7833 C   0  0  0  0  0  0  0  0  0  0  0  0
    5.0957   44.7280   27.0872 C   0  0  0  0  0  0  0  0  0  0  0  0
    2.9480   45.7051   27.5043 C   0  0  0  0  0  0  0  0  0  0  0  0
    2.7516   48.0403   28.2271 N   0  0  0  0  0  0  0  0  0  0  0  0
    5.6340   43.5015   26.7486 O   0  0  0  0  0  0  0  0  0  0  0  0
    3.7498   44.6251   27.1636 C   0  0  0  0  0  0  0  0  0  0  0  0
    3.1251   48.7786   29.3264 O   0  0  0  0  0  0  0  0  0  0  0  0
    1.6020   48.1898   27.7640 O   0  0  0  0  0  0  0  0  0  0  0  0
    4.5539   42.5697   26.6019 C   0  0  0  0  0  0  0  0  0  0  0  0
    3.3684   43.3288   26.8759 O   0  0  0  0  0  0  0  0  0  0  0  0
    8.8122   40.1844   34.2133 O   0  0  0  0  0  0  0  0  0  0  0  0
   11.2402   40.7944   33.3688 O   0  0  0  0  0  0  0  0  0  0  0  0
   10.9142   40.6898   31.9970 C   0  0  0  0  0  0  0  0  0  0  0  0
   11.5260   39.3884   31.4376 C   0  0  0  0  0  0  0  0  0  0  0  0
   12.7504   39.0888   32.0816 O   0  0  0  0  0  0  0  0  0  0  0  0
   10.6115   38.1910   31.6460 C   0  0  0  0  0  0  0  0  0  0  0  0
   12.9357   37.6813   32.0303 C   0  0  0  0  0  0  0  0  0  0  0  0
    9.6145   38.0859   30.6533 O   0  0  0  0  0  0  0  0  0  0  0  0
   11.5769   37.0148   31.7012 C   0  0  0  0  0  0  0  0  0  0  0  0
   13.4849   37.2112   33.3247 N   0  0  0  0  0  0  0  0  0  0  0  0
   11.6193   36.3261   30.4724 O   0  0  0  0  0  0  0  0  0  0  0  0
   14.4802   36.3313   33.5730 C   0  0  0  0  0  0  0  0  0  0  0  0
   13.1141   37.6268   34.5698 C   0  0  0  0  0  0  0  0  0  0  0  0
   15.2075   35.6151   32.6741 N   0  0  0  0  0  0  0  0  0  0  0  0
   14.6761   36.2300   34.9184 C   0  0  0  0  0  0  0  0  0  0  0  0
   13.8220   37.0445   35.5789 N   0  0  0  0  0  0  0  0  0  0  0  0
   16.1642   34.7600   33.1547 C   0  0  0  0  0  0  0  0  0  0  0  0
   15.6529   35.3503   35.4132 C   0  0  0  0  0  0  0  0  0  0  0  0
   16.3797   34.6314   34.5042 N   0  0  0  0  0  0  0  0  0  0  0  0
   15.9004   35.1930   36.8091 N   0  0  0  0  0  0  0  0  0  0  0  0
    8.9994   45.4382   33.6717 H   0  0  0  0  0  0  0  0  0  0  0  0
   10.7764   46.9368   33.0153 H   0  0  0  0  0  0  0  0  0  0  0  0
   11.0501   46.2277   34.4977 H   0  0  0  0  0  0  0  0  0  0  0  0
   10.7405   44.9078   31.1827 H   0  0  0  0  0  0  0  0  0  0  0  0
    9.3637   43.8355   31.4706 H   0  0  0  0  0  0  0  0  0  0  0  0
    7.0116   44.7170   31.5876 H   0  0  0  0  0  0  0  0  0  0  0  0
   10.3466   47.1907   30.4078 H   0  0  0  0  0  0  0  0  0  0  0  0
    5.4608   46.3106   30.5114 H   0  0  0  0  0  0  0  0  0  0  0  0
    8.7880   48.7762   29.3453 H   0  0  0  0  0  0  0  0  0  0  0  0
    4.9554   49.2256   27.7010 H   0  0  0  0  0  0  0  0  0  0  0  0
    6.4615   48.5580   25.8460 H   0  0  0  0  0  0  0  0  0  0  0  0
    7.6938   48.0262   27.0578 H   0  0  0  0  0  0  0  0  0  0  0  0
    7.1708   49.7400   27.0066 H   0  0  0  0  0  0  0  0  0  0  0  0
    6.8370   45.9489   27.2651 H   0  0  0  0  0  0  0  0  0  0  0  0
    1.8760   45.5798   27.5862 H   0  0  0  0  0  0  0  0  0  0  0  0
    4.5251   42.1752   25.5645 H   0  0  0  0  0  0  0  0  0  0  0  0
    4.6576   41.7430   27.3355 H   0  0  0  0  0  0  0  0  0  0  0  0
    9.8232   40.7190   31.7644 H   0  0  0  0  0  0  0  0  0  0  0  0
   11.3776   41.5526   31.4723 H   0  0  0  0  0  0  0  0  0  0  0  0
   11.7284   39.5311   30.3515 H   0  0  0  0  0  0  0  0  0  0  0  0
   10.1127   38.2734   32.6376 H   0  0  0  0  0  0  0  0  0  0  0  0
   13.6692   37.4567   31.2242 H   0  0  0  0  0  0  0  0  0  0  0  0
   10.0533   38.1118   29.7635 H   0  0  0  0  0  0  0  0  0  0  0  0
   11.2607   36.3148   32.5102 H   0  0  0  0  0  0  0  0  0  0  0  0
   12.1496   35.5023   30.6324 H   0  0  0  0  0  0  0  0  0  0  0  0
   12.3301   38.3524   34.7455 H   0  0  0  0  0  0  0  0  0  0  0  0
   16.7563   34.1780   32.4620 H   0  0  0  0  0  0  0  0  0  0  0  0
   16.6351   34.5298   37.1416 H   0  0  0  0  0  0  0  0  0  0  0  0
   15.3536   35.7357   37.5140 H   0  0  0  0  0  0  0  0  0  0  0  0
  1  2  2  0
  1  3  1  0
  3  4  1  0
  4  5  1  0
  6  1  1  0
  7  6  1  0
  6  8  1  0
  8  9  1  0
  9 10  2  0
 11  9  1  0
 10 12  1  0
 13 11  2  0
 12 14  2  0
 14 13  1  0
 14 15  1  0
 15 16  1  0
 16 17  1  0
 16 18  1  0
 18 19  2  0
 20 18  1  0
 19 21  1  0
 22 20  2  0
 20 23  1  0
 21 24  1  0
 21 25  2  0
 25 22  1  0
 23 26  1  0
 23 27  2  0
 24 28  1  0
 25 29  1  0
 28 29  1  0
  4 30  2  0
  4 31  1  0
 32 31  1  0
 32 33  1  0
 33 34  1  0
 33 35  1  0
 34 36  1  0
 35 37  1  0
 35 38  1  0
 38 36  1  0
 36 39  1  0
 38 40  1  0
 41 39  1  0
 42 39  1  0
 43 41  2  0
 41 44  1  0
 45 42  2  0
 46 43  1  0
 44 47  2  0
 44 45  1  0
 48 46  2  0
 48 47  1  0
 47 49  1  0
  6 50  1  1
  7 51  1  0
  7 52  1  0
  8 53  1  0
  8 54  1  0
 10 55  1  0
 11 56  1  0
 12 57  1  0
 13 58  1  0
 16 59  1  6
 17 60  1  0
 17 61  1  0
 17 62  1  0
 19 63  1  0
 22 64  1  0
 28 65  1  0
 28 66  1  0
 32 67  1  0
 32 68  1  0
 33 69  1  0
 35 70  1  0
 36 71  1  0
 37 72  1  0
 38 73  1  0
 40 74  1  0
 42 75  1  0
 46 76  1  0
 49 77  1  0
 49 78  1  0
M  CHG  3   5  -1  23   1  26  -1
M  END
>  <EmbedRMS>  (32) 
0.0815617339026

$$$$

     RDKit          3D

 78 83  0  0  0  0  0  0  0  0999 V2000
   10.2833   43.7664   33.8256 C   0  0  0  0  0  0  0  0  0  0  0  0
   11.4102   43.5934   34.3750 O   0  0  0  0  0  0  0  0  0  0  0  0
    9.3639   42.7254   33.7347 O   0  0  0  0  0  0  0  0  0  0  0  0
    9.8907   41.2266   34.2939 P   0  0  0  0  0  0  0  0  0  0  0  0
   10.3732   41.4559   35.8835 O   0  0  0  0  0  0  0  0  0  0  0  0
    9.9541   45.0698   33.2038 C   0  0  1  0  0  0  0  0  0  0  0  0
   11.0265   46.0329   33.4758 N   0  0  0  0  0  0  0  0  0  0  0  0
    9.7461   44.8485   31.6879 C   0  0  0  0  0  0  0  0  0  0  0  0
    8.7919   45.8413   31.0847 C   0  0  0  0  0  0  0  0  0  0  0  0
    7.4039   45.6004   31.0974 C   0  0  0  0  0  0  0  0  0  0  0  0
    9.2829   46.9879   30.4403 C   0  0  0  0  0  0  0  0  0  0  0  0
    6.5246   46.5017   30.4812 C   0  0  0  0  0  0  0  0  0  0  0  0
    8.4024   47.8873   29.8282 C   0  0  0  0  0  0  0  0  0  0  0  0
    7.0204   47.6543   29.8570 C   0  0  0  0  0  0  0  0  0  0  0  0
    6.1440   48.5607   29.2531 O   0  0  0  0  0  0  0  0  0  0  0  0
    5.5956   49.6977   29.9282 C   0  0  1  0  0  0  0  0  0  0  0  0
    4.5521   49.2711   30.9705 C   0  0  0  0  0  0  0  0  0  0  0  0
    6.6950   50.5916   30.4943 C   0  0  0  0  0  0  0  0  0  0  0  0
    7.2543   50.3047   31.7674 C   0  0  0  0  0  0  0  0  0  0  0  0
    7.1908   51.7183   29.7563 C   0  0  0  0  0  0  0  0  0  0  0  0
    8.2255   51.1565   32.2752 C   0  0  0  0  0  0  0  0  0  0  0  0
    8.1662   52.5624   30.3358 C   0  0  0  0  0  0  0  0  0  0  0  0
    6.7515   51.9911   28.4159 N   0  0  0  0  0  0  0  0  0  0  0  0
    8.8949   51.0724   33.4810 O   0  0  0  0  0  0  0  0  0  0  0  0
    8.6566   52.2415   31.5936 C   0  0  0  0  0  0  0  0  0  0  0  0
    6.6973   50.9768   27.4879 O   0  0  0  0  0  0  0  0  0  0  0  0
    6.6328   53.1710   28.0257 O   0  0  0  0  0  0  0  0  0  0  0  0
    9.8041   52.1785   33.5599 C   0  0  0  0  0  0  0  0  0  0  0  0
    9.6195   52.8998   32.3342 O   0  0  0  0  0  0  0  0  0  0  0  0
    8.8125   40.1849   34.2122 O   0  0  0  0  0  0  0  0  0  0  0  0
   11.2417   40.7942   33.3694 O   0  0  0  0  0  0  0  0  0  0  0  0
   10.9179   40.6904   31.9970 C   0  0  0  0  0  0  0  0  0  0  0  0
   11.5181   39.3814   31.4408 C   0  0  0  0  0  0  0  0  0  0  0  0
   12.7498   39.0870   32.0745 O   0  0  0  0  0  0  0  0  0  0  0  0
   10.6045   38.1892   31.6655 C   0  0  0  0  0  0  0  0  0  0  0  0
   12.9344   37.6801   32.0290 C   0  0  0  0  0  0  0  0  0  0  0  0
    9.6418   38.0759   30.6440 O   0  0  0  0  0  0  0  0  0  0  0  0
   11.5741   37.0170   31.7045 C   0  0  0  0  0  0  0  0  0  0  0  0
   13.4851   37.2126   33.3241 N   0  0  0  0  0  0  0  0  0  0  0  0
   11.6078   36.3407   30.4680 O   0  0  0  0  0  0  0  0  0  0  0  0
   14.4802   36.3322   33.5727 C   0  0  0  0  0  0  0  0  0  0  0  0
   13.1139   37.6277   34.5693 C   0  0  0  0  0  0  0  0  0  0  0  0
   15.2072   35.6155   32.6739 N   0  0  0  0  0  0  0  0  0  0  0  0
   14.6759   36.2307   34.9181 C   0  0  0  0  0  0  0  0  0  0  0  0
   13.8218   37.0451   35.5785 N   0  0  0  0  0  0  0  0  0  0  0  0
   16.1639   34.7602   33.1546 C   0  0  0  0  0  0  0  0  0  0  0  0
   15.6527   35.3507   35.4130 C   0  0  0  0  0  0  0  0  0  0  0  0
   16.3794   34.6317   34.5040 N   0  0  0  0  0  0  0  0  0  0  0  0
   15.9001   35.1932   36.8089 N   0  0  0  0  0  0  0  0  0  0  0  0
    9.0115   45.4317   33.6717 H   0  0  0  0  0  0  0  0  0  0  0  0
   10.7242   46.9695   33.1222 H   0  0  0  0  0  0  0  0  0  0  0  0
   11.8896   45.7674   32.9465 H   0  0  0  0  0  0  0  0  0  0  0  0
   10.7224   44.8819   31.1560 H   0  0  0  0  0  0  0  0  0  0  0  0
    9.3408   43.8335   31.4765 H   0  0  0  0  0  0  0  0  0  0  0  0
    7.0070   44.7143   31.5772 H   0  0  0  0  0  0  0  0  0  0  0  0
   10.3473   47.1853   30.4078 H   0  0  0  0  0  0  0  0  0  0  0  0
    5.4600   46.3068   30.4936 H   0  0  0  0  0  0  0  0  0  0  0  0
    8.7928   48.7688   29.3358 H   0  0  0  0  0  0  0  0  0  0  0  0
    5.0170   50.2765   29.1791 H   0  0  0  0  0  0  0  0  0  0  0  0
    3.7067   48.7610   30.4618 H   0  0  0  0  0  0  0  0  0  0  0  0
    4.1554   50.1626   31.5015 H   0  0  0  0  0  0  0  0  0  0  0  0
    4.9753   48.5654   31.7131 H   0  0  0  0  0  0  0  0  0  0  0  0
    6.9535   49.4445   32.3480 H   0  0  0  0  0  0  0  0  0  0  0  0
    8.5562   53.4212   29.8047 H   0  0  0  0  0  0  0  0  0  0  0  0
   10.8493   51.8118   33.6350 H   0  0  0  0  0  0  0  0  0  0  0  0
    9.5495   52.8239   34.4266 H   0  0  0  0  0  0  0  0  0  0  0  0
    9.8290   40.7386   31.7616 H   0  0  0  0  0  0  0  0  0  0  0  0
   11.3946   41.5458   31.4723 H   0  0  0  0  0  0  0  0  0  0  0  0
   11.6995   39.5071   30.3484 H   0  0  0  0  0  0  0  0  0  0  0  0
   10.1090   38.2635   32.6632 H   0  0  0  0  0  0  0  0  0  0  0  0
   13.6662   37.4514   31.2224 H   0  0  0  0  0  0  0  0  0  0  0  0
    8.9010   38.6926   30.8793 H   0  0  0  0  0  0  0  0  0  0  0  0
   11.2649   36.3083   32.5087 H   0  0  0  0  0  0  0  0  0  0  0  0
   12.1372   35.5141   30.6162 H   0  0  0  0  0  0  0  0  0  0  0  0
   12.3295   38.3528   34.7450 H   0  0  0  0  0  0  0  0  0  0  0  0
   16.7556   34.1779   32.4619 H   0  0  0  0  0  0  0  0  0  0  0  0
   15.3534   35.7360   37.5138 H   0  0  0  0  0  0  0  0  0  0  0  0
   16.6347   34.5300   37.1413 H   0  0  0  0  0  0  0  0  0  0  0  0
  1  2  2  0
  1  3  1  0
  3  4  1  0
  4  5  1  0
  6  1  1  0
  7  6  1  0
  6  8  1  0
  8  9  1  0
  9 10  2  0
 11  9  1  0
 10 12  1  0
 13 11  2  0
 12 14  2  0
 14 13  1  0
 14 15  1  0
 15 16  1  0
 16 17  1  0
 16 18  1  0
 18 19  2  0
 20 18  1  0
 19 21  1  0
 22 20  2  0
 20 23  1  0
 21 24  1  0
 21 25  2  0
 25 22  1  0
 23 26  1  0
 23 27  2  0
 24 28  1  0
 25 29  1  0
 28 29  1  0
  4 30  2  0
  4 31  1  0
 32 31  1  0
 32 33  1  0
 33 34  1  0
 33 35  1  0
 34 36  1  0
 35 37  1  0
 35 38  1  0
 38 36  1  0
 36 39  1  0
 38 40  1  0
 41 39  1  0
 42 39  1  0
 43 41  2  0
 41 44  1  0
 45 42  2  0
 46 43  1  0
 44 47  2  0
 44 45  1  0
 48 46  2  0
 48 47  1  0
 47 49  1  0
  6 50  1  1
  7 51  1  0
  7 52  1  0
  8 53  1  0
  8 54  1  0
 10 55  1  0
 11 56  1  0
 12 57  1  0
 13 58  1  0
 16 59  1  6
 17 60  1  0
 17 61  1  0
 17 62  1  0
 19 63  1  0
 22 64  1  0
 28 65  1  0
 28 66  1  0
 32 67  1  0
 32 68  1  0
 33 69  1  0
 35 70  1  0
 36 71  1  0
 37 72  1  0
 38 73  1  0
 40 74  1  0
 42 75  1  0
 46 76  1  0
 49 77  1  0
 49 78  1  0
M  CHG  3   5  -1  23   1  26  -1
M  END
>  <EmbedRMS>  (33) 
0.0829485032883

$$$$

     RDKit          3D

 78 83  0  0  0  0  0  0  0  0999 V2000
   10.2805   43.7663   33.8250 C   0  0  0  0  0  0  0  0  0  0  0  0
   11.4111   43.5919   34.3668 O   0  0  0  0  0  0  0  0  0  0  0  0
    9.3622   42.7247   33.7343 O   0  0  0  0  0  0  0  0  0  0  0  0
    9.8904   41.2264   34.2936 P   0  0  0  0  0  0  0  0  0  0  0  0
   10.3731   41.4564   35.8832 O   0  0  0  0  0  0  0  0  0  0  0  0
    9.9459   45.0735   33.2111 C   0  0  1  0  0  0  0  0  0  0  0  0
   11.0266   46.0291   33.4706 N   0  0  0  0  0  0  0  0  0  0  0  0
    9.7537   44.8537   31.6948 C   0  0  0  0  0  0  0  0  0  0  0  0
    8.7956   45.8407   31.0844 C   0  0  0  0  0  0  0  0  0  0  0  0
    7.4090   45.6006   31.1011 C   0  0  0  0  0  0  0  0  0  0  0  0
    9.2827   46.9877   30.4402 C   0  0  0  0  0  0  0  0  0  0  0  0
    6.5286   46.5015   30.4865 C   0  0  0  0  0  0  0  0  0  0  0  0
    8.4024   47.8899   29.8313 C   0  0  0  0  0  0  0  0  0  0  0  0
    7.0130   47.6505   29.8458 C   0  0  0  0  0  0  0  0  0  0  0  0
    6.0795   48.5173   29.2536 O   0  0  0  0  0  0  0  0  0  0  0  0
    6.3798   49.6455   28.4302 C   0  0  1  0  0  0  0  0  0  0  0  0
    6.9030   49.2071   27.0552 C   0  0  0  0  0  0  0  0  0  0  0  0
    5.1453   50.5244   28.2964 C   0  0  0  0  0  0  0  0  0  0  0  0
    5.2302   51.8590   28.7676 C   0  0  0  0  0  0  0  0  0  0  0  0
    3.9227   50.0813   27.6794 C   0  0  0  0  0  0  0  0  0  0  0  0
    4.1366   52.6977   28.5997 C   0  0  0  0  0  0  0  0  0  0  0  0
    2.8501   50.9876   27.5224 C   0  0  0  0  0  0  0  0  0  0  0  0
    3.7508   48.7426   27.1920 N   0  0  0  0  0  0  0  0  0  0  0  0
    4.0041   54.0211   28.9739 O   0  0  0  0  0  0  0  0  0  0  0  0
    2.9985   52.2816   28.0006 C   0  0  0  0  0  0  0  0  0  0  0  0
    3.1204   48.5364   25.9867 O   0  0  0  0  0  0  0  0  0  0  0  0
    3.9269   47.7688   27.9511 O   0  0  0  0  0  0  0  0  0  0  0  0
    2.6964   54.4622   28.5841 C   0  0  0  0  0  0  0  0  0  0  0  0
    2.0879   53.3201   27.9660 O   0  0  0  0  0  0  0  0  0  0  0  0
    8.8129   40.1841   34.2124 O   0  0  0  0  0  0  0  0  0  0  0  0
   11.2419   40.7944   33.3695 O   0  0  0  0  0  0  0  0  0  0  0  0
   10.9185   40.6911   31.9969 C   0  0  0  0  0  0  0  0  0  0  0  0
   11.5172   39.3814   31.4407 C   0  0  0  0  0  0  0  0  0  0  0  0
   12.7492   39.0856   32.0729 O   0  0  0  0  0  0  0  0  0  0  0  0
   10.6023   38.1908   31.6665 C   0  0  0  0  0  0  0  0  0  0  0  0
   12.9319   37.6781   32.0281 C   0  0  0  0  0  0  0  0  0  0  0  0
    9.6392   38.0797   30.6452 O   0  0  0  0  0  0  0  0  0  0  0  0
   11.5715   37.0165   31.7056 C   0  0  0  0  0  0  0  0  0  0  0  0
   13.4846   37.2121   33.3235 N   0  0  0  0  0  0  0  0  0  0  0  0
   11.6187   36.3384   30.4695 O   0  0  0  0  0  0  0  0  0  0  0  0
   14.4801   36.3321   33.5724 C   0  0  0  0  0  0  0  0  0  0  0  0
   13.1137   37.6275   34.5688 C   0  0  0  0  0  0  0  0  0  0  0  0
   15.2073   35.6153   32.6738 N   0  0  0  0  0  0  0  0  0  0  0  0
   14.6759   36.2308   34.9179 C   0  0  0  0  0  0  0  0  0  0  0  0
   13.8216   37.0452   35.5781 N   0  0  0  0  0  0  0  0  0  0  0  0
   16.1640   34.7602   33.1546 C   0  0  0  0  0  0  0  0  0  0  0  0
   15.6526   35.3508   35.4129 C   0  0  0  0  0  0  0  0  0  0  0  0
   16.3794   34.6317   34.5041 N   0  0  0  0  0  0  0  0  0  0  0  0
   15.8999   35.1935   36.8088 N   0  0  0  0  0  0  0  0  0  0  0  0
    8.9995   45.4380   33.6721 H   0  0  0  0  0  0  0  0  0  0  0  0
   10.7763   46.9368   33.0157 H   0  0  0  0  0  0  0  0  0  0  0  0
   11.0504   46.2276   34.4980 H   0  0  0  0  0  0  0  0  0  0  0  0
    9.3639   43.8350   31.4714 H   0  0  0  0  0  0  0  0  0  0  0  0
   10.7408   44.9069   31.1834 H   0  0  0  0  0  0  0  0  0  0  0  0
    7.0132   44.7167   31.5859 H   0  0  0  0  0  0  0  0  0  0  0  0
   10.3468   47.1873   30.4093 H   0  0  0  0  0  0  0  0  0  0  0  0
    5.4642   46.3045   30.5071 H   0  0  0  0  0  0  0  0  0  0  0  0
    8.8188   48.7669   29.3585 H   0  0  0  0  0  0  0  0  0  0  0  0
    7.1828   50.2376   28.9201 H   0  0  0  0  0  0  0  0  0  0  0  0
    7.0163   50.0898   26.3901 H   0  0  0  0  0  0  0  0  0  0  0  0
    6.2214   48.4774   26.5751 H   0  0  0  0  0  0  0  0  0  0  0  0
    7.8966   48.7251   27.1549 H   0  0  0  0  0  0  0  0  0  0  0  0
    6.1264   52.2408   29.2402 H   0  0  0  0  0  0  0  0  0  0  0  0
    1.9216   50.6845   27.0557 H   0  0  0  0  0  0  0  0  0  0  0  0
    2.1132   54.7710   29.4768 H   0  0  0  0  0  0  0  0  0  0  0  0
    2.7737   55.2964   27.8556 H   0  0  0  0  0  0  0  0  0  0  0  0
    9.8298   40.7409   31.7611 H   0  0  0  0  0  0  0  0  0  0  0  0
   11.3966   41.5459   31.4725 H   0  0  0  0  0  0  0  0  0  0  0  0
   11.6975   39.5066   30.3481 H   0  0  0  0  0  0  0  0  0  0  0  0
   10.1077   38.2647   32.6645 H   0  0  0  0  0  0  0  0  0  0  0  0
   13.6621   37.4468   31.2209 H   0  0  0  0  0  0  0  0  0  0  0  0
    8.8974   38.6942   30.8832 H   0  0  0  0  0  0  0  0  0  0  0  0
   11.2806   36.3073   32.5170 H   0  0  0  0  0  0  0  0  0  0  0  0
   10.8493   35.7110   30.4586 H   0  0  0  0  0  0  0  0  0  0  0  0
   12.3290   38.3523   34.7444 H   0  0  0  0  0  0  0  0  0  0  0  0
   16.7559   34.1780   32.4619 H   0  0  0  0  0  0  0  0  0  0  0  0
   16.6344   34.5301   37.1414 H   0  0  0  0  0  0  0  0  0  0  0  0
   15.3532   35.7362   37.5137 H   0  0  0  0  0  0  0  0  0  0  0  0
  1  2  2  0
  1  3  1  0
  3  4  1  0
  4  5  1  0
  6  1  1  0
  7  6  1  0
  6  8  1  0
  8  9  1  0
  9 10  2  0
 11  9  1  0
 10 12  1  0
 13 11  2  0
 12 14  2  0
 14 13  1  0
 14 15  1  0
 15 16  1  0
 16 17  1  0
 16 18  1  0
 18 19  2  0
 20 18  1  0
 19 21  1  0
 22 20  2  0
 20 23  1  0
 21 24  1  0
 21 25  2  0
 25 22  1  0
 23 26  1  0
 23 27  2  0
 24 28  1  0
 25 29  1  0
 28 29  1  0
  4 30  2  0
  4 31  1  0
 32 31  1  0
 32 33  1  0
 33 34  1  0
 33 35  1  0
 34 36  1  0
 35 37  1  0
 35 38  1  0
 38 36  1  0
 36 39  1  0
 38 40  1  0
 41 39  1  0
 42 39  1  0
 43 41  2  0
 41 44  1  0
 45 42  2  0
 46 43  1  0
 44 47  2  0
 44 45  1  0
 48 46  2  0
 48 47  1  0
 47 49  1  0
  6 50  1  1
  7 51  1  0
  7 52  1  0
  8 53  1  0
  8 54  1  0
 10 55  1  0
 11 56  1  0
 12 57  1  0
 13 58  1  0
 16 59  1  1
 17 60  1  0
 17 61  1  0
 17 62  1  0
 19 63  1  0
 22 64  1  0
 28 65  1  0
 28 66  1  0
 32 67  1  0
 32 68  1  0
 33 69  1  0
 35 70  1  0
 36 71  1  0
 37 72  1  0
 38 73  1  0
 40 74  1  0
 42 75  1  0
 46 76  1  0
 49 77  1  0
 49 78  1  0
M  CHG  3   5  -1  23   1  26  -1
M  END
>  <EmbedRMS>  (34) 
0.0827711330566

$$$$

     RDKit          3D

 78 83  0  0  0  0  0  0  0  0999 V2000
   10.2835   43.7661   33.8257 C   0  0  0  0  0  0  0  0  0  0  0  0
   11.4102   43.5930   34.3753 O   0  0  0  0  0  0  0  0  0  0  0  0
    9.3638   42.7254   33.7349 O   0  0  0  0  0  0  0  0  0  0  0  0
    9.8903   41.2267   34.2943 P   0  0  0  0  0  0  0  0  0  0  0  0
   10.3735   41.4561   35.8837 O   0  0  0  0  0  0  0  0  0  0  0  0
    9.9546   45.0694   33.2035 C   0  0  1  0  0  0  0  0  0  0  0  0
   11.0273   46.0321   33.4756 N   0  0  0  0  0  0  0  0  0  0  0  0
    9.7466   44.8479   31.6876 C   0  0  0  0  0  0  0  0  0  0  0  0
    8.7923   45.8405   31.0842 C   0  0  0  0  0  0  0  0  0  0  0  0
    7.4057   45.6017   31.0993 C   0  0  0  0  0  0  0  0  0  0  0  0
    9.2821   46.9877   30.4426 C   0  0  0  0  0  0  0  0  0  0  0  0
    6.5270   46.5037   30.4848 C   0  0  0  0  0  0  0  0  0  0  0  0
    8.4033   47.8906   29.8323 C   0  0  0  0  0  0  0  0  0  0  0  0
    7.0136   47.6524   29.8457 C   0  0  0  0  0  0  0  0  0  0  0  0
    6.0823   48.5204   29.2522 O   0  0  0  0  0  0  0  0  0  0  0  0
    6.3870   49.6684   28.4558 C   0  0  1  0  0  0  0  0  0  0  0  0
    6.9117   49.2623   27.0733 C   0  0  0  0  0  0  0  0  0  0  0  0
    5.1661   50.5617   28.3113 C   0  0  0  0  0  0  0  0  0  0  0  0
    5.3909   51.9568   28.2084 C   0  0  0  0  0  0  0  0  0  0  0  0
    3.8130   50.0702   28.3042 C   0  0  0  0  0  0  0  0  0  0  0  0
    4.2951   52.8059   28.1353 C   0  0  0  0  0  0  0  0  0  0  0  0
    2.7388   50.9868   28.2451 C   0  0  0  0  0  0  0  0  0  0  0  0
    3.5041   48.6689   28.3599 N   0  0  0  0  0  0  0  0  0  0  0  0
    4.2815   54.1842   28.0388 O   0  0  0  0  0  0  0  0  0  0  0  0
    3.0254   52.3419   28.1574 C   0  0  0  0  0  0  0  0  0  0  0  0
    2.4259   48.2384   29.0981 O   0  0  0  0  0  0  0  0  0  0  0  0
    4.0458   47.8720   27.5676 O   0  0  0  0  0  0  0  0  0  0  0  0
    2.9130   54.6111   27.9975 C   0  0  0  0  0  0  0  0  0  0  0  0
    2.1442   53.4029   28.0757 O   0  0  0  0  0  0  0  0  0  0  0  0
    8.8122   40.1850   34.2131 O   0  0  0  0  0  0  0  0  0  0  0  0
   11.2407   40.7939   33.3694 O   0  0  0  0  0  0  0  0  0  0  0  0
   10.9152   40.6905   31.9974 C   0  0  0  0  0  0  0  0  0  0  0  0
   11.5253   39.3886   31.4375 C   0  0  0  0  0  0  0  0  0  0  0  0
   12.7500   39.0874   32.0799 O   0  0  0  0  0  0  0  0  0  0  0  0
   10.6092   38.1926   31.6470 C   0  0  0  0  0  0  0  0  0  0  0  0
   12.9332   37.6792   32.0294 C   0  0  0  0  0  0  0  0  0  0  0  0
    9.6122   38.0895   30.6542 O   0  0  0  0  0  0  0  0  0  0  0  0
   11.5743   37.0145   31.7024 C   0  0  0  0  0  0  0  0  0  0  0  0
   13.4844   37.2107   33.3241 N   0  0  0  0  0  0  0  0  0  0  0  0
   11.6297   36.3239   30.4740 O   0  0  0  0  0  0  0  0  0  0  0  0
   14.4802   36.3313   33.5727 C   0  0  0  0  0  0  0  0  0  0  0  0
   13.1138   37.6266   34.5692 C   0  0  0  0  0  0  0  0  0  0  0  0
   15.2075   35.6149   32.6739 N   0  0  0  0  0  0  0  0  0  0  0  0
   14.6761   36.2303   34.9181 C   0  0  0  0  0  0  0  0  0  0  0  0
   13.8220   37.0447   35.5785 N   0  0  0  0  0  0  0  0  0  0  0  0
   16.1643   34.7600   33.1547 C   0  0  0  0  0  0  0  0  0  0  0  0
   15.6529   35.3505   35.4130 C   0  0  0  0  0  0  0  0  0  0  0  0
   16.3798   34.6315   34.5042 N   0  0  0  0  0  0  0  0  0  0  0  0
   15.9003   35.1932   36.8090 N   0  0  0  0  0  0  0  0  0  0  0  0
    9.0120   45.4317   33.6713 H   0  0  0  0  0  0  0  0  0  0  0  0
   11.8906   45.7658   32.9469 H   0  0  0  0  0  0  0  0  0  0  0  0
   10.7259   46.9687   33.1213 H   0  0  0  0  0  0  0  0  0  0  0  0
   10.7230   44.8812   31.1556 H   0  0  0  0  0  0  0  0  0  0  0  0
    9.3415   43.8327   31.4763 H   0  0  0  0  0  0  0  0  0  0  0  0
    7.0083   44.7172   31.5819 H   0  0  0  0  0  0  0  0  0  0  0  0
   10.3467   47.1852   30.4133 H   0  0  0  0  0  0  0  0  0  0  0  0
    5.4623   46.3078   30.5035 H   0  0  0  0  0  0  0  0  0  0  0  0
    8.8205   48.7656   29.3559 H   0  0  0  0  0  0  0  0  0  0  0  0
    7.1763   50.2543   28.9759 H   0  0  0  0  0  0  0  0  0  0  0  0
    6.1344   48.7317   26.4880 H   0  0  0  0  0  0  0  0  0  0  0  0
    7.7925   48.5954   27.1680 H   0  0  0  0  0  0  0  0  0  0  0  0
    7.2231   50.1659   26.5072 H   0  0  0  0  0  0  0  0  0  0  0  0
    6.3922   52.3692   28.1977 H   0  0  0  0  0  0  0  0  0  0  0  0
    1.7103   50.6493   28.2449 H   0  0  0  0  0  0  0  0  0  0  0  0
    2.6883   55.2652   28.8659 H   0  0  0  0  0  0  0  0  0  0  0  0
    2.7035   55.1374   27.0427 H   0  0  0  0  0  0  0  0  0  0  0  0
   11.3802   41.5529   31.4734 H   0  0  0  0  0  0  0  0  0  0  0  0
    9.8243   40.7216   31.7643 H   0  0  0  0  0  0  0  0  0  0  0  0
   11.7266   39.5311   30.3513 H   0  0  0  0  0  0  0  0  0  0  0  0
   10.1110   38.2747   32.6387 H   0  0  0  0  0  0  0  0  0  0  0  0
   13.6652   37.4519   31.2226 H   0  0  0  0  0  0  0  0  0  0  0  0
   10.0511   38.1143   29.7645 H   0  0  0  0  0  0  0  0  0  0  0  0
   11.2762   36.3141   32.5189 H   0  0  0  0  0  0  0  0  0  0  0  0
   10.8593   35.6978   30.4640 H   0  0  0  0  0  0  0  0  0  0  0  0
   12.3294   38.3518   34.7449 H   0  0  0  0  0  0  0  0  0  0  0  0
   16.7563   34.1779   32.4620 H   0  0  0  0  0  0  0  0  0  0  0  0
   16.6349   34.5300   37.1415 H   0  0  0  0  0  0  0  0  0  0  0  0
   15.3534   35.7359   37.5138 H   0  0  0  0  0  0  0  0  0  0  0  0
  1  2  2  0
  1  3  1  0
  3  4  1  0
  4  5  1  0
  6  1  1  0
  7  6  1  0
  6  8  1  0
  8  9  1  0
  9 10  2  0
 11  9  1  0
 10 12  1  0
 13 11  2  0
 12 14  2  0
 14 13  1  0
 14 15  1  0
 15 16  1  0
 16 17  1  0
 16 18  1  0
 18 19  2  0
 20 18  1  0
 19 21  1  0
 22 20  2  0
 20 23  1  0
 21 24  1  0
 21 25  2  0
 25 22  1  0
 23 26  1  0
 23 27  2  0
 24 28  1  0
 25 29  1  0
 28 29  1  0
  4 30  2  0
  4 31  1  0
 32 31  1  0
 32 33  1  0
 33 34  1  0
 33 35  1  0
 34 36  1  0
 35 37  1  0
 35 38  1  0
 38 36  1  0
 36 39  1  0
 38 40  1  0
 41 39  1  0
 42 39  1  0
 43 41  2  0
 41 44  1  0
 45 42  2  0
 46 43  1  0
 44 47  2  0
 44 45  1  0
 48 46  2  0
 48 47  1  0
 47 49  1  0
  6 50  1  1
  7 51  1  0
  7 52  1  0
  8 53  1  0
  8 54  1  0
 10 55  1  0
 11 56  1  0
 12 57  1  0
 13 58  1  0
 16 59  1  1
 17 60  1  0
 17 61  1  0
 17 62  1  0
 19 63  1  0
 22 64  1  0
 28 65  1  0
 28 66  1  0
 32 67  1  0
 32 68  1  0
 33 69  1  0
 35 70  1  0
 36 71  1  0
 37 72  1  0
 38 73  1  0
 40 74  1  0
 42 75  1  0
 46 76  1  0
 49 77  1  0
 49 78  1  0
M  CHG  3   5  -1  23   1  26  -1
M  END
>  <EmbedRMS>  (35) 
0.0818217704074

$$$$

     RDKit          3D

 78 83  0  0  0  0  0  0  0  0999 V2000
   10.2802   43.7668   33.8250 C   0  0  0  0  0  0  0  0  0  0  0  0
   11.4110   43.5922   34.3665 O   0  0  0  0  0  0  0  0  0  0  0  0
    9.3616   42.7253   33.7348 O   0  0  0  0  0  0  0  0  0  0  0  0
    9.8899   41.2270   34.2939 P   0  0  0  0  0  0  0  0  0  0  0  0
   10.3739   41.4567   35.8831 O   0  0  0  0  0  0  0  0  0  0  0  0
    9.9456   45.0741   33.2113 C   0  0  1  0  0  0  0  0  0  0  0  0
   11.0262   46.0299   33.4706 N   0  0  0  0  0  0  0  0  0  0  0  0
    9.7533   44.8546   31.6951 C   0  0  0  0  0  0  0  0  0  0  0  0
    8.7951   45.8417   31.0850 C   0  0  0  0  0  0  0  0  0  0  0  0
    7.4072   45.5990   31.0989 C   0  0  0  0  0  0  0  0  0  0  0  0
    9.2833   46.9885   30.4383 C   0  0  0  0  0  0  0  0  0  0  0  0
    6.5261   46.4987   30.4821 C   0  0  0  0  0  0  0  0  0  0  0  0
    8.4010   47.8872   29.8278 C   0  0  0  0  0  0  0  0  0  0  0  0
    7.0197   47.6521   29.8572 C   0  0  0  0  0  0  0  0  0  0  0  0
    6.1425   48.5572   29.2525 O   0  0  0  0  0  0  0  0  0  0  0  0
    5.5743   49.6803   29.9343 C   0  0  1  0  0  0  0  0  0  0  0  0
    4.5162   49.2321   30.9528 C   0  0  0  0  0  0  0  0  0  0  0  0
    6.6585   50.5739   30.5300 C   0  0  0  0  0  0  0  0  0  0  0  0
    7.1915   50.2798   31.8126 C   0  0  0  0  0  0  0  0  0  0  0  0
    7.1679   51.7076   29.8102 C   0  0  0  0  0  0  0  0  0  0  0  0
    8.1454   51.1336   32.3490 C   0  0  0  0  0  0  0  0  0  0  0  0
    8.1232   52.5529   30.4185 C   0  0  0  0  0  0  0  0  0  0  0  0
    6.7609   51.9935   28.4625 N   0  0  0  0  0  0  0  0  0  0  0  0
    8.7862   51.0454   33.5698 O   0  0  0  0  0  0  0  0  0  0  0  0
    8.5854   52.2262   31.6855 C   0  0  0  0  0  0  0  0  0  0  0  0
    6.6661   53.2992   28.0392 O   0  0  0  0  0  0  0  0  0  0  0  0
    6.7215   51.0811   27.6115 O   0  0  0  0  0  0  0  0  0  0  0  0
    9.6854   52.1571   33.6785 C   0  0  0  0  0  0  0  0  0  0  0  0
    9.5258   52.8855   32.4536 O   0  0  0  0  0  0  0  0  0  0  0  0
    8.8123   40.1847   34.2134 O   0  0  0  0  0  0  0  0  0  0  0  0
   11.2400   40.7955   33.3679 O   0  0  0  0  0  0  0  0  0  0  0  0
   10.9124   40.6877   31.9966 C   0  0  0  0  0  0  0  0  0  0  0  0
   11.5169   39.3811   31.4420 C   0  0  0  0  0  0  0  0  0  0  0  0
   12.7500   39.0881   32.0759 O   0  0  0  0  0  0  0  0  0  0  0  0
   10.6042   38.1893   31.6659 C   0  0  0  0  0  0  0  0  0  0  0  0
   12.9395   37.6814   32.0280 C   0  0  0  0  0  0  0  0  0  0  0  0
    9.6353   38.0950   30.6499 O   0  0  0  0  0  0  0  0  0  0  0  0
   11.5803   37.0191   31.6934 C   0  0  0  0  0  0  0  0  0  0  0  0
   13.4851   37.2119   33.3244 N   0  0  0  0  0  0  0  0  0  0  0  0
   11.6117   36.3189   30.4673 O   0  0  0  0  0  0  0  0  0  0  0  0
   14.4801   36.3317   33.5732 C   0  0  0  0  0  0  0  0  0  0  0  0
   13.1139   37.6277   34.5692 C   0  0  0  0  0  0  0  0  0  0  0  0
   15.2076   35.6153   32.6744 N   0  0  0  0  0  0  0  0  0  0  0  0
   14.6757   36.2303   34.9186 C   0  0  0  0  0  0  0  0  0  0  0  0
   13.8215   37.0450   35.5786 N   0  0  0  0  0  0  0  0  0  0  0  0
   16.1642   34.7601   33.1551 C   0  0  0  0  0  0  0  0  0  0  0  0
   15.6526   35.3505   35.4134 C   0  0  0  0  0  0  0  0  0  0  0  0
   16.3795   34.6315   34.5046 N   0  0  0  0  0  0  0  0  0  0  0  0
   15.9001   35.1932   36.8093 N   0  0  0  0  0  0  0  0  0  0  0  0
    8.9992   45.4387   33.6723 H   0  0  0  0  0  0  0  0  0  0  0  0
   10.7752   46.9378   33.0164 H   0  0  0  0  0  0  0  0  0  0  0  0
   11.0502   46.2281   34.4981 H   0  0  0  0  0  0  0  0  0  0  0  0
   10.7404   44.9080   31.1836 H   0  0  0  0  0  0  0  0  0  0  0  0
    9.3635   43.8359   31.4716 H   0  0  0  0  0  0  0  0  0  0  0  0
    7.0121   44.7130   31.5803 H   0  0  0  0  0  0  0  0  0  0  0  0
   10.3472   47.1879   30.4036 H   0  0  0  0  0  0  0  0  0  0  0  0
    5.4619   46.3012   30.4941 H   0  0  0  0  0  0  0  0  0  0  0  0
    8.7896   48.7698   29.3356 H   0  0  0  0  0  0  0  0  0  0  0  0
    5.0031   50.2654   29.1843 H   0  0  0  0  0  0  0  0  0  0  0  0
    4.1023   50.1141   31.4868 H   0  0  0  0  0  0  0  0  0  0  0  0
    4.9315   48.5216   31.6950 H   0  0  0  0  0  0  0  0  0  0  0  0
    3.6845   48.7209   30.4231 H   0  0  0  0  0  0  0  0  0  0  0  0
    6.8827   49.4139   32.3803 H   0  0  0  0  0  0  0  0  0  0  0  0
    8.5209   53.4176   29.9031 H   0  0  0  0  0  0  0  0  0  0  0  0
   10.7309   51.7970   33.7768 H   0  0  0  0  0  0  0  0  0  0  0  0
    9.4050   52.7948   34.5429 H   0  0  0  0  0  0  0  0  0  0  0  0
    9.8215   40.7222   31.7644 H   0  0  0  0  0  0  0  0  0  0  0  0
   11.3806   41.5456   31.4682 H   0  0  0  0  0  0  0  0  0  0  0  0
   11.6985   39.5087   30.3498 H   0  0  0  0  0  0  0  0  0  0  0  0
   10.1109   38.2737   32.6630 H   0  0  0  0  0  0  0  0  0  0  0  0
   13.6783   37.4562   31.2271 H   0  0  0  0  0  0  0  0  0  0  0  0
    9.0020   37.3859   30.9349 H   0  0  0  0  0  0  0  0  0  0  0  0
   11.2808   36.3052   32.4922 H   0  0  0  0  0  0  0  0  0  0  0  0
   11.8818   36.9599   29.7584 H   0  0  0  0  0  0  0  0  0  0  0  0
   12.3302   38.3537   34.7445 H   0  0  0  0  0  0  0  0  0  0  0  0
   16.7563   34.1781   32.4624 H   0  0  0  0  0  0  0  0  0  0  0  0
   16.6348   34.5301   37.1418 H   0  0  0  0  0  0  0  0  0  0  0  0
   15.3533   35.7359   37.5142 H   0  0  0  0  0  0  0  0  0  0  0  0
  1  2  2  0
  1  3  1  0
  3  4  1  0
  4  5  1  0
  6  1  1  0
  7  6  1  0
  6  8  1  0
  8  9  1  0
  9 10  2  0
 11  9  1  0
 10 12  1  0
 13 11  2  0
 12 14  2  0
 14 13  1  0
 14 15  1  0
 15 16  1  0
 16 17  1  0
 16 18  1  0
 18 19  2  0
 20 18  1  0
 19 21  1  0
 22 20  2  0
 20 23  1  0
 21 24  1  0
 21 25  2  0
 25 22  1  0
 23 26  1  0
 23 27  2  0
 24 28  1  0
 25 29  1  0
 28 29  1  0
  4 30  2  0
  4 31  1  0
 32 31  1  0
 32 33  1  0
 33 34  1  0
 33 35  1  0
 34 36  1  0
 35 37  1  0
 35 38  1  0
 38 36  1  0
 36 39  1  0
 38 40  1  0
 41 39  1  0
 42 39  1  0
 43 41  2  0
 41 44  1  0
 45 42  2  0
 46 43  1  0
 44 47  2  0
 44 45  1  0
 48 46  2  0
 48 47  1  0
 47 49  1  0
  6 50  1  1
  7 51  1  0
  7 52  1  0
  8 53  1  0
  8 54  1  0
 10 55  1  0
 11 56  1  0
 12 57  1  0
 13 58  1  0
 16 59  1  6
 17 60  1  0
 17 61  1  0
 17 62  1  0
 19 63  1  0
 22 64  1  0
 28 65  1  0
 28 66  1  0
 32 67  1  0
 32 68  1  0
 33 69  1  0
 35 70  1  0
 36 71  1  0
 37 72  1  0
 38 73  1  0
 40 74  1  0
 42 75  1  0
 46 76  1  0
 49 77  1  0
 49 78  1  0
M  CHG  3   5  -1  23   1  26  -1
M  END
>  <EmbedRMS>  (36) 
0.0814926756649

$$$$

     RDKit          3D

 78 83  0  0  0  0  0  0  0  0999 V2000
   10.2834   43.7664   33.8255 C   0  0  0  0  0  0  0  0  0  0  0  0
   11.4102   43.5934   34.3751 O   0  0  0  0  0  0  0  0  0  0  0  0
    9.3640   42.7254   33.7346 O   0  0  0  0  0  0  0  0  0  0  0  0
    9.8908   41.2266   34.2938 P   0  0  0  0  0  0  0  0  0  0  0  0
   10.3733   41.4560   35.8835 O   0  0  0  0  0  0  0  0  0  0  0  0
    9.9543   45.0698   33.2036 C   0  0  1  0  0  0  0  0  0  0  0  0
   11.0266   46.0328   33.4758 N   0  0  0  0  0  0  0  0  0  0  0  0
    9.7462   44.8486   31.6877 C   0  0  0  0  0  0  0  0  0  0  0  0
    8.7919   45.8413   31.0845 C   0  0  0  0  0  0  0  0  0  0  0  0
    7.4040   45.6001   31.0971 C   0  0  0  0  0  0  0  0  0  0  0  0
    9.2828   46.9881   30.4403 C   0  0  0  0  0  0  0  0  0  0  0  0
    6.5246   46.5013   30.4810 C   0  0  0  0  0  0  0  0  0  0  0  0
    8.4021   47.8877   29.8287 C   0  0  0  0  0  0  0  0  0  0  0  0
    7.0202   47.6545   29.8573 C   0  0  0  0  0  0  0  0  0  0  0  0
    6.1435   48.5613   29.2544 O   0  0  0  0  0  0  0  0  0  0  0  0
    5.5951   49.6969   29.9318 C   0  0  1  0  0  0  0  0  0  0  0  0
    4.5523   49.2677   30.9740 C   0  0  0  0  0  0  0  0  0  0  0  0
    6.6958   50.5903   30.4970 C   0  0  0  0  0  0  0  0  0  0  0  0
    7.2438   50.3138   31.7773 C   0  0  0  0  0  0  0  0  0  0  0  0
    7.2071   51.7051   29.7496 C   0  0  0  0  0  0  0  0  0  0  0  0
    8.2157   51.1655   32.2837 C   0  0  0  0  0  0  0  0  0  0  0  0
    8.1810   52.5499   30.3283 C   0  0  0  0  0  0  0  0  0  0  0  0
    6.7826   51.9722   28.4033 N   0  0  0  0  0  0  0  0  0  0  0  0
    8.8742   51.0914   33.4960 O   0  0  0  0  0  0  0  0  0  0  0  0
    8.6586   52.2405   31.5938 C   0  0  0  0  0  0  0  0  0  0  0  0
    6.6967   53.2713   27.9584 O   0  0  0  0  0  0  0  0  0  0  0  0
    6.7181   51.0456   27.5694 O   0  0  0  0  0  0  0  0  0  0  0  0
    9.7886   52.1936   33.5707 C   0  0  0  0  0  0  0  0  0  0  0  0
    9.6187   52.9019   32.3353 O   0  0  0  0  0  0  0  0  0  0  0  0
    8.8127   40.1849   34.2122 O   0  0  0  0  0  0  0  0  0  0  0  0
   11.2421   40.7942   33.3697 O   0  0  0  0  0  0  0  0  0  0  0  0
   10.9187   40.6911   31.9971 C   0  0  0  0  0  0  0  0  0  0  0  0
   11.5172   39.3815   31.4408 C   0  0  0  0  0  0  0  0  0  0  0  0
   12.7492   39.0856   32.0728 O   0  0  0  0  0  0  0  0  0  0  0  0
   10.6023   38.1908   31.6665 C   0  0  0  0  0  0  0  0  0  0  0  0
   12.9319   37.6781   32.0281 C   0  0  0  0  0  0  0  0  0  0  0  0
    9.6392   38.0798   30.6452 O   0  0  0  0  0  0  0  0  0  0  0  0
   11.5715   37.0166   31.7056 C   0  0  0  0  0  0  0  0  0  0  0  0
   13.4847   37.2121   33.3235 N   0  0  0  0  0  0  0  0  0  0  0  0
   11.6187   36.3384   30.4695 O   0  0  0  0  0  0  0  0  0  0  0  0
   14.4801   36.3321   33.5724 C   0  0  0  0  0  0  0  0  0  0  0  0
   13.1137   37.6275   34.5688 C   0  0  0  0  0  0  0  0  0  0  0  0
   15.2073   35.6153   32.6738 N   0  0  0  0  0  0  0  0  0  0  0  0
   14.6759   36.2308   34.9179 C   0  0  0  0  0  0  0  0  0  0  0  0
   13.8216   37.0452   35.5781 N   0  0  0  0  0  0  0  0  0  0  0  0
   16.1640   34.7602   33.1546 C   0  0  0  0  0  0  0  0  0  0  0  0
   15.6526   35.3508   35.4129 C   0  0  0  0  0  0  0  0  0  0  0  0
   16.3794   34.6317   34.5041 N   0  0  0  0  0  0  0  0  0  0  0  0
   15.8999   35.1935   36.8088 N   0  0  0  0  0  0  0  0  0  0  0  0
    9.0115   45.4318   33.6714 H   0  0  0  0  0  0  0  0  0  0  0  0
   10.7244   46.9696   33.1224 H   0  0  0  0  0  0  0  0  0  0  0  0
   11.8897   45.7674   32.9464 H   0  0  0  0  0  0  0  0  0  0  0  0
    9.3412   43.8335   31.4762 H   0  0  0  0  0  0  0  0  0  0  0  0
   10.7226   44.8821   31.1557 H   0  0  0  0  0  0  0  0  0  0  0  0
    7.0071   44.7139   31.5768 H   0  0  0  0  0  0  0  0  0  0  0  0
   10.3472   47.1856   30.4078 H   0  0  0  0  0  0  0  0  0  0  0  0
    5.4600   46.3062   30.4932 H   0  0  0  0  0  0  0  0  0  0  0  0
    8.7924   48.7696   29.3369 H   0  0  0  0  0  0  0  0  0  0  0  0
    5.0150   50.2773   29.1850 H   0  0  0  0  0  0  0  0  0  0  0  0
    4.9750   48.5582   31.7132 H   0  0  0  0  0  0  0  0  0  0  0  0
    4.1574   50.1578   31.5089 H   0  0  0  0  0  0  0  0  0  0  0  0
    3.7055   48.7608   30.4643 H   0  0  0  0  0  0  0  0  0  0  0  0
    6.9337   49.4619   32.3652 H   0  0  0  0  0  0  0  0  0  0  0  0
    8.5808   53.4004   29.7913 H   0  0  0  0  0  0  0  0  0  0  0  0
    9.5297   52.8501   34.4276 H   0  0  0  0  0  0  0  0  0  0  0  0
   10.8311   51.8222   33.6592 H   0  0  0  0  0  0  0  0  0  0  0  0
   11.3968   41.5460   31.4728 H   0  0  0  0  0  0  0  0  0  0  0  0
    9.8299   40.7410   31.7613 H   0  0  0  0  0  0  0  0  0  0  0  0
   11.6975   39.5067   30.3481 H   0  0  0  0  0  0  0  0  0  0  0  0
   10.1076   38.2648   32.6645 H   0  0  0  0  0  0  0  0  0  0  0  0
   13.6621   37.4468   31.2209 H   0  0  0  0  0  0  0  0  0  0  0  0
    8.8975   38.6944   30.8831 H   0  0  0  0  0  0  0  0  0  0  0  0
   11.2806   36.3073   32.5170 H   0  0  0  0  0  0  0  0  0  0  0  0
   10.8492   35.7110   30.4586 H   0  0  0  0  0  0  0  0  0  0  0  0
   12.3290   38.3523   34.7444 H   0  0  0  0  0  0  0  0  0  0  0  0
   16.7559   34.1780   32.4619 H   0  0  0  0  0  0  0  0  0  0  0  0
   16.6344   34.5301   37.1414 H   0  0  0  0  0  0  0  0  0  0  0  0
   15.3531   35.7363   37.5137 H   0  0  0  0  0  0  0  0  0  0  0  0
  1  2  2  0
  1  3  1  0
  3  4  1  0
  4  5  1  0
  6  1  1  0
  7  6  1  0
  6  8  1  0
  8  9  1  0
  9 10  2  0
 11  9  1  0
 10 12  1  0
 13 11  2  0
 12 14  2  0
 14 13  1  0
 14 15  1  0
 15 16  1  0
 16 17  1  0
 16 18  1  0
 18 19  2  0
 20 18  1  0
 19 21  1  0
 22 20  2  0
 20 23  1  0
 21 24  1  0
 21 25  2  0
 25 22  1  0
 23 26  1  0
 23 27  2  0
 24 28  1  0
 25 29  1  0
 28 29  1  0
  4 30  2  0
  4 31  1  0
 32 31  1  0
 32 33  1  0
 33 34  1  0
 33 35  1  0
 34 36  1  0
 35 37  1  0
 35 38  1  0
 38 36  1  0
 36 39  1  0
 38 40  1  0
 41 39  1  0
 42 39  1  0
 43 41  2  0
 41 44  1  0
 45 42  2  0
 46 43  1  0
 44 47  2  0
 44 45  1  0
 48 46  2  0
 48 47  1  0
 47 49  1  0
  6 50  1  1
  7 51  1  0
  7 52  1  0
  8 53  1  0
  8 54  1  0
 10 55  1  0
 11 56  1  0
 12 57  1  0
 13 58  1  0
 16 59  1  6
 17 60  1  0
 17 61  1  0
 17 62  1  0
 19 63  1  0
 22 64  1  0
 28 65  1  0
 28 66  1  0
 32 67  1  0
 32 68  1  0
 33 69  1  0
 35 70  1  0
 36 71  1  0
 37 72  1  0
 38 73  1  0
 40 74  1  0
 42 75  1  0
 46 76  1  0
 49 77  1  0
 49 78  1  0
M  CHG  3   5  -1  23   1  26  -1
M  END
>  <EmbedRMS>  (37) 
0.0830474387563

$$$$

     RDKit          3D

 78 83  0  0  0  0  0  0  0  0999 V2000
   10.2835   43.7662   33.8256 C   0  0  0  0  0  0  0  0  0  0  0  0
   11.4102   43.5929   34.3753 O   0  0  0  0  0  0  0  0  0  0  0  0
    9.3638   42.7255   33.7348 O   0  0  0  0  0  0  0  0  0  0  0  0
    9.8906   41.2266   34.2933 P   0  0  0  0  0  0  0  0  0  0  0  0
   10.3743   41.4557   35.8827 O   0  0  0  0  0  0  0  0  0  0  0  0
    9.9548   45.0695   33.2037 C   0  0  1  0  0  0  0  0  0  0  0  0
   11.0274   46.0322   33.4760 N   0  0  0  0  0  0  0  0  0  0  0  0
    9.7471   44.8485   31.6877 C   0  0  0  0  0  0  0  0  0  0  0  0
    8.7926   45.8412   31.0848 C   0  0  0  0  0  0  0  0  0  0  0  0
    7.4061   45.6011   31.0991 C   0  0  0  0  0  0  0  0  0  0  0  0
    9.2817   46.9876   30.4419 C   0  0  0  0  0  0  0  0  0  0  0  0
    6.5243   46.5004   30.4840 C   0  0  0  0  0  0  0  0  0  0  0  0
    8.4005   47.8872   29.8315 C   0  0  0  0  0  0  0  0  0  0  0  0
    7.0181   47.6581   29.8471 C   0  0  0  0  0  0  0  0  0  0  0  0
    6.1877   48.5967   29.2123 O   0  0  0  0  0  0  0  0  0  0  0  0
    4.7599   48.6234   29.2530 C   0  0  1  0  0  0  0  0  0  0  0  0
    4.2506   49.0472   30.6377 C   0  0  0  0  0  0  0  0  0  0  0  0
    4.2340   49.5475   28.1650 C   0  0  0  0  0  0  0  0  0  0  0  0
    3.3944   48.9858   27.1700 C   0  0  0  0  0  0  0  0  0  0  0  0
    4.5104   50.9595   28.1255 C   0  0  0  0  0  0  0  0  0  0  0  0
    2.8525   49.8219   26.2032 C   0  0  0  0  0  0  0  0  0  0  0  0
    3.9154   51.7609   27.1254 C   0  0  0  0  0  0  0  0  0  0  0  0
    5.3626   51.6013   29.0852 N   0  0  0  0  0  0  0  0  0  0  0  0
    2.0142   49.4926   25.1554 O   0  0  0  0  0  0  0  0  0  0  0  0
    3.0992   51.1508   26.1837 C   0  0  0  0  0  0  0  0  0  0  0  0
    5.0005   52.8238   29.6018 O   0  0  0  0  0  0  0  0  0  0  0  0
    6.5303   51.1989   29.2588 O   0  0  0  0  0  0  0  0  0  0  0  0
    1.7173   50.6948   24.4318 C   0  0  0  0  0  0  0  0  0  0  0  0
    2.4303   51.7298   25.1224 O   0  0  0  0  0  0  0  0  0  0  0  0
    8.8122   40.1851   34.2127 O   0  0  0  0  0  0  0  0  0  0  0  0
   11.2406   40.7945   33.3670 O   0  0  0  0  0  0  0  0  0  0  0  0
   10.9134   40.6866   31.9954 C   0  0  0  0  0  0  0  0  0  0  0  0
   11.5167   39.3787   31.4404 C   0  0  0  0  0  0  0  0  0  0  0  0
   12.7486   39.0849   32.0734 O   0  0  0  0  0  0  0  0  0  0  0  0
   10.6039   38.1884   31.6669 C   0  0  0  0  0  0  0  0  0  0  0  0
   12.9329   37.6776   32.0284 C   0  0  0  0  0  0  0  0  0  0  0  0
    9.6374   38.0938   30.6484 O   0  0  0  0  0  0  0  0  0  0  0  0
   11.5737   37.0141   31.7055 C   0  0  0  0  0  0  0  0  0  0  0  0
   13.4853   37.2120   33.3238 N   0  0  0  0  0  0  0  0  0  0  0  0
   11.6210   36.3379   30.4683 O   0  0  0  0  0  0  0  0  0  0  0  0
   14.4804   36.3319   33.5726 C   0  0  0  0  0  0  0  0  0  0  0  0
   13.1141   37.6275   34.5689 C   0  0  0  0  0  0  0  0  0  0  0  0
   15.2076   35.6152   32.6740 N   0  0  0  0  0  0  0  0  0  0  0  0
   14.6761   36.2306   34.9181 C   0  0  0  0  0  0  0  0  0  0  0  0
   13.8218   37.0451   35.5783 N   0  0  0  0  0  0  0  0  0  0  0  0
   16.1642   34.7600   33.1548 C   0  0  0  0  0  0  0  0  0  0  0  0
   15.6527   35.3507   35.4131 C   0  0  0  0  0  0  0  0  0  0  0  0
   16.3795   34.6315   34.5043 N   0  0  0  0  0  0  0  0  0  0  0  0
   15.9000   35.1933   36.8090 N   0  0  0  0  0  0  0  0  0  0  0  0
    9.0121   45.4317   33.6714 H   0  0  0  0  0  0  0  0  0  0  0  0
   11.8909   45.7659   32.9477 H   0  0  0  0  0  0  0  0  0  0  0  0
   10.7261   46.9688   33.1216 H   0  0  0  0  0  0  0  0  0  0  0  0
   10.7236   44.8826   31.1559 H   0  0  0  0  0  0  0  0  0  0  0  0
    9.3425   43.8333   31.4759 H   0  0  0  0  0  0  0  0  0  0  0  0
    7.0109   44.7143   31.5795 H   0  0  0  0  0  0  0  0  0  0  0  0
   10.3460   47.1857   30.4095 H   0  0  0  0  0  0  0  0  0  0  0  0
    5.4684   46.2755   30.5073 H   0  0  0  0  0  0  0  0  0  0  0  0
    8.7943   48.7686   29.3412 H   0  0  0  0  0  0  0  0  0  0  0  0
    4.3810   47.5969   29.0574 H   0  0  0  0  0  0  0  0  0  0  0  0
    3.1476   49.1785   30.6157 H   0  0  0  0  0  0  0  0  0  0  0  0
    4.4867   48.2691   31.3917 H   0  0  0  0  0  0  0  0  0  0  0  0
    4.7211   49.9931   30.9715 H   0  0  0  0  0  0  0  0  0  0  0  0
    3.1567   47.9296   27.1543 H   0  0  0  0  0  0  0  0  0  0  0  0
    4.0993   52.8265   27.0755 H   0  0  0  0  0  0  0  0  0  0  0  0
    0.6263   50.8987   24.4569 H   0  0  0  0  0  0  0  0  0  0  0  0
    2.0793   50.6126   23.3855 H   0  0  0  0  0  0  0  0  0  0  0  0
    9.8225   40.7225   31.7631 H   0  0  0  0  0  0  0  0  0  0  0  0
   11.3828   41.5438   31.4669 H   0  0  0  0  0  0  0  0  0  0  0  0
   11.6978   39.5037   30.3478 H   0  0  0  0  0  0  0  0  0  0  0  0
   10.1084   38.2787   32.6627 H   0  0  0  0  0  0  0  0  0  0  0  0
   13.6638   37.4472   31.2214 H   0  0  0  0  0  0  0  0  0  0  0  0
    8.9763   37.4191   30.9532 H   0  0  0  0  0  0  0  0  0  0  0  0
   11.2821   36.3054   32.5171 H   0  0  0  0  0  0  0  0  0  0  0  0
   10.8658   35.6935   30.4652 H   0  0  0  0  0  0  0  0  0  0  0  0
   12.3293   38.3523   34.7444 H   0  0  0  0  0  0  0  0  0  0  0  0
   16.7561   34.1778   32.4621 H   0  0  0  0  0  0  0  0  0  0  0  0
   16.6345   34.5300   37.1416 H   0  0  0  0  0  0  0  0  0  0  0  0
   15.3533   35.7361   37.5138 H   0  0  0  0  0  0  0  0  0  0  0  0
  1  2  2  0
  1  3  1  0
  3  4  1  0
  4  5  1  0
  6  1  1  0
  7  6  1  0
  6  8  1  0
  8  9  1  0
  9 10  2  0
 11  9  1  0
 10 12  1  0
 13 11  2  0
 12 14  2  0
 14 13  1  0
 14 15  1  0
 15 16  1  0
 16 17  1  0
 16 18  1  0
 18 19  2  0
 20 18  1  0
 19 21  1  0
 22 20  2  0
 20 23  1  0
 21 24  1  0
 21 25  2  0
 25 22  1  0
 23 26  1  0
 23 27  2  0
 24 28  1  0
 25 29  1  0
 28 29  1  0
  4 30  2  0
  4 31  1  0
 32 31  1  0
 32 33  1  0
 33 34  1  0
 33 35  1  0
 34 36  1  0
 35 37  1  0
 35 38  1  0
 38 36  1  0
 36 39  1  0
 38 40  1  0
 41 39  1  0
 42 39  1  0
 43 41  2  0
 41 44  1  0
 45 42  2  0
 46 43  1  0
 44 47  2  0
 44 45  1  0
 48 46  2  0
 48 47  1  0
 47 49  1  0
  6 50  1  1
  7 51  1  0
  7 52  1  0
  8 53  1  0
  8 54  1  0
 10 55  1  0
 11 56  1  0
 12 57  1  0
 13 58  1  0
 16 59  1  6
 17 60  1  0
 17 61  1  0
 17 62  1  0
 19 63  1  0
 22 64  1  0
 28 65  1  0
 28 66  1  0
 32 67  1  0
 32 68  1  0
 33 69  1  0
 35 70  1  0
 36 71  1  0
 37 72  1  0
 38 73  1  0
 40 74  1  0
 42 75  1  0
 46 76  1  0
 49 77  1  0
 49 78  1  0
M  CHG  3   5  -1  23   1  26  -1
M  END
>  <EmbedRMS>  (38) 
0.0825307210222

$$$$

     RDKit          3D

 78 83  0  0  0  0  0  0  0  0999 V2000
   10.2804   43.7664   33.8251 C   0  0  0  0  0  0  0  0  0  0  0  0
   11.4111   43.5919   34.3667 O   0  0  0  0  0  0  0  0  0  0  0  0
    9.3619   42.7249   33.7345 O   0  0  0  0  0  0  0  0  0  0  0  0
    9.8903   41.2265   34.2931 P   0  0  0  0  0  0  0  0  0  0  0  0
   10.3742   41.4562   35.8824 O   0  0  0  0  0  0  0  0  0  0  0  0
    9.9458   45.0736   33.2113 C   0  0  1  0  0  0  0  0  0  0  0  0
   11.0266   46.0293   33.4706 N   0  0  0  0  0  0  0  0  0  0  0  0
    9.7534   44.8539   31.6952 C   0  0  0  0  0  0  0  0  0  0  0  0
    8.7954   45.8412   31.0852 C   0  0  0  0  0  0  0  0  0  0  0  0
    7.4088   45.6002   31.1002 C   0  0  0  0  0  0  0  0  0  0  0  0
    9.2828   46.9873   30.4394 C   0  0  0  0  0  0  0  0  0  0  0  0
    6.5286   46.5004   30.4843 C   0  0  0  0  0  0  0  0  0  0  0  0
    8.4025   47.8883   29.8293 C   0  0  0  0  0  0  0  0  0  0  0  0
    7.0133   47.6529   29.8501 C   0  0  0  0  0  0  0  0  0  0  0  0
    6.0837   48.5247   29.2592 O   0  0  0  0  0  0  0  0  0  0  0  0
    6.3879   49.7907   28.6726 C   0  0  1  0  0  0  0  0  0  0  0  0
    5.1782   50.2890   27.8815 C   0  0  0  0  0  0  0  0  0  0  0  0
    6.8066   50.8054   29.7268 C   0  0  0  0  0  0  0  0  0  0  0  0
    8.0465   51.4690   29.5558 C   0  0  0  0  0  0  0  0  0  0  0  0
    5.9783   51.1554   30.8462 C   0  0  0  0  0  0  0  0  0  0  0  0
    8.4192   52.4338   30.4825 C   0  0  0  0  0  0  0  0  0  0  0  0
    6.4034   52.1552   31.7488 C   0  0  0  0  0  0  0  0  0  0  0  0
    4.7091   50.5305   31.0715 N   0  0  0  0  0  0  0  0  0  0  0  0
    9.5719   53.1950   30.5133 O   0  0  0  0  0  0  0  0  0  0  0  0
    7.6321   52.7634   31.5318 C   0  0  0  0  0  0  0  0  0  0  0  0
    4.6540   49.2012   31.4167 O   0  0  0  0  0  0  0  0  0  0  0  0
    3.6980   51.2404   31.2489 O   0  0  0  0  0  0  0  0  0  0  0  0
    9.5026   54.0564   31.6578 C   0  0  0  0  0  0  0  0  0  0  0  0
    8.2475   53.7486   32.2797 O   0  0  0  0  0  0  0  0  0  0  0  0
    8.8124   40.1844   34.2129 O   0  0  0  0  0  0  0  0  0  0  0  0
   11.2405   40.7948   33.3669 O   0  0  0  0  0  0  0  0  0  0  0  0
   10.9133   40.6866   31.9953 C   0  0  0  0  0  0  0  0  0  0  0  0
   11.5166   39.3787   31.4404 C   0  0  0  0  0  0  0  0  0  0  0  0
   12.7485   39.0849   32.0735 O   0  0  0  0  0  0  0  0  0  0  0  0
   10.6039   38.1884   31.6669 C   0  0  0  0  0  0  0  0  0  0  0  0
   12.9329   37.6776   32.0284 C   0  0  0  0  0  0  0  0  0  0  0  0
    9.6373   38.0938   30.6484 O   0  0  0  0  0  0  0  0  0  0  0  0
   11.5737   37.0141   31.7055 C   0  0  0  0  0  0  0  0  0  0  0  0
   13.4853   37.2120   33.3238 N   0  0  0  0  0  0  0  0  0  0  0  0
   11.6210   36.3379   30.4683 O   0  0  0  0  0  0  0  0  0  0  0  0
   14.4804   36.3319   33.5726 C   0  0  0  0  0  0  0  0  0  0  0  0
   13.1141   37.6275   34.5689 C   0  0  0  0  0  0  0  0  0  0  0  0
   15.2075   35.6152   32.6740 N   0  0  0  0  0  0  0  0  0  0  0  0
   14.6761   36.2306   34.9181 C   0  0  0  0  0  0  0  0  0  0  0  0
   13.8218   37.0451   35.5783 N   0  0  0  0  0  0  0  0  0  0  0  0
   16.1642   34.7600   33.1548 C   0  0  0  0  0  0  0  0  0  0  0  0
   15.6527   35.3506   35.4131 C   0  0  0  0  0  0  0  0  0  0  0  0
   16.3795   34.6315   34.5043 N   0  0  0  0  0  0  0  0  0  0  0  0
   15.9001   35.1933   36.8090 N   0  0  0  0  0  0  0  0  0  0  0  0
    8.9995   45.4382   33.6725 H   0  0  0  0  0  0  0  0  0  0  0  0
   11.0503   46.2279   34.4980 H   0  0  0  0  0  0  0  0  0  0  0  0
   10.7763   46.9369   33.0156 H   0  0  0  0  0  0  0  0  0  0  0  0
    9.3634   43.8353   31.4717 H   0  0  0  0  0  0  0  0  0  0  0  0
   10.7405   44.9070   31.1836 H   0  0  0  0  0  0  0  0  0  0  0  0
    7.0131   44.7158   31.5841 H   0  0  0  0  0  0  0  0  0  0  0  0
   10.3473   47.1844   30.4038 H   0  0  0  0  0  0  0  0  0  0  0  0
    5.4641   46.3037   30.5047 H   0  0  0  0  0  0  0  0  0  0  0  0
    8.8171   48.7548   29.3373 H   0  0  0  0  0  0  0  0  0  0  0  0
    7.2010   49.6458   27.9267 H   0  0  0  0  0  0  0  0  0  0  0  0
    4.9596   49.5832   27.0522 H   0  0  0  0  0  0  0  0  0  0  0  0
    5.3904   51.2883   27.4444 H   0  0  0  0  0  0  0  0  0  0  0  0
    4.2757   50.3572   28.5220 H   0  0  0  0  0  0  0  0  0  0  0  0
    8.6988   51.2483   28.7204 H   0  0  0  0  0  0  0  0  0  0  0  0
    5.7957   52.4395   32.5984 H   0  0  0  0  0  0  0  0  0  0  0  0
   10.3391   53.8378   32.3542 H   0  0  0  0  0  0  0  0  0  0  0  0
    9.5220   55.1199   31.3398 H   0  0  0  0  0  0  0  0  0  0  0  0
    9.8224   40.7224   31.7629 H   0  0  0  0  0  0  0  0  0  0  0  0
   11.3826   41.5438   31.4666 H   0  0  0  0  0  0  0  0  0  0  0  0
   11.6979   39.5036   30.3478 H   0  0  0  0  0  0  0  0  0  0  0  0
   10.1084   38.2786   32.6627 H   0  0  0  0  0  0  0  0  0  0  0  0
   13.6638   37.4473   31.2214 H   0  0  0  0  0  0  0  0  0  0  0  0
    8.9763   37.4190   30.9532 H   0  0  0  0  0  0  0  0  0  0  0  0
   11.2821   36.3054   32.5172 H   0  0  0  0  0  0  0  0  0  0  0  0
   10.8658   35.6935   30.4652 H   0  0  0  0  0  0  0  0  0  0  0  0
   12.3293   38.3523   34.7445 H   0  0  0  0  0  0  0  0  0  0  0  0
   16.7561   34.1778   32.4621 H   0  0  0  0  0  0  0  0  0  0  0  0
   16.6345   34.5300   37.1416 H   0  0  0  0  0  0  0  0  0  0  0  0
   15.3533   35.7361   37.5138 H   0  0  0  0  0  0  0  0  0  0  0  0
  1  2  2  0
  1  3  1  0
  3  4  1  0
  4  5  1  0
  6  1  1  0
  7  6  1  0
  6  8  1  0
  8  9  1  0
  9 10  2  0
 11  9  1  0
 10 12  1  0
 13 11  2  0
 12 14  2  0
 14 13  1  0
 14 15  1  0
 15 16  1  0
 16 17  1  0
 16 18  1  0
 18 19  2  0
 20 18  1  0
 19 21  1  0
 22 20  2  0
 20 23  1  0
 21 24  1  0
 21 25  2  0
 25 22  1  0
 23 26  1  0
 23 27  2  0
 24 28  1  0
 25 29  1  0
 28 29  1  0
  4 30  2  0
  4 31  1  0
 32 31  1  0
 32 33  1  0
 33 34  1  0
 33 35  1  0
 34 36  1  0
 35 37  1  0
 35 38  1  0
 38 36  1  0
 36 39  1  0
 38 40  1  0
 41 39  1  0
 42 39  1  0
 43 41  2  0
 41 44  1  0
 45 42  2  0
 46 43  1  0
 44 47  2  0
 44 45  1  0
 48 46  2  0
 48 47  1  0
 47 49  1  0
  6 50  1  1
  7 51  1  0
  7 52  1  0
  8 53  1  0
  8 54  1  0
 10 55  1  0
 11 56  1  0
 12 57  1  0
 13 58  1  0
 16 59  1  6
 17 60  1  0
 17 61  1  0
 17 62  1  0
 19 63  1  0
 22 64  1  0
 28 65  1  0
 28 66  1  0
 32 67  1  0
 32 68  1  0
 33 69  1  0
 35 70  1  0
 36 71  1  0
 37 72  1  0
 38 73  1  0
 40 74  1  0
 42 75  1  0
 46 76  1  0
 49 77  1  0
 49 78  1  0
M  CHG  3   5  -1  23   1  26  -1
M  END
>  <EmbedRMS>  (39) 
0.0823832830529

$$$$

     RDKit          3D

 78 83  0  0  0  0  0  0  0  0999 V2000
   10.2802   43.7666   33.8251 C   0  0  0  0  0  0  0  0  0  0  0  0
   11.4110   43.5920   34.3666 O   0  0  0  0  0  0  0  0  0  0  0  0
    9.3616   42.7252   33.7349 O   0  0  0  0  0  0  0  0  0  0  0  0
    9.8896   41.2269   34.2945 P   0  0  0  0  0  0  0  0  0  0  0  0
   10.3732   41.4568   35.8838 O   0  0  0  0  0  0  0  0  0  0  0  0
    9.9457   45.0737   33.2112 C   0  0  1  0  0  0  0  0  0  0  0  0
   11.0265   46.0294   33.4705 N   0  0  0  0  0  0  0  0  0  0  0  0
    9.7534   44.8538   31.6950 C   0  0  0  0  0  0  0  0  0  0  0  0
    8.7955   45.8410   31.0847 C   0  0  0  0  0  0  0  0  0  0  0  0
    7.4087   45.6002   31.1002 C   0  0  0  0  0  0  0  0  0  0  0  0
    9.2831   46.9874   30.4394 C   0  0  0  0  0  0  0  0  0  0  0  0
    6.5282   46.5007   30.4849 C   0  0  0  0  0  0  0  0  0  0  0  0
    8.4028   47.8887   29.8298 C   0  0  0  0  0  0  0  0  0  0  0  0
    7.0135   47.6520   29.8500 C   0  0  0  0  0  0  0  0  0  0  0  0
    6.0850   48.5291   29.2650 O   0  0  0  0  0  0  0  0  0  0  0  0
    6.4052   49.7741   28.6401 C   0  0  1  0  0  0  0  0  0  0  0  0
    5.1848   50.3086   27.8916 C   0  0  0  0  0  0  0  0  0  0  0  0
    6.9174   50.8070   29.6337 C   0  0  0  0  0  0  0  0  0  0  0  0
    7.8648   51.7456   29.1574 C   0  0  0  0  0  0  0  0  0  0  0  0
    6.5295   50.8462   31.0184 C   0  0  0  0  0  0  0  0  0  0  0  0
    8.4089   52.6570   30.0518 C   0  0  0  0  0  0  0  0  0  0  0  0
    7.1310   51.7890   31.8838 C   0  0  0  0  0  0  0  0  0  0  0  0
    5.5504   49.9485   31.5642 N   0  0  0  0  0  0  0  0  0  0  0  0
    9.3447   53.6442   29.8096 O   0  0  0  0  0  0  0  0  0  0  0  0
    8.0606   52.6752   31.3580 C   0  0  0  0  0  0  0  0  0  0  0  0
    4.3247   49.8048   30.9586 O   0  0  0  0  0  0  0  0  0  0  0  0
    5.7216   49.4572   32.6990 O   0  0  0  0  0  0  0  0  0  0  0  0
    9.5986   54.3256   31.0456 C   0  0  0  0  0  0  0  0  0  0  0  0
    8.7579   53.6752   32.0083 O   0  0  0  0  0  0  0  0  0  0  0  0
    8.8122   40.1844   34.2135 O   0  0  0  0  0  0  0  0  0  0  0  0
   11.2401   40.7950   33.3698 O   0  0  0  0  0  0  0  0  0  0  0  0
   10.9143   40.6914   31.9981 C   0  0  0  0  0  0  0  0  0  0  0  0
   11.5269   39.3912   31.4385 C   0  0  0  0  0  0  0  0  0  0  0  0
   12.7519   39.0911   32.0837 O   0  0  0  0  0  0  0  0  0  0  0  0
   10.6113   38.1932   31.6451 C   0  0  0  0  0  0  0  0  0  0  0  0
   12.9413   37.6838   32.0297 C   0  0  0  0  0  0  0  0  0  0  0  0
    9.6064   38.0877   30.6599 O   0  0  0  0  0  0  0  0  0  0  0  0
   11.5822   37.0197   31.6877 C   0  0  0  0  0  0  0  0  0  0  0  0
   13.4840   37.2104   33.3254 N   0  0  0  0  0  0  0  0  0  0  0  0
   11.6179   36.3072   30.4690 O   0  0  0  0  0  0  0  0  0  0  0  0
   14.4797   36.3309   33.5738 C   0  0  0  0  0  0  0  0  0  0  0  0
   13.1137   37.6269   34.5702 C   0  0  0  0  0  0  0  0  0  0  0  0
   15.2074   35.6152   32.6747 N   0  0  0  0  0  0  0  0  0  0  0  0
   14.6756   36.2298   34.9190 C   0  0  0  0  0  0  0  0  0  0  0  0
   13.8217   37.0445   35.5793 N   0  0  0  0  0  0  0  0  0  0  0  0
   16.1643   34.7603   33.1551 C   0  0  0  0  0  0  0  0  0  0  0  0
   15.6528   35.3503   35.4136 C   0  0  0  0  0  0  0  0  0  0  0  0
   16.3798   34.6316   34.5046 N   0  0  0  0  0  0  0  0  0  0  0  0
   15.9004   35.1930   36.8094 N   0  0  0  0  0  0  0  0  0  0  0  0
    8.9994   45.4384   33.6722 H   0  0  0  0  0  0  0  0  0  0  0  0
   11.0502   46.2280   34.4979 H   0  0  0  0  0  0  0  0  0  0  0  0
   10.7760   46.9370   33.0156 H   0  0  0  0  0  0  0  0  0  0  0  0
   10.7406   44.9069   31.1836 H   0  0  0  0  0  0  0  0  0  0  0  0
    9.3635   43.8352   31.4717 H   0  0  0  0  0  0  0  0  0  0  0  0
    7.0130   44.7162   31.5848 H   0  0  0  0  0  0  0  0  0  0  0  0
   10.3473   47.1857   30.4060 H   0  0  0  0  0  0  0  0  0  0  0  0
    5.4635   46.3059   30.5076 H   0  0  0  0  0  0  0  0  0  0  0  0
    8.8156   48.7623   29.3459 H   0  0  0  0  0  0  0  0  0  0  0  0
    7.1841   49.5771   27.8693 H   0  0  0  0  0  0  0  0  0  0  0  0
    4.3671   50.5782   28.5892 H   0  0  0  0  0  0  0  0  0  0  0  0
    4.8102   49.5373   27.1857 H   0  0  0  0  0  0  0  0  0  0  0  0
    5.4624   51.2119   27.3071 H   0  0  0  0  0  0  0  0  0  0  0  0
    8.1799   51.7543   28.1214 H   0  0  0  0  0  0  0  0  0  0  0  0
    6.8662   51.8397   32.9322 H   0  0  0  0  0  0  0  0  0  0  0  0
   10.6655   54.2161   31.3325 H   0  0  0  0  0  0  0  0  0  0  0  0
    9.3220   55.3972   30.9573 H   0  0  0  0  0  0  0  0  0  0  0  0
    9.8233   40.7200   31.7652 H   0  0  0  0  0  0  0  0  0  0  0  0
   11.3775   41.5548   31.4741 H   0  0  0  0  0  0  0  0  0  0  0  0
   11.7312   39.5362   30.3532 H   0  0  0  0  0  0  0  0  0  0  0  0
   10.1202   38.2696   32.6410 H   0  0  0  0  0  0  0  0  0  0  0  0
   13.6850   37.4639   31.2321 H   0  0  0  0  0  0  0  0  0  0  0  0
   10.0251   38.1792   29.7654 H   0  0  0  0  0  0  0  0  0  0  0  0
   11.2757   36.3135   32.4907 H   0  0  0  0  0  0  0  0  0  0  0  0
   11.9838   36.9111   29.7708 H   0  0  0  0  0  0  0  0  0  0  0  0
   12.3307   38.3536   34.7458 H   0  0  0  0  0  0  0  0  0  0  0  0
   16.7566   34.1787   32.4623 H   0  0  0  0  0  0  0  0  0  0  0  0
   15.3535   35.7355   37.5144 H   0  0  0  0  0  0  0  0  0  0  0  0
   16.6353   34.5301   37.1419 H   0  0  0  0  0  0  0  0  0  0  0  0
  1  2  2  0
  1  3  1  0
  3  4  1  0
  4  5  1  0
  6  1  1  0
  7  6  1  0
  6  8  1  0
  8  9  1  0
  9 10  2  0
 11  9  1  0
 10 12  1  0
 13 11  2  0
 12 14  2  0
 14 13  1  0
 14 15  1  0
 15 16  1  0
 16 17  1  0
 16 18  1  0
 18 19  2  0
 20 18  1  0
 19 21  1  0
 22 20  2  0
 20 23  1  0
 21 24  1  0
 21 25  2  0
 25 22  1  0
 23 26  1  0
 23 27  2  0
 24 28  1  0
 25 29  1  0
 28 29  1  0
  4 30  2  0
  4 31  1  0
 32 31  1  0
 32 33  1  0
 33 34  1  0
 33 35  1  0
 34 36  1  0
 35 37  1  0
 35 38  1  0
 38 36  1  0
 36 39  1  0
 38 40  1  0
 41 39  1  0
 42 39  1  0
 43 41  2  0
 41 44  1  0
 45 42  2  0
 46 43  1  0
 44 47  2  0
 44 45  1  0
 48 46  2  0
 48 47  1  0
 47 49  1  0
  6 50  1  1
  7 51  1  0
  7 52  1  0
  8 53  1  0
  8 54  1  0
 10 55  1  0
 11 56  1  0
 12 57  1  0
 13 58  1  0
 16 59  1  6
 17 60  1  0
 17 61  1  0
 17 62  1  0
 19 63  1  0
 22 64  1  0
 28 65  1  0
 28 66  1  0
 32 67  1  0
 32 68  1  0
 33 69  1  0
 35 70  1  0
 36 71  1  0
 37 72  1  0
 38 73  1  0
 40 74  1  0
 42 75  1  0
 46 76  1  0
 49 77  1  0
 49 78  1  0
M  CHG  3   5  -1  23   1  26  -1
M  END
>  <EmbedRMS>  (40) 
0.0806657652166

$$$$

     RDKit          3D

 78 83  0  0  0  0  0  0  0  0999 V2000
   10.2834   43.7662   33.8255 C   0  0  0  0  0  0  0  0  0  0  0  0
   11.4101   43.5930   34.3752 O   0  0  0  0  0  0  0  0  0  0  0  0
    9.3637   42.7255   33.7347 O   0  0  0  0  0  0  0  0  0  0  0  0
    9.8906   41.2266   34.2933 P   0  0  0  0  0  0  0  0  0  0  0  0
   10.3742   41.4557   35.8827 O   0  0  0  0  0  0  0  0  0  0  0  0
    9.9547   45.0695   33.2034 C   0  0  1  0  0  0  0  0  0  0  0  0
   11.0273   46.0322   33.4759 N   0  0  0  0  0  0  0  0  0  0  0  0
    9.7471   44.8483   31.6874 C   0  0  0  0  0  0  0  0  0  0  0  0
    8.7925   45.8408   31.0841 C   0  0  0  0  0  0  0  0  0  0  0  0
    7.4058   45.6011   31.0998 C   0  0  0  0  0  0  0  0  0  0  0  0
    9.2816   46.9882   30.4425 C   0  0  0  0  0  0  0  0  0  0  0  0
    6.5245   46.5014   30.4860 C   0  0  0  0  0  0  0  0  0  0  0  0
    8.4004   47.8887   29.8329 C   0  0  0  0  0  0  0  0  0  0  0  0
    7.0189   47.6554   29.8441 C   0  0  0  0  0  0  0  0  0  0  0  0
    6.1824   48.5878   29.2085 O   0  0  0  0  0  0  0  0  0  0  0  0
    4.7670   48.4551   29.0509 C   0  0  1  0  0  0  0  0  0  0  0  0
    4.2068   49.7714   28.5151 C   0  0  0  0  0  0  0  0  0  0  0  0
    4.4401   47.3228   28.0915 C   0  0  0  0  0  0  0  0  0  0  0  0
    5.2055   47.1990   26.9060 C   0  0  0  0  0  0  0  0  0  0  0  0
    3.4238   46.3503   28.3748 C   0  0  0  0  0  0  0  0  0  0  0  0
    4.9706   46.1118   26.0750 C   0  0  0  0  0  0  0  0  0  0  0  0
    3.2421   45.2556   27.4997 C   0  0  0  0  0  0  0  0  0  0  0  0
    2.5680   46.4613   29.5226 N   0  0  0  0  0  0  0  0  0  0  0  0
    5.5995   45.7856   24.8889 O   0  0  0  0  0  0  0  0  0  0  0  0
    4.0345   45.1784   26.3621 C   0  0  0  0  0  0  0  0  0  0  0  0
    2.1539   45.3249   30.1783 O   0  0  0  0  0  0  0  0  0  0  0  0
    2.0103   47.5459   29.7878 O   0  0  0  0  0  0  0  0  0  0  0  0
    5.0187   44.5686   24.4006 C   0  0  0  0  0  0  0  0  0  0  0  0
    4.0235   44.2156   25.3712 O   0  0  0  0  0  0  0  0  0  0  0  0
    8.8122   40.1851   34.2127 O   0  0  0  0  0  0  0  0  0  0  0  0
   11.2406   40.7945   33.3670 O   0  0  0  0  0  0  0  0  0  0  0  0
   10.9134   40.6866   31.9954 C   0  0  0  0  0  0  0  0  0  0  0  0
   11.5166   39.3787   31.4404 C   0  0  0  0  0  0  0  0  0  0  0  0
   12.7486   39.0849   32.0734 O   0  0  0  0  0  0  0  0  0  0  0  0
   10.6039   38.1884   31.6669 C   0  0  0  0  0  0  0  0  0  0  0  0
   12.9329   37.6776   32.0284 C   0  0  0  0  0  0  0  0  0  0  0  0
    9.6374   38.0938   30.6484 O   0  0  0  0  0  0  0  0  0  0  0  0
   11.5737   37.0141   31.7055 C   0  0  0  0  0  0  0  0  0  0  0  0
   13.4853   37.2120   33.3238 N   0  0  0  0  0  0  0  0  0  0  0  0
   11.6210   36.3379   30.4683 O   0  0  0  0  0  0  0  0  0  0  0  0
   14.4804   36.3319   33.5726 C   0  0  0  0  0  0  0  0  0  0  0  0
   13.1141   37.6275   34.5689 C   0  0  0  0  0  0  0  0  0  0  0  0
   15.2075   35.6152   32.6740 N   0  0  0  0  0  0  0  0  0  0  0  0
   14.6761   36.2306   34.9181 C   0  0  0  0  0  0  0  0  0  0  0  0
   13.8218   37.0451   35.5783 N   0  0  0  0  0  0  0  0  0  0  0  0
   16.1642   34.7600   33.1548 C   0  0  0  0  0  0  0  0  0  0  0  0
   15.6528   35.3507   35.4131 C   0  0  0  0  0  0  0  0  0  0  0  0
   16.3795   34.6315   34.5043 N   0  0  0  0  0  0  0  0  0  0  0  0
   15.9001   35.1933   36.8090 N   0  0  0  0  0  0  0  0  0  0  0  0
    9.0120   45.4317   33.6710 H   0  0  0  0  0  0  0  0  0  0  0  0
   11.8908   45.7659   32.9475 H   0  0  0  0  0  0  0  0  0  0  0  0
   10.7260   46.9688   33.1214 H   0  0  0  0  0  0  0  0  0  0  0  0
   10.7236   44.8824   31.1556 H   0  0  0  0  0  0  0  0  0  0  0  0
    9.3426   43.8330   31.4756 H   0  0  0  0  0  0  0  0  0  0  0  0
    7.0100   44.7165   31.5835 H   0  0  0  0  0  0  0  0  0  0  0  0
   10.3459   47.1867   30.4109 H   0  0  0  0  0  0  0  0  0  0  0  0
    5.4659   46.2887   30.5210 H   0  0  0  0  0  0  0  0  0  0  0  0
    8.7937   48.7699   29.3422 H   0  0  0  0  0  0  0  0  0  0  0  0
    4.3238   48.2870   30.0539 H   0  0  0  0  0  0  0  0  0  0  0  0
    4.4213   50.5901   29.2344 H   0  0  0  0  0  0  0  0  0  0  0  0
    4.6726   50.0270   27.5393 H   0  0  0  0  0  0  0  0  0  0  0  0
    3.1064   49.6981   28.3827 H   0  0  0  0  0  0  0  0  0  0  0  0
    5.9763   47.9159   26.6524 H   0  0  0  0  0  0  0  0  0  0  0  0
    2.4885   44.5020   27.6884 H   0  0  0  0  0  0  0  0  0  0  0  0
    5.7907   43.7733   24.3367 H   0  0  0  0  0  0  0  0  0  0  0  0
    4.5453   44.7390   23.4110 H   0  0  0  0  0  0  0  0  0  0  0  0
    9.8225   40.7225   31.7631 H   0  0  0  0  0  0  0  0  0  0  0  0
   11.3828   41.5438   31.4669 H   0  0  0  0  0  0  0  0  0  0  0  0
   11.6978   39.5037   30.3478 H   0  0  0  0  0  0  0  0  0  0  0  0
   10.1084   38.2787   32.6627 H   0  0  0  0  0  0  0  0  0  0  0  0
   13.6638   37.4472   31.2214 H   0  0  0  0  0  0  0  0  0  0  0  0
    8.9763   37.4191   30.9532 H   0  0  0  0  0  0  0  0  0  0  0  0
   11.2821   36.3054   32.5172 H   0  0  0  0  0  0  0  0  0  0  0  0
   10.8658   35.6936   30.4652 H   0  0  0  0  0  0  0  0  0  0  0  0
   12.3293   38.3523   34.7445 H   0  0  0  0  0  0  0  0  0  0  0  0
   16.7561   34.1778   32.4621 H   0  0  0  0  0  0  0  0  0  0  0  0
   16.6345   34.5300   37.1416 H   0  0  0  0  0  0  0  0  0  0  0  0
   15.3533   35.7361   37.5138 H   0  0  0  0  0  0  0  0  0  0  0  0
  1  2  2  0
  1  3  1  0
  3  4  1  0
  4  5  1  0
  6  1  1  0
  7  6  1  0
  6  8  1  0
  8  9  1  0
  9 10  2  0
 11  9  1  0
 10 12  1  0
 13 11  2  0
 12 14  2  0
 14 13  1  0
 14 15  1  0
 15 16  1  0
 16 17  1  0
 16 18  1  0
 18 19  2  0
 20 18  1  0
 19 21  1  0
 22 20  2  0
 20 23  1  0
 21 24  1  0
 21 25  2  0
 25 22  1  0
 23 26  1  0
 23 27  2  0
 24 28  1  0
 25 29  1  0
 28 29  1  0
  4 30  2  0
  4 31  1  0
 32 31  1  0
 32 33  1  0
 33 34  1  0
 33 35  1  0
 34 36  1  0
 35 37  1  0
 35 38  1  0
 38 36  1  0
 36 39  1  0
 38 40  1  0
 41 39  1  0
 42 39  1  0
 43 41  2  0
 41 44  1  0
 45 42  2  0
 46 43  1  0
 44 47  2  0
 44 45  1  0
 48 46  2  0
 48 47  1  0
 47 49  1  0
  6 50  1  1
  7 51  1  0
  7 52  1  0
  8 53  1  0
  8 54  1  0
 10 55  1  0
 11 56  1  0
 12 57  1  0
 13 58  1  0
 16 59  1  1
 17 60  1  0
 17 61  1  0
 17 62  1  0
 19 63  1  0
 22 64  1  0
 28 65  1  0
 28 66  1  0
 32 67  1  0
 32 68  1  0
 33 69  1  0
 35 70  1  0
 36 71  1  0
 37 72  1  0
 38 73  1  0
 40 74  1  0
 42 75  1  0
 46 76  1  0
 49 77  1  0
 49 78  1  0
M  CHG  3   5  -1  23   1  26  -1
M  END
>  <EmbedRMS>  (41) 
0.0825566516777

$$$$

     RDKit          3D

 78 83  0  0  0  0  0  0  0  0999 V2000
   10.2835   43.7661   33.8255 C   0  0  0  0  0  0  0  0  0  0  0  0
   11.4102   43.5930   34.3752 O   0  0  0  0  0  0  0  0  0  0  0  0
    9.3638   42.7255   33.7348 O   0  0  0  0  0  0  0  0  0  0  0  0
    9.8903   41.2267   34.2942 P   0  0  0  0  0  0  0  0  0  0  0  0
   10.3735   41.4561   35.8836 O   0  0  0  0  0  0  0  0  0  0  0  0
    9.9548   45.0695   33.2034 C   0  0  1  0  0  0  0  0  0  0  0  0
   11.0274   46.0322   33.4758 N   0  0  0  0  0  0  0  0  0  0  0  0
    9.7470   44.8484   31.6874 C   0  0  0  0  0  0  0  0  0  0  0  0
    8.7925   45.8409   31.0844 C   0  0  0  0  0  0  0  0  0  0  0  0
    7.4057   45.6012   31.0997 C   0  0  0  0  0  0  0  0  0  0  0  0
    9.2816   46.9882   30.4424 C   0  0  0  0  0  0  0  0  0  0  0  0
    6.5243   46.5013   30.4857 C   0  0  0  0  0  0  0  0  0  0  0  0
    8.4004   47.8885   29.8328 C   0  0  0  0  0  0  0  0  0  0  0  0
    7.0191   47.6556   29.8444 C   0  0  0  0  0  0  0  0  0  0  0  0
    6.1834   48.5857   29.2041 O   0  0  0  0  0  0  0  0  0  0  0  0
    4.7652   48.4674   29.0712 C   0  0  1  0  0  0  0  0  0  0  0  0
    4.1787   49.7865   28.5697 C   0  0  0  0  0  0  0  0  0  0  0  0
    4.3623   47.3208   28.1550 C   0  0  0  0  0  0  0  0  0  0  0  0
    3.1425   46.6624   28.4442 C   0  0  0  0  0  0  0  0  0  0  0  0
    5.1674   46.8518   27.0590 C   0  0  0  0  0  0  0  0  0  0  0  0
    2.7770   45.5665   27.6747 C   0  0  0  0  0  0  0  0  0  0  0  0
    4.7487   45.7204   26.3214 C   0  0  0  0  0  0  0  0  0  0  0  0
    6.3988   47.4901   26.6865 N   0  0  0  0  0  0  0  0  0  0  0  0
    1.6478   44.7780   27.7845 O   0  0  0  0  0  0  0  0  0  0  0  0
    3.5480   45.1129   26.6609 C   0  0  0  0  0  0  0  0  0  0  0  0
    6.4416   48.8475   26.4731 O   0  0  0  0  0  0  0  0  0  0  0  0
    7.3808   46.7973   26.3487 O   0  0  0  0  0  0  0  0  0  0  0  0
    1.7161   43.7643   26.7723 C   0  0  0  0  0  0  0  0  0  0  0  0
    2.9453   44.0150   26.0775 O   0  0  0  0  0  0  0  0  0  0  0  0
    8.8121   40.1850   34.2130 O   0  0  0  0  0  0  0  0  0  0  0  0
   11.2407   40.7939   33.3693 O   0  0  0  0  0  0  0  0  0  0  0  0
   10.9152   40.6905   31.9974 C   0  0  0  0  0  0  0  0  0  0  0  0
   11.5252   39.3886   31.4375 C   0  0  0  0  0  0  0  0  0  0  0  0
   12.7500   39.0874   32.0799 O   0  0  0  0  0  0  0  0  0  0  0  0
   10.6092   38.1926   31.6469 C   0  0  0  0  0  0  0  0  0  0  0  0
   12.9332   37.6793   32.0294 C   0  0  0  0  0  0  0  0  0  0  0  0
    9.6122   38.0895   30.6542 O   0  0  0  0  0  0  0  0  0  0  0  0
   11.5743   37.0145   31.7024 C   0  0  0  0  0  0  0  0  0  0  0  0
   13.4844   37.2108   33.3241 N   0  0  0  0  0  0  0  0  0  0  0  0
   11.6297   36.3239   30.4740 O   0  0  0  0  0  0  0  0  0  0  0  0
   14.4802   36.3313   33.5727 C   0  0  0  0  0  0  0  0  0  0  0  0
   13.1138   37.6266   34.5692 C   0  0  0  0  0  0  0  0  0  0  0  0
   15.2075   35.6149   32.6739 N   0  0  0  0  0  0  0  0  0  0  0  0
   14.6761   36.2303   34.9181 C   0  0  0  0  0  0  0  0  0  0  0  0
   13.8220   37.0447   35.5785 N   0  0  0  0  0  0  0  0  0  0  0  0
   16.1643   34.7600   33.1547 C   0  0  0  0  0  0  0  0  0  0  0  0
   15.6529   35.3505   35.4130 C   0  0  0  0  0  0  0  0  0  0  0  0
   16.3798   34.6315   34.5042 N   0  0  0  0  0  0  0  0  0  0  0  0
   15.9003   35.1932   36.8090 N   0  0  0  0  0  0  0  0  0  0  0  0
    9.0121   45.4317   33.6712 H   0  0  0  0  0  0  0  0  0  0  0  0
   11.8908   45.7659   32.9474 H   0  0  0  0  0  0  0  0  0  0  0  0
   10.7261   46.9688   33.1213 H   0  0  0  0  0  0  0  0  0  0  0  0
   10.7235   44.8824   31.1555 H   0  0  0  0  0  0  0  0  0  0  0  0
    9.3423   43.8331   31.4757 H   0  0  0  0  0  0  0  0  0  0  0  0
    7.0101   44.7159   31.5823 H   0  0  0  0  0  0  0  0  0  0  0  0
   10.3459   47.1863   30.4102 H   0  0  0  0  0  0  0  0  0  0  0  0
    5.4658   46.2860   30.5157 H   0  0  0  0  0  0  0  0  0  0  0  0
    8.7937   48.7687   29.3402 H   0  0  0  0  0  0  0  0  0  0  0  0
    4.3411   48.3021   30.0873 H   0  0  0  0  0  0  0  0  0  0  0  0
    3.0687   49.7375   28.5795 H   0  0  0  0  0  0  0  0  0  0  0  0
    4.5120   50.0123   27.5373 H   0  0  0  0  0  0  0  0  0  0  0  0
    4.4975   50.6160   29.2358 H   0  0  0  0  0  0  0  0  0  0  0  0
    2.5040   46.9867   29.2565 H   0  0  0  0  0  0  0  0  0  0  0  0
    5.3351   45.3384   25.4955 H   0  0  0  0  0  0  0  0  0  0  0  0
    0.8564   43.8581   26.0762 H   0  0  0  0  0  0  0  0  0  0  0  0
    1.7380   42.7570   27.2385 H   0  0  0  0  0  0  0  0  0  0  0  0
    9.8243   40.7216   31.7642 H   0  0  0  0  0  0  0  0  0  0  0  0
   11.3803   41.5529   31.4733 H   0  0  0  0  0  0  0  0  0  0  0  0
   11.7266   39.5311   30.3513 H   0  0  0  0  0  0  0  0  0  0  0  0
   10.1110   38.2747   32.6387 H   0  0  0  0  0  0  0  0  0  0  0  0
   13.6652   37.4519   31.2226 H   0  0  0  0  0  0  0  0  0  0  0  0
   10.0511   38.1143   29.7645 H   0  0  0  0  0  0  0  0  0  0  0  0
   11.2762   36.3141   32.5189 H   0  0  0  0  0  0  0  0  0  0  0  0
   10.8593   35.6978   30.4640 H   0  0  0  0  0  0  0  0  0  0  0  0
   12.3294   38.3517   34.7449 H   0  0  0  0  0  0  0  0  0  0  0  0
   16.7564   34.1779   32.4620 H   0  0  0  0  0  0  0  0  0  0  0  0
   15.3534   35.7359   37.5138 H   0  0  0  0  0  0  0  0  0  0  0  0
   16.6349   34.5300   37.1415 H   0  0  0  0  0  0  0  0  0  0  0  0
  1  2  2  0
  1  3  1  0
  3  4  1  0
  4  5  1  0
  6  1  1  0
  7  6  1  0
  6  8  1  0
  8  9  1  0
  9 10  2  0
 11  9  1  0
 10 12  1  0
 13 11  2  0
 12 14  2  0
 14 13  1  0
 14 15  1  0
 15 16  1  0
 16 17  1  0
 16 18  1  0
 18 19  2  0
 20 18  1  0
 19 21  1  0
 22 20  2  0
 20 23  1  0
 21 24  1  0
 21 25  2  0
 25 22  1  0
 23 26  1  0
 23 27  2  0
 24 28  1  0
 25 29  1  0
 28 29  1  0
  4 30  2  0
  4 31  1  0
 32 31  1  0
 32 33  1  0
 33 34  1  0
 33 35  1  0
 34 36  1  0
 35 37  1  0
 35 38  1  0
 38 36  1  0
 36 39  1  0
 38 40  1  0
 41 39  1  0
 42 39  1  0
 43 41  2  0
 41 44  1  0
 45 42  2  0
 46 43  1  0
 44 47  2  0
 44 45  1  0
 48 46  2  0
 48 47  1  0
 47 49  1  0
  6 50  1  1
  7 51  1  0
  7 52  1  0
  8 53  1  0
  8 54  1  0
 10 55  1  0
 11 56  1  0
 12 57  1  0
 13 58  1  0
 16 59  1  1
 17 60  1  0
 17 61  1  0
 17 62  1  0
 19 63  1  0
 22 64  1  0
 28 65  1  0
 28 66  1  0
 32 67  1  0
 32 68  1  0
 33 69  1  0
 35 70  1  0
 36 71  1  0
 37 72  1  0
 38 73  1  0
 40 74  1  0
 42 75  1  0
 46 76  1  0
 49 77  1  0
 49 78  1  0
M  CHG  3   5  -1  23   1  26  -1
M  END
>  <EmbedRMS>  (42) 
0.081816891141

$$$$

     RDKit          3D

 78 83  0  0  0  0  0  0  0  0999 V2000
   10.2804   43.7664   33.8252 C   0  0  0  0  0  0  0  0  0  0  0  0
   11.4111   43.5918   34.3667 O   0  0  0  0  0  0  0  0  0  0  0  0
    9.3617   42.7251   33.7349 O   0  0  0  0  0  0  0  0  0  0  0  0
    9.8899   41.2268   34.2940 P   0  0  0  0  0  0  0  0  0  0  0  0
   10.3739   41.4565   35.8831 O   0  0  0  0  0  0  0  0  0  0  0  0
    9.9460   45.0736   33.2115 C   0  0  1  0  0  0  0  0  0  0  0  0
   11.0269   46.0291   33.4706 N   0  0  0  0  0  0  0  0  0  0  0  0
    9.7533   44.8540   31.6954 C   0  0  0  0  0  0  0  0  0  0  0  0
    8.7954   45.8417   31.0862 C   0  0  0  0  0  0  0  0  0  0  0  0
    7.4090   45.6004   31.1002 C   0  0  0  0  0  0  0  0  0  0  0  0
    9.2826   46.9869   30.4392 C   0  0  0  0  0  0  0  0  0  0  0  0
    6.5291   46.5000   30.4830 C   0  0  0  0  0  0  0  0  0  0  0  0
    8.4023   47.8877   29.8290 C   0  0  0  0  0  0  0  0  0  0  0  0
    7.0123   47.6542   29.8505 C   0  0  0  0  0  0  0  0  0  0  0  0
    6.0749   48.5172   29.2493 O   0  0  0  0  0  0  0  0  0  0  0  0
    6.2837   49.8699   28.8096 C   0  0  1  0  0  0  0  0  0  0  0  0
    6.8943   50.7187   29.9438 C   0  0  0  0  0  0  0  0  0  0  0  0
    7.0568   49.9660   27.4912 C   0  0  0  0  0  0  0  0  0  0  0  0
    7.4927   48.7856   26.8311 C   0  0  0  0  0  0  0  0  0  0  0  0
    7.3468   51.2374   26.8836 C   0  0  0  0  0  0  0  0  0  0  0  0
    8.2606   48.9064   25.6808 C   0  0  0  0  0  0  0  0  0  0  0  0
    8.1492   51.2973   25.7225 C   0  0  0  0  0  0  0  0  0  0  0  0
    6.8109   52.4640   27.4002 N   0  0  0  0  0  0  0  0  0  0  0  0
    8.8047   47.9021   24.9033 O   0  0  0  0  0  0  0  0  0  0  0  0
    8.5840   50.1087   25.1561 C   0  0  0  0  0  0  0  0  0  0  0  0
    7.5788   53.6054   27.3817 O   0  0  0  0  0  0  0  0  0  0  0  0
    5.5881   52.5646   27.6287 O   0  0  0  0  0  0  0  0  0  0  0  0
    9.5185   48.5171   23.8223 C   0  0  0  0  0  0  0  0  0  0  0  0
    9.3508   49.9273   24.0212 O   0  0  0  0  0  0  0  0  0  0  0  0
    8.8123   40.1845   34.2134 O   0  0  0  0  0  0  0  0  0  0  0  0
   11.2400   40.7954   33.3680 O   0  0  0  0  0  0  0  0  0  0  0  0
   10.9124   40.6877   31.9967 C   0  0  0  0  0  0  0  0  0  0  0  0
   11.5169   39.3811   31.4420 C   0  0  0  0  0  0  0  0  0  0  0  0
   12.7500   39.0881   32.0759 O   0  0  0  0  0  0  0  0  0  0  0  0
   10.6043   38.1893   31.6659 C   0  0  0  0  0  0  0  0  0  0  0  0
   12.9395   37.6814   32.0280 C   0  0  0  0  0  0  0  0  0  0  0  0
    9.6353   38.0951   30.6499 O   0  0  0  0  0  0  0  0  0  0  0  0
   11.5804   37.0191   31.6934 C   0  0  0  0  0  0  0  0  0  0  0  0
   13.4851   37.2119   33.3244 N   0  0  0  0  0  0  0  0  0  0  0  0
   11.6118   36.3189   30.4674 O   0  0  0  0  0  0  0  0  0  0  0  0
   14.4801   36.3316   33.5732 C   0  0  0  0  0  0  0  0  0  0  0  0
   13.1139   37.6277   34.5692 C   0  0  0  0  0  0  0  0  0  0  0  0
   15.2076   35.6154   32.6744 N   0  0  0  0  0  0  0  0  0  0  0  0
   14.6756   36.2303   34.9186 C   0  0  0  0  0  0  0  0  0  0  0  0
   13.8215   37.0451   35.5786 N   0  0  0  0  0  0  0  0  0  0  0  0
   16.1642   34.7602   33.1551 C   0  0  0  0  0  0  0  0  0  0  0  0
   15.6526   35.3505   35.4134 C   0  0  0  0  0  0  0  0  0  0  0  0
   16.3796   34.6316   34.5045 N   0  0  0  0  0  0  0  0  0  0  0  0
   15.9001   35.1933   36.8093 N   0  0  0  0  0  0  0  0  0  0  0  0
    8.9998   45.4383   33.6728 H   0  0  0  0  0  0  0  0  0  0  0  0
   10.7768   46.9367   33.0153 H   0  0  0  0  0  0  0  0  0  0  0  0
   11.0505   46.2280   34.4979 H   0  0  0  0  0  0  0  0  0  0  0  0
    9.3630   43.8355   31.4719 H   0  0  0  0  0  0  0  0  0  0  0  0
   10.7403   44.9069   31.1836 H   0  0  0  0  0  0  0  0  0  0  0  0
    7.0133   44.7154   31.5831 H   0  0  0  0  0  0  0  0  0  0  0  0
   10.3475   47.1805   30.3977 H   0  0  0  0  0  0  0  0  0  0  0  0
    5.4651   46.3008   30.5005 H   0  0  0  0  0  0  0  0  0  0  0  0
    8.8209   48.7385   29.3151 H   0  0  0  0  0  0  0  0  0  0  0  0
    5.2689   50.2740   28.6127 H   0  0  0  0  0  0  0  0  0  0  0  0
    8.0012   50.7490   29.8875 H   0  0  0  0  0  0  0  0  0  0  0  0
    6.5233   51.7622   29.9015 H   0  0  0  0  0  0  0  0  0  0  0  0
    6.5959   50.3112   30.9330 H   0  0  0  0  0  0  0  0  0  0  0  0
    7.2537   47.7959   27.1912 H   0  0  0  0  0  0  0  0  0  0  0  0
    8.3928   52.2422   25.2540 H   0  0  0  0  0  0  0  0  0  0  0  0
   10.5947   48.2487   23.8707 H   0  0  0  0  0  0  0  0  0  0  0  0
    9.0793   48.2124   22.8494 H   0  0  0  0  0  0  0  0  0  0  0  0
   11.3807   41.5456   31.4683 H   0  0  0  0  0  0  0  0  0  0  0  0
    9.8215   40.7221   31.7645 H   0  0  0  0  0  0  0  0  0  0  0  0
   11.6986   39.5088   30.3499 H   0  0  0  0  0  0  0  0  0  0  0  0
   10.1109   38.2737   32.6630 H   0  0  0  0  0  0  0  0  0  0  0  0
   13.6783   37.4562   31.2271 H   0  0  0  0  0  0  0  0  0  0  0  0
    9.0020   37.3860   30.9348 H   0  0  0  0  0  0  0  0  0  0  0  0
   11.2807   36.3053   32.4922 H   0  0  0  0  0  0  0  0  0  0  0  0
   11.8819   36.9599   29.7584 H   0  0  0  0  0  0  0  0  0  0  0  0
   12.3303   38.3538   34.7445 H   0  0  0  0  0  0  0  0  0  0  0  0
   16.7563   34.1783   32.4623 H   0  0  0  0  0  0  0  0  0  0  0  0
   15.3532   35.7359   37.5142 H   0  0  0  0  0  0  0  0  0  0  0  0
   16.6348   34.5301   37.1418 H   0  0  0  0  0  0  0  0  0  0  0  0
  1  2  2  0
  1  3  1  0
  3  4  1  0
  4  5  1  0
  6  1  1  0
  7  6  1  0
  6  8  1  0
  8  9  1  0
  9 10  2  0
 11  9  1  0
 10 12  1  0
 13 11  2  0
 12 14  2  0
 14 13  1  0
 14 15  1  0
 15 16  1  0
 16 17  1  0
 16 18  1  0
 18 19  2  0
 20 18  1  0
 19 21  1  0
 22 20  2  0
 20 23  1  0
 21 24  1  0
 21 25  2  0
 25 22  1  0
 23 26  1  0
 23 27  2  0
 24 28  1  0
 25 29  1  0
 28 29  1  0
  4 30  2  0
  4 31  1  0
 32 31  1  0
 32 33  1  0
 33 34  1  0
 33 35  1  0
 34 36  1  0
 35 37  1  0
 35 38  1  0
 38 36  1  0
 36 39  1  0
 38 40  1  0
 41 39  1  0
 42 39  1  0
 43 41  2  0
 41 44  1  0
 45 42  2  0
 46 43  1  0
 44 47  2  0
 44 45  1  0
 48 46  2  0
 48 47  1  0
 47 49  1  0
  6 50  1  1
  7 51  1  0
  7 52  1  0
  8 53  1  0
  8 54  1  0
 10 55  1  0
 11 56  1  0
 12 57  1  0
 13 58  1  0
 16 59  1  6
 17 60  1  0
 17 61  1  0
 17 62  1  0
 19 63  1  0
 22 64  1  0
 28 65  1  0
 28 66  1  0
 32 67  1  0
 32 68  1  0
 33 69  1  0
 35 70  1  0
 36 71  1  0
 37 72  1  0
 38 73  1  0
 40 74  1  0
 42 75  1  0
 46 76  1  0
 49 77  1  0
 49 78  1  0
M  CHG  3   5  -1  23   1  26  -1
M  END
>  <EmbedRMS>  (43) 
0.0813697645829

$$$$

     RDKit          3D

 78 83  0  0  0  0  0  0  0  0999 V2000
   10.2803   43.7662   33.8250 C   0  0  0  0  0  0  0  0  0  0  0  0
   11.4114   43.5914   34.3658 O   0  0  0  0  0  0  0  0  0  0  0  0
    9.3615   42.7249   33.7352 O   0  0  0  0  0  0  0  0  0  0  0  0
    9.8900   41.2268   34.2942 P   0  0  0  0  0  0  0  0  0  0  0  0
   10.3746   41.4568   35.8832 O   0  0  0  0  0  0  0  0  0  0  0  0
    9.9454   45.0735   33.2119 C   0  0  1  0  0  0  0  0  0  0  0  0
   11.0258   46.0292   33.4721 N   0  0  0  0  0  0  0  0  0  0  0  0
    9.7530   44.8541   31.6956 C   0  0  0  0  0  0  0  0  0  0  0  0
    8.7951   45.8416   31.0859 C   0  0  0  0  0  0  0  0  0  0  0  0
    7.4082   45.6026   31.1035 C   0  0  0  0  0  0  0  0  0  0  0  0
    9.2828   46.9886   30.4422 C   0  0  0  0  0  0  0  0  0  0  0  0
    6.5281   46.5026   30.4864 C   0  0  0  0  0  0  0  0  0  0  0  0
    8.4032   47.8896   29.8311 C   0  0  0  0  0  0  0  0  0  0  0  0
    7.0146   47.6471   29.8388 C   0  0  0  0  0  0  0  0  0  0  0  0
    6.0864   48.5017   29.2212 O   0  0  0  0  0  0  0  0  0  0  0  0
    6.3977   49.5967   28.3544 C   0  0  1  0  0  0  0  0  0  0  0  0
    6.9466   49.1053   27.0082 C   0  0  0  0  0  0  0  0  0  0  0  0
    5.1736   50.4684   28.1297 C   0  0  0  0  0  0  0  0  0  0  0  0
    5.3895   51.8561   27.9424 C   0  0  0  0  0  0  0  0  0  0  0  0
    3.8259   49.9636   28.1139 C   0  0  0  0  0  0  0  0  0  0  0  0
    4.2901   52.6866   27.7734 C   0  0  0  0  0  0  0  0  0  0  0  0
    2.7472   50.8625   27.9539 C   0  0  0  0  0  0  0  0  0  0  0  0
    3.5262   48.5670   28.2630 N   0  0  0  0  0  0  0  0  0  0  0  0
    4.2684   54.0550   27.5818 O   0  0  0  0  0  0  0  0  0  0  0  0
    3.0250   52.2112   27.7807 C   0  0  0  0  0  0  0  0  0  0  0  0
    2.4373   48.1818   29.0110 O   0  0  0  0  0  0  0  0  0  0  0  0
    4.0894   47.7196   27.5407 O   0  0  0  0  0  0  0  0  0  0  0  0
    2.8995   54.4627   27.4575 C   0  0  0  0  0  0  0  0  0  0  0  0
    2.1389   53.2540   27.5903 O   0  0  0  0  0  0  0  0  0  0  0  0
    8.8125   40.1844   34.2133 O   0  0  0  0  0  0  0  0  0  0  0  0
   11.2398   40.7957   33.3678 O   0  0  0  0  0  0  0  0  0  0  0  0
   10.9118   40.6876   31.9966 C   0  0  0  0  0  0  0  0  0  0  0  0
   11.5166   39.3810   31.4423 C   0  0  0  0  0  0  0  0  0  0  0  0
   12.7496   39.0880   32.0763 O   0  0  0  0  0  0  0  0  0  0  0  0
   10.6040   38.1892   31.6659 C   0  0  0  0  0  0  0  0  0  0  0  0
   12.9394   37.6813   32.0279 C   0  0  0  0  0  0  0  0  0  0  0  0
    9.6351   38.0953   30.6498 O   0  0  0  0  0  0  0  0  0  0  0  0
   11.5802   37.0190   31.6934 C   0  0  0  0  0  0  0  0  0  0  0  0
   13.4852   37.2117   33.3242 N   0  0  0  0  0  0  0  0  0  0  0  0
   11.6116   36.3187   30.4674 O   0  0  0  0  0  0  0  0  0  0  0  0
   14.4805   36.3318   33.5730 C   0  0  0  0  0  0  0  0  0  0  0  0
   13.1141   37.6275   34.5690 C   0  0  0  0  0  0  0  0  0  0  0  0
   15.2078   35.6154   32.6743 N   0  0  0  0  0  0  0  0  0  0  0  0
   14.6759   36.2302   34.9184 C   0  0  0  0  0  0  0  0  0  0  0  0
   13.8217   37.0449   35.5784 N   0  0  0  0  0  0  0  0  0  0  0  0
   16.1643   34.7601   33.1549 C   0  0  0  0  0  0  0  0  0  0  0  0
   15.6528   35.3504   35.4134 C   0  0  0  0  0  0  0  0  0  0  0  0
   16.3798   34.6316   34.5044 N   0  0  0  0  0  0  0  0  0  0  0  0
   15.9005   35.1932   36.8093 N   0  0  0  0  0  0  0  0  0  0  0  0
    8.9990   45.4376   33.6733 H   0  0  0  0  0  0  0  0  0  0  0  0
   11.0478   46.2278   34.4996 H   0  0  0  0  0  0  0  0  0  0  0  0
   10.7751   46.9370   33.0176 H   0  0  0  0  0  0  0  0  0  0  0  0
    9.3633   43.8355   31.4716 H   0  0  0  0  0  0  0  0  0  0  0  0
   10.7400   44.9076   31.1842 H   0  0  0  0  0  0  0  0  0  0  0  0
    7.0124   44.7195   31.5896 H   0  0  0  0  0  0  0  0  0  0  0  0
   10.3467   47.1892   30.4125 H   0  0  0  0  0  0  0  0  0  0  0  0
    5.4636   46.3048   30.5038 H   0  0  0  0  0  0  0  0  0  0  0  0
    8.8195   48.7646   29.3537 H   0  0  0  0  0  0  0  0  0  0  0  0
    7.1759   50.2203   28.8468 H   0  0  0  0  0  0  0  0  0  0  0  0
    7.2524   49.9731   26.3859 H   0  0  0  0  0  0  0  0  0  0  0  0
    6.1853   48.5255   26.4497 H   0  0  0  0  0  0  0  0  0  0  0  0
    7.8360   48.4602   27.1560 H   0  0  0  0  0  0  0  0  0  0  0  0
    6.3871   52.2774   27.9359 H   0  0  0  0  0  0  0  0  0  0  0  0
    1.7225   50.5140   27.9411 H   0  0  0  0  0  0  0  0  0  0  0  0
    2.7243   54.9179   26.4605 H   0  0  0  0  0  0  0  0  0  0  0  0
    2.6350   55.1739   28.2683 H   0  0  0  0  0  0  0  0  0  0  0  0
   11.3805   41.5451   31.4682 H   0  0  0  0  0  0  0  0  0  0  0  0
    9.8206   40.7220   31.7645 H   0  0  0  0  0  0  0  0  0  0  0  0
   11.6984   39.5083   30.3502 H   0  0  0  0  0  0  0  0  0  0  0  0
   10.1106   38.2735   32.6629 H   0  0  0  0  0  0  0  0  0  0  0  0
   13.6784   37.4562   31.2269 H   0  0  0  0  0  0  0  0  0  0  0  0
    9.0018   37.3861   30.9346 H   0  0  0  0  0  0  0  0  0  0  0  0
   11.2806   36.3049   32.4921 H   0  0  0  0  0  0  0  0  0  0  0  0
   11.8812   36.9597   29.7583 H   0  0  0  0  0  0  0  0  0  0  0  0
   12.3308   38.3538   34.7443 H   0  0  0  0  0  0  0  0  0  0  0  0
   16.7563   34.1783   32.4622 H   0  0  0  0  0  0  0  0  0  0  0  0
   15.3537   35.7359   37.5142 H   0  0  0  0  0  0  0  0  0  0  0  0
   16.6353   34.5301   37.1419 H   0  0  0  0  0  0  0  0  0  0  0  0
  1  2  2  0
  1  3  1  0
  3  4  1  0
  4  5  1  0
  6  1  1  0
  7  6  1  0
  6  8  1  0
  8  9  1  0
  9 10  2  0
 11  9  1  0
 10 12  1  0
 13 11  2  0
 12 14  2  0
 14 13  1  0
 14 15  1  0
 15 16  1  0
 16 17  1  0
 16 18  1  0
 18 19  2  0
 20 18  1  0
 19 21  1  0
 22 20  2  0
 20 23  1  0
 21 24  1  0
 21 25  2  0
 25 22  1  0
 23 26  1  0
 23 27  2  0
 24 28  1  0
 25 29  1  0
 28 29  1  0
  4 30  2  0
  4 31  1  0
 32 31  1  0
 32 33  1  0
 33 34  1  0
 33 35  1  0
 34 36  1  0
 35 37  1  0
 35 38  1  0
 38 36  1  0
 36 39  1  0
 38 40  1  0
 41 39  1  0
 42 39  1  0
 43 41  2  0
 41 44  1  0
 45 42  2  0
 46 43  1  0
 44 47  2  0
 44 45  1  0
 48 46  2  0
 48 47  1  0
 47 49  1  0
  6 50  1  1
  7 51  1  0
  7 52  1  0
  8 53  1  0
  8 54  1  0
 10 55  1  0
 11 56  1  0
 12 57  1  0
 13 58  1  0
 16 59  1  1
 17 60  1  0
 17 61  1  0
 17 62  1  0
 19 63  1  0
 22 64  1  0
 28 65  1  0
 28 66  1  0
 32 67  1  0
 32 68  1  0
 33 69  1  0
 35 70  1  0
 36 71  1  0
 37 72  1  0
 38 73  1  0
 40 74  1  0
 42 75  1  0
 46 76  1  0
 49 77  1  0
 49 78  1  0
M  CHG  3   5  -1  23   1  26  -1
M  END
>  <EmbedRMS>  (44) 
0.0813004879279

$$$$

     RDKit          3D

 78 83  0  0  0  0  0  0  0  0999 V2000
   10.2805   43.7664   33.8250 C   0  0  0  0  0  0  0  0  0  0  0  0
   11.4112   43.5919   34.3668 O   0  0  0  0  0  0  0  0  0  0  0  0
    9.3622   42.7247   33.7343 O   0  0  0  0  0  0  0  0  0  0  0  0
    9.8904   41.2264   34.2936 P   0  0  0  0  0  0  0  0  0  0  0  0
   10.3732   41.4564   35.8832 O   0  0  0  0  0  0  0  0  0  0  0  0
    9.9459   45.0736   33.2113 C   0  0  1  0  0  0  0  0  0  0  0  0
   11.0266   46.0292   33.4706 N   0  0  0  0  0  0  0  0  0  0  0  0
    9.7534   44.8539   31.6951 C   0  0  0  0  0  0  0  0  0  0  0  0
    8.7954   45.8412   31.0852 C   0  0  0  0  0  0  0  0  0  0  0  0
    7.4088   45.6001   31.1001 C   0  0  0  0  0  0  0  0  0  0  0  0
    9.2828   46.9873   30.4394 C   0  0  0  0  0  0  0  0  0  0  0  0
    6.5286   46.5004   30.4842 C   0  0  0  0  0  0  0  0  0  0  0  0
    8.4024   47.8884   29.8295 C   0  0  0  0  0  0  0  0  0  0  0  0
    7.0133   47.6530   29.8504 C   0  0  0  0  0  0  0  0  0  0  0  0
    6.0836   48.5252   29.2602 O   0  0  0  0  0  0  0  0  0  0  0  0
    6.3872   49.7936   28.6784 C   0  0  1  0  0  0  0  0  0  0  0  0
    5.1778   50.2936   27.8877 C   0  0  0  0  0  0  0  0  0  0  0  0
    6.8039   50.8048   29.7367 C   0  0  0  0  0  0  0  0  0  0  0  0
    8.0441   51.4689   29.5703 C   0  0  0  0  0  0  0  0  0  0  0  0
    5.9738   51.1508   30.8560 C   0  0  0  0  0  0  0  0  0  0  0  0
    8.4154   52.4303   30.5011 C   0  0  0  0  0  0  0  0  0  0  0  0
    6.3974   52.1473   31.7629 C   0  0  0  0  0  0  0  0  0  0  0  0
    4.7041   50.5252   31.0771 N   0  0  0  0  0  0  0  0  0  0  0  0
    9.5680   53.1913   30.5366 O   0  0  0  0  0  0  0  0  0  0  0  0
    7.6264   52.7562   31.5502 C   0  0  0  0  0  0  0  0  0  0  0  0
    4.6481   49.1943   31.4157 O   0  0  0  0  0  0  0  0  0  0  0  0
    3.6929   51.2345   31.2565 O   0  0  0  0  0  0  0  0  0  0  0  0
    9.4969   54.0486   31.6841 C   0  0  0  0  0  0  0  0  0  0  0  0
    8.2407   53.7386   32.3027 O   0  0  0  0  0  0  0  0  0  0  0  0
    8.8129   40.1841   34.2124 O   0  0  0  0  0  0  0  0  0  0  0  0
   11.2419   40.7944   33.3695 O   0  0  0  0  0  0  0  0  0  0  0  0
   10.9186   40.6911   31.9969 C   0  0  0  0  0  0  0  0  0  0  0  0
   11.5172   39.3814   31.4407 C   0  0  0  0  0  0  0  0  0  0  0  0
   12.7492   39.0856   32.0729 O   0  0  0  0  0  0  0  0  0  0  0  0
   10.6023   38.1908   31.6665 C   0  0  0  0  0  0  0  0  0  0  0  0
   12.9319   37.6781   32.0281 C   0  0  0  0  0  0  0  0  0  0  0  0
    9.6392   38.0797   30.6452 O   0  0  0  0  0  0  0  0  0  0  0  0
   11.5715   37.0165   31.7056 C   0  0  0  0  0  0  0  0  0  0  0  0
   13.4846   37.2121   33.3235 N   0  0  0  0  0  0  0  0  0  0  0  0
   11.6187   36.3383   30.4695 O   0  0  0  0  0  0  0  0  0  0  0  0
   14.4801   36.3321   33.5724 C   0  0  0  0  0  0  0  0  0  0  0  0
   13.1137   37.6275   34.5687 C   0  0  0  0  0  0  0  0  0  0  0  0
   15.2073   35.6153   32.6738 N   0  0  0  0  0  0  0  0  0  0  0  0
   14.6759   36.2308   34.9179 C   0  0  0  0  0  0  0  0  0  0  0  0
   13.8216   37.0452   35.5781 N   0  0  0  0  0  0  0  0  0  0  0  0
   16.1640   34.7602   33.1546 C   0  0  0  0  0  0  0  0  0  0  0  0
   15.6526   35.3508   35.4129 C   0  0  0  0  0  0  0  0  0  0  0  0
   16.3794   34.6317   34.5041 N   0  0  0  0  0  0  0  0  0  0  0  0
   15.8999   35.1935   36.8088 N   0  0  0  0  0  0  0  0  0  0  0  0
    8.9995   45.4381   33.6725 H   0  0  0  0  0  0  0  0  0  0  0  0
   10.7761   46.9369   33.0156 H   0  0  0  0  0  0  0  0  0  0  0  0
   11.0503   46.2279   34.4980 H   0  0  0  0  0  0  0  0  0  0  0  0
    9.3634   43.8353   31.4716 H   0  0  0  0  0  0  0  0  0  0  0  0
   10.7405   44.9069   31.1836 H   0  0  0  0  0  0  0  0  0  0  0  0
    7.0131   44.7156   31.5839 H   0  0  0  0  0  0  0  0  0  0  0  0
   10.3472   47.1844   30.4038 H   0  0  0  0  0  0  0  0  0  0  0  0
    5.4642   46.3036   30.5046 H   0  0  0  0  0  0  0  0  0  0  0  0
    8.8171   48.7550   29.3377 H   0  0  0  0  0  0  0  0  0  0  0  0
    7.2011   49.6521   27.9327 H   0  0  0  0  0  0  0  0  0  0  0  0
    5.3894   51.2949   27.4549 H   0  0  0  0  0  0  0  0  0  0  0  0
    4.2745   50.3582   28.5273 H   0  0  0  0  0  0  0  0  0  0  0  0
    4.9612   49.5909   27.0553 H   0  0  0  0  0  0  0  0  0  0  0  0
    8.6979   51.2512   28.7353 H   0  0  0  0  0  0  0  0  0  0  0  0
    5.7883   52.4286   32.6125 H   0  0  0  0  0  0  0  0  0  0  0  0
   10.3322   53.8274   32.3812 H   0  0  0  0  0  0  0  0  0  0  0  0
    9.5169   55.1132   31.3700 H   0  0  0  0  0  0  0  0  0  0  0  0
   11.3967   41.5459   31.4725 H   0  0  0  0  0  0  0  0  0  0  0  0
    9.8298   40.7409   31.7611 H   0  0  0  0  0  0  0  0  0  0  0  0
   11.6975   39.5066   30.3481 H   0  0  0  0  0  0  0  0  0  0  0  0
   10.1076   38.2647   32.6645 H   0  0  0  0  0  0  0  0  0  0  0  0
   13.6621   37.4468   31.2209 H   0  0  0  0  0  0  0  0  0  0  0  0
    8.8974   38.6942   30.8832 H   0  0  0  0  0  0  0  0  0  0  0  0
   11.2806   36.3073   32.5170 H   0  0  0  0  0  0  0  0  0  0  0  0
   10.8492   35.7110   30.4586 H   0  0  0  0  0  0  0  0  0  0  0  0
   12.3290   38.3524   34.7444 H   0  0  0  0  0  0  0  0  0  0  0  0
   16.7559   34.1780   32.4620 H   0  0  0  0  0  0  0  0  0  0  0  0
   15.3531   35.7363   37.5137 H   0  0  0  0  0  0  0  0  0  0  0  0
   16.6344   34.5301   37.1414 H   0  0  0  0  0  0  0  0  0  0  0  0
  1  2  2  0
  1  3  1  0
  3  4  1  0
  4  5  1  0
  6  1  1  0
  7  6  1  0
  6  8  1  0
  8  9  1  0
  9 10  2  0
 11  9  1  0
 10 12  1  0
 13 11  2  0
 12 14  2  0
 14 13  1  0
 14 15  1  0
 15 16  1  0
 16 17  1  0
 16 18  1  0
 18 19  2  0
 20 18  1  0
 19 21  1  0
 22 20  2  0
 20 23  1  0
 21 24  1  0
 21 25  2  0
 25 22  1  0
 23 26  1  0
 23 27  2  0
 24 28  1  0
 25 29  1  0
 28 29  1  0
  4 30  2  0
  4 31  1  0
 32 31  1  0
 32 33  1  0
 33 34  1  0
 33 35  1  0
 34 36  1  0
 35 37  1  0
 35 38  1  0
 38 36  1  0
 36 39  1  0
 38 40  1  0
 41 39  1  0
 42 39  1  0
 43 41  2  0
 41 44  1  0
 45 42  2  0
 46 43  1  0
 44 47  2  0
 44 45  1  0
 48 46  2  0
 48 47  1  0
 47 49  1  0
  6 50  1  1
  7 51  1  0
  7 52  1  0
  8 53  1  0
  8 54  1  0
 10 55  1  0
 11 56  1  0
 12 57  1  0
 13 58  1  0
 16 59  1  6
 17 60  1  0
 17 61  1  0
 17 62  1  0
 19 63  1  0
 22 64  1  0
 28 65  1  0
 28 66  1  0
 32 67  1  0
 32 68  1  0
 33 69  1  0
 35 70  1  0
 36 71  1  0
 37 72  1  0
 38 73  1  0
 40 74  1  0
 42 75  1  0
 46 76  1  0
 49 77  1  0
 49 78  1  0
M  CHG  3   5  -1  23   1  26  -1
M  END
>  <EmbedRMS>  (45) 
0.0827686715768

$$$$

     RDKit          3D

 78 83  0  0  0  0  0  0  0  0999 V2000
   10.2809   43.7655   33.8237 C   0  0  0  0  0  0  0  0  0  0  0  0
   11.4122   43.5899   34.3632 O   0  0  0  0  0  0  0  0  0  0  0  0
    9.3620   42.7244   33.7331 O   0  0  0  0  0  0  0  0  0  0  0  0
    9.8896   41.2264   34.2939 P   0  0  0  0  0  0  0  0  0  0  0  0
   10.3729   41.4558   35.8833 O   0  0  0  0  0  0  0  0  0  0  0  0
    9.9463   45.0736   33.2119 C   0  0  1  0  0  0  0  0  0  0  0  0
   11.0290   46.0270   33.4698 N   0  0  0  0  0  0  0  0  0  0  0  0
    9.7531   44.8544   31.6959 C   0  0  0  0  0  0  0  0  0  0  0  0
    8.7951   45.8412   31.0864 C   0  0  0  0  0  0  0  0  0  0  0  0
    7.4082   45.6012   31.1014 C   0  0  0  0  0  0  0  0  0  0  0  0
    9.2825   46.9890   30.4456 C   0  0  0  0  0  0  0  0  0  0  0  0
    6.5261   46.4992   30.4830 C   0  0  0  0  0  0  0  0  0  0  0  0
    8.4006   47.8883   29.8369 C   0  0  0  0  0  0  0  0  0  0  0  0
    7.0192   47.6535   29.8398 C   0  0  0  0  0  0  0  0  0  0  0  0
    6.1964   48.5954   29.1957 O   0  0  0  0  0  0  0  0  0  0  0  0
    4.7936   48.4883   28.9149 C   0  0  1  0  0  0  0  0  0  0  0  0
    4.5473   47.3723   27.8837 C   0  0  0  0  0  0  0  0  0  0  0  0
    3.9618   48.4262   30.1980 C   0  0  0  0  0  0  0  0  0  0  0  0
    2.9329   47.4567   30.3510 C   0  0  0  0  0  0  0  0  0  0  0  0
    4.2072   49.3480   31.2769 C   0  0  0  0  0  0  0  0  0  0  0  0
    2.2298   47.4127   31.5483 C   0  0  0  0  0  0  0  0  0  0  0  0
    3.4737   49.2345   32.4821 C   0  0  0  0  0  0  0  0  0  0  0  0
    5.1881   50.3941   31.1732 N   0  0  0  0  0  0  0  0  0  0  0  0
    1.1995   46.5648   31.9060 O   0  0  0  0  0  0  0  0  0  0  0  0
    2.4917   48.2594   32.5706 C   0  0  0  0  0  0  0  0  0  0  0  0
    5.8827   50.7954   32.2949 O   0  0  0  0  0  0  0  0  0  0  0  0
    5.2561   51.0960   30.1431 O   0  0  0  0  0  0  0  0  0  0  0  0
    0.7848   46.9063   33.2378 C   0  0  0  0  0  0  0  0  0  0  0  0
    1.6407   47.9899   33.6270 O   0  0  0  0  0  0  0  0  0  0  0  0
    8.8118   40.1846   34.2132 O   0  0  0  0  0  0  0  0  0  0  0  0
   11.2405   40.7942   33.3696 O   0  0  0  0  0  0  0  0  0  0  0  0
   10.9173   40.6914   31.9971 C   0  0  0  0  0  0  0  0  0  0  0  0
   11.5167   39.3832   31.4422 C   0  0  0  0  0  0  0  0  0  0  0  0
   12.7492   39.0899   32.0762 O   0  0  0  0  0  0  0  0  0  0  0  0
   10.6021   38.1911   31.6665 C   0  0  0  0  0  0  0  0  0  0  0  0
   12.9376   37.6834   32.0293 C   0  0  0  0  0  0  0  0  0  0  0  0
    9.6379   38.0769   30.6468 O   0  0  0  0  0  0  0  0  0  0  0  0
   11.5782   37.0218   31.6960 C   0  0  0  0  0  0  0  0  0  0  0  0
   13.4850   37.2139   33.3248 N   0  0  0  0  0  0  0  0  0  0  0  0
   11.6124   36.3203   30.4703 O   0  0  0  0  0  0  0  0  0  0  0  0
   14.4792   36.3325   33.5729 C   0  0  0  0  0  0  0  0  0  0  0  0
   13.1138   37.6295   34.5695 C   0  0  0  0  0  0  0  0  0  0  0  0
   15.2061   35.6159   32.6738 N   0  0  0  0  0  0  0  0  0  0  0  0
   14.6747   36.2304   34.9183 C   0  0  0  0  0  0  0  0  0  0  0  0
   13.8212   37.0459   35.5785 N   0  0  0  0  0  0  0  0  0  0  0  0
   16.1625   34.7603   33.1541 C   0  0  0  0  0  0  0  0  0  0  0  0
   15.6524   35.3510   35.4125 C   0  0  0  0  0  0  0  0  0  0  0  0
   16.3788   34.6319   34.5033 N   0  0  0  0  0  0  0  0  0  0  0  0
   15.9019   35.1943   36.8079 N   0  0  0  0  0  0  0  0  0  0  0  0
    9.0016   45.4404   33.6756 H   0  0  0  0  0  0  0  0  0  0  0  0
   11.0532   46.2282   34.4965 H   0  0  0  0  0  0  0  0  0  0  0  0
   10.7789   46.9344   33.0152 H   0  0  0  0  0  0  0  0  0  0  0  0
   10.7407   44.9069   31.1846 H   0  0  0  0  0  0  0  0  0  0  0  0
    9.3622   43.8363   31.4730 H   0  0  0  0  0  0  0  0  0  0  0  0
    7.0129   44.7203   31.5923 H   0  0  0  0  0  0  0  0  0  0  0  0
   10.3469   47.1890   30.4147 H   0  0  0  0  0  0  0  0  0  0  0  0
    5.4718   46.2807   30.5204 H   0  0  0  0  0  0  0  0  0  0  0  0
    8.7949   48.7697   29.3473 H   0  0  0  0  0  0  0  0  0  0  0  0
    4.4968   49.4271   28.4004 H   0  0  0  0  0  0  0  0  0  0  0  0
    5.2503   47.4927   27.0330 H   0  0  0  0  0  0  0  0  0  0  0  0
    4.7053   46.3646   28.3193 H   0  0  0  0  0  0  0  0  0  0  0  0
    3.5128   47.4392   27.4799 H   0  0  0  0  0  0  0  0  0  0  0  0
    2.6778   46.7473   29.5754 H   0  0  0  0  0  0  0  0  0  0  0  0
    3.6427   49.9107   33.3130 H   0  0  0  0  0  0  0  0  0  0  0  0
   -0.2765   47.2385   33.2369 H   0  0  0  0  0  0  0  0  0  0  0  0
    0.9291   46.0405   33.9201 H   0  0  0  0  0  0  0  0  0  0  0  0
   11.3950   41.5458   31.4719 H   0  0  0  0  0  0  0  0  0  0  0  0
    9.8295   40.7412   31.7585 H   0  0  0  0  0  0  0  0  0  0  0  0
   11.6973   39.5097   30.3502 H   0  0  0  0  0  0  0  0  0  0  0  0
   10.1110   38.2615   32.6661 H   0  0  0  0  0  0  0  0  0  0  0  0
   13.6740   37.4587   31.2274 H   0  0  0  0  0  0  0  0  0  0  0  0
    8.8945   38.6899   30.8829 H   0  0  0  0  0  0  0  0  0  0  0  0
   11.2794   36.3077   32.4952 H   0  0  0  0  0  0  0  0  0  0  0  0
   11.8824   36.9612   29.7609 H   0  0  0  0  0  0  0  0  0  0  0  0
   12.3303   38.3567   34.7441 H   0  0  0  0  0  0  0  0  0  0  0  0
   16.7546   34.1792   32.4611 H   0  0  0  0  0  0  0  0  0  0  0  0
   15.3556   35.7348   37.5152 H   0  0  0  0  0  0  0  0  0  0  0  0
   16.6366   34.5296   37.1366 H   0  0  0  0  0  0  0  0  0  0  0  0
  1  2  2  0
  1  3  1  0
  3  4  1  0
  4  5  1  0
  6  1  1  0
  7  6  1  0
  6  8  1  0
  8  9  1  0
  9 10  2  0
 11  9  1  0
 10 12  1  0
 13 11  2  0
 12 14  2  0
 14 13  1  0
 14 15  1  0
 15 16  1  0
 16 17  1  0
 16 18  1  0
 18 19  2  0
 20 18  1  0
 19 21  1  0
 22 20  2  0
 20 23  1  0
 21 24  1  0
 21 25  2  0
 25 22  1  0
 23 26  1  0
 23 27  2  0
 24 28  1  0
 25 29  1  0
 28 29  1  0
  4 30  2  0
  4 31  1  0
 32 31  1  0
 32 33  1  0
 33 34  1  0
 33 35  1  0
 34 36  1  0
 35 37  1  0
 35 38  1  0
 38 36  1  0
 36 39  1  0
 38 40  1  0
 41 39  1  0
 42 39  1  0
 43 41  2  0
 41 44  1  0
 45 42  2  0
 46 43  1  0
 44 47  2  0
 44 45  1  0
 48 46  2  0
 48 47  1  0
 47 49  1  0
  6 50  1  1
  7 51  1  0
  7 52  1  0
  8 53  1  0
  8 54  1  0
 10 55  1  0
 11 56  1  0
 12 57  1  0
 13 58  1  0
 16 59  1  6
 17 60  1  0
 17 61  1  0
 17 62  1  0
 19 63  1  0
 22 64  1  0
 28 65  1  0
 28 66  1  0
 32 67  1  0
 32 68  1  0
 33 69  1  0
 35 70  1  0
 36 71  1  0
 37 72  1  0
 38 73  1  0
 40 74  1  0
 42 75  1  0
 46 76  1  0
 49 77  1  0
 49 78  1  0
M  CHG  3   5  -1  23   1  26  -1
M  END
>  <EmbedRMS>  (46) 
0.0817740578705

$$$$

     RDKit          3D

 78 83  0  0  0  0  0  0  0  0999 V2000
   10.2805   43.7663   33.8248 C   0  0  0  0  0  0  0  0  0  0  0  0
   11.4111   43.5918   34.3667 O   0  0  0  0  0  0  0  0  0  0  0  0
    9.3621   42.7248   33.7342 O   0  0  0  0  0  0  0  0  0  0  0  0
    9.8903   41.2264   34.2936 P   0  0  0  0  0  0  0  0  0  0  0  0
   10.3732   41.4565   35.8831 O   0  0  0  0  0  0  0  0  0  0  0  0
    9.9460   45.0735   33.2111 C   0  0  1  0  0  0  0  0  0  0  0  0
   11.0266   46.0292   33.4708 N   0  0  0  0  0  0  0  0  0  0  0  0
    9.7540   44.8542   31.6947 C   0  0  0  0  0  0  0  0  0  0  0  0
    8.7957   45.8412   31.0847 C   0  0  0  0  0  0  0  0  0  0  0  0
    7.4089   45.6001   31.1015 C   0  0  0  0  0  0  0  0  0  0  0  0
    9.2823   46.9882   30.4399 C   0  0  0  0  0  0  0  0  0  0  0  0
    6.5258   46.4991   30.4873 C   0  0  0  0  0  0  0  0  0  0  0  0
    8.3996   47.8876   29.8314 C   0  0  0  0  0  0  0  0  0  0  0  0
    7.0186   47.6537   29.8450 C   0  0  0  0  0  0  0  0  0  0  0  0
    6.1812   48.5829   29.2055 O   0  0  0  0  0  0  0  0  0  0  0  0
    4.7626   48.4644   29.0770 C   0  0  1  0  0  0  0  0  0  0  0  0
    4.1745   49.7828   28.5756 C   0  0  0  0  0  0  0  0  0  0  0  0
    4.3567   47.3166   28.1636 C   0  0  0  0  0  0  0  0  0  0  0  0
    3.1378   46.6587   28.4575 C   0  0  0  0  0  0  0  0  0  0  0  0
    5.1586   46.8458   27.0660 C   0  0  0  0  0  0  0  0  0  0  0  0
    2.7701   45.5614   27.6909 C   0  0  0  0  0  0  0  0  0  0  0  0
    4.7377   45.7132   26.3315 C   0  0  0  0  0  0  0  0  0  0  0  0
    6.3888   47.4836   26.6888 N   0  0  0  0  0  0  0  0  0  0  0  0
    1.6413   44.7730   27.8055 O   0  0  0  0  0  0  0  0  0  0  0  0
    3.5380   45.1062   26.6756 C   0  0  0  0  0  0  0  0  0  0  0  0
    6.4310   48.8406   26.4734 O   0  0  0  0  0  0  0  0  0  0  0  0
    7.3698   46.7902   26.3491 O   0  0  0  0  0  0  0  0  0  0  0  0
    1.7066   43.7576   26.7949 C   0  0  0  0  0  0  0  0  0  0  0  0
    2.9338   44.0073   26.0959 O   0  0  0  0  0  0  0  0  0  0  0  0
    8.8128   40.1841   34.2124 O   0  0  0  0  0  0  0  0  0  0  0  0
   11.2416   40.7945   33.3692 O   0  0  0  0  0  0  0  0  0  0  0  0
   10.9178   40.6904   31.9968 C   0  0  0  0  0  0  0  0  0  0  0  0
   11.5181   39.3814   31.4408 C   0  0  0  0  0  0  0  0  0  0  0  0
   12.7497   39.0870   32.0746 O   0  0  0  0  0  0  0  0  0  0  0  0
   10.6045   38.1891   31.6655 C   0  0  0  0  0  0  0  0  0  0  0  0
   12.9344   37.6801   32.0290 C   0  0  0  0  0  0  0  0  0  0  0  0
    9.6418   38.0758   30.6440 O   0  0  0  0  0  0  0  0  0  0  0  0
   11.5741   37.0170   31.7045 C   0  0  0  0  0  0  0  0  0  0  0  0
   13.4851   37.2126   33.3241 N   0  0  0  0  0  0  0  0  0  0  0  0
   11.6079   36.3407   30.4680 O   0  0  0  0  0  0  0  0  0  0  0  0
   14.4801   36.3321   33.5727 C   0  0  0  0  0  0  0  0  0  0  0  0
   13.1140   37.6277   34.5693 C   0  0  0  0  0  0  0  0  0  0  0  0
   15.2073   35.6155   32.6739 N   0  0  0  0  0  0  0  0  0  0  0  0
   14.6758   36.2306   34.9182 C   0  0  0  0  0  0  0  0  0  0  0  0
   13.8217   37.0451   35.5785 N   0  0  0  0  0  0  0  0  0  0  0  0
   16.1639   34.7602   33.1546 C   0  0  0  0  0  0  0  0  0  0  0  0
   15.6526   35.3506   35.4130 C   0  0  0  0  0  0  0  0  0  0  0  0
   16.3794   34.6316   34.5041 N   0  0  0  0  0  0  0  0  0  0  0  0
   15.9000   35.1933   36.8089 N   0  0  0  0  0  0  0  0  0  0  0  0
    8.9995   45.4380   33.6720 H   0  0  0  0  0  0  0  0  0  0  0  0
   10.7764   46.9368   33.0158 H   0  0  0  0  0  0  0  0  0  0  0  0
   11.0501   46.2277   34.4982 H   0  0  0  0  0  0  0  0  0  0  0  0
   10.7412   44.9081   31.1834 H   0  0  0  0  0  0  0  0  0  0  0  0
    9.3646   43.8355   31.4708 H   0  0  0  0  0  0  0  0  0  0  0  0
    7.0149   44.7154   31.5863 H   0  0  0  0  0  0  0  0  0  0  0  0
   10.3462   47.1878   30.4050 H   0  0  0  0  0  0  0  0  0  0  0  0
    5.4675   46.2830   30.5191 H   0  0  0  0  0  0  0  0  0  0  0  0
    8.7915   48.7678   29.3375 H   0  0  0  0  0  0  0  0  0  0  0  0
    4.3416   48.3004   30.0946 H   0  0  0  0  0  0  0  0  0  0  0  0
    4.5049   50.0074   27.5420 H   0  0  0  0  0  0  0  0  0  0  0  0
    3.0645   49.7337   28.5886 H   0  0  0  0  0  0  0  0  0  0  0  0
    4.4951   50.6132   29.2398 H   0  0  0  0  0  0  0  0  0  0  0  0
    2.5017   46.9843   29.2712 H   0  0  0  0  0  0  0  0  0  0  0  0
    5.3217   45.3299   25.5045 H   0  0  0  0  0  0  0  0  0  0  0  0
    0.8449   43.8501   26.1012 H   0  0  0  0  0  0  0  0  0  0  0  0
    1.7301   42.7511   27.2627 H   0  0  0  0  0  0  0  0  0  0  0  0
   11.3944   41.5458   31.4719 H   0  0  0  0  0  0  0  0  0  0  0  0
    9.8289   40.7385   31.7614 H   0  0  0  0  0  0  0  0  0  0  0  0
   11.6995   39.5068   30.3483 H   0  0  0  0  0  0  0  0  0  0  0  0
   10.1090   38.2635   32.6632 H   0  0  0  0  0  0  0  0  0  0  0  0
   13.6662   37.4515   31.2224 H   0  0  0  0  0  0  0  0  0  0  0  0
    8.9009   38.6924   30.8793 H   0  0  0  0  0  0  0  0  0  0  0  0
   11.2650   36.3083   32.5086 H   0  0  0  0  0  0  0  0  0  0  0  0
   12.1372   35.5141   30.6163 H   0  0  0  0  0  0  0  0  0  0  0  0
   12.3297   38.3530   34.7450 H   0  0  0  0  0  0  0  0  0  0  0  0
   16.7558   34.1781   32.4619 H   0  0  0  0  0  0  0  0  0  0  0  0
   15.3533   35.7360   37.5138 H   0  0  0  0  0  0  0  0  0  0  0  0
   16.6346   34.5300   37.1414 H   0  0  0  0  0  0  0  0  0  0  0  0
  1  2  2  0
  1  3  1  0
  3  4  1  0
  4  5  1  0
  6  1  1  0
  7  6  1  0
  6  8  1  0
  8  9  1  0
  9 10  2  0
 11  9  1  0
 10 12  1  0
 13 11  2  0
 12 14  2  0
 14 13  1  0
 14 15  1  0
 15 16  1  0
 16 17  1  0
 16 18  1  0
 18 19  2  0
 20 18  1  0
 19 21  1  0
 22 20  2  0
 20 23  1  0
 21 24  1  0
 21 25  2  0
 25 22  1  0
 23 26  1  0
 23 27  2  0
 24 28  1  0
 25 29  1  0
 28 29  1  0
  4 30  2  0
  4 31  1  0
 32 31  1  0
 32 33  1  0
 33 34  1  0
 33 35  1  0
 34 36  1  0
 35 37  1  0
 35 38  1  0
 38 36  1  0
 36 39  1  0
 38 40  1  0
 41 39  1  0
 42 39  1  0
 43 41  2  0
 41 44  1  0
 45 42  2  0
 46 43  1  0
 44 47  2  0
 44 45  1  0
 48 46  2  0
 48 47  1  0
 47 49  1  0
  6 50  1  1
  7 51  1  0
  7 52  1  0
  8 53  1  0
  8 54  1  0
 10 55  1  0
 11 56  1  0
 12 57  1  0
 13 58  1  0
 16 59  1  1
 17 60  1  0
 17 61  1  0
 17 62  1  0
 19 63  1  0
 22 64  1  0
 28 65  1  0
 28 66  1  0
 32 67  1  0
 32 68  1  0
 33 69  1  0
 35 70  1  0
 36 71  1  0
 37 72  1  0
 38 73  1  0
 40 74  1  0
 42 75  1  0
 46 76  1  0
 49 77  1  0
 49 78  1  0
M  CHG  3   5  -1  23   1  26  -1
M  END
>  <EmbedRMS>  (47) 
0.0826563137649

$$$$

     RDKit          3D

 78 83  0  0  0  0  0  0  0  0999 V2000
   10.2832   43.7664   33.8256 C   0  0  0  0  0  0  0  0  0  0  0  0
   11.4100   43.5932   34.3751 O   0  0  0  0  0  0  0  0  0  0  0  0
    9.3634   42.7258   33.7352 O   0  0  0  0  0  0  0  0  0  0  0  0
    9.8902   41.2269   34.2941 P   0  0  0  0  0  0  0  0  0  0  0  0
   10.3739   41.4560   35.8834 O   0  0  0  0  0  0  0  0  0  0  0  0
    9.9543   45.0698   33.2036 C   0  0  1  0  0  0  0  0  0  0  0  0
   11.0270   46.0325   33.4758 N   0  0  0  0  0  0  0  0  0  0  0  0
    9.7465   44.8487   31.6876 C   0  0  0  0  0  0  0  0  0  0  0  0
    8.7920   45.8414   31.0844 C   0  0  0  0  0  0  0  0  0  0  0  0
    7.4043   45.6005   31.0985 C   0  0  0  0  0  0  0  0  0  0  0  0
    9.2824   46.9885   30.4402 C   0  0  0  0  0  0  0  0  0  0  0  0
    6.5247   46.5014   30.4826 C   0  0  0  0  0  0  0  0  0  0  0  0
    8.4011   47.8890   29.8295 C   0  0  0  0  0  0  0  0  0  0  0  0
    7.0209   47.6532   29.8539 C   0  0  0  0  0  0  0  0  0  0  0  0
    6.1518   48.5647   29.2513 O   0  0  0  0  0  0  0  0  0  0  0  0
    5.4630   49.5595   30.0075 C   0  0  1  0  0  0  0  0  0  0  0  0
    4.9115   50.6251   29.0582 C   0  0  0  0  0  0  0  0  0  0  0  0
    4.3505   48.9266   30.8282 C   0  0  0  0  0  0  0  0  0  0  0  0
    3.2975   48.2637   30.1497 C   0  0  0  0  0  0  0  0  0  0  0  0
    4.3268   48.9902   32.2614 C   0  0  0  0  0  0  0  0  0  0  0  0
    2.2513   47.7400   30.8976 C   0  0  0  0  0  0  0  0  0  0  0  0
    3.2259   48.4567   32.9677 C   0  0  0  0  0  0  0  0  0  0  0  0
    5.4114   49.5543   33.0117 N   0  0  0  0  0  0  0  0  0  0  0  0
    1.1285   47.0695   30.4521 O   0  0  0  0  0  0  0  0  0  0  0  0
    2.2135   47.8385   32.2463 C   0  0  0  0  0  0  0  0  0  0  0  0
    5.1428   50.3230   34.1205 O   0  0  0  0  0  0  0  0  0  0  0  0
    6.5731   49.1309   32.8401 O   0  0  0  0  0  0  0  0  0  0  0  0
    0.3352   46.7262   31.5965 C   0  0  0  0  0  0  0  0  0  0  0  0
    1.0648   47.2356   32.7213 O   0  0  0  0  0  0  0  0  0  0  0  0
    8.8121   40.1852   34.2131 O   0  0  0  0  0  0  0  0  0  0  0  0
   11.2402   40.7952   33.3681 O   0  0  0  0  0  0  0  0  0  0  0  0
   10.9126   40.6877   31.9968 C   0  0  0  0  0  0  0  0  0  0  0  0
   11.5170   39.3811   31.4420 C   0  0  0  0  0  0  0  0  0  0  0  0
   12.7500   39.0881   32.0759 O   0  0  0  0  0  0  0  0  0  0  0  0
   10.6043   38.1893   31.6659 C   0  0  0  0  0  0  0  0  0  0  0  0
   12.9395   37.6814   32.0280 C   0  0  0  0  0  0  0  0  0  0  0  0
    9.6353   38.0951   30.6499 O   0  0  0  0  0  0  0  0  0  0  0  0
   11.5804   37.0191   31.6934 C   0  0  0  0  0  0  0  0  0  0  0  0
   13.4851   37.2119   33.3244 N   0  0  0  0  0  0  0  0  0  0  0  0
   11.6118   36.3189   30.4673 O   0  0  0  0  0  0  0  0  0  0  0  0
   14.4801   36.3316   33.5732 C   0  0  0  0  0  0  0  0  0  0  0  0
   13.1139   37.6277   34.5692 C   0  0  0  0  0  0  0  0  0  0  0  0
   15.2076   35.6154   32.6744 N   0  0  0  0  0  0  0  0  0  0  0  0
   14.6756   36.2303   34.9186 C   0  0  0  0  0  0  0  0  0  0  0  0
   13.8215   37.0451   35.5786 N   0  0  0  0  0  0  0  0  0  0  0  0
   16.1642   34.7602   33.1551 C   0  0  0  0  0  0  0  0  0  0  0  0
   15.6526   35.3505   35.4134 C   0  0  0  0  0  0  0  0  0  0  0  0
   16.3796   34.6316   34.5046 N   0  0  0  0  0  0  0  0  0  0  0  0
   15.9000   35.1933   36.8093 N   0  0  0  0  0  0  0  0  0  0  0  0
    9.0117   45.4321   33.6713 H   0  0  0  0  0  0  0  0  0  0  0  0
   10.7254   46.9691   33.1217 H   0  0  0  0  0  0  0  0  0  0  0  0
   11.8902   45.7664   32.9471 H   0  0  0  0  0  0  0  0  0  0  0  0
    9.3416   43.8335   31.4760 H   0  0  0  0  0  0  0  0  0  0  0  0
   10.7229   44.8826   31.1557 H   0  0  0  0  0  0  0  0  0  0  0  0
    7.0076   44.7146   31.5788 H   0  0  0  0  0  0  0  0  0  0  0  0
   10.3467   47.1864   30.4081 H   0  0  0  0  0  0  0  0  0  0  0  0
    5.4618   46.3006   30.4942 H   0  0  0  0  0  0  0  0  0  0  0  0
    8.7897   48.7733   29.3410 H   0  0  0  0  0  0  0  0  0  0  0  0
    6.1965   50.0846   30.6518 H   0  0  0  0  0  0  0  0  0  0  0  0
    4.2562   50.1735   28.2844 H   0  0  0  0  0  0  0  0  0  0  0  0
    4.3344   51.3849   29.6277 H   0  0  0  0  0  0  0  0  0  0  0  0
    5.7524   51.1363   28.5429 H   0  0  0  0  0  0  0  0  0  0  0  0
    3.2914   48.1624   29.0724 H   0  0  0  0  0  0  0  0  0  0  0  0
    3.1786   48.4948   34.0484 H   0  0  0  0  0  0  0  0  0  0  0  0
   -0.6606   47.2128   31.5335 H   0  0  0  0  0  0  0  0  0  0  0  0
    0.2312   45.6237   31.6749 H   0  0  0  0  0  0  0  0  0  0  0  0
   11.3808   41.5456   31.4685 H   0  0  0  0  0  0  0  0  0  0  0  0
    9.8216   40.7222   31.7646 H   0  0  0  0  0  0  0  0  0  0  0  0
   11.6986   39.5089   30.3499 H   0  0  0  0  0  0  0  0  0  0  0  0
   10.1109   38.2737   32.6630 H   0  0  0  0  0  0  0  0  0  0  0  0
   13.6783   37.4562   31.2271 H   0  0  0  0  0  0  0  0  0  0  0  0
    9.0020   37.3860   30.9348 H   0  0  0  0  0  0  0  0  0  0  0  0
   11.2807   36.3053   32.4921 H   0  0  0  0  0  0  0  0  0  0  0  0
   11.8819   36.9600   29.7584 H   0  0  0  0  0  0  0  0  0  0  0  0
   12.3304   38.3538   34.7445 H   0  0  0  0  0  0  0  0  0  0  0  0
   16.7563   34.1783   32.4623 H   0  0  0  0  0  0  0  0  0  0  0  0
   16.6347   34.5301   37.1419 H   0  0  0  0  0  0  0  0  0  0  0  0
   15.3532   35.7359   37.5142 H   0  0  0  0  0  0  0  0  0  0  0  0
  1  2  2  0
  1  3  1  0
  3  4  1  0
  4  5  1  0
  6  1  1  0
  7  6  1  0
  6  8  1  0
  8  9  1  0
  9 10  2  0
 11  9  1  0
 10 12  1  0
 13 11  2  0
 12 14  2  0
 14 13  1  0
 14 15  1  0
 15 16  1  0
 16 17  1  0
 16 18  1  0
 18 19  2  0
 20 18  1  0
 19 21  1  0
 22 20  2  0
 20 23  1  0
 21 24  1  0
 21 25  2  0
 25 22  1  0
 23 26  1  0
 23 27  2  0
 24 28  1  0
 25 29  1  0
 28 29  1  0
  4 30  2  0
  4 31  1  0
 32 31  1  0
 32 33  1  0
 33 34  1  0
 33 35  1  0
 34 36  1  0
 35 37  1  0
 35 38  1  0
 38 36  1  0
 36 39  1  0
 38 40  1  0
 41 39  1  0
 42 39  1  0
 43 41  2  0
 41 44  1  0
 45 42  2  0
 46 43  1  0
 44 47  2  0
 44 45  1  0
 48 46  2  0
 48 47  1  0
 47 49  1  0
  6 50  1  1
  7 51  1  0
  7 52  1  0
  8 53  1  0
  8 54  1  0
 10 55  1  0
 11 56  1  0
 12 57  1  0
 13 58  1  0
 16 59  1  1
 17 60  1  0
 17 61  1  0
 17 62  1  0
 19 63  1  0
 22 64  1  0
 28 65  1  0
 28 66  1  0
 32 67  1  0
 32 68  1  0
 33 69  1  0
 35 70  1  0
 36 71  1  0
 37 72  1  0
 38 73  1  0
 40 74  1  0
 42 75  1  0
 46 76  1  0
 49 77  1  0
 49 78  1  0
M  CHG  3   5  -1  23   1  26  -1
M  END
>  <EmbedRMS>  (48) 
0.0816526376426

$$$$

     RDKit          3D

 78 83  0  0  0  0  0  0  0  0999 V2000
   10.2804   43.7664   33.8250 C   0  0  0  0  0  0  0  0  0  0  0  0
   11.4111   43.5919   34.3667 O   0  0  0  0  0  0  0  0  0  0  0  0
    9.3619   42.7249   33.7345 O   0  0  0  0  0  0  0  0  0  0  0  0
    9.8900   41.2266   34.2940 P   0  0  0  0  0  0  0  0  0  0  0  0
   10.3735   41.4566   35.8833 O   0  0  0  0  0  0  0  0  0  0  0  0
    9.9459   45.0735   33.2111 C   0  0  1  0  0  0  0  0  0  0  0  0
   11.0266   46.0291   33.4705 N   0  0  0  0  0  0  0  0  0  0  0  0
    9.7536   44.8537   31.6949 C   0  0  0  0  0  0  0  0  0  0  0  0
    8.7956   45.8407   31.0844 C   0  0  0  0  0  0  0  0  0  0  0  0
    7.4089   45.6006   31.1011 C   0  0  0  0  0  0  0  0  0  0  0  0
    9.2827   46.9877   30.4402 C   0  0  0  0  0  0  0  0  0  0  0  0
    6.5286   46.5016   30.4865 C   0  0  0  0  0  0  0  0  0  0  0  0
    8.4024   47.8899   29.8312 C   0  0  0  0  0  0  0  0  0  0  0  0
    7.0131   47.6505   29.8457 C   0  0  0  0  0  0  0  0  0  0  0  0
    6.0797   48.5171   29.2529 O   0  0  0  0  0  0  0  0  0  0  0  0
    6.3805   49.6451   28.4299 C   0  0  1  0  0  0  0  0  0  0  0  0
    6.9027   49.2049   27.0553 C   0  0  0  0  0  0  0  0  0  0  0  0
    5.1457   50.5225   28.2956 C   0  0  0  0  0  0  0  0  0  0  0  0
    5.2273   51.8589   28.7618 C   0  0  0  0  0  0  0  0  0  0  0  0
    3.9246   50.0732   27.6836 C   0  0  0  0  0  0  0  0  0  0  0  0
    4.1294   52.6925   28.5951 C   0  0  0  0  0  0  0  0  0  0  0  0
    2.8459   50.9731   27.5287 C   0  0  0  0  0  0  0  0  0  0  0  0
    3.7628   48.7308   27.2051 N   0  0  0  0  0  0  0  0  0  0  0  0
    3.9926   54.0166   28.9654 O   0  0  0  0  0  0  0  0  0  0  0  0
    2.9905   52.2694   28.0021 C   0  0  0  0  0  0  0  0  0  0  0  0
    3.8760   47.6712   28.0734 O   0  0  0  0  0  0  0  0  0  0  0  0
    3.2644   48.5334   26.0778 O   0  0  0  0  0  0  0  0  0  0  0  0
    2.6813   54.4506   28.5795 C   0  0  0  0  0  0  0  0  0  0  0  0
    2.0752   53.3039   27.9678 O   0  0  0  0  0  0  0  0  0  0  0  0
    8.8124   40.1844   34.2133 O   0  0  0  0  0  0  0  0  0  0  0  0
   11.2405   40.7942   33.3692 O   0  0  0  0  0  0  0  0  0  0  0  0
   10.9150   40.6905   31.9972 C   0  0  0  0  0  0  0  0  0  0  0  0
   11.5252   39.3886   31.4375 C   0  0  0  0  0  0  0  0  0  0  0  0
   12.7499   39.0874   32.0799 O   0  0  0  0  0  0  0  0  0  0  0  0
   10.6092   38.1926   31.6470 C   0  0  0  0  0  0  0  0  0  0  0  0
   12.9332   37.6793   32.0294 C   0  0  0  0  0  0  0  0  0  0  0  0
    9.6122   38.0894   30.6542 O   0  0  0  0  0  0  0  0  0  0  0  0
   11.5743   37.0145   31.7024 C   0  0  0  0  0  0  0  0  0  0  0  0
   13.4844   37.2108   33.3241 N   0  0  0  0  0  0  0  0  0  0  0  0
   11.6297   36.3239   30.4740 O   0  0  0  0  0  0  0  0  0  0  0  0
   14.4802   36.3313   33.5727 C   0  0  0  0  0  0  0  0  0  0  0  0
   13.1139   37.6266   34.5692 C   0  0  0  0  0  0  0  0  0  0  0  0
   15.2075   35.6149   32.6739 N   0  0  0  0  0  0  0  0  0  0  0  0
   14.6761   36.2303   34.9181 C   0  0  0  0  0  0  0  0  0  0  0  0
   13.8220   37.0447   35.5785 N   0  0  0  0  0  0  0  0  0  0  0  0
   16.1643   34.7600   33.1547 C   0  0  0  0  0  0  0  0  0  0  0  0
   15.6529   35.3505   35.4130 C   0  0  0  0  0  0  0  0  0  0  0  0
   16.3798   34.6315   34.5042 N   0  0  0  0  0  0  0  0  0  0  0  0
   15.9003   35.1932   36.8090 N   0  0  0  0  0  0  0  0  0  0  0  0
    8.9995   45.4381   33.6722 H   0  0  0  0  0  0  0  0  0  0  0  0
   10.7763   46.9368   33.0157 H   0  0  0  0  0  0  0  0  0  0  0  0
   11.0504   46.2276   34.4979 H   0  0  0  0  0  0  0  0  0  0  0  0
   10.7408   44.9069   31.1834 H   0  0  0  0  0  0  0  0  0  0  0  0
    9.3638   43.8350   31.4714 H   0  0  0  0  0  0  0  0  0  0  0  0
    7.0132   44.7167   31.5860 H   0  0  0  0  0  0  0  0  0  0  0  0
   10.3468   47.1873   30.4094 H   0  0  0  0  0  0  0  0  0  0  0  0
    5.4642   46.3045   30.5072 H   0  0  0  0  0  0  0  0  0  0  0  0
    8.8189   48.7669   29.3585 H   0  0  0  0  0  0  0  0  0  0  0  0
    7.1829   50.2382   28.9197 H   0  0  0  0  0  0  0  0  0  0  0  0
    6.2260   48.4655   26.5830 H   0  0  0  0  0  0  0  0  0  0  0  0
    7.9012   48.7327   27.1539 H   0  0  0  0  0  0  0  0  0  0  0  0
    7.0052   50.0848   26.3847 H   0  0  0  0  0  0  0  0  0  0  0  0
    6.1237   52.2453   29.2303 H   0  0  0  0  0  0  0  0  0  0  0  0
    1.9176   50.6632   27.0661 H   0  0  0  0  0  0  0  0  0  0  0  0
    2.7519   55.2827   27.8479 H   0  0  0  0  0  0  0  0  0  0  0  0
    2.1004   54.7599   29.4736 H   0  0  0  0  0  0  0  0  0  0  0  0
    9.8241   40.7215   31.7641 H   0  0  0  0  0  0  0  0  0  0  0  0
   11.3800   41.5528   31.4730 H   0  0  0  0  0  0  0  0  0  0  0  0
   11.7266   39.5310   30.3513 H   0  0  0  0  0  0  0  0  0  0  0  0
   10.1110   38.2747   32.6387 H   0  0  0  0  0  0  0  0  0  0  0  0
   13.6652   37.4520   31.2226 H   0  0  0  0  0  0  0  0  0  0  0  0
   10.0511   38.1143   29.7645 H   0  0  0  0  0  0  0  0  0  0  0  0
   11.2762   36.3141   32.5189 H   0  0  0  0  0  0  0  0  0  0  0  0
   10.8593   35.6978   30.4640 H   0  0  0  0  0  0  0  0  0  0  0  0
   12.3295   38.3518   34.7449 H   0  0  0  0  0  0  0  0  0  0  0  0
   16.7564   34.1780   32.4620 H   0  0  0  0  0  0  0  0  0  0  0  0
   15.3534   35.7359   37.5138 H   0  0  0  0  0  0  0  0  0  0  0  0
   16.6349   34.5300   37.1416 H   0  0  0  0  0  0  0  0  0  0  0  0
  1  2  2  0
  1  3  1  0
  3  4  1  0
  4  5  1  0
  6  1  1  0
  7  6  1  0
  6  8  1  0
  8  9  1  0
  9 10  2  0
 11  9  1  0
 10 12  1  0
 13 11  2  0
 12 14  2  0
 14 13  1  0
 14 15  1  0
 15 16  1  0
 16 17  1  0
 16 18  1  0
 18 19  2  0
 20 18  1  0
 19 21  1  0
 22 20  2  0
 20 23  1  0
 21 24  1  0
 21 25  2  0
 25 22  1  0
 23 26  1  0
 23 27  2  0
 24 28  1  0
 25 29  1  0
 28 29  1  0
  4 30  2  0
  4 31  1  0
 32 31  1  0
 32 33  1  0
 33 34  1  0
 33 35  1  0
 34 36  1  0
 35 37  1  0
 35 38  1  0
 38 36  1  0
 36 39  1  0
 38 40  1  0
 41 39  1  0
 42 39  1  0
 43 41  2  0
 41 44  1  0
 45 42  2  0
 46 43  1  0
 44 47  2  0
 44 45  1  0
 48 46  2  0
 48 47  1  0
 47 49  1  0
  6 50  1  1
  7 51  1  0
  7 52  1  0
  8 53  1  0
  8 54  1  0
 10 55  1  0
 11 56  1  0
 12 57  1  0
 13 58  1  0
 16 59  1  1
 17 60  1  0
 17 61  1  0
 17 62  1  0
 19 63  1  0
 22 64  1  0
 28 65  1  0
 28 66  1  0
 32 67  1  0
 32 68  1  0
 33 69  1  0
 35 70  1  0
 36 71  1  0
 37 72  1  0
 38 73  1  0
 40 74  1  0
 42 75  1  0
 46 76  1  0
 49 77  1  0
 49 78  1  0
M  CHG  3   5  -1  23   1  26  -1
M  END
>  <EmbedRMS>  (49) 
0.0816444597334

$$$$

     RDKit          3D

 78 83  0  0  0  0  0  0  0  0999 V2000
   10.2835   43.7662   33.8258 C   0  0  0  0  0  0  0  0  0  0  0  0
   11.4102   43.5931   34.3753 O   0  0  0  0  0  0  0  0  0  0  0  0
    9.3638   42.7255   33.7352 O   0  0  0  0  0  0  0  0  0  0  0  0
    9.8904   41.2268   34.2946 P   0  0  0  0  0  0  0  0  0  0  0  0
   10.3729   41.4561   35.8842 O   0  0  0  0  0  0  0  0  0  0  0  0
    9.9546   45.0695   33.2037 C   0  0  1  0  0  0  0  0  0  0  0  0
   11.0272   46.0323   33.4757 N   0  0  0  0  0  0  0  0  0  0  0  0
    9.7465   44.8480   31.6878 C   0  0  0  0  0  0  0  0  0  0  0  0
    8.7923   45.8408   31.0846 C   0  0  0  0  0  0  0  0  0  0  0  0
    7.4055   45.6012   31.0985 C   0  0  0  0  0  0  0  0  0  0  0  0
    9.2824   46.9874   30.4420 C   0  0  0  0  0  0  0  0  0  0  0  0
    6.5267   46.5028   30.4832 C   0  0  0  0  0  0  0  0  0  0  0  0
    8.4035   47.8892   29.8309 C   0  0  0  0  0  0  0  0  0  0  0  0
    7.0138   47.6541   29.8494 C   0  0  0  0  0  0  0  0  0  0  0  0
    6.0879   48.5289   29.2576 O   0  0  0  0  0  0  0  0  0  0  0  0
    6.4061   49.7890   28.6603 C   0  0  1  0  0  0  0  0  0  0  0  0
    5.1653   50.3201   27.9445 C   0  0  0  0  0  0  0  0  0  0  0  0
    6.8611   50.7806   29.7177 C   0  0  0  0  0  0  0  0  0  0  0  0
    6.1374   50.8529   30.9333 C   0  0  0  0  0  0  0  0  0  0  0  0
    8.0271   51.5974   29.5458 C   0  0  0  0  0  0  0  0  0  0  0  0
    6.6069   51.6907   31.9361 C   0  0  0  0  0  0  0  0  0  0  0  0
    8.4660   52.4202   30.6087 C   0  0  0  0  0  0  0  0  0  0  0  0
    8.7568   51.6166   28.3091 N   0  0  0  0  0  0  0  0  0  0  0  0
    6.0759   51.9073   33.1930 O   0  0  0  0  0  0  0  0  0  0  0  0
    7.7247   52.4371   31.7827 C   0  0  0  0  0  0  0  0  0  0  0  0
    8.0892   51.7701   27.1162 O   0  0  0  0  0  0  0  0  0  0  0  0
   10.0008   51.7195   28.3206 O   0  0  0  0  0  0  0  0  0  0  0  0
    6.9154   52.8519   33.8710 C   0  0  0  0  0  0  0  0  0  0  0  0
    7.9558   53.1643   32.9345 O   0  0  0  0  0  0  0  0  0  0  0  0
    8.8125   40.1848   34.2126 O   0  0  0  0  0  0  0  0  0  0  0  0
   11.2416   40.7948   33.3707 O   0  0  0  0  0  0  0  0  0  0  0  0
   10.9179   40.6922   31.9984 C   0  0  0  0  0  0  0  0  0  0  0  0
   11.5175   39.3838   31.4423 C   0  0  0  0  0  0  0  0  0  0  0  0
   12.7508   39.0887   32.0752 O   0  0  0  0  0  0  0  0  0  0  0  0
   10.6028   38.1916   31.6659 C   0  0  0  0  0  0  0  0  0  0  0  0
   12.9385   37.6818   32.0278 C   0  0  0  0  0  0  0  0  0  0  0  0
    9.6371   38.0806   30.6470 O   0  0  0  0  0  0  0  0  0  0  0  0
   11.5780   37.0215   31.6935 C   0  0  0  0  0  0  0  0  0  0  0  0
   13.4844   37.2119   33.3242 N   0  0  0  0  0  0  0  0  0  0  0  0
   11.6095   36.3201   30.4679 O   0  0  0  0  0  0  0  0  0  0  0  0
   14.4797   36.3318   33.5730 C   0  0  0  0  0  0  0  0  0  0  0  0
   13.1135   37.6278   34.5691 C   0  0  0  0  0  0  0  0  0  0  0  0
   15.2073   35.6155   32.6742 N   0  0  0  0  0  0  0  0  0  0  0  0
   14.6754   36.2305   34.9184 C   0  0  0  0  0  0  0  0  0  0  0  0
   13.8213   37.0452   35.5785 N   0  0  0  0  0  0  0  0  0  0  0  0
   16.1640   34.7604   33.1549 C   0  0  0  0  0  0  0  0  0  0  0  0
   15.6524   35.3507   35.4132 C   0  0  0  0  0  0  0  0  0  0  0  0
   16.3794   34.6318   34.5044 N   0  0  0  0  0  0  0  0  0  0  0  0
   15.8999   35.1934   36.8091 N   0  0  0  0  0  0  0  0  0  0  0  0
    9.0120   45.4318   33.6715 H   0  0  0  0  0  0  0  0  0  0  0  0
   11.8904   45.7661   32.9468 H   0  0  0  0  0  0  0  0  0  0  0  0
   10.7256   46.9689   33.1214 H   0  0  0  0  0  0  0  0  0  0  0  0
    9.3413   43.8329   31.4765 H   0  0  0  0  0  0  0  0  0  0  0  0
   10.7229   44.8813   31.1558 H   0  0  0  0  0  0  0  0  0  0  0  0
    7.0083   44.7164   31.5804 H   0  0  0  0  0  0  0  0  0  0  0  0
   10.3471   47.1837   30.4100 H   0  0  0  0  0  0  0  0  0  0  0  0
    5.4620   46.3075   30.5025 H   0  0  0  0  0  0  0  0  0  0  0  0
    8.8182   48.7594   29.3432 H   0  0  0  0  0  0  0  0  0  0  0  0
    7.1877   49.6185   27.8918 H   0  0  0  0  0  0  0  0  0  0  0  0
    5.3808   51.3028   27.4736 H   0  0  0  0  0  0  0  0  0  0  0  0
    4.8582   49.6082   27.1492 H   0  0  0  0  0  0  0  0  0  0  0  0
    4.3218   50.4383   28.6579 H   0  0  0  0  0  0  0  0  0  0  0  0
    5.2495   50.2561   31.0997 H   0  0  0  0  0  0  0  0  0  0  0  0
    9.3447   53.0448   30.5122 H   0  0  0  0  0  0  0  0  0  0  0  0
    6.3390   53.7668   34.1225 H   0  0  0  0  0  0  0  0  0  0  0  0
    7.3478   52.3945   34.7854 H   0  0  0  0  0  0  0  0  0  0  0  0
   11.3952   41.5478   31.4744 H   0  0  0  0  0  0  0  0  0  0  0  0
    9.8291   40.7409   31.7627 H   0  0  0  0  0  0  0  0  0  0  0  0
   11.6981   39.5115   30.3500 H   0  0  0  0  0  0  0  0  0  0  0  0
   10.1117   38.2604   32.6661 H   0  0  0  0  0  0  0  0  0  0  0  0
   13.6767   37.4556   31.2267 H   0  0  0  0  0  0  0  0  0  0  0  0
    8.8961   38.6952   30.8872 H   0  0  0  0  0  0  0  0  0  0  0  0
   11.2791   36.3072   32.4922 H   0  0  0  0  0  0  0  0  0  0  0  0
   11.8828   36.9598   29.7588 H   0  0  0  0  0  0  0  0  0  0  0  0
   12.3300   38.3538   34.7446 H   0  0  0  0  0  0  0  0  0  0  0  0
   16.7561   34.1785   32.4621 H   0  0  0  0  0  0  0  0  0  0  0  0
   16.6347   34.5303   37.1416 H   0  0  0  0  0  0  0  0  0  0  0  0
   15.3531   35.7360   37.5140 H   0  0  0  0  0  0  0  0  0  0  0  0
  1  2  2  0
  1  3  1  0
  3  4  1  0
  4  5  1  0
  6  1  1  0
  7  6  1  0
  6  8  1  0
  8  9  1  0
  9 10  2  0
 11  9  1  0
 10 12  1  0
 13 11  2  0
 12 14  2  0
 14 13  1  0
 14 15  1  0
 15 16  1  0
 16 17  1  0
 16 18  1  0
 18 19  2  0
 20 18  1  0
 19 21  1  0
 22 20  2  0
 20 23  1  0
 21 24  1  0
 21 25  2  0
 25 22  1  0
 23 26  1  0
 23 27  2  0
 24 28  1  0
 25 29  1  0
 28 29  1  0
  4 30  2  0
  4 31  1  0
 32 31  1  0
 32 33  1  0
 33 34  1  0
 33 35  1  0
 34 36  1  0
 35 37  1  0
 35 38  1  0
 38 36  1  0
 36 39  1  0
 38 40  1  0
 41 39  1  0
 42 39  1  0
 43 41  2  0
 41 44  1  0
 45 42  2  0
 46 43  1  0
 44 47  2  0
 44 45  1  0
 48 46  2  0
 48 47  1  0
 47 49  1  0
  6 50  1  1
  7 51  1  0
  7 52  1  0
  8 53  1  0
  8 54  1  0
 10 55  1  0
 11 56  1  0
 12 57  1  0
 13 58  1  0
 16 59  1  6
 17 60  1  0
 17 61  1  0
 17 62  1  0
 19 63  1  0
 22 64  1  0
 28 65  1  0
 28 66  1  0
 32 67  1  0
 32 68  1  0
 33 69  1  0
 35 70  1  0
 36 71  1  0
 37 72  1  0
 38 73  1  0
 40 74  1  0
 42 75  1  0
 46 76  1  0
 49 77  1  0
 49 78  1  0
M  CHG  3   5  -1  23   1  26  -1
M  END
>  <EmbedRMS>  (50) 
0.0819805173412

$$$$

     RDKit          3D

 78 83  0  0  0  0  0  0  0  0999 V2000
   10.2834   43.7663   33.8258 C   0  0  0  0  0  0  0  0  0  0  0  0
   11.4102   43.5930   34.3752 O   0  0  0  0  0  0  0  0  0  0  0  0
    9.3635   42.7257   33.7353 O   0  0  0  0  0  0  0  0  0  0  0  0
    9.8899   41.2270   34.2948 P   0  0  0  0  0  0  0  0  0  0  0  0
   10.3732   41.4562   35.8841 O   0  0  0  0  0  0  0  0  0  0  0  0
    9.9546   45.0696   33.2037 C   0  0  1  0  0  0  0  0  0  0  0  0
   11.0273   46.0323   33.4757 N   0  0  0  0  0  0  0  0  0  0  0  0
    9.7465   44.8481   31.6879 C   0  0  0  0  0  0  0  0  0  0  0  0
    8.7922   45.8409   31.0848 C   0  0  0  0  0  0  0  0  0  0  0  0
    7.4056   45.6012   31.0984 C   0  0  0  0  0  0  0  0  0  0  0  0
    9.2822   46.9872   30.4418 C   0  0  0  0  0  0  0  0  0  0  0  0
    6.5271   46.5026   30.4827 C   0  0  0  0  0  0  0  0  0  0  0  0
    8.4032   47.8890   29.8305 C   0  0  0  0  0  0  0  0  0  0  0  0
    7.0138   47.6548   29.8499 C   0  0  0  0  0  0  0  0  0  0  0  0
    6.0858   48.5276   29.2583 O   0  0  0  0  0  0  0  0  0  0  0  0
    6.3848   49.8095   28.7044 C   0  0  1  0  0  0  0  0  0  0  0  0
    5.1775   50.3200   27.9169 C   0  0  0  0  0  0  0  0  0  0  0  0
    6.7947   50.8023   29.7842 C   0  0  0  0  0  0  0  0  0  0  0  0
    8.0447   51.4543   29.6414 C   0  0  0  0  0  0  0  0  0  0  0  0
    5.9526   51.1482   30.8974 C   0  0  0  0  0  0  0  0  0  0  0  0
    8.4145   52.4029   30.5852 C   0  0  0  0  0  0  0  0  0  0  0  0
    6.3763   52.1340   31.8160 C   0  0  0  0  0  0  0  0  0  0  0  0
    4.6671   50.5457   31.0992 N   0  0  0  0  0  0  0  0  0  0  0  0
    9.5753   53.1500   30.6426 O   0  0  0  0  0  0  0  0  0  0  0  0
    7.6151   52.7294   31.6256 C   0  0  0  0  0  0  0  0  0  0  0  0
    3.5925   51.3414   31.4222 O   0  0  0  0  0  0  0  0  0  0  0  0
    4.5711   49.3131   31.2621 O   0  0  0  0  0  0  0  0  0  0  0  0
    9.4983   53.9987   31.7961 C   0  0  0  0  0  0  0  0  0  0  0  0
    8.2302   53.6985   32.3946 O   0  0  0  0  0  0  0  0  0  0  0  0
    8.8120   40.1851   34.2133 O   0  0  0  0  0  0  0  0  0  0  0  0
   11.2403   40.7947   33.3700 O   0  0  0  0  0  0  0  0  0  0  0  0
   10.9144   40.6914   31.9982 C   0  0  0  0  0  0  0  0  0  0  0  0
   11.5270   39.3912   31.4385 C   0  0  0  0  0  0  0  0  0  0  0  0
   12.7520   39.0911   32.0836 O   0  0  0  0  0  0  0  0  0  0  0  0
   10.6113   38.1932   31.6451 C   0  0  0  0  0  0  0  0  0  0  0  0
   12.9413   37.6838   32.0297 C   0  0  0  0  0  0  0  0  0  0  0  0
    9.6064   38.0878   30.6599 O   0  0  0  0  0  0  0  0  0  0  0  0
   11.5822   37.0198   31.6877 C   0  0  0  0  0  0  0  0  0  0  0  0
   13.4840   37.2104   33.3254 N   0  0  0  0  0  0  0  0  0  0  0  0
   11.6179   36.3072   30.4690 O   0  0  0  0  0  0  0  0  0  0  0  0
   14.4797   36.3309   33.5738 C   0  0  0  0  0  0  0  0  0  0  0  0
   13.1136   37.6269   34.5702 C   0  0  0  0  0  0  0  0  0  0  0  0
   15.2074   35.6152   32.6747 N   0  0  0  0  0  0  0  0  0  0  0  0
   14.6756   36.2298   34.9190 C   0  0  0  0  0  0  0  0  0  0  0  0
   13.8217   37.0445   35.5793 N   0  0  0  0  0  0  0  0  0  0  0  0
   16.1643   34.7603   33.1551 C   0  0  0  0  0  0  0  0  0  0  0  0
   15.6528   35.3503   35.4136 C   0  0  0  0  0  0  0  0  0  0  0  0
   16.3798   34.6316   34.5046 N   0  0  0  0  0  0  0  0  0  0  0  0
   15.9004   35.1930   36.8094 N   0  0  0  0  0  0  0  0  0  0  0  0
    9.0121   45.4319   33.6716 H   0  0  0  0  0  0  0  0  0  0  0  0
   10.7259   46.9689   33.1213 H   0  0  0  0  0  0  0  0  0  0  0  0
   11.8905   45.7659   32.9469 H   0  0  0  0  0  0  0  0  0  0  0  0
   10.7228   44.8813   31.1558 H   0  0  0  0  0  0  0  0  0  0  0  0
    9.3412   43.8330   31.4765 H   0  0  0  0  0  0  0  0  0  0  0  0
    7.0083   44.7162   31.5801 H   0  0  0  0  0  0  0  0  0  0  0  0
   10.3470   47.1826   30.4083 H   0  0  0  0  0  0  0  0  0  0  0  0
    5.4624   46.3070   30.5017 H   0  0  0  0  0  0  0  0  0  0  0  0
    8.8191   48.7544   29.3378 H   0  0  0  0  0  0  0  0  0  0  0  0
    7.2019   49.6857   27.9592 H   0  0  0  0  0  0  0  0  0  0  0  0
    4.9682   49.6325   27.0700 H   0  0  0  0  0  0  0  0  0  0  0  0
    4.2700   50.3691   28.5519 H   0  0  0  0  0  0  0  0  0  0  0  0
    5.3877   51.3301   27.5045 H   0  0  0  0  0  0  0  0  0  0  0  0
    8.7074   51.2383   28.8130 H   0  0  0  0  0  0  0  0  0  0  0  0
    5.7602   52.4172   32.6599 H   0  0  0  0  0  0  0  0  0  0  0  0
   10.3212   53.7620   32.5027 H   0  0  0  0  0  0  0  0  0  0  0  0
    9.5352   55.0656   31.4910 H   0  0  0  0  0  0  0  0  0  0  0  0
    9.8234   40.7201   31.7654 H   0  0  0  0  0  0  0  0  0  0  0  0
   11.3776   41.5549   31.4744 H   0  0  0  0  0  0  0  0  0  0  0  0
   11.7311   39.5363   30.3532 H   0  0  0  0  0  0  0  0  0  0  0  0
   10.1203   38.2696   32.6410 H   0  0  0  0  0  0  0  0  0  0  0  0
   13.6850   37.4639   31.2321 H   0  0  0  0  0  0  0  0  0  0  0  0
   10.0251   38.1793   29.7654 H   0  0  0  0  0  0  0  0  0  0  0  0
   11.2757   36.3135   32.4907 H   0  0  0  0  0  0  0  0  0  0  0  0
   11.9838   36.9111   29.7708 H   0  0  0  0  0  0  0  0  0  0  0  0
   12.3307   38.3536   34.7457 H   0  0  0  0  0  0  0  0  0  0  0  0
   16.7566   34.1787   32.4623 H   0  0  0  0  0  0  0  0  0  0  0  0
   16.6353   34.5301   37.1419 H   0  0  0  0  0  0  0  0  0  0  0  0
   15.3535   35.7355   37.5144 H   0  0  0  0  0  0  0  0  0  0  0  0
  1  2  2  0
  1  3  1  0
  3  4  1  0
  4  5  1  0
  6  1  1  0
  7  6  1  0
  6  8  1  0
  8  9  1  0
  9 10  2  0
 11  9  1  0
 10 12  1  0
 13 11  2  0
 12 14  2  0
 14 13  1  0
 14 15  1  0
 15 16  1  0
 16 17  1  0
 16 18  1  0
 18 19  2  0
 20 18  1  0
 19 21  1  0
 22 20  2  0
 20 23  1  0
 21 24  1  0
 21 25  2  0
 25 22  1  0
 23 26  1  0
 23 27  2  0
 24 28  1  0
 25 29  1  0
 28 29  1  0
  4 30  2  0
  4 31  1  0
 32 31  1  0
 32 33  1  0
 33 34  1  0
 33 35  1  0
 34 36  1  0
 35 37  1  0
 35 38  1  0
 38 36  1  0
 36 39  1  0
 38 40  1  0
 41 39  1  0
 42 39  1  0
 43 41  2  0
 41 44  1  0
 45 42  2  0
 46 43  1  0
 44 47  2  0
 44 45  1  0
 48 46  2  0
 48 47  1  0
 47 49  1  0
  6 50  1  1
  7 51  1  0
  7 52  1  0
  8 53  1  0
  8 54  1  0
 10 55  1  0
 11 56  1  0
 12 57  1  0
 13 58  1  0
 16 59  1  6
 17 60  1  0
 17 61  1  0
 17 62  1  0
 19 63  1  0
 22 64  1  0
 28 65  1  0
 28 66  1  0
 32 67  1  0
 32 68  1  0
 33 69  1  0
 35 70  1  0
 36 71  1  0
 37 72  1  0
 38 73  1  0
 40 74  1  0
 42 75  1  0
 46 76  1  0
 49 77  1  0
 49 78  1  0
M  CHG  3   5  -1  23   1  26  -1
M  END
>  <EmbedRMS>  (51) 
0.0808280416006

$$$$

     RDKit          3D

 78 83  0  0  0  0  0  0  0  0999 V2000
   10.2805   43.7663   33.8250 C   0  0  0  0  0  0  0  0  0  0  0  0
   11.4111   43.5919   34.3667 O   0  0  0  0  0  0  0  0  0  0  0  0
    9.3622   42.7247   33.7343 O   0  0  0  0  0  0  0  0  0  0  0  0
    9.8904   41.2264   34.2936 P   0  0  0  0  0  0  0  0  0  0  0  0
   10.3732   41.4564   35.8832 O   0  0  0  0  0  0  0  0  0  0  0  0
    9.9459   45.0734   33.2111 C   0  0  1  0  0  0  0  0  0  0  0  0
   11.0266   46.0291   33.4705 N   0  0  0  0  0  0  0  0  0  0  0  0
    9.7536   44.8537   31.6949 C   0  0  0  0  0  0  0  0  0  0  0  0
    8.7955   45.8408   31.0845 C   0  0  0  0  0  0  0  0  0  0  0  0
    7.4089   45.6005   31.1009 C   0  0  0  0  0  0  0  0  0  0  0  0
    9.2828   46.9876   30.4400 C   0  0  0  0  0  0  0  0  0  0  0  0
    6.5285   46.5014   30.4862 C   0  0  0  0  0  0  0  0  0  0  0  0
    8.4025   47.8898   29.8310 C   0  0  0  0  0  0  0  0  0  0  0  0
    7.0131   47.6508   29.8467 C   0  0  0  0  0  0  0  0  0  0  0  0
    6.0801   48.5186   29.2557 O   0  0  0  0  0  0  0  0  0  0  0  0
    6.3823   49.6710   28.4649 C   0  0  1  0  0  0  0  0  0  0  0  0
    6.9039   49.2716   27.0794 C   0  0  0  0  0  0  0  0  0  0  0  0
    5.1621   50.5662   28.3265 C   0  0  0  0  0  0  0  0  0  0  0  0
    5.3908   51.9577   28.1906 C   0  0  0  0  0  0  0  0  0  0  0  0
    3.8079   50.0810   28.3568 C   0  0  0  0  0  0  0  0  0  0  0  0
    4.2975   52.8105   28.1213 C   0  0  0  0  0  0  0  0  0  0  0  0
    2.7359   51.0013   28.2981 C   0  0  0  0  0  0  0  0  0  0  0  0
    3.4993   48.6810   28.4420 N   0  0  0  0  0  0  0  0  0  0  0  0
    4.2880   54.1865   27.9970 O   0  0  0  0  0  0  0  0  0  0  0  0
    3.0265   52.3530   28.1773 C   0  0  0  0  0  0  0  0  0  0  0  0
    4.0589   47.7928   27.5541 O   0  0  0  0  0  0  0  0  0  0  0  0
    2.5583   48.2951   29.1658 O   0  0  0  0  0  0  0  0  0  0  0  0
    2.9208   54.6189   27.9730 C   0  0  0  0  0  0  0  0  0  0  0  0
    2.1484   53.4163   28.0905 O   0  0  0  0  0  0  0  0  0  0  0  0
    8.8129   40.1841   34.2124 O   0  0  0  0  0  0  0  0  0  0  0  0
   11.2419   40.7944   33.3695 O   0  0  0  0  0  0  0  0  0  0  0  0
   10.9185   40.6911   31.9969 C   0  0  0  0  0  0  0  0  0  0  0  0
   11.5172   39.3814   31.4407 C   0  0  0  0  0  0  0  0  0  0  0  0
   12.7492   39.0856   32.0729 O   0  0  0  0  0  0  0  0  0  0  0  0
   10.6023   38.1908   31.6665 C   0  0  0  0  0  0  0  0  0  0  0  0
   12.9319   37.6781   32.0281 C   0  0  0  0  0  0  0  0  0  0  0  0
    9.6392   38.0797   30.6452 O   0  0  0  0  0  0  0  0  0  0  0  0
   11.5715   37.0165   31.7056 C   0  0  0  0  0  0  0  0  0  0  0  0
   13.4847   37.2121   33.3236 N   0  0  0  0  0  0  0  0  0  0  0  0
   11.6187   36.3384   30.4695 O   0  0  0  0  0  0  0  0  0  0  0  0
   14.4801   36.3321   33.5724 C   0  0  0  0  0  0  0  0  0  0  0  0
   13.1137   37.6276   34.5688 C   0  0  0  0  0  0  0  0  0  0  0  0
   15.2073   35.6153   32.6738 N   0  0  0  0  0  0  0  0  0  0  0  0
   14.6759   36.2308   34.9179 C   0  0  0  0  0  0  0  0  0  0  0  0
   13.8217   37.0452   35.5781 N   0  0  0  0  0  0  0  0  0  0  0  0
   16.1640   34.7602   33.1546 C   0  0  0  0  0  0  0  0  0  0  0  0
   15.6526   35.3508   35.4129 C   0  0  0  0  0  0  0  0  0  0  0  0
   16.3794   34.6317   34.5041 N   0  0  0  0  0  0  0  0  0  0  0  0
   15.8999   35.1935   36.8088 N   0  0  0  0  0  0  0  0  0  0  0  0
    8.9995   45.4380   33.6722 H   0  0  0  0  0  0  0  0  0  0  0  0
   11.0503   46.2277   34.4979 H   0  0  0  0  0  0  0  0  0  0  0  0
   10.7762   46.9368   33.0156 H   0  0  0  0  0  0  0  0  0  0  0  0
   10.7407   44.9068   31.1834 H   0  0  0  0  0  0  0  0  0  0  0  0
    9.3636   43.8350   31.4714 H   0  0  0  0  0  0  0  0  0  0  0  0
    7.0131   44.7165   31.5855 H   0  0  0  0  0  0  0  0  0  0  0  0
   10.3470   47.1865   30.4079 H   0  0  0  0  0  0  0  0  0  0  0  0
    5.4639   46.3047   30.5066 H   0  0  0  0  0  0  0  0  0  0  0  0
    8.8183   48.7647   29.3532 H   0  0  0  0  0  0  0  0  0  0  0  0
    7.1714   50.2549   28.9874 H   0  0  0  0  0  0  0  0  0  0  0  0
    6.1208   48.7537   26.4902 H   0  0  0  0  0  0  0  0  0  0  0  0
    7.2238   50.1768   26.5206 H   0  0  0  0  0  0  0  0  0  0  0  0
    7.7783   48.5955   27.1686 H   0  0  0  0  0  0  0  0  0  0  0  0
    6.3936   52.3648   28.1523 H   0  0  0  0  0  0  0  0  0  0  0  0
    1.7062   50.6682   28.3239 H   0  0  0  0  0  0  0  0  0  0  0  0
    2.7156   55.2916   28.8321 H   0  0  0  0  0  0  0  0  0  0  0  0
    2.6954   55.1267   27.0119 H   0  0  0  0  0  0  0  0  0  0  0  0
    9.8298   40.7409   31.7611 H   0  0  0  0  0  0  0  0  0  0  0  0
   11.3966   41.5459   31.4725 H   0  0  0  0  0  0  0  0  0  0  0  0
   11.6975   39.5066   30.3481 H   0  0  0  0  0  0  0  0  0  0  0  0
   10.1077   38.2647   32.6645 H   0  0  0  0  0  0  0  0  0  0  0  0
   13.6621   37.4468   31.2209 H   0  0  0  0  0  0  0  0  0  0  0  0
    8.8974   38.6942   30.8832 H   0  0  0  0  0  0  0  0  0  0  0  0
   11.2806   36.3073   32.5170 H   0  0  0  0  0  0  0  0  0  0  0  0
   10.8493   35.7110   30.4586 H   0  0  0  0  0  0  0  0  0  0  0  0
   12.3291   38.3524   34.7444 H   0  0  0  0  0  0  0  0  0  0  0  0
   16.7559   34.1780   32.4619 H   0  0  0  0  0  0  0  0  0  0  0  0
   15.3531   35.7363   37.5137 H   0  0  0  0  0  0  0  0  0  0  0  0
   16.6344   34.5301   37.1414 H   0  0  0  0  0  0  0  0  0  0  0  0
  1  2  2  0
  1  3  1  0
  3  4  1  0
  4  5  1  0
  6  1  1  0
  7  6  1  0
  6  8  1  0
  8  9  1  0
  9 10  2  0
 11  9  1  0
 10 12  1  0
 13 11  2  0
 12 14  2  0
 14 13  1  0
 14 15  1  0
 15 16  1  0
 16 17  1  0
 16 18  1  0
 18 19  2  0
 20 18  1  0
 19 21  1  0
 22 20  2  0
 20 23  1  0
 21 24  1  0
 21 25  2  0
 25 22  1  0
 23 26  1  0
 23 27  2  0
 24 28  1  0
 25 29  1  0
 28 29  1  0
  4 30  2  0
  4 31  1  0
 32 31  1  0
 32 33  1  0
 33 34  1  0
 33 35  1  0
 34 36  1  0
 35 37  1  0
 35 38  1  0
 38 36  1  0
 36 39  1  0
 38 40  1  0
 41 39  1  0
 42 39  1  0
 43 41  2  0
 41 44  1  0
 45 42  2  0
 46 43  1  0
 44 47  2  0
 44 45  1  0
 48 46  2  0
 48 47  1  0
 47 49  1  0
  6 50  1  1
  7 51  1  0
  7 52  1  0
  8 53  1  0
  8 54  1  0
 10 55  1  0
 11 56  1  0
 12 57  1  0
 13 58  1  0
 16 59  1  1
 17 60  1  0
 17 61  1  0
 17 62  1  0
 19 63  1  0
 22 64  1  0
 28 65  1  0
 28 66  1  0
 32 67  1  0
 32 68  1  0
 33 69  1  0
 35 70  1  0
 36 71  1  0
 37 72  1  0
 38 73  1  0
 40 74  1  0
 42 75  1  0
 46 76  1  0
 49 77  1  0
 49 78  1  0
M  CHG  3   5  -1  23   1  26  -1
M  END
>  <EmbedRMS>  (52) 
0.0827714726208

$$$$

     RDKit          3D

 78 83  0  0  0  0  0  0  0  0999 V2000
   10.2839   43.7626   33.8275 C   0  0  0  0  0  0  0  0  0  0  0  0
   11.4103   43.5863   34.3766 O   0  0  0  0  0  0  0  0  0  0  0  0
    9.3631   42.7236   33.7353 O   0  0  0  0  0  0  0  0  0  0  0  0
    9.8894   41.2249   34.2944 P   0  0  0  0  0  0  0  0  0  0  0  0
   10.3727   41.4547   35.8838 O   0  0  0  0  0  0  0  0  0  0  0  0
    9.9549   45.0699   33.2062 C   0  0  1  0  0  0  0  0  0  0  0  0
   11.0198   46.0481   33.4570 N   0  0  0  0  0  0  0  0  0  0  0  0
    9.7506   44.8510   31.6921 C   0  0  0  0  0  0  0  0  0  0  0  0
    8.7945   45.8416   31.0865 C   0  0  0  0  0  0  0  0  0  0  0  0
    7.4078   45.6008   31.1008 C   0  0  0  0  0  0  0  0  0  0  0  0
    9.2826   46.9895   30.4452 C   0  0  0  0  0  0  0  0  0  0  0  0
    6.5258   46.5005   30.4862 C   0  0  0  0  0  0  0  0  0  0  0  0
    8.4007   47.8887   29.8345 C   0  0  0  0  0  0  0  0  0  0  0  0
    7.0193   47.6540   29.8434 C   0  0  0  0  0  0  0  0  0  0  0  0
    6.1848   48.5877   29.2073 O   0  0  0  0  0  0  0  0  0  0  0  0
    4.7803   48.4400   28.9950 C   0  0  1  0  0  0  0  0  0  0  0  0
    4.1899   49.7739   28.5363 C   0  0  0  0  0  0  0  0  0  0  0  0
    4.4808   47.3340   27.9917 C   0  0  0  0  0  0  0  0  0  0  0  0
    3.6108   46.2919   28.3979 C   0  0  0  0  0  0  0  0  0  0  0  0
    4.9870   47.3329   26.6457 C   0  0  0  0  0  0  0  0  0  0  0  0
    3.2801   45.3030   27.4813 C   0  0  0  0  0  0  0  0  0  0  0  0
    4.6011   46.3082   25.7534 C   0  0  0  0  0  0  0  0  0  0  0  0
    5.8568   48.3623   26.1557 N   0  0  0  0  0  0  0  0  0  0  0  0
    2.4611   44.2048   27.6609 O   0  0  0  0  0  0  0  0  0  0  0  0
    3.7531   45.3115   26.2147 C   0  0  0  0  0  0  0  0  0  0  0  0
    5.6154   48.9180   24.9208 O   0  0  0  0  0  0  0  0  0  0  0  0
    6.9649   48.5555   26.6942 O   0  0  0  0  0  0  0  0  0  0  0  0
    2.4202   43.4769   26.4259 C   0  0  0  0  0  0  0  0  0  0  0  0
    3.2584   44.2186   25.5293 O   0  0  0  0  0  0  0  0  0  0  0  0
    8.8114   40.1834   34.2129 O   0  0  0  0  0  0  0  0  0  0  0  0
   11.2402   40.7930   33.3696 O   0  0  0  0  0  0  0  0  0  0  0  0
   10.9151   40.6903   31.9975 C   0  0  0  0  0  0  0  0  0  0  0  0
   11.5252   39.3885   31.4375 C   0  0  0  0  0  0  0  0  0  0  0  0
   12.7500   39.0873   32.0798 O   0  0  0  0  0  0  0  0  0  0  0  0
   10.6092   38.1925   31.6469 C   0  0  0  0  0  0  0  0  0  0  0  0
   12.9332   37.6792   32.0294 C   0  0  0  0  0  0  0  0  0  0  0  0
    9.6121   38.0894   30.6542 O   0  0  0  0  0  0  0  0  0  0  0  0
   11.5743   37.0144   31.7024 C   0  0  0  0  0  0  0  0  0  0  0  0
   13.4844   37.2108   33.3241 N   0  0  0  0  0  0  0  0  0  0  0  0
   11.6297   36.3238   30.4740 O   0  0  0  0  0  0  0  0  0  0  0  0
   14.4802   36.3313   33.5726 C   0  0  0  0  0  0  0  0  0  0  0  0
   13.1138   37.6266   34.5692 C   0  0  0  0  0  0  0  0  0  0  0  0
   15.2075   35.6149   32.6739 N   0  0  0  0  0  0  0  0  0  0  0  0
   14.6761   36.2303   34.9181 C   0  0  0  0  0  0  0  0  0  0  0  0
   13.8220   37.0447   35.5784 N   0  0  0  0  0  0  0  0  0  0  0  0
   16.1643   34.7600   33.1547 C   0  0  0  0  0  0  0  0  0  0  0  0
   15.6529   35.3505   35.4130 C   0  0  0  0  0  0  0  0  0  0  0  0
   16.3798   34.6315   34.5042 N   0  0  0  0  0  0  0  0  0  0  0  0
   15.9003   35.1932   36.8090 N   0  0  0  0  0  0  0  0  0  0  0  0
    9.0098   45.4348   33.6667 H   0  0  0  0  0  0  0  0  0  0  0  0
   11.1132   46.1992   34.4883 H   0  0  0  0  0  0  0  0  0  0  0  0
   11.9349   45.6934   33.0927 H   0  0  0  0  0  0  0  0  0  0  0  0
    9.3519   43.8343   31.4757 H   0  0  0  0  0  0  0  0  0  0  0  0
   10.7310   44.8929   31.1674 H   0  0  0  0  0  0  0  0  0  0  0  0
    7.0124   44.7168   31.5859 H   0  0  0  0  0  0  0  0  0  0  0  0
   10.3466   47.1900   30.4158 H   0  0  0  0  0  0  0  0  0  0  0  0
    5.4682   46.2896   30.5271 H   0  0  0  0  0  0  0  0  0  0  0  0
    8.7937   48.7703   29.3442 H   0  0  0  0  0  0  0  0  0  0  0  0
    4.3007   48.2174   29.9742 H   0  0  0  0  0  0  0  0  0  0  0  0
    4.6889   50.1442   27.6181 H   0  0  0  0  0  0  0  0  0  0  0  0
    3.1018   49.6646   28.3399 H   0  0  0  0  0  0  0  0  0  0  0  0
    4.3271   50.5350   29.3336 H   0  0  0  0  0  0  0  0  0  0  0  0
    3.1928   46.2565   29.3960 H   0  0  0  0  0  0  0  0  0  0  0  0
    4.9630   46.2859   24.7334 H   0  0  0  0  0  0  0  0  0  0  0  0
    1.3812   43.4394   26.0365 H   0  0  0  0  0  0  0  0  0  0  0  0
    2.8246   42.4531   26.5699 H   0  0  0  0  0  0  0  0  0  0  0  0
   11.3805   41.5528   31.4739 H   0  0  0  0  0  0  0  0  0  0  0  0
    9.8243   40.7217   31.7640 H   0  0  0  0  0  0  0  0  0  0  0  0
   11.7265   39.5311   30.3512 H   0  0  0  0  0  0  0  0  0  0  0  0
   10.1110   38.2746   32.6387 H   0  0  0  0  0  0  0  0  0  0  0  0
   13.6652   37.4518   31.2226 H   0  0  0  0  0  0  0  0  0  0  0  0
   10.0511   38.1143   29.7644 H   0  0  0  0  0  0  0  0  0  0  0  0
   11.2762   36.3141   32.5189 H   0  0  0  0  0  0  0  0  0  0  0  0
   10.8593   35.6977   30.4640 H   0  0  0  0  0  0  0  0  0  0  0  0
   12.3294   38.3518   34.7449 H   0  0  0  0  0  0  0  0  0  0  0  0
   16.7564   34.1779   32.4620 H   0  0  0  0  0  0  0  0  0  0  0  0
   16.6349   34.5300   37.1415 H   0  0  0  0  0  0  0  0  0  0  0  0
   15.3534   35.7359   37.5138 H   0  0  0  0  0  0  0  0  0  0  0  0
  1  2  2  0
  1  3  1  0
  3  4  1  0
  4  5  1  0
  6  1  1  0
  7  6  1  0
  6  8  1  0
  8  9  1  0
  9 10  2  0
 11  9  1  0
 10 12  1  0
 13 11  2  0
 12 14  2  0
 14 13  1  0
 14 15  1  0
 15 16  1  0
 16 17  1  0
 16 18  1  0
 18 19  2  0
 20 18  1  0
 19 21  1  0
 22 20  2  0
 20 23  1  0
 21 24  1  0
 21 25  2  0
 25 22  1  0
 23 26  1  0
 23 27  2  0
 24 28  1  0
 25 29  1  0
 28 29  1  0
  4 30  2  0
  4 31  1  0
 32 31  1  0
 32 33  1  0
 33 34  1  0
 33 35  1  0
 34 36  1  0
 35 37  1  0
 35 38  1  0
 38 36  1  0
 36 39  1  0
 38 40  1  0
 41 39  1  0
 42 39  1  0
 43 41  2  0
 41 44  1  0
 45 42  2  0
 46 43  1  0
 44 47  2  0
 44 45  1  0
 48 46  2  0
 48 47  1  0
 47 49  1  0
  6 50  1  1
  7 51  1  0
  7 52  1  0
  8 53  1  0
  8 54  1  0
 10 55  1  0
 11 56  1  0
 12 57  1  0
 13 58  1  0
 16 59  1  1
 17 60  1  0
 17 61  1  0
 17 62  1  0
 19 63  1  0
 22 64  1  0
 28 65  1  0
 28 66  1  0
 32 67  1  0
 32 68  1  0
 33 69  1  0
 35 70  1  0
 36 71  1  0
 37 72  1  0
 38 73  1  0
 40 74  1  0
 42 75  1  0
 46 76  1  0
 49 77  1  0
 49 78  1  0
M  CHG  3   5  -1  23   1  26  -1
M  END
>  <EmbedRMS>  (53) 
0.0827195430107

$$$$

     RDKit          3D

 78 83  0  0  0  0  0  0  0  0999 V2000
   10.2836   43.7661   33.8256 C   0  0  0  0  0  0  0  0  0  0  0  0
   11.4103   43.5930   34.3753 O   0  0  0  0  0  0  0  0  0  0  0  0
    9.3641   42.7253   33.7346 O   0  0  0  0  0  0  0  0  0  0  0  0
    9.8908   41.2265   34.2938 P   0  0  0  0  0  0  0  0  0  0  0  0
   10.3732   41.4559   35.8835 O   0  0  0  0  0  0  0  0  0  0  0  0
    9.9548   45.0694   33.2036 C   0  0  1  0  0  0  0  0  0  0  0  0
   11.0274   46.0322   33.4760 N   0  0  0  0  0  0  0  0  0  0  0  0
    9.7471   44.8484   31.6876 C   0  0  0  0  0  0  0  0  0  0  0  0
    8.7926   45.8411   31.0847 C   0  0  0  0  0  0  0  0  0  0  0  0
    7.4060   45.6010   31.0992 C   0  0  0  0  0  0  0  0  0  0  0  0
    9.2817   46.9876   30.4419 C   0  0  0  0  0  0  0  0  0  0  0  0
    6.5243   46.5005   30.4842 C   0  0  0  0  0  0  0  0  0  0  0  0
    8.4005   47.8875   29.8318 C   0  0  0  0  0  0  0  0  0  0  0  0
    7.0182   47.6579   29.8468 C   0  0  0  0  0  0  0  0  0  0  0  0
    6.1869   48.5961   29.2122 O   0  0  0  0  0  0  0  0  0  0  0  0
    4.7556   48.5951   29.2207 C   0  0  1  0  0  0  0  0  0  0  0  0
    4.2356   49.0451   30.5906 C   0  0  0  0  0  0  0  0  0  0  0  0
    4.2513   49.5410   28.1470 C   0  0  0  0  0  0  0  0  0  0  0  0
    4.8807   50.8031   28.0072 C   0  0  0  0  0  0  0  0  0  0  0  0
    3.1874   49.1861   27.2504 C   0  0  0  0  0  0  0  0  0  0  0  0
    4.4713   51.6392   26.9770 C   0  0  0  0  0  0  0  0  0  0  0  0
    2.8269   50.0718   26.2096 C   0  0  0  0  0  0  0  0  0  0  0  0
    2.4536   47.9594   27.3911 N   0  0  0  0  0  0  0  0  0  0  0  0
    4.9465   52.8944   26.6492 O   0  0  0  0  0  0  0  0  0  0  0  0
    3.4921   51.2867   26.1129 C   0  0  0  0  0  0  0  0  0  0  0  0
    2.0031   47.3010   26.2701 O   0  0  0  0  0  0  0  0  0  0  0  0
    2.0158   47.6139   28.5077 O   0  0  0  0  0  0  0  0  0  0  0  0
    4.2167   53.3588   25.5053 C   0  0  0  0  0  0  0  0  0  0  0  0
    3.2982   52.3017   25.1958 O   0  0  0  0  0  0  0  0  0  0  0  0
    8.8127   40.1848   34.2122 O   0  0  0  0  0  0  0  0  0  0  0  0
   11.2420   40.7941   33.3697 O   0  0  0  0  0  0  0  0  0  0  0  0
   10.9187   40.6911   31.9971 C   0  0  0  0  0  0  0  0  0  0  0  0
   11.5172   39.3815   31.4407 C   0  0  0  0  0  0  0  0  0  0  0  0
   12.7493   39.0855   32.0728 O   0  0  0  0  0  0  0  0  0  0  0  0
   10.6023   38.1908   31.6665 C   0  0  0  0  0  0  0  0  0  0  0  0
   12.9319   37.6781   32.0281 C   0  0  0  0  0  0  0  0  0  0  0  0
    9.6392   38.0798   30.6452 O   0  0  0  0  0  0  0  0  0  0  0  0
   11.5715   37.0166   31.7056 C   0  0  0  0  0  0  0  0  0  0  0  0
   13.4847   37.2121   33.3235 N   0  0  0  0  0  0  0  0  0  0  0  0
   11.6187   36.3384   30.4695 O   0  0  0  0  0  0  0  0  0  0  0  0
   14.4801   36.3321   33.5724 C   0  0  0  0  0  0  0  0  0  0  0  0
   13.1137   37.6275   34.5687 C   0  0  0  0  0  0  0  0  0  0  0  0
   15.2073   35.6153   32.6738 N   0  0  0  0  0  0  0  0  0  0  0  0
   14.6759   36.2308   34.9179 C   0  0  0  0  0  0  0  0  0  0  0  0
   13.8216   37.0452   35.5781 N   0  0  0  0  0  0  0  0  0  0  0  0
   16.1640   34.7602   33.1546 C   0  0  0  0  0  0  0  0  0  0  0  0
   15.6526   35.3508   35.4129 C   0  0  0  0  0  0  0  0  0  0  0  0
   16.3794   34.6317   34.5041 N   0  0  0  0  0  0  0  0  0  0  0  0
   15.8999   35.1935   36.8088 N   0  0  0  0  0  0  0  0  0  0  0  0
    9.0121   45.4316   33.6714 H   0  0  0  0  0  0  0  0  0  0  0  0
   10.7260   46.9688   33.1216 H   0  0  0  0  0  0  0  0  0  0  0  0
   11.8908   45.7659   32.9476 H   0  0  0  0  0  0  0  0  0  0  0  0
    9.3425   43.8331   31.4758 H   0  0  0  0  0  0  0  0  0  0  0  0
   10.7236   44.8824   31.1558 H   0  0  0  0  0  0  0  0  0  0  0  0
    7.0107   44.7149   31.5804 H   0  0  0  0  0  0  0  0  0  0  0  0
   10.3460   47.1857   30.4097 H   0  0  0  0  0  0  0  0  0  0  0  0
    5.4677   46.2782   30.5109 H   0  0  0  0  0  0  0  0  0  0  0  0
    8.7944   48.7688   29.3415 H   0  0  0  0  0  0  0  0  0  0  0  0
    4.4038   47.5667   29.0071 H   0  0  0  0  0  0  0  0  0  0  0  0
    4.6315   50.0514   30.8450 H   0  0  0  0  0  0  0  0  0  0  0  0
    4.5525   48.3355   31.3816 H   0  0  0  0  0  0  0  0  0  0  0  0
    3.1257   49.0857   30.5867 H   0  0  0  0  0  0  0  0  0  0  0  0
    5.6774   51.1155   28.6706 H   0  0  0  0  0  0  0  0  0  0  0  0
    2.0324   49.8317   25.5149 H   0  0  0  0  0  0  0  0  0  0  0  0
    4.9068   53.5287   24.6524 H   0  0  0  0  0  0  0  0  0  0  0  0
    3.6620   54.2876   25.7547 H   0  0  0  0  0  0  0  0  0  0  0  0
    9.8300   40.7410   31.7613 H   0  0  0  0  0  0  0  0  0  0  0  0
   11.3969   41.5460   31.4729 H   0  0  0  0  0  0  0  0  0  0  0  0
   11.6975   39.5067   30.3481 H   0  0  0  0  0  0  0  0  0  0  0  0
   10.1076   38.2648   32.6645 H   0  0  0  0  0  0  0  0  0  0  0  0
   13.6621   37.4467   31.2209 H   0  0  0  0  0  0  0  0  0  0  0  0
    8.8975   38.6945   30.8830 H   0  0  0  0  0  0  0  0  0  0  0  0
   11.2806   36.3073   32.5170 H   0  0  0  0  0  0  0  0  0  0  0  0
   10.8492   35.7110   30.4586 H   0  0  0  0  0  0  0  0  0  0  0  0
   12.3290   38.3524   34.7444 H   0  0  0  0  0  0  0  0  0  0  0  0
   16.7559   34.1780   32.4619 H   0  0  0  0  0  0  0  0  0  0  0  0
   15.3531   35.7362   37.5137 H   0  0  0  0  0  0  0  0  0  0  0  0
   16.6344   34.5301   37.1414 H   0  0  0  0  0  0  0  0  0  0  0  0
  1  2  2  0
  1  3  1  0
  3  4  1  0
  4  5  1  0
  6  1  1  0
  7  6  1  0
  6  8  1  0
  8  9  1  0
  9 10  2  0
 11  9  1  0
 10 12  1  0
 13 11  2  0
 12 14  2  0
 14 13  1  0
 14 15  1  0
 15 16  1  0
 16 17  1  0
 16 18  1  0
 18 19  2  0
 20 18  1  0
 19 21  1  0
 22 20  2  0
 20 23  1  0
 21 24  1  0
 21 25  2  0
 25 22  1  0
 23 26  1  0
 23 27  2  0
 24 28  1  0
 25 29  1  0
 28 29  1  0
  4 30  2  0
  4 31  1  0
 32 31  1  0
 32 33  1  0
 33 34  1  0
 33 35  1  0
 34 36  1  0
 35 37  1  0
 35 38  1  0
 38 36  1  0
 36 39  1  0
 38 40  1  0
 41 39  1  0
 42 39  1  0
 43 41  2  0
 41 44  1  0
 45 42  2  0
 46 43  1  0
 44 47  2  0
 44 45  1  0
 48 46  2  0
 48 47  1  0
 47 49  1  0
  6 50  1  1
  7 51  1  0
  7 52  1  0
  8 53  1  0
  8 54  1  0
 10 55  1  0
 11 56  1  0
 12 57  1  0
 13 58  1  0
 16 59  1  6
 17 60  1  0
 17 61  1  0
 17 62  1  0
 19 63  1  0
 22 64  1  0
 28 65  1  0
 28 66  1  0
 32 67  1  0
 32 68  1  0
 33 69  1  0
 35 70  1  0
 36 71  1  0
 37 72  1  0
 38 73  1  0
 40 74  1  0
 42 75  1  0
 46 76  1  0
 49 77  1  0
 49 78  1  0
M  CHG  3   5  -1  23   1  26  -1
M  END
>  <EmbedRMS>  (54) 
0.0829158656093

$$$$

     RDKit          3D

 78 83  0  0  0  0  0  0  0  0999 V2000
   10.2834   43.7662   33.8257 C   0  0  0  0  0  0  0  0  0  0  0  0
   11.4102   43.5932   34.3752 O   0  0  0  0  0  0  0  0  0  0  0  0
    9.3637   42.7255   33.7352 O   0  0  0  0  0  0  0  0  0  0  0  0
    9.8904   41.2268   34.2946 P   0  0  0  0  0  0  0  0  0  0  0  0
   10.3729   41.4561   35.8842 O   0  0  0  0  0  0  0  0  0  0  0  0
    9.9545   45.0695   33.2036 C   0  0  1  0  0  0  0  0  0  0  0  0
   11.0271   46.0323   33.4756 N   0  0  0  0  0  0  0  0  0  0  0  0
    9.7465   44.8480   31.6877 C   0  0  0  0  0  0  0  0  0  0  0  0
    8.7923   45.8407   31.0843 C   0  0  0  0  0  0  0  0  0  0  0  0
    7.4056   45.6012   31.0984 C   0  0  0  0  0  0  0  0  0  0  0  0
    9.2824   46.9874   30.4419 C   0  0  0  0  0  0  0  0  0  0  0  0
    6.5268   46.5028   30.4833 C   0  0  0  0  0  0  0  0  0  0  0  0
    8.4036   47.8895   29.8311 C   0  0  0  0  0  0  0  0  0  0  0  0
    7.0140   47.6539   29.8495 C   0  0  0  0  0  0  0  0  0  0  0  0
    6.0870   48.5317   29.2633 O   0  0  0  0  0  0  0  0  0  0  0  0
    6.4074   49.7829   28.6509 C   0  0  1  0  0  0  0  0  0  0  0  0
    5.1867   50.3256   27.9087 C   0  0  0  0  0  0  0  0  0  0  0  0
    6.9197   50.8039   29.6569 C   0  0  0  0  0  0  0  0  0  0  0  0
    7.8927   51.7267   29.2020 C   0  0  0  0  0  0  0  0  0  0  0  0
    6.5077   50.8446   31.0352 C   0  0  0  0  0  0  0  0  0  0  0  0
    8.4382   52.6230   30.1108 C   0  0  0  0  0  0  0  0  0  0  0  0
    7.1124   51.7698   31.9158 C   0  0  0  0  0  0  0  0  0  0  0  0
    5.5056   49.9625   31.5641 N   0  0  0  0  0  0  0  0  0  0  0  0
    9.3968   53.5933   29.8904 O   0  0  0  0  0  0  0  0  0  0  0  0
    8.0677   52.6409   31.4110 C   0  0  0  0  0  0  0  0  0  0  0  0
    5.6527   49.4455   32.8305 O   0  0  0  0  0  0  0  0  0  0  0  0
    4.4070   49.8357   30.9872 O   0  0  0  0  0  0  0  0  0  0  0  0
    9.6422   54.2631   31.1345 C   0  0  0  0  0  0  0  0  0  0  0  0
    8.7726   53.6237   32.0788 O   0  0  0  0  0  0  0  0  0  0  0  0
    8.8125   40.1848   34.2126 O   0  0  0  0  0  0  0  0  0  0  0  0
   11.2416   40.7948   33.3707 O   0  0  0  0  0  0  0  0  0  0  0  0
   10.9179   40.6922   31.9984 C   0  0  0  0  0  0  0  0  0  0  0  0
   11.5175   39.3838   31.4423 C   0  0  0  0  0  0  0  0  0  0  0  0
   12.7508   39.0887   32.0752 O   0  0  0  0  0  0  0  0  0  0  0  0
   10.6028   38.1916   31.6659 C   0  0  0  0  0  0  0  0  0  0  0  0
   12.9385   37.6818   32.0278 C   0  0  0  0  0  0  0  0  0  0  0  0
    9.6371   38.0806   30.6470 O   0  0  0  0  0  0  0  0  0  0  0  0
   11.5780   37.0215   31.6935 C   0  0  0  0  0  0  0  0  0  0  0  0
   13.4844   37.2119   33.3242 N   0  0  0  0  0  0  0  0  0  0  0  0
   11.6095   36.3202   30.4679 O   0  0  0  0  0  0  0  0  0  0  0  0
   14.4797   36.3318   33.5730 C   0  0  0  0  0  0  0  0  0  0  0  0
   13.1135   37.6278   34.5691 C   0  0  0  0  0  0  0  0  0  0  0  0
   15.2073   35.6155   32.6742 N   0  0  0  0  0  0  0  0  0  0  0  0
   14.6754   36.2305   34.9184 C   0  0  0  0  0  0  0  0  0  0  0  0
   13.8213   37.0452   35.5785 N   0  0  0  0  0  0  0  0  0  0  0  0
   16.1640   34.7604   33.1549 C   0  0  0  0  0  0  0  0  0  0  0  0
   15.6525   35.3507   35.4132 C   0  0  0  0  0  0  0  0  0  0  0  0
   16.3794   34.6318   34.5044 N   0  0  0  0  0  0  0  0  0  0  0  0
   15.8999   35.1934   36.8091 N   0  0  0  0  0  0  0  0  0  0  0  0
    9.0118   45.4318   33.6714 H   0  0  0  0  0  0  0  0  0  0  0  0
   11.8903   45.7662   32.9468 H   0  0  0  0  0  0  0  0  0  0  0  0
   10.7255   46.9689   33.1214 H   0  0  0  0  0  0  0  0  0  0  0  0
   10.7229   44.8812   31.1558 H   0  0  0  0  0  0  0  0  0  0  0  0
    9.3413   43.8329   31.4764 H   0  0  0  0  0  0  0  0  0  0  0  0
    7.0082   44.7167   31.5809 H   0  0  0  0  0  0  0  0  0  0  0  0
   10.3471   47.1841   30.4108 H   0  0  0  0  0  0  0  0  0  0  0  0
    5.4619   46.3089   30.5045 H   0  0  0  0  0  0  0  0  0  0  0  0
    8.8177   48.7625   29.3473 H   0  0  0  0  0  0  0  0  0  0  0  0
    7.1855   49.5939   27.8774 H   0  0  0  0  0  0  0  0  0  0  0  0
    5.4617   51.2414   27.3427 H   0  0  0  0  0  0  0  0  0  0  0  0
    4.3645   50.5766   28.6080 H   0  0  0  0  0  0  0  0  0  0  0  0
    4.8189   49.5660   27.1867 H   0  0  0  0  0  0  0  0  0  0  0  0
    8.2265   51.7345   28.1719 H   0  0  0  0  0  0  0  0  0  0  0  0
    6.8309   51.8200   32.9597 H   0  0  0  0  0  0  0  0  0  0  0  0
    9.3877   55.3402   31.0475 H   0  0  0  0  0  0  0  0  0  0  0  0
   10.7016   54.1316   31.4390 H   0  0  0  0  0  0  0  0  0  0  0  0
    9.8291   40.7409   31.7627 H   0  0  0  0  0  0  0  0  0  0  0  0
   11.3952   41.5478   31.4744 H   0  0  0  0  0  0  0  0  0  0  0  0
   11.6981   39.5115   30.3501 H   0  0  0  0  0  0  0  0  0  0  0  0
   10.1117   38.2604   32.6661 H   0  0  0  0  0  0  0  0  0  0  0  0
   13.6767   37.4556   31.2267 H   0  0  0  0  0  0  0  0  0  0  0  0
    8.8961   38.6952   30.8872 H   0  0  0  0  0  0  0  0  0  0  0  0
   11.2791   36.3072   32.4922 H   0  0  0  0  0  0  0  0  0  0  0  0
   11.8828   36.9598   29.7588 H   0  0  0  0  0  0  0  0  0  0  0  0
   12.3300   38.3538   34.7446 H   0  0  0  0  0  0  0  0  0  0  0  0
   16.7562   34.1785   32.4622 H   0  0  0  0  0  0  0  0  0  0  0  0
   15.3531   35.7360   37.5140 H   0  0  0  0  0  0  0  0  0  0  0  0
   16.6347   34.5303   37.1416 H   0  0  0  0  0  0  0  0  0  0  0  0
  1  2  2  0
  1  3  1  0
  3  4  1  0
  4  5  1  0
  6  1  1  0
  7  6  1  0
  6  8  1  0
  8  9  1  0
  9 10  2  0
 11  9  1  0
 10 12  1  0
 13 11  2  0
 12 14  2  0
 14 13  1  0
 14 15  1  0
 15 16  1  0
 16 17  1  0
 16 18  1  0
 18 19  2  0
 20 18  1  0
 19 21  1  0
 22 20  2  0
 20 23  1  0
 21 24  1  0
 21 25  2  0
 25 22  1  0
 23 26  1  0
 23 27  2  0
 24 28  1  0
 25 29  1  0
 28 29  1  0
  4 30  2  0
  4 31  1  0
 32 31  1  0
 32 33  1  0
 33 34  1  0
 33 35  1  0
 34 36  1  0
 35 37  1  0
 35 38  1  0
 38 36  1  0
 36 39  1  0
 38 40  1  0
 41 39  1  0
 42 39  1  0
 43 41  2  0
 41 44  1  0
 45 42  2  0
 46 43  1  0
 44 47  2  0
 44 45  1  0
 48 46  2  0
 48 47  1  0
 47 49  1  0
  6 50  1  1
  7 51  1  0
  7 52  1  0
  8 53  1  0
  8 54  1  0
 10 55  1  0
 11 56  1  0
 12 57  1  0
 13 58  1  0
 16 59  1  6
 17 60  1  0
 17 61  1  0
 17 62  1  0
 19 63  1  0
 22 64  1  0
 28 65  1  0
 28 66  1  0
 32 67  1  0
 32 68  1  0
 33 69  1  0
 35 70  1  0
 36 71  1  0
 37 72  1  0
 38 73  1  0
 40 74  1  0
 42 75  1  0
 46 76  1  0
 49 77  1  0
 49 78  1  0
M  CHG  3   5  -1  23   1  26  -1
M  END
>  <EmbedRMS>  (55) 
0.0819896545446

$$$$

     RDKit          3D

 78 83  0  0  0  0  0  0  0  0999 V2000
   10.2803   43.7665   33.8251 C   0  0  0  0  0  0  0  0  0  0  0  0
   11.4110   43.5919   34.3666 O   0  0  0  0  0  0  0  0  0  0  0  0
    9.3616   42.7252   33.7348 O   0  0  0  0  0  0  0  0  0  0  0  0
    9.8895   41.2269   34.2945 P   0  0  0  0  0  0  0  0  0  0  0  0
   10.3731   41.4568   35.8837 O   0  0  0  0  0  0  0  0  0  0  0  0
    9.9459   45.0737   33.2111 C   0  0  1  0  0  0  0  0  0  0  0  0
   11.0265   46.0293   33.4709 N   0  0  0  0  0  0  0  0  0  0  0  0
    9.7543   44.8540   31.6948 C   0  0  0  0  0  0  0  0  0  0  0  0
    8.7961   45.8409   31.0845 C   0  0  0  0  0  0  0  0  0  0  0  0
    7.4098   45.6003   31.1008 C   0  0  0  0  0  0  0  0  0  0  0  0
    9.2824   46.9872   30.4395 C   0  0  0  0  0  0  0  0  0  0  0  0
    6.5265   46.4989   30.4865 C   0  0  0  0  0  0  0  0  0  0  0  0
    8.3992   47.8864   29.8317 C   0  0  0  0  0  0  0  0  0  0  0  0
    7.0169   47.6561   29.8460 C   0  0  0  0  0  0  0  0  0  0  0  0
    6.1899   48.6087   29.2224 O   0  0  0  0  0  0  0  0  0  0  0  0
    4.7615   48.5825   29.0977 C   0  0  1  0  0  0  0  0  0  0  0  0
    4.3410   47.5095   28.0807 C   0  0  0  0  0  0  0  0  0  0  0  0
    4.0762   48.5350   30.4647 C   0  0  0  0  0  0  0  0  0  0  0  0
    3.0573   47.5812   30.7371 C   0  0  0  0  0  0  0  0  0  0  0  0
    4.4715   49.4402   31.5109 C   0  0  0  0  0  0  0  0  0  0  0  0
    2.5145   47.5305   32.0137 C   0  0  0  0  0  0  0  0  0  0  0  0
    3.8915   49.3271   32.7944 C   0  0  0  0  0  0  0  0  0  0  0  0
    5.4600   50.4626   31.2985 N   0  0  0  0  0  0  0  0  0  0  0  0
    1.5365   46.6822   32.4965 O   0  0  0  0  0  0  0  0  0  0  0  0
    2.9171   48.3622   32.9995 C   0  0  0  0  0  0  0  0  0  0  0  0
    6.3080   50.8177   32.3222 O   0  0  0  0  0  0  0  0  0  0  0  0
    5.4323   51.1680   30.2695 O   0  0  0  0  0  0  0  0  0  0  0  0
    1.3123   47.0047   33.8757 C   0  0  0  0  0  0  0  0  0  0  0  0
    2.2145   48.0834   34.1561 O   0  0  0  0  0  0  0  0  0  0  0  0
    8.8122   40.1844   34.2135 O   0  0  0  0  0  0  0  0  0  0  0  0
   11.2401   40.7950   33.3698 O   0  0  0  0  0  0  0  0  0  0  0  0
   10.9143   40.6914   31.9981 C   0  0  0  0  0  0  0  0  0  0  0  0
   11.5269   39.3912   31.4385 C   0  0  0  0  0  0  0  0  0  0  0  0
   12.7519   39.0911   32.0837 O   0  0  0  0  0  0  0  0  0  0  0  0
   10.6113   38.1932   31.6451 C   0  0  0  0  0  0  0  0  0  0  0  0
   12.9413   37.6838   32.0297 C   0  0  0  0  0  0  0  0  0  0  0  0
    9.6064   38.0878   30.6599 O   0  0  0  0  0  0  0  0  0  0  0  0
   11.5822   37.0197   31.6877 C   0  0  0  0  0  0  0  0  0  0  0  0
   13.4840   37.2105   33.3254 N   0  0  0  0  0  0  0  0  0  0  0  0
   11.6179   36.3072   30.4690 O   0  0  0  0  0  0  0  0  0  0  0  0
   14.4797   36.3309   33.5738 C   0  0  0  0  0  0  0  0  0  0  0  0
   13.1136   37.6269   34.5702 C   0  0  0  0  0  0  0  0  0  0  0  0
   15.2074   35.6152   32.6747 N   0  0  0  0  0  0  0  0  0  0  0  0
   14.6756   36.2298   34.9190 C   0  0  0  0  0  0  0  0  0  0  0  0
   13.8217   37.0445   35.5793 N   0  0  0  0  0  0  0  0  0  0  0  0
   16.1643   34.7603   33.1551 C   0  0  0  0  0  0  0  0  0  0  0  0
   15.6528   35.3503   35.4136 C   0  0  0  0  0  0  0  0  0  0  0  0
   16.3798   34.6316   34.5046 N   0  0  0  0  0  0  0  0  0  0  0  0
   15.9004   35.1930   36.8094 N   0  0  0  0  0  0  0  0  0  0  0  0
    8.9993   45.4383   33.6719 H   0  0  0  0  0  0  0  0  0  0  0  0
   10.7763   46.9370   33.0159 H   0  0  0  0  0  0  0  0  0  0  0  0
   11.0499   46.2278   34.4983 H   0  0  0  0  0  0  0  0  0  0  0  0
   10.7416   44.9077   31.1837 H   0  0  0  0  0  0  0  0  0  0  0  0
    9.3649   43.8353   31.4711 H   0  0  0  0  0  0  0  0  0  0  0  0
    7.0158   44.7161   31.5867 H   0  0  0  0  0  0  0  0  0  0  0  0
   10.3461   47.1876   30.4055 H   0  0  0  0  0  0  0  0  0  0  0  0
    5.4736   46.2766   30.5271 H   0  0  0  0  0  0  0  0  0  0  0  0
    8.7921   48.7695   29.3439 H   0  0  0  0  0  0  0  0  0  0  0  0
    4.4626   49.5463   28.6342 H   0  0  0  0  0  0  0  0  0  0  0  0
    4.9194   47.6435   27.1420 H   0  0  0  0  0  0  0  0  0  0  0  0
    3.2638   47.6163   27.8313 H   0  0  0  0  0  0  0  0  0  0  0  0
    4.5307   46.4848   28.4571 H   0  0  0  0  0  0  0  0  0  0  0  0
    2.7015   46.8791   29.9975 H   0  0  0  0  0  0  0  0  0  0  0  0
    4.1775   49.9875   33.6028 H   0  0  0  0  0  0  0  0  0  0  0  0
    1.5489   46.1305   34.5179 H   0  0  0  0  0  0  0  0  0  0  0  0
    0.2629   47.3333   34.0277 H   0  0  0  0  0  0  0  0  0  0  0  0
   11.3775   41.5548   31.4741 H   0  0  0  0  0  0  0  0  0  0  0  0
    9.8233   40.7200   31.7652 H   0  0  0  0  0  0  0  0  0  0  0  0
   11.7312   39.5362   30.3532 H   0  0  0  0  0  0  0  0  0  0  0  0
   10.1202   38.2696   32.6410 H   0  0  0  0  0  0  0  0  0  0  0  0
   13.6850   37.4639   31.2321 H   0  0  0  0  0  0  0  0  0  0  0  0
   10.0251   38.1792   29.7654 H   0  0  0  0  0  0  0  0  0  0  0  0
   11.2757   36.3135   32.4907 H   0  0  0  0  0  0  0  0  0  0  0  0
   11.9838   36.9111   29.7708 H   0  0  0  0  0  0  0  0  0  0  0  0
   12.3307   38.3536   34.7458 H   0  0  0  0  0  0  0  0  0  0  0  0
   16.7566   34.1787   32.4623 H   0  0  0  0  0  0  0  0  0  0  0  0
   15.3535   35.7355   37.5144 H   0  0  0  0  0  0  0  0  0  0  0  0
   16.6353   34.5301   37.1419 H   0  0  0  0  0  0  0  0  0  0  0  0
  1  2  2  0
  1  3  1  0
  3  4  1  0
  4  5  1  0
  6  1  1  0
  7  6  1  0
  6  8  1  0
  8  9  1  0
  9 10  2  0
 11  9  1  0
 10 12  1  0
 13 11  2  0
 12 14  2  0
 14 13  1  0
 14 15  1  0
 15 16  1  0
 16 17  1  0
 16 18  1  0
 18 19  2  0
 20 18  1  0
 19 21  1  0
 22 20  2  0
 20 23  1  0
 21 24  1  0
 21 25  2  0
 25 22  1  0
 23 26  1  0
 23 27  2  0
 24 28  1  0
 25 29  1  0
 28 29  1  0
  4 30  2  0
  4 31  1  0
 32 31  1  0
 32 33  1  0
 33 34  1  0
 33 35  1  0
 34 36  1  0
 35 37  1  0
 35 38  1  0
 38 36  1  0
 36 39  1  0
 38 40  1  0
 41 39  1  0
 42 39  1  0
 43 41  2  0
 41 44  1  0
 45 42  2  0
 46 43  1  0
 44 47  2  0
 44 45  1  0
 48 46  2  0
 48 47  1  0
 47 49  1  0
  6 50  1  1
  7 51  1  0
  7 52  1  0
  8 53  1  0
  8 54  1  0
 10 55  1  0
 11 56  1  0
 12 57  1  0
 13 58  1  0
 16 59  1  6
 17 60  1  0
 17 61  1  0
 17 62  1  0
 19 63  1  0
 22 64  1  0
 28 65  1  0
 28 66  1  0
 32 67  1  0
 32 68  1  0
 33 69  1  0
 35 70  1  0
 36 71  1  0
 37 72  1  0
 38 73  1  0
 40 74  1  0
 42 75  1  0
 46 76  1  0
 49 77  1  0
 49 78  1  0
M  CHG  3   5  -1  23   1  26  -1
M  END
>  <EmbedRMS>  (56) 
0.0806422651894

$$$$

     RDKit          3D

 78 83  0  0  0  0  0  0  0  0999 V2000
   10.2838   43.7627   33.8277 C   0  0  0  0  0  0  0  0  0  0  0  0
   11.4103   43.5864   34.3767 O   0  0  0  0  0  0  0  0  0  0  0  0
    9.3631   42.7236   33.7353 O   0  0  0  0  0  0  0  0  0  0  0  0
    9.8898   41.2248   34.2935 P   0  0  0  0  0  0  0  0  0  0  0  0
   10.3734   41.4543   35.8829 O   0  0  0  0  0  0  0  0  0  0  0  0
    9.9547   45.0700   33.2065 C   0  0  1  0  0  0  0  0  0  0  0  0
   11.0197   46.0482   33.4568 N   0  0  0  0  0  0  0  0  0  0  0  0
    9.7500   44.8508   31.6925 C   0  0  0  0  0  0  0  0  0  0  0  0
    8.7942   45.8418   31.0871 C   0  0  0  0  0  0  0  0  0  0  0  0
    7.4074   45.6007   31.0993 C   0  0  0  0  0  0  0  0  0  0  0  0
    9.2833   46.9888   30.4445 C   0  0  0  0  0  0  0  0  0  0  0  0
    6.5280   46.5015   30.4833 C   0  0  0  0  0  0  0  0  0  0  0  0
    8.4040   47.8893   29.8318 C   0  0  0  0  0  0  0  0  0  0  0  0
    7.0144   47.6530   29.8495 C   0  0  0  0  0  0  0  0  0  0  0  0
    6.0881   48.5272   29.2573 O   0  0  0  0  0  0  0  0  0  0  0  0
    6.4065   49.7867   28.6589 C   0  0  1  0  0  0  0  0  0  0  0  0
    5.1658   50.3185   27.9438 C   0  0  0  0  0  0  0  0  0  0  0  0
    6.8629   50.7797   29.7150 C   0  0  0  0  0  0  0  0  0  0  0  0
    6.1499   50.8417   30.9376 C   0  0  0  0  0  0  0  0  0  0  0  0
    8.0188   51.6104   29.5345 C   0  0  0  0  0  0  0  0  0  0  0  0
    6.6214   51.6800   31.9389 C   0  0  0  0  0  0  0  0  0  0  0  0
    8.4608   52.4315   30.5963 C   0  0  0  0  0  0  0  0  0  0  0  0
    8.7403   51.6452   28.2933 N   0  0  0  0  0  0  0  0  0  0  0  0
    6.1007   51.8871   33.2017 O   0  0  0  0  0  0  0  0  0  0  0  0
    7.7310   52.4369   31.7776 C   0  0  0  0  0  0  0  0  0  0  0  0
   10.1065   51.8069   28.3018 O   0  0  0  0  0  0  0  0  0  0  0  0
    8.1267   51.7665   27.2132 O   0  0  0  0  0  0  0  0  0  0  0  0
    6.9384   52.8365   33.8752 C   0  0  0  0  0  0  0  0  0  0  0  0
    7.9668   53.1617   32.9299 O   0  0  0  0  0  0  0  0  0  0  0  0
    8.8115   40.1834   34.2126 O   0  0  0  0  0  0  0  0  0  0  0  0
   11.2402   40.7936   33.3673 O   0  0  0  0  0  0  0  0  0  0  0  0
   10.9134   40.6864   31.9955 C   0  0  0  0  0  0  0  0  0  0  0  0
   11.5166   39.3786   31.4404 C   0  0  0  0  0  0  0  0  0  0  0  0
   12.7486   39.0848   32.0734 O   0  0  0  0  0  0  0  0  0  0  0  0
   10.6039   38.1883   31.6669 C   0  0  0  0  0  0  0  0  0  0  0  0
   12.9329   37.6775   32.0284 C   0  0  0  0  0  0  0  0  0  0  0  0
    9.6373   38.0938   30.6484 O   0  0  0  0  0  0  0  0  0  0  0  0
   11.5737   37.0140   31.7055 C   0  0  0  0  0  0  0  0  0  0  0  0
   13.4853   37.2120   33.3238 N   0  0  0  0  0  0  0  0  0  0  0  0
   11.6210   36.3379   30.4683 O   0  0  0  0  0  0  0  0  0  0  0  0
   14.4804   36.3319   33.5726 C   0  0  0  0  0  0  0  0  0  0  0  0
   13.1141   37.6275   34.5689 C   0  0  0  0  0  0  0  0  0  0  0  0
   15.2076   35.6152   32.6740 N   0  0  0  0  0  0  0  0  0  0  0  0
   14.6761   36.2306   34.9181 C   0  0  0  0  0  0  0  0  0  0  0  0
   13.8218   37.0451   35.5783 N   0  0  0  0  0  0  0  0  0  0  0  0
   16.1642   34.7600   33.1548 C   0  0  0  0  0  0  0  0  0  0  0  0
   15.6528   35.3507   35.4131 C   0  0  0  0  0  0  0  0  0  0  0  0
   16.3796   34.6315   34.5043 N   0  0  0  0  0  0  0  0  0  0  0  0
   15.9001   35.1933   36.8090 N   0  0  0  0  0  0  0  0  0  0  0  0
    9.0098   45.4350   33.6672 H   0  0  0  0  0  0  0  0  0  0  0  0
   11.9348   45.6933   33.0924 H   0  0  0  0  0  0  0  0  0  0  0  0
   11.1133   46.1995   34.4881 H   0  0  0  0  0  0  0  0  0  0  0  0
    9.3506   43.8344   31.4764 H   0  0  0  0  0  0  0  0  0  0  0  0
   10.7303   44.8921   31.1676 H   0  0  0  0  0  0  0  0  0  0  0  0
    7.0108   44.7155   31.5811 H   0  0  0  0  0  0  0  0  0  0  0  0
   10.3477   47.1870   30.4147 H   0  0  0  0  0  0  0  0  0  0  0  0
    5.4635   46.3052   30.5020 H   0  0  0  0  0  0  0  0  0  0  0  0
    8.8182   48.7601   29.3447 H   0  0  0  0  0  0  0  0  0  0  0  0
    7.1873   49.6143   27.8900 H   0  0  0  0  0  0  0  0  0  0  0  0
    5.3838   51.2983   27.4680 H   0  0  0  0  0  0  0  0  0  0  0  0
    4.3246   50.4426   28.6588 H   0  0  0  0  0  0  0  0  0  0  0  0
    4.8546   49.6041   27.1524 H   0  0  0  0  0  0  0  0  0  0  0  0
    5.2688   50.2367   31.1103 H   0  0  0  0  0  0  0  0  0  0  0  0
    9.3325   53.0649   30.4940 H   0  0  0  0  0  0  0  0  0  0  0  0
    7.3836   52.3794   34.7836 H   0  0  0  0  0  0  0  0  0  0  0  0
    6.3563   53.7453   34.1359 H   0  0  0  0  0  0  0  0  0  0  0  0
   11.3831   41.5438   31.4675 H   0  0  0  0  0  0  0  0  0  0  0  0
    9.8226   40.7225   31.7629 H   0  0  0  0  0  0  0  0  0  0  0  0
   11.6978   39.5037   30.3478 H   0  0  0  0  0  0  0  0  0  0  0  0
   10.1084   38.2785   32.6626 H   0  0  0  0  0  0  0  0  0  0  0  0
   13.6638   37.4471   31.2214 H   0  0  0  0  0  0  0  0  0  0  0  0
    8.9763   37.4190   30.9532 H   0  0  0  0  0  0  0  0  0  0  0  0
   11.2821   36.3053   32.5171 H   0  0  0  0  0  0  0  0  0  0  0  0
   10.8658   35.6935   30.4652 H   0  0  0  0  0  0  0  0  0  0  0  0
   12.3293   38.3523   34.7444 H   0  0  0  0  0  0  0  0  0  0  0  0
   16.7561   34.1778   32.4621 H   0  0  0  0  0  0  0  0  0  0  0  0
   16.6345   34.5300   37.1416 H   0  0  0  0  0  0  0  0  0  0  0  0
   15.3533   35.7361   37.5138 H   0  0  0  0  0  0  0  0  0  0  0  0
  1  2  2  0
  1  3  1  0
  3  4  1  0
  4  5  1  0
  6  1  1  0
  7  6  1  0
  6  8  1  0
  8  9  1  0
  9 10  2  0
 11  9  1  0
 10 12  1  0
 13 11  2  0
 12 14  2  0
 14 13  1  0
 14 15  1  0
 15 16  1  0
 16 17  1  0
 16 18  1  0
 18 19  2  0
 20 18  1  0
 19 21  1  0
 22 20  2  0
 20 23  1  0
 21 24  1  0
 21 25  2  0
 25 22  1  0
 23 26  1  0
 23 27  2  0
 24 28  1  0
 25 29  1  0
 28 29  1  0
  4 30  2  0
  4 31  1  0
 32 31  1  0
 32 33  1  0
 33 34  1  0
 33 35  1  0
 34 36  1  0
 35 37  1  0
 35 38  1  0
 38 36  1  0
 36 39  1  0
 38 40  1  0
 41 39  1  0
 42 39  1  0
 43 41  2  0
 41 44  1  0
 45 42  2  0
 46 43  1  0
 44 47  2  0
 44 45  1  0
 48 46  2  0
 48 47  1  0
 47 49  1  0
  6 50  1  1
  7 51  1  0
  7 52  1  0
  8 53  1  0
  8 54  1  0
 10 55  1  0
 11 56  1  0
 12 57  1  0
 13 58  1  0
 16 59  1  6
 17 60  1  0
 17 61  1  0
 17 62  1  0
 19 63  1  0
 22 64  1  0
 28 65  1  0
 28 66  1  0
 32 67  1  0
 32 68  1  0
 33 69  1  0
 35 70  1  0
 36 71  1  0
 37 72  1  0
 38 73  1  0
 40 74  1  0
 42 75  1  0
 46 76  1  0
 49 77  1  0
 49 78  1  0
M  CHG  3   5  -1  23   1  26  -1
M  END
>  <EmbedRMS>  (57) 
0.083450183173

$$$$

     RDKit          3D

 78 83  0  0  0  0  0  0  0  0999 V2000
   10.2804   43.7664   33.8251 C   0  0  0  0  0  0  0  0  0  0  0  0
   11.4111   43.5919   34.3667 O   0  0  0  0  0  0  0  0  0  0  0  0
    9.3618   42.7250   33.7346 O   0  0  0  0  0  0  0  0  0  0  0  0
    9.8899   41.2267   34.2940 P   0  0  0  0  0  0  0  0  0  0  0  0
   10.3735   41.4566   35.8832 O   0  0  0  0  0  0  0  0  0  0  0  0
    9.9458   45.0736   33.2113 C   0  0  1  0  0  0  0  0  0  0  0  0
   11.0266   46.0292   33.4706 N   0  0  0  0  0  0  0  0  0  0  0  0
    9.7534   44.8539   31.6951 C   0  0  0  0  0  0  0  0  0  0  0  0
    8.7954   45.8412   31.0852 C   0  0  0  0  0  0  0  0  0  0  0  0
    7.4088   45.6001   31.1001 C   0  0  0  0  0  0  0  0  0  0  0  0
    9.2828   46.9873   30.4395 C   0  0  0  0  0  0  0  0  0  0  0  0
    6.5286   46.5004   30.4842 C   0  0  0  0  0  0  0  0  0  0  0  0
    8.4025   47.8884   29.8295 C   0  0  0  0  0  0  0  0  0  0  0  0
    7.0133   47.6529   29.8502 C   0  0  0  0  0  0  0  0  0  0  0  0
    6.0837   48.5249   29.2594 O   0  0  0  0  0  0  0  0  0  0  0  0
    6.3874   49.7930   28.6772 C   0  0  1  0  0  0  0  0  0  0  0  0
    5.1787   50.2922   27.8851 C   0  0  0  0  0  0  0  0  0  0  0  0
    6.8028   50.8049   29.7355 C   0  0  0  0  0  0  0  0  0  0  0  0
    8.0432   51.4688   29.5702 C   0  0  0  0  0  0  0  0  0  0  0  0
    5.9713   51.1515   30.8535 C   0  0  0  0  0  0  0  0  0  0  0  0
    8.4133   52.4308   30.5009 C   0  0  0  0  0  0  0  0  0  0  0  0
    6.3938   52.1486   31.7603 C   0  0  0  0  0  0  0  0  0  0  0  0
    4.7014   50.5259   31.0734 N   0  0  0  0  0  0  0  0  0  0  0  0
    9.5660   53.1918   30.5374 O   0  0  0  0  0  0  0  0  0  0  0  0
    7.6231   52.7573   31.5488 C   0  0  0  0  0  0  0  0  0  0  0  0
    4.6450   49.1951   31.4122 O   0  0  0  0  0  0  0  0  0  0  0  0
    3.6900   51.2353   31.2516 O   0  0  0  0  0  0  0  0  0  0  0  0
    9.4934   54.0497   31.6844 C   0  0  0  0  0  0  0  0  0  0  0  0
    8.2364   53.7401   32.3016 O   0  0  0  0  0  0  0  0  0  0  0  0
    8.8123   40.1844   34.2134 O   0  0  0  0  0  0  0  0  0  0  0  0
   11.2402   40.7944   33.3689 O   0  0  0  0  0  0  0  0  0  0  0  0
   10.9142   40.6898   31.9971 C   0  0  0  0  0  0  0  0  0  0  0  0
   11.5260   39.3884   31.4376 C   0  0  0  0  0  0  0  0  0  0  0  0
   12.7504   39.0888   32.0816 O   0  0  0  0  0  0  0  0  0  0  0  0
   10.6114   38.1909   31.6460 C   0  0  0  0  0  0  0  0  0  0  0  0
   12.9357   37.6812   32.0303 C   0  0  0  0  0  0  0  0  0  0  0  0
    9.6145   38.0858   30.6534 O   0  0  0  0  0  0  0  0  0  0  0  0
   11.5769   37.0148   31.7012 C   0  0  0  0  0  0  0  0  0  0  0  0
   13.4849   37.2112   33.3247 N   0  0  0  0  0  0  0  0  0  0  0  0
   11.6193   36.3261   30.4724 O   0  0  0  0  0  0  0  0  0  0  0  0
   14.4802   36.3313   33.5730 C   0  0  0  0  0  0  0  0  0  0  0  0
   13.1141   37.6268   34.5698 C   0  0  0  0  0  0  0  0  0  0  0  0
   15.2074   35.6151   32.6741 N   0  0  0  0  0  0  0  0  0  0  0  0
   14.6761   36.2300   34.9184 C   0  0  0  0  0  0  0  0  0  0  0  0
   13.8221   37.0445   35.5789 N   0  0  0  0  0  0  0  0  0  0  0  0
   16.1642   34.7600   33.1547 C   0  0  0  0  0  0  0  0  0  0  0  0
   15.6529   35.3503   35.4131 C   0  0  0  0  0  0  0  0  0  0  0  0
   16.3797   34.6314   34.5042 N   0  0  0  0  0  0  0  0  0  0  0  0
   15.9004   35.1930   36.8090 N   0  0  0  0  0  0  0  0  0  0  0  0
    8.9995   45.4382   33.6725 H   0  0  0  0  0  0  0  0  0  0  0  0
   10.7763   46.9369   33.0156 H   0  0  0  0  0  0  0  0  0  0  0  0
   11.0504   46.2279   34.4980 H   0  0  0  0  0  0  0  0  0  0  0  0
    9.3634   43.8353   31.4717 H   0  0  0  0  0  0  0  0  0  0  0  0
   10.7405   44.9069   31.1836 H   0  0  0  0  0  0  0  0  0  0  0  0
    7.0131   44.7156   31.5839 H   0  0  0  0  0  0  0  0  0  0  0  0
   10.3472   47.1844   30.4039 H   0  0  0  0  0  0  0  0  0  0  0  0
    5.4641   46.3036   30.5044 H   0  0  0  0  0  0  0  0  0  0  0  0
    8.8171   48.7550   29.3377 H   0  0  0  0  0  0  0  0  0  0  0  0
    7.2021   49.6515   27.9324 H   0  0  0  0  0  0  0  0  0  0  0  0
    5.3904   51.2933   27.4519 H   0  0  0  0  0  0  0  0  0  0  0  0
    4.9631   49.5889   27.0529 H   0  0  0  0  0  0  0  0  0  0  0  0
    4.2746   50.3568   28.5237 H   0  0  0  0  0  0  0  0  0  0  0  0
    8.6981   51.2507   28.7361 H   0  0  0  0  0  0  0  0  0  0  0  0
    5.7837   52.4304   32.6090 H   0  0  0  0  0  0  0  0  0  0  0  0
    9.5140   55.1141   31.3698 H   0  0  0  0  0  0  0  0  0  0  0  0
   10.3278   53.8287   32.3827 H   0  0  0  0  0  0  0  0  0  0  0  0
   11.3777   41.5526   31.4723 H   0  0  0  0  0  0  0  0  0  0  0  0
    9.8232   40.7190   31.7645 H   0  0  0  0  0  0  0  0  0  0  0  0
   11.7283   39.5311   30.3515 H   0  0  0  0  0  0  0  0  0  0  0  0
   10.1127   38.2734   32.6377 H   0  0  0  0  0  0  0  0  0  0  0  0
   13.6692   37.4566   31.2242 H   0  0  0  0  0  0  0  0  0  0  0  0
   10.0533   38.1118   29.7636 H   0  0  0  0  0  0  0  0  0  0  0  0
   11.2607   36.3148   32.5102 H   0  0  0  0  0  0  0  0  0  0  0  0
   12.1496   35.5023   30.6324 H   0  0  0  0  0  0  0  0  0  0  0  0
   12.3301   38.3524   34.7455 H   0  0  0  0  0  0  0  0  0  0  0  0
   16.7562   34.1781   32.4619 H   0  0  0  0  0  0  0  0  0  0  0  0
   16.6351   34.5298   37.1415 H   0  0  0  0  0  0  0  0  0  0  0  0
   15.3536   35.7357   37.5139 H   0  0  0  0  0  0  0  0  0  0  0  0
  1  2  2  0
  1  3  1  0
  3  4  1  0
  4  5  1  0
  6  1  1  0
  7  6  1  0
  6  8  1  0
  8  9  1  0
  9 10  2  0
 11  9  1  0
 10 12  1  0
 13 11  2  0
 12 14  2  0
 14 13  1  0
 14 15  1  0
 15 16  1  0
 16 17  1  0
 16 18  1  0
 18 19  2  0
 20 18  1  0
 19 21  1  0
 22 20  2  0
 20 23  1  0
 21 24  1  0
 21 25  2  0
 25 22  1  0
 23 26  1  0
 23 27  2  0
 24 28  1  0
 25 29  1  0
 28 29  1  0
  4 30  2  0
  4 31  1  0
 32 31  1  0
 32 33  1  0
 33 34  1  0
 33 35  1  0
 34 36  1  0
 35 37  1  0
 35 38  1  0
 38 36  1  0
 36 39  1  0
 38 40  1  0
 41 39  1  0
 42 39  1  0
 43 41  2  0
 41 44  1  0
 45 42  2  0
 46 43  1  0
 44 47  2  0
 44 45  1  0
 48 46  2  0
 48 47  1  0
 47 49  1  0
  6 50  1  1
  7 51  1  0
  7 52  1  0
  8 53  1  0
  8 54  1  0
 10 55  1  0
 11 56  1  0
 12 57  1  0
 13 58  1  0
 16 59  1  6
 17 60  1  0
 17 61  1  0
 17 62  1  0
 19 63  1  0
 22 64  1  0
 28 65  1  0
 28 66  1  0
 32 67  1  0
 32 68  1  0
 33 69  1  0
 35 70  1  0
 36 71  1  0
 37 72  1  0
 38 73  1  0
 40 74  1  0
 42 75  1  0
 46 76  1  0
 49 77  1  0
 49 78  1  0
M  CHG  3   5  -1  23   1  26  -1
M  END
>  <EmbedRMS>  (58) 
0.0814440435229

$$$$

     RDKit          3D

 78 83  0  0  0  0  0  0  0  0999 V2000
   10.2835   43.7627   33.8277 C   0  0  0  0  0  0  0  0  0  0  0  0
   11.4102   43.5865   34.3762 O   0  0  0  0  0  0  0  0  0  0  0  0
    9.3628   42.7236   33.7357 O   0  0  0  0  0  0  0  0  0  0  0  0
    9.8894   41.2251   34.2948 P   0  0  0  0  0  0  0  0  0  0  0  0
   10.3727   41.4556   35.8841 O   0  0  0  0  0  0  0  0  0  0  0  0
    9.9542   45.0698   33.2065 C   0  0  1  0  0  0  0  0  0  0  0  0
   11.0192   46.0480   33.4564 N   0  0  0  0  0  0  0  0  0  0  0  0
    9.7493   44.8502   31.6926 C   0  0  0  0  0  0  0  0  0  0  0  0
    8.7940   45.8413   31.0870 C   0  0  0  0  0  0  0  0  0  0  0  0
    7.4074   45.6017   31.1000 C   0  0  0  0  0  0  0  0  0  0  0  0
    9.2829   46.9880   30.4457 C   0  0  0  0  0  0  0  0  0  0  0  0
    6.5260   46.5016   30.4849 C   0  0  0  0  0  0  0  0  0  0  0  0
    8.4019   47.8870   29.8343 C   0  0  0  0  0  0  0  0  0  0  0  0
    7.0192   47.6569   29.8432 C   0  0  0  0  0  0  0  0  0  0  0  0
    6.1957   48.6068   29.2108 O   0  0  0  0  0  0  0  0  0  0  0  0
    4.7681   48.5829   29.0803 C   0  0  1  0  0  0  0  0  0  0  0  0
    4.3486   47.5036   28.0699 C   0  0  0  0  0  0  0  0  0  0  0  0
    4.0787   48.5484   30.4454 C   0  0  0  0  0  0  0  0  0  0  0  0
    3.0595   47.5967   30.7234 C   0  0  0  0  0  0  0  0  0  0  0  0
    4.4711   49.4638   31.4843 C   0  0  0  0  0  0  0  0  0  0  0  0
    2.5129   47.5580   31.9991 C   0  0  0  0  0  0  0  0  0  0  0  0
    3.8859   49.3639   32.7666 C   0  0  0  0  0  0  0  0  0  0  0  0
    5.4622   50.4826   31.2662 N   0  0  0  0  0  0  0  0  0  0  0  0
    1.5348   46.7126   32.4876 O   0  0  0  0  0  0  0  0  0  0  0  0
    2.9113   48.4004   32.9779 C   0  0  0  0  0  0  0  0  0  0  0  0
    6.3015   50.8513   32.2927 O   0  0  0  0  0  0  0  0  0  0  0  0
    5.4447   51.1739   30.2272 O   0  0  0  0  0  0  0  0  0  0  0  0
    1.3059   47.0491   33.8628 C   0  0  0  0  0  0  0  0  0  0  0  0
    2.2052   48.1326   34.1350 O   0  0  0  0  0  0  0  0  0  0  0  0
    8.8116   40.1834   34.2139 O   0  0  0  0  0  0  0  0  0  0  0  0
   11.2400   40.7931   33.3698 O   0  0  0  0  0  0  0  0  0  0  0  0
   10.9147   40.6903   31.9977 C   0  0  0  0  0  0  0  0  0  0  0  0
   11.5252   39.3887   31.4375 C   0  0  0  0  0  0  0  0  0  0  0  0
   12.7496   39.0874   32.0804 O   0  0  0  0  0  0  0  0  0  0  0  0
   10.6093   38.1927   31.6466 C   0  0  0  0  0  0  0  0  0  0  0  0
   12.9332   37.6794   32.0293 C   0  0  0  0  0  0  0  0  0  0  0  0
    9.6122   38.0898   30.6541 O   0  0  0  0  0  0  0  0  0  0  0  0
   11.5744   37.0145   31.7019 C   0  0  0  0  0  0  0  0  0  0  0  0
   13.4846   37.2105   33.3239 N   0  0  0  0  0  0  0  0  0  0  0  0
   11.6299   36.3235   30.4736 O   0  0  0  0  0  0  0  0  0  0  0  0
   14.4804   36.3309   33.5725 C   0  0  0  0  0  0  0  0  0  0  0  0
   13.1142   37.6266   34.5691 C   0  0  0  0  0  0  0  0  0  0  0  0
   15.2079   35.6146   32.6739 N   0  0  0  0  0  0  0  0  0  0  0  0
   14.6762   36.2298   34.9180 C   0  0  0  0  0  0  0  0  0  0  0  0
   13.8226   37.0447   35.5783 N   0  0  0  0  0  0  0  0  0  0  0  0
   16.1647   34.7594   33.1547 C   0  0  0  0  0  0  0  0  0  0  0  0
   15.6532   35.3502   35.4130 C   0  0  0  0  0  0  0  0  0  0  0  0
   16.3798   34.6308   34.5043 N   0  0  0  0  0  0  0  0  0  0  0  0
   15.9008   35.1937   36.8090 N   0  0  0  0  0  0  0  0  0  0  0  0
    9.0094   45.4348   33.6678 H   0  0  0  0  0  0  0  0  0  0  0  0
   11.9344   45.6936   33.0921 H   0  0  0  0  0  0  0  0  0  0  0  0
   11.1120   46.2002   34.4876 H   0  0  0  0  0  0  0  0  0  0  0  0
    9.3490   43.8338   31.4769 H   0  0  0  0  0  0  0  0  0  0  0  0
   10.7297   44.8916   31.1678 H   0  0  0  0  0  0  0  0  0  0  0  0
    7.0109   44.7175   31.5837 H   0  0  0  0  0  0  0  0  0  0  0  0
   10.3470   47.1881   30.4180 H   0  0  0  0  0  0  0  0  0  0  0  0
    5.4725   46.2810   30.5246 H   0  0  0  0  0  0  0  0  0  0  0  0
    8.7971   48.7702   29.3486 H   0  0  0  0  0  0  0  0  0  0  0  0
    4.4729   49.5436   28.6082 H   0  0  0  0  0  0  0  0  0  0  0  0
    4.5369   46.4815   28.4535 H   0  0  0  0  0  0  0  0  0  0  0  0
    3.2720   47.6089   27.8184 H   0  0  0  0  0  0  0  0  0  0  0  0
    4.9294   47.6295   27.1316 H   0  0  0  0  0  0  0  0  0  0  0  0
    2.7072   46.8869   29.9891 H   0  0  0  0  0  0  0  0  0  0  0  0
    4.1686   50.0330   33.5687 H   0  0  0  0  0  0  0  0  0  0  0  0
    1.5423   46.1820   34.5147 H   0  0  0  0  0  0  0  0  0  0  0  0
    0.2550   47.3776   34.0081 H   0  0  0  0  0  0  0  0  0  0  0  0
    9.8237   40.7210   31.7646 H   0  0  0  0  0  0  0  0  0  0  0  0
   11.3793   41.5532   31.4739 H   0  0  0  0  0  0  0  0  0  0  0  0
   11.7268   39.5314   30.3512 H   0  0  0  0  0  0  0  0  0  0  0  0
   10.1111   38.2747   32.6383 H   0  0  0  0  0  0  0  0  0  0  0  0
   13.6651   37.4531   31.2222 H   0  0  0  0  0  0  0  0  0  0  0  0
   10.0513   38.1128   29.7645 H   0  0  0  0  0  0  0  0  0  0  0  0
   11.2763   36.3150   32.5188 H   0  0  0  0  0  0  0  0  0  0  0  0
   10.8593   35.6974   30.4630 H   0  0  0  0  0  0  0  0  0  0  0  0
   12.3299   38.3518   34.7450 H   0  0  0  0  0  0  0  0  0  0  0  0
   16.7568   34.1769   32.4622 H   0  0  0  0  0  0  0  0  0  0  0  0
   16.6347   34.5300   37.1420 H   0  0  0  0  0  0  0  0  0  0  0  0
   15.3531   35.7360   37.5136 H   0  0  0  0  0  0  0  0  0  0  0  0
  1  2  2  0
  1  3  1  0
  3  4  1  0
  4  5  1  0
  6  1  1  0
  7  6  1  0
  6  8  1  0
  8  9  1  0
  9 10  2  0
 11  9  1  0
 10 12  1  0
 13 11  2  0
 12 14  2  0
 14 13  1  0
 14 15  1  0
 15 16  1  0
 16 17  1  0
 16 18  1  0
 18 19  2  0
 20 18  1  0
 19 21  1  0
 22 20  2  0
 20 23  1  0
 21 24  1  0
 21 25  2  0
 25 22  1  0
 23 26  1  0
 23 27  2  0
 24 28  1  0
 25 29  1  0
 28 29  1  0
  4 30  2  0
  4 31  1  0
 32 31  1  0
 32 33  1  0
 33 34  1  0
 33 35  1  0
 34 36  1  0
 35 37  1  0
 35 38  1  0
 38 36  1  0
 36 39  1  0
 38 40  1  0
 41 39  1  0
 42 39  1  0
 43 41  2  0
 41 44  1  0
 45 42  2  0
 46 43  1  0
 44 47  2  0
 44 45  1  0
 48 46  2  0
 48 47  1  0
 47 49  1  0
  6 50  1  1
  7 51  1  0
  7 52  1  0
  8 53  1  0
  8 54  1  0
 10 55  1  0
 11 56  1  0
 12 57  1  0
 13 58  1  0
 16 59  1  6
 17 60  1  0
 17 61  1  0
 17 62  1  0
 19 63  1  0
 22 64  1  0
 28 65  1  0
 28 66  1  0
 32 67  1  0
 32 68  1  0
 33 69  1  0
 35 70  1  0
 36 71  1  0
 37 72  1  0
 38 73  1  0
 40 74  1  0
 42 75  1  0
 46 76  1  0
 49 77  1  0
 49 78  1  0
M  CHG  3   5  -1  23   1  26  -1
M  END
>  <EmbedRMS>  (59) 
0.0825702248517

$$$$

     RDKit          3D

 78 83  0  0  0  0  0  0  0  0999 V2000
   10.2834   43.7662   33.8257 C   0  0  0  0  0  0  0  0  0  0  0  0
   11.4102   43.5930   34.3752 O   0  0  0  0  0  0  0  0  0  0  0  0
    9.3635   42.7257   33.7352 O   0  0  0  0  0  0  0  0  0  0  0  0
    9.8902   41.2269   34.2942 P   0  0  0  0  0  0  0  0  0  0  0  0
   10.3739   41.4560   35.8835 O   0  0  0  0  0  0  0  0  0  0  0  0
    9.9548   45.0696   33.2037 C   0  0  1  0  0  0  0  0  0  0  0  0
   11.0274   46.0322   33.4760 N   0  0  0  0  0  0  0  0  0  0  0  0
    9.7471   44.8485   31.6877 C   0  0  0  0  0  0  0  0  0  0  0  0
    8.7926   45.8412   31.0848 C   0  0  0  0  0  0  0  0  0  0  0  0
    7.4061   45.6010   31.0991 C   0  0  0  0  0  0  0  0  0  0  0  0
    9.2817   46.9876   30.4419 C   0  0  0  0  0  0  0  0  0  0  0  0
    6.5243   46.5004   30.4839 C   0  0  0  0  0  0  0  0  0  0  0  0
    8.4005   47.8872   29.8315 C   0  0  0  0  0  0  0  0  0  0  0  0
    7.0181   47.6581   29.8471 C   0  0  0  0  0  0  0  0  0  0  0  0
    6.1877   48.5968   29.2123 O   0  0  0  0  0  0  0  0  0  0  0  0
    4.7600   48.6214   29.2506 C   0  0  1  0  0  0  0  0  0  0  0  0
    4.2499   49.0465   30.6345 C   0  0  0  0  0  0  0  0  0  0  0  0
    4.2362   49.5451   28.1620 C   0  0  0  0  0  0  0  0  0  0  0  0
    3.3964   48.9867   27.1655 C   0  0  0  0  0  0  0  0  0  0  0  0
    4.5183   50.9545   28.1235 C   0  0  0  0  0  0  0  0  0  0  0  0
    2.8617   49.8251   26.1964 C   0  0  0  0  0  0  0  0  0  0  0  0
    3.9324   51.7592   27.1203 C   0  0  0  0  0  0  0  0  0  0  0  0
    5.3731   51.5856   29.0869 N   0  0  0  0  0  0  0  0  0  0  0  0
    2.0249   49.4995   25.1462 O   0  0  0  0  0  0  0  0  0  0  0  0
    3.1158   51.1529   26.1764 C   0  0  0  0  0  0  0  0  0  0  0  0
    6.6833   51.1885   29.2109 O   0  0  0  0  0  0  0  0  0  0  0  0
    5.0167   52.6563   29.6205 O   0  0  0  0  0  0  0  0  0  0  0  0
    1.7370   50.7026   24.4206 C   0  0  0  0  0  0  0  0  0  0  0  0
    2.4535   51.7344   25.1125 O   0  0  0  0  0  0  0  0  0  0  0  0
    8.8120   40.1852   34.2131 O   0  0  0  0  0  0  0  0  0  0  0  0
   11.2402   40.7951   33.3682 O   0  0  0  0  0  0  0  0  0  0  0  0
   10.9126   40.6877   31.9968 C   0  0  0  0  0  0  0  0  0  0  0  0
   11.5169   39.3811   31.4420 C   0  0  0  0  0  0  0  0  0  0  0  0
   12.7500   39.0881   32.0759 O   0  0  0  0  0  0  0  0  0  0  0  0
   10.6043   38.1893   31.6659 C   0  0  0  0  0  0  0  0  0  0  0  0
   12.9395   37.6814   32.0280 C   0  0  0  0  0  0  0  0  0  0  0  0
    9.6353   38.0951   30.6499 O   0  0  0  0  0  0  0  0  0  0  0  0
   11.5804   37.0191   31.6934 C   0  0  0  0  0  0  0  0  0  0  0  0
   13.4851   37.2119   33.3244 N   0  0  0  0  0  0  0  0  0  0  0  0
   11.6118   36.3189   30.4673 O   0  0  0  0  0  0  0  0  0  0  0  0
   14.4801   36.3316   33.5732 C   0  0  0  0  0  0  0  0  0  0  0  0
   13.1139   37.6277   34.5692 C   0  0  0  0  0  0  0  0  0  0  0  0
   15.2076   35.6154   32.6744 N   0  0  0  0  0  0  0  0  0  0  0  0
   14.6756   36.2303   34.9186 C   0  0  0  0  0  0  0  0  0  0  0  0
   13.8215   37.0451   35.5786 N   0  0  0  0  0  0  0  0  0  0  0  0
   16.1642   34.7602   33.1551 C   0  0  0  0  0  0  0  0  0  0  0  0
   15.6526   35.3505   35.4134 C   0  0  0  0  0  0  0  0  0  0  0  0
   16.3796   34.6316   34.5045 N   0  0  0  0  0  0  0  0  0  0  0  0
   15.9001   35.1933   36.8093 N   0  0  0  0  0  0  0  0  0  0  0  0
    9.0121   45.4318   33.6714 H   0  0  0  0  0  0  0  0  0  0  0  0
   10.7262   46.9688   33.1215 H   0  0  0  0  0  0  0  0  0  0  0  0
   11.8909   45.7658   32.9477 H   0  0  0  0  0  0  0  0  0  0  0  0
   10.7236   44.8825   31.1559 H   0  0  0  0  0  0  0  0  0  0  0  0
    9.3425   43.8332   31.4759 H   0  0  0  0  0  0  0  0  0  0  0  0
    7.0108   44.7143   31.5794 H   0  0  0  0  0  0  0  0  0  0  0  0
   10.3460   47.1857   30.4096 H   0  0  0  0  0  0  0  0  0  0  0  0
    5.4684   46.2754   30.5073 H   0  0  0  0  0  0  0  0  0  0  0  0
    8.7944   48.7685   29.3412 H   0  0  0  0  0  0  0  0  0  0  0  0
    4.3817   47.5949   29.0543 H   0  0  0  0  0  0  0  0  0  0  0  0
    3.1484   49.1893   30.6096 H   0  0  0  0  0  0  0  0  0  0  0  0
    4.4757   48.2640   31.3871 H   0  0  0  0  0  0  0  0  0  0  0  0
    4.7302   49.9863   30.9720 H   0  0  0  0  0  0  0  0  0  0  0  0
    3.1543   47.9315   27.1500 H   0  0  0  0  0  0  0  0  0  0  0  0
    4.1228   52.8238   27.0715 H   0  0  0  0  0  0  0  0  0  0  0  0
    0.6471   50.9125   24.4420 H   0  0  0  0  0  0  0  0  0  0  0  0
    2.1018   50.6175   23.3755 H   0  0  0  0  0  0  0  0  0  0  0  0
    9.8216   40.7222   31.7646 H   0  0  0  0  0  0  0  0  0  0  0  0
   11.3809   41.5456   31.4686 H   0  0  0  0  0  0  0  0  0  0  0  0
   11.6986   39.5089   30.3499 H   0  0  0  0  0  0  0  0  0  0  0  0
   10.1109   38.2737   32.6630 H   0  0  0  0  0  0  0  0  0  0  0  0
   13.6783   37.4562   31.2271 H   0  0  0  0  0  0  0  0  0  0  0  0
    9.0020   37.3860   30.9348 H   0  0  0  0  0  0  0  0  0  0  0  0
   11.2807   36.3053   32.4921 H   0  0  0  0  0  0  0  0  0  0  0  0
   11.8818   36.9600   29.7584 H   0  0  0  0  0  0  0  0  0  0  0  0
   12.3303   38.3538   34.7445 H   0  0  0  0  0  0  0  0  0  0  0  0
   16.7564   34.1783   32.4623 H   0  0  0  0  0  0  0  0  0  0  0  0
   15.3532   35.7359   37.5142 H   0  0  0  0  0  0  0  0  0  0  0  0
   16.6348   34.5301   37.1418 H   0  0  0  0  0  0  0  0  0  0  0  0
  1  2  2  0
  1  3  1  0
  3  4  1  0
  4  5  1  0
  6  1  1  0
  7  6  1  0
  6  8  1  0
  8  9  1  0
  9 10  2  0
 11  9  1  0
 10 12  1  0
 13 11  2  0
 12 14  2  0
 14 13  1  0
 14 15  1  0
 15 16  1  0
 16 17  1  0
 16 18  1  0
 18 19  2  0
 20 18  1  0
 19 21  1  0
 22 20  2  0
 20 23  1  0
 21 24  1  0
 21 25  2  0
 25 22  1  0
 23 26  1  0
 23 27  2  0
 24 28  1  0
 25 29  1  0
 28 29  1  0
  4 30  2  0
  4 31  1  0
 32 31  1  0
 32 33  1  0
 33 34  1  0
 33 35  1  0
 34 36  1  0
 35 37  1  0
 35 38  1  0
 38 36  1  0
 36 39  1  0
 38 40  1  0
 41 39  1  0
 42 39  1  0
 43 41  2  0
 41 44  1  0
 45 42  2  0
 46 43  1  0
 44 47  2  0
 44 45  1  0
 48 46  2  0
 48 47  1  0
 47 49  1  0
  6 50  1  1
  7 51  1  0
  7 52  1  0
  8 53  1  0
  8 54  1  0
 10 55  1  0
 11 56  1  0
 12 57  1  0
 13 58  1  0
 16 59  1  6
 17 60  1  0
 17 61  1  0
 17 62  1  0
 19 63  1  0
 22 64  1  0
 28 65  1  0
 28 66  1  0
 32 67  1  0
 32 68  1  0
 33 69  1  0
 35 70  1  0
 36 71  1  0
 37 72  1  0
 38 73  1  0
 40 74  1  0
 42 75  1  0
 46 76  1  0
 49 77  1  0
 49 78  1  0
M  CHG  3   5  -1  23   1  26  -1
M  END
>  <EmbedRMS>  (60) 
0.0815380579294

$$$$

     RDKit          3D

 78 83  0  0  0  0  0  0  0  0999 V2000
   10.2834   43.7662   33.8256 C   0  0  0  0  0  0  0  0  0  0  0  0
   11.4102   43.5930   34.3752 O   0  0  0  0  0  0  0  0  0  0  0  0
    9.3635   42.7257   33.7351 O   0  0  0  0  0  0  0  0  0  0  0  0
    9.8899   41.2270   34.2947 P   0  0  0  0  0  0  0  0  0  0  0  0
   10.3732   41.4563   35.8841 O   0  0  0  0  0  0  0  0  0  0  0  0
    9.9548   45.0696   33.2034 C   0  0  1  0  0  0  0  0  0  0  0  0
   11.0274   46.0322   33.4759 N   0  0  0  0  0  0  0  0  0  0  0  0
    9.7472   44.8485   31.6874 C   0  0  0  0  0  0  0  0  0  0  0  0
    8.7925   45.8410   31.0844 C   0  0  0  0  0  0  0  0  0  0  0  0
    7.4058   45.6012   31.0999 C   0  0  0  0  0  0  0  0  0  0  0  0
    9.2816   46.9884   30.4426 C   0  0  0  0  0  0  0  0  0  0  0  0
    6.5244   46.5011   30.4858 C   0  0  0  0  0  0  0  0  0  0  0  0
    8.4003   47.8886   29.8329 C   0  0  0  0  0  0  0  0  0  0  0  0
    7.0190   47.6551   29.8440 C   0  0  0  0  0  0  0  0  0  0  0  0
    6.1832   48.5844   29.2026 O   0  0  0  0  0  0  0  0  0  0  0  0
    4.7671   48.4573   29.0551 C   0  0  1  0  0  0  0  0  0  0  0  0
    4.1782   49.7706   28.5412 C   0  0  0  0  0  0  0  0  0  0  0  0
    4.3833   47.3039   28.1391 C   0  0  0  0  0  0  0  0  0  0  0  0
    3.1826   46.6147   28.4368 C   0  0  0  0  0  0  0  0  0  0  0  0
    5.1914   46.8562   27.0356 C   0  0  0  0  0  0  0  0  0  0  0  0
    2.8397   45.5101   27.6693 C   0  0  0  0  0  0  0  0  0  0  0  0
    4.7971   45.7147   26.3017 C   0  0  0  0  0  0  0  0  0  0  0  0
    6.4060   47.5202   26.6534 N   0  0  0  0  0  0  0  0  0  0  0  0
    1.7321   44.6927   27.7873 O   0  0  0  0  0  0  0  0  0  0  0  0
    3.6147   45.0766   26.6498 C   0  0  0  0  0  0  0  0  0  0  0  0
    7.4867   46.7775   26.2374 O   0  0  0  0  0  0  0  0  0  0  0  0
    6.4238   48.7554   26.4811 O   0  0  0  0  0  0  0  0  0  0  0  0
    1.8192   43.6811   26.7744 C   0  0  0  0  0  0  0  0  0  0  0  0
    3.0364   43.9635   26.0707 O   0  0  0  0  0  0  0  0  0  0  0  0
    8.8120   40.1851   34.2132 O   0  0  0  0  0  0  0  0  0  0  0  0
   11.2402   40.7947   33.3700 O   0  0  0  0  0  0  0  0  0  0  0  0
   10.9144   40.6914   31.9982 C   0  0  0  0  0  0  0  0  0  0  0  0
   11.5270   39.3912   31.4385 C   0  0  0  0  0  0  0  0  0  0  0  0
   12.7520   39.0911   32.0836 O   0  0  0  0  0  0  0  0  0  0  0  0
   10.6113   38.1932   31.6451 C   0  0  0  0  0  0  0  0  0  0  0  0
   12.9413   37.6838   32.0297 C   0  0  0  0  0  0  0  0  0  0  0  0
    9.6064   38.0878   30.6599 O   0  0  0  0  0  0  0  0  0  0  0  0
   11.5822   37.0198   31.6877 C   0  0  0  0  0  0  0  0  0  0  0  0
   13.4840   37.2104   33.3254 N   0  0  0  0  0  0  0  0  0  0  0  0
   11.6179   36.3072   30.4690 O   0  0  0  0  0  0  0  0  0  0  0  0
   14.4797   36.3309   33.5738 C   0  0  0  0  0  0  0  0  0  0  0  0
   13.1136   37.6269   34.5702 C   0  0  0  0  0  0  0  0  0  0  0  0
   15.2074   35.6152   32.6747 N   0  0  0  0  0  0  0  0  0  0  0  0
   14.6756   36.2298   34.9190 C   0  0  0  0  0  0  0  0  0  0  0  0
   13.8217   37.0445   35.5793 N   0  0  0  0  0  0  0  0  0  0  0  0
   16.1643   34.7603   33.1551 C   0  0  0  0  0  0  0  0  0  0  0  0
   15.6528   35.3503   35.4136 C   0  0  0  0  0  0  0  0  0  0  0  0
   16.3798   34.6315   34.5046 N   0  0  0  0  0  0  0  0  0  0  0  0
   15.9004   35.1930   36.8094 N   0  0  0  0  0  0  0  0  0  0  0  0
    9.0121   45.4318   33.6711 H   0  0  0  0  0  0  0  0  0  0  0  0
   10.7262   46.9688   33.1214 H   0  0  0  0  0  0  0  0  0  0  0  0
   11.8909   45.7659   32.9475 H   0  0  0  0  0  0  0  0  0  0  0  0
   10.7236   44.8826   31.1556 H   0  0  0  0  0  0  0  0  0  0  0  0
    9.3426   43.8332   31.4756 H   0  0  0  0  0  0  0  0  0  0  0  0
    7.0102   44.7160   31.5828 H   0  0  0  0  0  0  0  0  0  0  0  0
   10.3459   47.1867   30.4105 H   0  0  0  0  0  0  0  0  0  0  0  0
    5.4658   46.2864   30.5168 H   0  0  0  0  0  0  0  0  0  0  0  0
    8.7935   48.7688   29.3401 H   0  0  0  0  0  0  0  0  0  0  0  0
    4.3327   48.2946   30.0672 H   0  0  0  0  0  0  0  0  0  0  0  0
    4.5306   50.0004   27.5160 H   0  0  0  0  0  0  0  0  0  0  0  0
    4.4758   50.6031   29.2135 H   0  0  0  0  0  0  0  0  0  0  0  0
    3.0688   49.7109   28.5288 H   0  0  0  0  0  0  0  0  0  0  0  0
    2.5423   46.9218   29.2543 H   0  0  0  0  0  0  0  0  0  0  0  0
    5.3870   45.3476   25.4717 H   0  0  0  0  0  0  0  0  0  0  0  0
    0.9523   43.7526   26.0846 H   0  0  0  0  0  0  0  0  0  0  0  0
    1.8706   42.6747   27.2402 H   0  0  0  0  0  0  0  0  0  0  0  0
    9.8234   40.7201   31.7654 H   0  0  0  0  0  0  0  0  0  0  0  0
   11.3776   41.5549   31.4744 H   0  0  0  0  0  0  0  0  0  0  0  0
   11.7312   39.5363   30.3532 H   0  0  0  0  0  0  0  0  0  0  0  0
   10.1203   38.2696   32.6410 H   0  0  0  0  0  0  0  0  0  0  0  0
   13.6850   37.4639   31.2321 H   0  0  0  0  0  0  0  0  0  0  0  0
   10.0250   38.1793   29.7654 H   0  0  0  0  0  0  0  0  0  0  0  0
   11.2757   36.3135   32.4907 H   0  0  0  0  0  0  0  0  0  0  0  0
   11.9837   36.9111   29.7708 H   0  0  0  0  0  0  0  0  0  0  0  0
   12.3307   38.3536   34.7457 H   0  0  0  0  0  0  0  0  0  0  0  0
   16.7565   34.1787   32.4623 H   0  0  0  0  0  0  0  0  0  0  0  0
   16.6353   34.5300   37.1419 H   0  0  0  0  0  0  0  0  0  0  0  0
   15.3535   35.7355   37.5144 H   0  0  0  0  0  0  0  0  0  0  0  0
  1  2  2  0
  1  3  1  0
  3  4  1  0
  4  5  1  0
  6  1  1  0
  7  6  1  0
  6  8  1  0
  8  9  1  0
  9 10  2  0
 11  9  1  0
 10 12  1  0
 13 11  2  0
 12 14  2  0
 14 13  1  0
 14 15  1  0
 15 16  1  0
 16 17  1  0
 16 18  1  0
 18 19  2  0
 20 18  1  0
 19 21  1  0
 22 20  2  0
 20 23  1  0
 21 24  1  0
 21 25  2  0
 25 22  1  0
 23 26  1  0
 23 27  2  0
 24 28  1  0
 25 29  1  0
 28 29  1  0
  4 30  2  0
  4 31  1  0
 32 31  1  0
 32 33  1  0
 33 34  1  0
 33 35  1  0
 34 36  1  0
 35 37  1  0
 35 38  1  0
 38 36  1  0
 36 39  1  0
 38 40  1  0
 41 39  1  0
 42 39  1  0
 43 41  2  0
 41 44  1  0
 45 42  2  0
 46 43  1  0
 44 47  2  0
 44 45  1  0
 48 46  2  0
 48 47  1  0
 47 49  1  0
  6 50  1  1
  7 51  1  0
  7 52  1  0
  8 53  1  0
  8 54  1  0
 10 55  1  0
 11 56  1  0
 12 57  1  0
 13 58  1  0
 16 59  1  1
 17 60  1  0
 17 61  1  0
 17 62  1  0
 19 63  1  0
 22 64  1  0
 28 65  1  0
 28 66  1  0
 32 67  1  0
 32 68  1  0
 33 69  1  0
 35 70  1  0
 36 71  1  0
 37 72  1  0
 38 73  1  0
 40 74  1  0
 42 75  1  0
 46 76  1  0
 49 77  1  0
 49 78  1  0
M  CHG  3   5  -1  23   1  26  -1
M  END
>  <EmbedRMS>  (61) 
0.0808298102763

$$$$

     RDKit          3D

 78 83  0  0  0  0  0  0  0  0999 V2000
   10.2834   43.7662   33.8257 C   0  0  0  0  0  0  0  0  0  0  0  0
   11.4102   43.5931   34.3752 O   0  0  0  0  0  0  0  0  0  0  0  0
    9.3637   42.7256   33.7349 O   0  0  0  0  0  0  0  0  0  0  0  0
    9.8905   41.2266   34.2934 P   0  0  0  0  0  0  0  0  0  0  0  0
   10.3744   41.4557   35.8827 O   0  0  0  0  0  0  0  0  0  0  0  0
    9.9546   45.0695   33.2036 C   0  0  1  0  0  0  0  0  0  0  0  0
   11.0272   46.0323   33.4756 N   0  0  0  0  0  0  0  0  0  0  0  0
    9.7466   44.8481   31.6877 C   0  0  0  0  0  0  0  0  0  0  0  0
    8.7923   45.8407   31.0844 C   0  0  0  0  0  0  0  0  0  0  0  0
    7.4056   45.6013   31.0985 C   0  0  0  0  0  0  0  0  0  0  0  0
    9.2823   46.9876   30.4421 C   0  0  0  0  0  0  0  0  0  0  0  0
    6.5268   46.5030   30.4834 C   0  0  0  0  0  0  0  0  0  0  0  0
    8.4032   47.8895   29.8314 C   0  0  0  0  0  0  0  0  0  0  0  0
    7.0140   47.6538   29.8488 C   0  0  0  0  0  0  0  0  0  0  0  0
    6.0882   48.5283   29.2567 O   0  0  0  0  0  0  0  0  0  0  0  0
    6.4088   49.7708   28.6238 C   0  0  1  0  0  0  0  0  0  0  0  0
    5.1592   50.3017   27.9252 C   0  0  0  0  0  0  0  0  0  0  0  0
    6.8975   50.7920   29.6389 C   0  0  0  0  0  0  0  0  0  0  0  0
    6.2840   50.8294   30.9159 C   0  0  0  0  0  0  0  0  0  0  0  0
    7.8849   51.7789   29.3094 C   0  0  0  0  0  0  0  0  0  0  0  0
    6.6765   51.8140   31.8130 C   0  0  0  0  0  0  0  0  0  0  0  0
    8.2319   52.7669   30.2570 C   0  0  0  0  0  0  0  0  0  0  0  0
    8.5190   51.8136   28.0239 N   0  0  0  0  0  0  0  0  0  0  0  0
    6.2237   52.0336   33.0997 O   0  0  0  0  0  0  0  0  0  0  0  0
    7.6087   52.7422   31.4974 C   0  0  0  0  0  0  0  0  0  0  0  0
    8.6581   53.0169   27.3720 O   0  0  0  0  0  0  0  0  0  0  0  0
    9.1912   50.8375   27.6337 O   0  0  0  0  0  0  0  0  0  0  0  0
    6.9199   53.1720   33.6253 C   0  0  0  0  0  0  0  0  0  0  0  0
    7.7938   53.5939   32.5693 O   0  0  0  0  0  0  0  0  0  0  0  0
    8.8122   40.1851   34.2128 O   0  0  0  0  0  0  0  0  0  0  0  0
   11.2403   40.7946   33.3668 O   0  0  0  0  0  0  0  0  0  0  0  0
   10.9126   40.6859   31.9954 C   0  0  0  0  0  0  0  0  0  0  0  0
   11.5175   39.3787   31.4405 C   0  0  0  0  0  0  0  0  0  0  0  0
   12.7490   39.0864   32.0752 O   0  0  0  0  0  0  0  0  0  0  0  0
   10.6061   38.1868   31.6656 C   0  0  0  0  0  0  0  0  0  0  0  0
   12.9355   37.6796   32.0292 C   0  0  0  0  0  0  0  0  0  0  0  0
    9.6399   38.0903   30.6471 O   0  0  0  0  0  0  0  0  0  0  0  0
   11.5765   37.0145   31.7044 C   0  0  0  0  0  0  0  0  0  0  0  0
   13.4858   37.2125   33.3244 N   0  0  0  0  0  0  0  0  0  0  0  0
   11.6101   36.3397   30.4673 O   0  0  0  0  0  0  0  0  0  0  0  0
   14.4805   36.3319   33.5729 C   0  0  0  0  0  0  0  0  0  0  0  0
   13.1143   37.6276   34.5694 C   0  0  0  0  0  0  0  0  0  0  0  0
   15.2076   35.6153   32.6741 N   0  0  0  0  0  0  0  0  0  0  0  0
   14.6760   36.2304   34.9184 C   0  0  0  0  0  0  0  0  0  0  0  0
   13.8219   37.0449   35.5786 N   0  0  0  0  0  0  0  0  0  0  0  0
   16.1641   34.7600   33.1548 C   0  0  0  0  0  0  0  0  0  0  0  0
   15.6528   35.3505   35.4132 C   0  0  0  0  0  0  0  0  0  0  0  0
   16.3795   34.6314   34.5043 N   0  0  0  0  0  0  0  0  0  0  0  0
   15.9002   35.1931   36.8091 N   0  0  0  0  0  0  0  0  0  0  0  0
    9.0120   45.4318   33.6714 H   0  0  0  0  0  0  0  0  0  0  0  0
   10.7257   46.9689   33.1214 H   0  0  0  0  0  0  0  0  0  0  0  0
   11.8905   45.7661   32.9469 H   0  0  0  0  0  0  0  0  0  0  0  0
    9.3414   43.8329   31.4763 H   0  0  0  0  0  0  0  0  0  0  0  0
   10.7230   44.8814   31.1557 H   0  0  0  0  0  0  0  0  0  0  0  0
    7.0083   44.7165   31.5806 H   0  0  0  0  0  0  0  0  0  0  0  0
   10.3469   47.1846   30.4111 H   0  0  0  0  0  0  0  0  0  0  0  0
    5.4621   46.3078   30.5027 H   0  0  0  0  0  0  0  0  0  0  0  0
    8.8162   48.7621   29.3481 H   0  0  0  0  0  0  0  0  0  0  0  0
    7.1615   49.5737   27.8364 H   0  0  0  0  0  0  0  0  0  0  0  0
    5.3872   51.2553   27.4022 H   0  0  0  0  0  0  0  0  0  0  0  0
    4.3449   50.4759   28.6610 H   0  0  0  0  0  0  0  0  0  0  0  0
    4.8066   49.5636   27.1739 H   0  0  0  0  0  0  0  0  0  0  0  0
    5.5150   50.1215   31.1976 H   0  0  0  0  0  0  0  0  0  0  0  0
    8.9720   53.5246   30.0335 H   0  0  0  0  0  0  0  0  0  0  0  0
    6.2010   53.9806   33.8740 H   0  0  0  0  0  0  0  0  0  0  0  0
    7.5112   52.8815   34.5189 H   0  0  0  0  0  0  0  0  0  0  0  0
    9.8215   40.7200   31.7636 H   0  0  0  0  0  0  0  0  0  0  0  0
   11.3803   41.5437   31.4663 H   0  0  0  0  0  0  0  0  0  0  0  0
   11.6998   39.5041   30.3482 H   0  0  0  0  0  0  0  0  0  0  0  0
   10.1085   38.2767   32.6603 H   0  0  0  0  0  0  0  0  0  0  0  0
   13.6679   37.4520   31.2229 H   0  0  0  0  0  0  0  0  0  0  0  0
    9.0016   37.3868   30.9349 H   0  0  0  0  0  0  0  0  0  0  0  0
   11.2666   36.3062   32.5084 H   0  0  0  0  0  0  0  0  0  0  0  0
   12.1389   35.5126   30.6150 H   0  0  0  0  0  0  0  0  0  0  0  0
   12.3300   38.3529   34.7449 H   0  0  0  0  0  0  0  0  0  0  0  0
   16.7560   34.1779   32.4621 H   0  0  0  0  0  0  0  0  0  0  0  0
   16.6347   34.5298   37.1416 H   0  0  0  0  0  0  0  0  0  0  0  0
   15.3534   35.7359   37.5140 H   0  0  0  0  0  0  0  0  0  0  0  0
  1  2  2  0
  1  3  1  0
  3  4  1  0
  4  5  1  0
  6  1  1  0
  7  6  1  0
  6  8  1  0
  8  9  1  0
  9 10  2  0
 11  9  1  0
 10 12  1  0
 13 11  2  0
 12 14  2  0
 14 13  1  0
 14 15  1  0
 15 16  1  0
 16 17  1  0
 16 18  1  0
 18 19  2  0
 20 18  1  0
 19 21  1  0
 22 20  2  0
 20 23  1  0
 21 24  1  0
 21 25  2  0
 25 22  1  0
 23 26  1  0
 23 27  2  0
 24 28  1  0
 25 29  1  0
 28 29  1  0
  4 30  2  0
  4 31  1  0
 32 31  1  0
 32 33  1  0
 33 34  1  0
 33 35  1  0
 34 36  1  0
 35 37  1  0
 35 38  1  0
 38 36  1  0
 36 39  1  0
 38 40  1  0
 41 39  1  0
 42 39  1  0
 43 41  2  0
 41 44  1  0
 45 42  2  0
 46 43  1  0
 44 47  2  0
 44 45  1  0
 48 46  2  0
 48 47  1  0
 47 49  1  0
  6 50  1  1
  7 51  1  0
  7 52  1  0
  8 53  1  0
  8 54  1  0
 10 55  1  0
 11 56  1  0
 12 57  1  0
 13 58  1  0
 16 59  1  6
 17 60  1  0
 17 61  1  0
 17 62  1  0
 19 63  1  0
 22 64  1  0
 28 65  1  0
 28 66  1  0
 32 67  1  0
 32 68  1  0
 33 69  1  0
 35 70  1  0
 36 71  1  0
 37 72  1  0
 38 73  1  0
 40 74  1  0
 42 75  1  0
 46 76  1  0
 49 77  1  0
 49 78  1  0
M  CHG  3   5  -1  23   1  26  -1
M  END
>  <EmbedRMS>  (62) 
0.0824037695165

$$$$

     RDKit          3D

 78 83  0  0  0  0  0  0  0  0999 V2000
   10.2804   43.7664   33.8250 C   0  0  0  0  0  0  0  0  0  0  0  0
   11.4111   43.5919   34.3666 O   0  0  0  0  0  0  0  0  0  0  0  0
    9.3619   42.7249   33.7345 O   0  0  0  0  0  0  0  0  0  0  0  0
    9.8900   41.2266   34.2940 P   0  0  0  0  0  0  0  0  0  0  0  0
   10.3735   41.4567   35.8833 O   0  0  0  0  0  0  0  0  0  0  0  0
    9.9457   45.0735   33.2112 C   0  0  1  0  0  0  0  0  0  0  0  0
   11.0265   46.0292   33.4705 N   0  0  0  0  0  0  0  0  0  0  0  0
    9.7532   44.8536   31.6951 C   0  0  0  0  0  0  0  0  0  0  0  0
    8.7954   45.8409   31.0848 C   0  0  0  0  0  0  0  0  0  0  0  0
    7.4085   45.6002   31.0999 C   0  0  0  0  0  0  0  0  0  0  0  0
    9.2832   46.9869   30.4392 C   0  0  0  0  0  0  0  0  0  0  0  0
    6.5282   46.5010   30.4847 C   0  0  0  0  0  0  0  0  0  0  0  0
    8.4031   47.8882   29.8295 C   0  0  0  0  0  0  0  0  0  0  0  0
    7.0136   47.6531   29.8509 C   0  0  0  0  0  0  0  0  0  0  0  0
    6.0864   48.5299   29.2639 O   0  0  0  0  0  0  0  0  0  0  0  0
    6.4037   49.7938   28.6740 C   0  0  1  0  0  0  0  0  0  0  0  0
    5.1600   50.3341   27.9708 C   0  0  0  0  0  0  0  0  0  0  0  0
    6.8691   50.7769   29.7356 C   0  0  0  0  0  0  0  0  0  0  0  0
    6.1635   50.8308   30.9627 C   0  0  0  0  0  0  0  0  0  0  0  0
    8.0285   51.6031   29.5566 C   0  0  0  0  0  0  0  0  0  0  0  0
    6.6464   51.6555   31.9700 C   0  0  0  0  0  0  0  0  0  0  0  0
    8.4820   52.4101   30.6245 C   0  0  0  0  0  0  0  0  0  0  0  0
    8.7424   51.6468   28.3113 N   0  0  0  0  0  0  0  0  0  0  0  0
    6.1349   51.8519   33.2383 O   0  0  0  0  0  0  0  0  0  0  0  0
    7.7598   52.4069   31.8104 C   0  0  0  0  0  0  0  0  0  0  0  0
   10.1093   51.8030   28.3126 O   0  0  0  0  0  0  0  0  0  0  0  0
    8.1226   51.7813   27.2363 O   0  0  0  0  0  0  0  0  0  0  0  0
    6.9834   52.7879   33.9174 C   0  0  0  0  0  0  0  0  0  0  0  0
    8.0079   53.1169   32.9695 O   0  0  0  0  0  0  0  0  0  0  0  0
    8.8123   40.1844   34.2134 O   0  0  0  0  0  0  0  0  0  0  0  0
   11.2404   40.7942   33.3691 O   0  0  0  0  0  0  0  0  0  0  0  0
   10.9148   40.6905   31.9972 C   0  0  0  0  0  0  0  0  0  0  0  0
   11.5251   39.3886   31.4375 C   0  0  0  0  0  0  0  0  0  0  0  0
   12.7499   39.0875   32.0799 O   0  0  0  0  0  0  0  0  0  0  0  0
   10.6092   38.1925   31.6469 C   0  0  0  0  0  0  0  0  0  0  0  0
   12.9332   37.6793   32.0294 C   0  0  0  0  0  0  0  0  0  0  0  0
    9.6121   38.0893   30.6543 O   0  0  0  0  0  0  0  0  0  0  0  0
   11.5744   37.0145   31.7023 C   0  0  0  0  0  0  0  0  0  0  0  0
   13.4845   37.2108   33.3241 N   0  0  0  0  0  0  0  0  0  0  0  0
   11.6300   36.3238   30.4740 O   0  0  0  0  0  0  0  0  0  0  0  0
   14.4802   36.3314   33.5727 C   0  0  0  0  0  0  0  0  0  0  0  0
   13.1138   37.6266   34.5692 C   0  0  0  0  0  0  0  0  0  0  0  0
   15.2076   35.6150   32.6739 N   0  0  0  0  0  0  0  0  0  0  0  0
   14.6761   36.2302   34.9182 C   0  0  0  0  0  0  0  0  0  0  0  0
   13.8219   37.0446   35.5785 N   0  0  0  0  0  0  0  0  0  0  0  0
   16.1644   34.7601   33.1547 C   0  0  0  0  0  0  0  0  0  0  0  0
   15.6529   35.3505   35.4131 C   0  0  0  0  0  0  0  0  0  0  0  0
   16.3798   34.6315   34.5042 N   0  0  0  0  0  0  0  0  0  0  0  0
   15.9003   35.1933   36.8090 N   0  0  0  0  0  0  0  0  0  0  0  0
    8.9994   45.4382   33.6722 H   0  0  0  0  0  0  0  0  0  0  0  0
   10.7761   46.9369   33.0156 H   0  0  0  0  0  0  0  0  0  0  0  0
   11.0501   46.2279   34.4978 H   0  0  0  0  0  0  0  0  0  0  0  0
    9.3628   43.8351   31.4719 H   0  0  0  0  0  0  0  0  0  0  0  0
   10.7402   44.9062   31.1834 H   0  0  0  0  0  0  0  0  0  0  0  0
    7.0126   44.7158   31.5837 H   0  0  0  0  0  0  0  0  0  0  0  0
   10.3476   47.1842   30.4045 H   0  0  0  0  0  0  0  0  0  0  0  0
    5.4636   46.3055   30.5060 H   0  0  0  0  0  0  0  0  0  0  0  0
    8.8168   48.7584   29.3409 H   0  0  0  0  0  0  0  0  0  0  0  0
    7.1795   49.6260   27.8991 H   0  0  0  0  0  0  0  0  0  0  0  0
    4.8426   49.6271   27.1751 H   0  0  0  0  0  0  0  0  0  0  0  0
    5.3772   51.3175   27.5020 H   0  0  0  0  0  0  0  0  0  0  0  0
    4.3232   50.4540   28.6919 H   0  0  0  0  0  0  0  0  0  0  0  0
    5.2803   50.2288   31.1348 H   0  0  0  0  0  0  0  0  0  0  0  0
    9.3570   53.0392   30.5237 H   0  0  0  0  0  0  0  0  0  0  0  0
    6.4095   53.6975   34.1920 H   0  0  0  0  0  0  0  0  0  0  0  0
    7.4312   52.3173   34.8178 H   0  0  0  0  0  0  0  0  0  0  0  0
    9.8239   40.7214   31.7640 H   0  0  0  0  0  0  0  0  0  0  0  0
   11.3797   41.5528   31.4729 H   0  0  0  0  0  0  0  0  0  0  0  0
   11.7265   39.5311   30.3513 H   0  0  0  0  0  0  0  0  0  0  0  0
   10.1112   38.2748   32.6387 H   0  0  0  0  0  0  0  0  0  0  0  0
   13.6652   37.4520   31.2227 H   0  0  0  0  0  0  0  0  0  0  0  0
   10.0511   38.1146   29.7646 H   0  0  0  0  0  0  0  0  0  0  0  0
   11.2762   36.3141   32.5188 H   0  0  0  0  0  0  0  0  0  0  0  0
   10.8595   35.6977   30.4639 H   0  0  0  0  0  0  0  0  0  0  0  0
   12.3294   38.3518   34.7447 H   0  0  0  0  0  0  0  0  0  0  0  0
   16.7564   34.1780   32.4620 H   0  0  0  0  0  0  0  0  0  0  0  0
   16.6348   34.5300   37.1415 H   0  0  0  0  0  0  0  0  0  0  0  0
   15.3534   35.7359   37.5138 H   0  0  0  0  0  0  0  0  0  0  0  0
  1  2  2  0
  1  3  1  0
  3  4  1  0
  4  5  1  0
  6  1  1  0
  7  6  1  0
  6  8  1  0
  8  9  1  0
  9 10  2  0
 11  9  1  0
 10 12  1  0
 13 11  2  0
 12 14  2  0
 14 13  1  0
 14 15  1  0
 15 16  1  0
 16 17  1  0
 16 18  1  0
 18 19  2  0
 20 18  1  0
 19 21  1  0
 22 20  2  0
 20 23  1  0
 21 24  1  0
 21 25  2  0
 25 22  1  0
 23 26  1  0
 23 27  2  0
 24 28  1  0
 25 29  1  0
 28 29  1  0
  4 30  2  0
  4 31  1  0
 32 31  1  0
 32 33  1  0
 33 34  1  0
 33 35  1  0
 34 36  1  0
 35 37  1  0
 35 38  1  0
 38 36  1  0
 36 39  1  0
 38 40  1  0
 41 39  1  0
 42 39  1  0
 43 41  2  0
 41 44  1  0
 45 42  2  0
 46 43  1  0
 44 47  2  0
 44 45  1  0
 48 46  2  0
 48 47  1  0
 47 49  1  0
  6 50  1  1
  7 51  1  0
  7 52  1  0
  8 53  1  0
  8 54  1  0
 10 55  1  0
 11 56  1  0
 12 57  1  0
 13 58  1  0
 16 59  1  6
 17 60  1  0
 17 61  1  0
 17 62  1  0
 19 63  1  0
 22 64  1  0
 28 65  1  0
 28 66  1  0
 32 67  1  0
 32 68  1  0
 33 69  1  0
 35 70  1  0
 36 71  1  0
 37 72  1  0
 38 73  1  0
 40 74  1  0
 42 75  1  0
 46 76  1  0
 49 77  1  0
 49 78  1  0
M  CHG  3   5  -1  23   1  26  -1
M  END
>  <EmbedRMS>  (63) 
0.0816258899793

$$$$

     RDKit          3D

 78 83  0  0  0  0  0  0  0  0999 V2000
   10.2836   43.7661   33.8255 C   0  0  0  0  0  0  0  0  0  0  0  0
   11.4102   43.5930   34.3753 O   0  0  0  0  0  0  0  0  0  0  0  0
    9.3640   42.7253   33.7346 O   0  0  0  0  0  0  0  0  0  0  0  0
    9.8907   41.2265   34.2938 P   0  0  0  0  0  0  0  0  0  0  0  0
   10.3732   41.4559   35.8835 O   0  0  0  0  0  0  0  0  0  0  0  0
    9.9548   45.0694   33.2035 C   0  0  1  0  0  0  0  0  0  0  0  0
   11.0273   46.0322   33.4759 N   0  0  0  0  0  0  0  0  0  0  0  0
    9.7471   44.8483   31.6874 C   0  0  0  0  0  0  0  0  0  0  0  0
    8.7925   45.8409   31.0844 C   0  0  0  0  0  0  0  0  0  0  0  0
    7.4058   45.6011   31.0996 C   0  0  0  0  0  0  0  0  0  0  0  0
    9.2816   46.9882   30.4424 C   0  0  0  0  0  0  0  0  0  0  0  0
    6.5246   46.5014   30.4855 C   0  0  0  0  0  0  0  0  0  0  0  0
    8.4003   47.8884   29.8326 C   0  0  0  0  0  0  0  0  0  0  0  0
    7.0187   47.6557   29.8448 C   0  0  0  0  0  0  0  0  0  0  0  0
    6.1823   48.5884   29.2099 O   0  0  0  0  0  0  0  0  0  0  0  0
    4.7607   48.4803   29.0888 C   0  0  1  0  0  0  0  0  0  0  0  0
    4.2145   49.7951   28.5374 C   0  0  0  0  0  0  0  0  0  0  0  0
    4.3740   47.3395   28.1619 C   0  0  0  0  0  0  0  0  0  0  0  0
    5.1703   47.0893   27.0166 C   0  0  0  0  0  0  0  0  0  0  0  0
    3.1749   46.5793   28.3585 C   0  0  0  0  0  0  0  0  0  0  0  0
    4.7687   46.0963   26.1326 C   0  0  0  0  0  0  0  0  0  0  0  0
    2.8083   45.5913   27.4175 C   0  0  0  0  0  0  0  0  0  0  0  0
    2.3158   46.8103   29.4828 N   0  0  0  0  0  0  0  0  0  0  0  0
    5.3867   45.6812   24.9688 O   0  0  0  0  0  0  0  0  0  0  0  0
    3.6376   45.3792   26.3243 C   0  0  0  0  0  0  0  0  0  0  0  0
    2.7888   46.6096   30.7585 O   0  0  0  0  0  0  0  0  0  0  0  0
    1.0849   46.9185   29.3071 O   0  0  0  0  0  0  0  0  0  0  0  0
    4.5923   44.6337   24.3956 C   0  0  0  0  0  0  0  0  0  0  0  0
    3.4848   44.4732   25.2925 O   0  0  0  0  0  0  0  0  0  0  0  0
    8.8127   40.1848   34.2122 O   0  0  0  0  0  0  0  0  0  0  0  0
   11.2420   40.7941   33.3697 O   0  0  0  0  0  0  0  0  0  0  0  0
   10.9187   40.6911   31.9971 C   0  0  0  0  0  0  0  0  0  0  0  0
   11.5172   39.3815   31.4407 C   0  0  0  0  0  0  0  0  0  0  0  0
   12.7493   39.0856   32.0728 O   0  0  0  0  0  0  0  0  0  0  0  0
   10.6023   38.1908   31.6665 C   0  0  0  0  0  0  0  0  0  0  0  0
   12.9319   37.6781   32.0281 C   0  0  0  0  0  0  0  0  0  0  0  0
    9.6392   38.0798   30.6452 O   0  0  0  0  0  0  0  0  0  0  0  0
   11.5715   37.0166   31.7056 C   0  0  0  0  0  0  0  0  0  0  0  0
   13.4846   37.2121   33.3235 N   0  0  0  0  0  0  0  0  0  0  0  0
   11.6186   36.3383   30.4695 O   0  0  0  0  0  0  0  0  0  0  0  0
   14.4801   36.3321   33.5724 C   0  0  0  0  0  0  0  0  0  0  0  0
   13.1137   37.6275   34.5687 C   0  0  0  0  0  0  0  0  0  0  0  0
   15.2073   35.6153   32.6738 N   0  0  0  0  0  0  0  0  0  0  0  0
   14.6759   36.2308   34.9179 C   0  0  0  0  0  0  0  0  0  0  0  0
   13.8216   37.0452   35.5781 N   0  0  0  0  0  0  0  0  0  0  0  0
   16.1640   34.7602   33.1546 C   0  0  0  0  0  0  0  0  0  0  0  0
   15.6526   35.3508   35.4129 C   0  0  0  0  0  0  0  0  0  0  0  0
   16.3794   34.6317   34.5041 N   0  0  0  0  0  0  0  0  0  0  0  0
   15.8999   35.1935   36.8088 N   0  0  0  0  0  0  0  0  0  0  0  0
    9.0121   45.4315   33.6712 H   0  0  0  0  0  0  0  0  0  0  0  0
   11.8908   45.7659   32.9475 H   0  0  0  0  0  0  0  0  0  0  0  0
   10.7260   46.9687   33.1215 H   0  0  0  0  0  0  0  0  0  0  0  0
    9.3425   43.8331   31.4756 H   0  0  0  0  0  0  0  0  0  0  0  0
   10.7235   44.8824   31.1556 H   0  0  0  0  0  0  0  0  0  0  0  0
    7.0100   44.7159   31.5822 H   0  0  0  0  0  0  0  0  0  0  0  0
   10.3459   47.1866   30.4106 H   0  0  0  0  0  0  0  0  0  0  0  0
    5.4669   46.2872   30.5153 H   0  0  0  0  0  0  0  0  0  0  0  0
    8.7936   48.7696   29.3418 H   0  0  0  0  0  0  0  0  0  0  0  0
    4.3352   48.3506   30.1028 H   0  0  0  0  0  0  0  0  0  0  0  0
    4.4846   50.6295   29.2190 H   0  0  0  0  0  0  0  0  0  0  0  0
    4.6418   50.0044   27.5332 H   0  0  0  0  0  0  0  0  0  0  0  0
    3.1070   49.7488   28.4591 H   0  0  0  0  0  0  0  0  0  0  0  0
    6.0684   47.6587   26.8136 H   0  0  0  0  0  0  0  0  0  0  0  0
    1.9078   45.0034   27.5419 H   0  0  0  0  0  0  0  0  0  0  0  0
    5.1795   43.6932   24.3397 H   0  0  0  0  0  0  0  0  0  0  0  0
    4.2303   44.9329   23.3896 H   0  0  0  0  0  0  0  0  0  0  0  0
   11.3969   41.5460   31.4729 H   0  0  0  0  0  0  0  0  0  0  0  0
    9.8300   40.7410   31.7613 H   0  0  0  0  0  0  0  0  0  0  0  0
   11.6975   39.5067   30.3481 H   0  0  0  0  0  0  0  0  0  0  0  0
   10.1076   38.2648   32.6645 H   0  0  0  0  0  0  0  0  0  0  0  0
   13.6621   37.4467   31.2209 H   0  0  0  0  0  0  0  0  0  0  0  0
    8.8975   38.6945   30.8831 H   0  0  0  0  0  0  0  0  0  0  0  0
   11.2805   36.3073   32.5170 H   0  0  0  0  0  0  0  0  0  0  0  0
   10.8492   35.7111   30.4586 H   0  0  0  0  0  0  0  0  0  0  0  0
   12.3290   38.3524   34.7444 H   0  0  0  0  0  0  0  0  0  0  0  0
   16.7559   34.1780   32.4619 H   0  0  0  0  0  0  0  0  0  0  0  0
   16.6344   34.5301   37.1414 H   0  0  0  0  0  0  0  0  0  0  0  0
   15.3531   35.7363   37.5137 H   0  0  0  0  0  0  0  0  0  0  0  0
  1  2  2  0
  1  3  1  0
  3  4  1  0
  4  5  1  0
  6  1  1  0
  7  6  1  0
  6  8  1  0
  8  9  1  0
  9 10  2  0
 11  9  1  0
 10 12  1  0
 13 11  2  0
 12 14  2  0
 14 13  1  0
 14 15  1  0
 15 16  1  0
 16 17  1  0
 16 18  1  0
 18 19  2  0
 20 18  1  0
 19 21  1  0
 22 20  2  0
 20 23  1  0
 21 24  1  0
 21 25  2  0
 25 22  1  0
 23 26  1  0
 23 27  2  0
 24 28  1  0
 25 29  1  0
 28 29  1  0
  4 30  2  0
  4 31  1  0
 32 31  1  0
 32 33  1  0
 33 34  1  0
 33 35  1  0
 34 36  1  0
 35 37  1  0
 35 38  1  0
 38 36  1  0
 36 39  1  0
 38 40  1  0
 41 39  1  0
 42 39  1  0
 43 41  2  0
 41 44  1  0
 45 42  2  0
 46 43  1  0
 44 47  2  0
 44 45  1  0
 48 46  2  0
 48 47  1  0
 47 49  1  0
  6 50  1  1
  7 51  1  0
  7 52  1  0
  8 53  1  0
  8 54  1  0
 10 55  1  0
 11 56  1  0
 12 57  1  0
 13 58  1  0
 16 59  1  1
 17 60  1  0
 17 61  1  0
 17 62  1  0
 19 63  1  0
 22 64  1  0
 28 65  1  0
 28 66  1  0
 32 67  1  0
 32 68  1  0
 33 69  1  0
 35 70  1  0
 36 71  1  0
 37 72  1  0
 38 73  1  0
 40 74  1  0
 42 75  1  0
 46 76  1  0
 49 77  1  0
 49 78  1  0
M  CHG  3   5  -1  23   1  26  -1
M  END
>  <EmbedRMS>  (64) 
0.0829396925068

$$$$

     RDKit          3D

 78 83  0  0  0  0  0  0  0  0999 V2000
   10.2836   43.7628   33.8273 C   0  0  0  0  0  0  0  0  0  0  0  0
   11.4101   43.5865   34.3764 O   0  0  0  0  0  0  0  0  0  0  0  0
    9.3627   42.7238   33.7355 O   0  0  0  0  0  0  0  0  0  0  0  0
    9.8893   41.2251   34.2942 P   0  0  0  0  0  0  0  0  0  0  0  0
   10.3730   41.4546   35.8836 O   0  0  0  0  0  0  0  0  0  0  0  0
    9.9547   45.0700   33.2059 C   0  0  1  0  0  0  0  0  0  0  0  0
   11.0196   46.0481   33.4565 N   0  0  0  0  0  0  0  0  0  0  0  0
    9.7501   44.8511   31.6916 C   0  0  0  0  0  0  0  0  0  0  0  0
    8.7940   45.8418   31.0860 C   0  0  0  0  0  0  0  0  0  0  0  0
    7.4060   45.6012   31.1018 C   0  0  0  0  0  0  0  0  0  0  0  0
    9.2831   46.9914   30.4452 C   0  0  0  0  0  0  0  0  0  0  0  0
    6.5256   46.5028   30.4879 C   0  0  0  0  0  0  0  0  0  0  0  0
    8.4012   47.8918   29.8352 C   0  0  0  0  0  0  0  0  0  0  0  0
    7.0223   47.6456   29.8427 C   0  0  0  0  0  0  0  0  0  0  0  0
    6.1499   48.5518   29.2345 O   0  0  0  0  0  0  0  0  0  0  0  0
    5.5914   48.3693   27.9294 C   0  0  1  0  0  0  0  0  0  0  0  0
    6.6411   48.6083   26.8364 C   0  0  0  0  0  0  0  0  0  0  0  0
    4.8005   47.0658   27.8274 C   0  0  0  0  0  0  0  0  0  0  0  0
    3.4716   47.0927   28.3196 C   0  0  0  0  0  0  0  0  0  0  0  0
    5.3105   45.8331   27.2876 C   0  0  0  0  0  0  0  0  0  0  0  0
    2.7010   45.9408   28.2347 C   0  0  0  0  0  0  0  0  0  0  0  0
    4.4754   44.6978   27.2137 C   0  0  0  0  0  0  0  0  0  0  0  0
    6.6549   45.7002   26.8223 N   0  0  0  0  0  0  0  0  0  0  0  0
    1.3953   45.7488   28.6436 O   0  0  0  0  0  0  0  0  0  0  0  0
    3.1805   44.7950   27.7014 C   0  0  0  0  0  0  0  0  0  0  0  0
    6.8777   45.3430   25.5131 O   0  0  0  0  0  0  0  0  0  0  0  0
    7.5810   45.5738   27.6482 O   0  0  0  0  0  0  0  0  0  0  0  0
    1.0336   44.3933   28.3460 C   0  0  0  0  0  0  0  0  0  0  0  0
    2.2027   43.8199   27.7450 O   0  0  0  0  0  0  0  0  0  0  0  0
    8.8113   40.1835   34.2130 O   0  0  0  0  0  0  0  0  0  0  0  0
   11.2397   40.7943   33.3683 O   0  0  0  0  0  0  0  0  0  0  0  0
   10.9125   40.6875   31.9969 C   0  0  0  0  0  0  0  0  0  0  0  0
   11.5169   39.3810   31.4420 C   0  0  0  0  0  0  0  0  0  0  0  0
   12.7500   39.0881   32.0758 O   0  0  0  0  0  0  0  0  0  0  0  0
   10.6043   38.1892   31.6658 C   0  0  0  0  0  0  0  0  0  0  0  0
   12.9395   37.6813   32.0279 C   0  0  0  0  0  0  0  0  0  0  0  0
    9.6353   38.0951   30.6498 O   0  0  0  0  0  0  0  0  0  0  0  0
   11.5804   37.0191   31.6934 C   0  0  0  0  0  0  0  0  0  0  0  0
   13.4851   37.2119   33.3244 N   0  0  0  0  0  0  0  0  0  0  0  0
   11.6118   36.3188   30.4673 O   0  0  0  0  0  0  0  0  0  0  0  0
   14.4801   36.3317   33.5732 C   0  0  0  0  0  0  0  0  0  0  0  0
   13.1139   37.6277   34.5692 C   0  0  0  0  0  0  0  0  0  0  0  0
   15.2076   35.6154   32.6744 N   0  0  0  0  0  0  0  0  0  0  0  0
   14.6756   36.2303   34.9186 C   0  0  0  0  0  0  0  0  0  0  0  0
   13.8215   37.0451   35.5786 N   0  0  0  0  0  0  0  0  0  0  0  0
   16.1642   34.7602   33.1551 C   0  0  0  0  0  0  0  0  0  0  0  0
   15.6526   35.3505   35.4134 C   0  0  0  0  0  0  0  0  0  0  0  0
   16.3795   34.6316   34.5045 N   0  0  0  0  0  0  0  0  0  0  0  0
   15.9001   35.1933   36.8093 N   0  0  0  0  0  0  0  0  0  0  0  0
    9.0097   45.4350   33.6664 H   0  0  0  0  0  0  0  0  0  0  0  0
   11.9347   45.6934   33.0921 H   0  0  0  0  0  0  0  0  0  0  0  0
   11.1132   46.1992   34.4878 H   0  0  0  0  0  0  0  0  0  0  0  0
    9.3509   43.8346   31.4754 H   0  0  0  0  0  0  0  0  0  0  0  0
   10.7303   44.8929   31.1667 H   0  0  0  0  0  0  0  0  0  0  0  0
    7.0095   44.7178   31.5869 H   0  0  0  0  0  0  0  0  0  0  0  0
   10.3470   47.1923   30.4174 H   0  0  0  0  0  0  0  0  0  0  0  0
    5.4607   46.3125   30.5162 H   0  0  0  0  0  0  0  0  0  0  0  0
    8.7898   48.7768   29.3477 H   0  0  0  0  0  0  0  0  0  0  0  0
    4.8601   49.1959   27.7861 H   0  0  0  0  0  0  0  0  0  0  0  0
    6.2377   48.3260   25.8407 H   0  0  0  0  0  0  0  0  0  0  0  0
    6.9052   49.6870   26.8088 H   0  0  0  0  0  0  0  0  0  0  0  0
    7.5780   48.0535   27.0364 H   0  0  0  0  0  0  0  0  0  0  0  0
    3.0480   47.9895   28.7544 H   0  0  0  0  0  0  0  0  0  0  0  0
    4.8367   43.7625   26.8054 H   0  0  0  0  0  0  0  0  0  0  0  0
    0.7773   43.8503   29.2798 H   0  0  0  0  0  0  0  0  0  0  0  0
    0.1847   44.3704   27.6308 H   0  0  0  0  0  0  0  0  0  0  0  0
    9.8216   40.7223   31.7643 H   0  0  0  0  0  0  0  0  0  0  0  0
   11.3811   41.5456   31.4691 H   0  0  0  0  0  0  0  0  0  0  0  0
   11.6985   39.5089   30.3498 H   0  0  0  0  0  0  0  0  0  0  0  0
   10.1109   38.2736   32.6629 H   0  0  0  0  0  0  0  0  0  0  0  0
   13.6783   37.4561   31.2271 H   0  0  0  0  0  0  0  0  0  0  0  0
    9.0020   37.3860   30.9348 H   0  0  0  0  0  0  0  0  0  0  0  0
   11.2807   36.3052   32.4921 H   0  0  0  0  0  0  0  0  0  0  0  0
   11.8818   36.9599   29.7584 H   0  0  0  0  0  0  0  0  0  0  0  0
   12.3303   38.3538   34.7445 H   0  0  0  0  0  0  0  0  0  0  0  0
   16.7563   34.1783   32.4623 H   0  0  0  0  0  0  0  0  0  0  0  0
   16.6347   34.5301   37.1418 H   0  0  0  0  0  0  0  0  0  0  0  0
   15.3532   35.7359   37.5142 H   0  0  0  0  0  0  0  0  0  0  0  0
  1  2  2  0
  1  3  1  0
  3  4  1  0
  4  5  1  0
  6  1  1  0
  7  6  1  0
  6  8  1  0
  8  9  1  0
  9 10  2  0
 11  9  1  0
 10 12  1  0
 13 11  2  0
 12 14  2  0
 14 13  1  0
 14 15  1  0
 15 16  1  0
 16 17  1  0
 16 18  1  0
 18 19  2  0
 20 18  1  0
 19 21  1  0
 22 20  2  0
 20 23  1  0
 21 24  1  0
 21 25  2  0
 25 22  1  0
 23 26  1  0
 23 27  2  0
 24 28  1  0
 25 29  1  0
 28 29  1  0
  4 30  2  0
  4 31  1  0
 32 31  1  0
 32 33  1  0
 33 34  1  0
 33 35  1  0
 34 36  1  0
 35 37  1  0
 35 38  1  0
 38 36  1  0
 36 39  1  0
 38 40  1  0
 41 39  1  0
 42 39  1  0
 43 41  2  0
 41 44  1  0
 45 42  2  0
 46 43  1  0
 44 47  2  0
 44 45  1  0
 48 46  2  0
 48 47  1  0
 47 49  1  0
  6 50  1  1
  7 51  1  0
  7 52  1  0
  8 53  1  0
  8 54  1  0
 10 55  1  0
 11 56  1  0
 12 57  1  0
 13 58  1  0
 16 59  1  6
 17 60  1  0
 17 61  1  0
 17 62  1  0
 19 63  1  0
 22 64  1  0
 28 65  1  0
 28 66  1  0
 32 67  1  0
 32 68  1  0
 33 69  1  0
 35 70  1  0
 36 71  1  0
 37 72  1  0
 38 73  1  0
 40 74  1  0
 42 75  1  0
 46 76  1  0
 49 77  1  0
 49 78  1  0
M  CHG  3   5  -1  23   1  26  -1
M  END
>  <EmbedRMS>  (65) 
0.0825946270543

$$$$

     RDKit          3D

 78 83  0  0  0  0  0  0  0  0999 V2000
   10.2835   43.7662   33.8255 C   0  0  0  0  0  0  0  0  0  0  0  0
   11.4102   43.5930   34.3752 O   0  0  0  0  0  0  0  0  0  0  0  0
    9.3637   42.7255   33.7347 O   0  0  0  0  0  0  0  0  0  0  0  0
    9.8906   41.2266   34.2933 P   0  0  0  0  0  0  0  0  0  0  0  0
   10.3743   41.4557   35.8827 O   0  0  0  0  0  0  0  0  0  0  0  0
    9.9547   45.0695   33.2035 C   0  0  1  0  0  0  0  0  0  0  0  0
   11.0274   46.0322   33.4759 N   0  0  0  0  0  0  0  0  0  0  0  0
    9.7471   44.8484   31.6875 C   0  0  0  0  0  0  0  0  0  0  0  0
    8.7925   45.8409   31.0844 C   0  0  0  0  0  0  0  0  0  0  0  0
    7.4058   45.6011   31.0996 C   0  0  0  0  0  0  0  0  0  0  0  0
    9.2816   46.9882   30.4424 C   0  0  0  0  0  0  0  0  0  0  0  0
    6.5246   46.5014   30.4855 C   0  0  0  0  0  0  0  0  0  0  0  0
    8.4003   47.8885   29.8327 C   0  0  0  0  0  0  0  0  0  0  0  0
    7.0188   47.6556   29.8446 C   0  0  0  0  0  0  0  0  0  0  0  0
    6.1824   48.5879   29.2093 O   0  0  0  0  0  0  0  0  0  0  0  0
    4.7618   48.4754   29.0815 C   0  0  1  0  0  0  0  0  0  0  0  0
    4.2136   49.7899   28.5310 C   0  0  0  0  0  0  0  0  0  0  0  0
    4.3847   47.3357   28.1484 C   0  0  0  0  0  0  0  0  0  0  0  0
    5.1804   47.1064   26.9982 C   0  0  0  0  0  0  0  0  0  0  0  0
    3.1964   46.5561   28.3421 C   0  0  0  0  0  0  0  0  0  0  0  0
    4.7885   46.1175   26.1056 C   0  0  0  0  0  0  0  0  0  0  0  0
    2.8388   45.5750   27.3913 C   0  0  0  0  0  0  0  0  0  0  0  0
    2.3331   46.7614   29.4684 N   0  0  0  0  0  0  0  0  0  0  0  0
    5.4078   45.7221   24.9356 O   0  0  0  0  0  0  0  0  0  0  0  0
    3.6670   45.3846   26.2933 C   0  0  0  0  0  0  0  0  0  0  0  0
    0.9721   46.8128   29.2754 O   0  0  0  0  0  0  0  0  0  0  0  0
    2.7703   46.6025   30.6262 O   0  0  0  0  0  0  0  0  0  0  0  0
    4.6246   44.6709   24.3540 C   0  0  0  0  0  0  0  0  0  0  0  0
    3.5220   44.4875   25.2527 O   0  0  0  0  0  0  0  0  0  0  0  0
    8.8122   40.1851   34.2127 O   0  0  0  0  0  0  0  0  0  0  0  0
   11.2406   40.7945   33.3670 O   0  0  0  0  0  0  0  0  0  0  0  0
   10.9134   40.6866   31.9954 C   0  0  0  0  0  0  0  0  0  0  0  0
   11.5166   39.3787   31.4404 C   0  0  0  0  0  0  0  0  0  0  0  0
   12.7486   39.0849   32.0734 O   0  0  0  0  0  0  0  0  0  0  0  0
   10.6039   38.1884   31.6669 C   0  0  0  0  0  0  0  0  0  0  0  0
   12.9329   37.6776   32.0284 C   0  0  0  0  0  0  0  0  0  0  0  0
    9.6373   38.0938   30.6484 O   0  0  0  0  0  0  0  0  0  0  0  0
   11.5737   37.0141   31.7055 C   0  0  0  0  0  0  0  0  0  0  0  0
   13.4853   37.2120   33.3238 N   0  0  0  0  0  0  0  0  0  0  0  0
   11.6210   36.3379   30.4683 O   0  0  0  0  0  0  0  0  0  0  0  0
   14.4804   36.3319   33.5726 C   0  0  0  0  0  0  0  0  0  0  0  0
   13.1141   37.6275   34.5689 C   0  0  0  0  0  0  0  0  0  0  0  0
   15.2075   35.6152   32.6740 N   0  0  0  0  0  0  0  0  0  0  0  0
   14.6761   36.2306   34.9181 C   0  0  0  0  0  0  0  0  0  0  0  0
   13.8218   37.0451   35.5783 N   0  0  0  0  0  0  0  0  0  0  0  0
   16.1642   34.7600   33.1548 C   0  0  0  0  0  0  0  0  0  0  0  0
   15.6528   35.3507   35.4131 C   0  0  0  0  0  0  0  0  0  0  0  0
   16.3795   34.6315   34.5043 N   0  0  0  0  0  0  0  0  0  0  0  0
   15.9001   35.1933   36.8090 N   0  0  0  0  0  0  0  0  0  0  0  0
    9.0121   45.4317   33.6712 H   0  0  0  0  0  0  0  0  0  0  0  0
   11.8908   45.7659   32.9475 H   0  0  0  0  0  0  0  0  0  0  0  0
   10.7261   46.9688   33.1215 H   0  0  0  0  0  0  0  0  0  0  0  0
   10.7235   44.8824   31.1556 H   0  0  0  0  0  0  0  0  0  0  0  0
    9.3425   43.8331   31.4757 H   0  0  0  0  0  0  0  0  0  0  0  0
    7.0100   44.7160   31.5824 H   0  0  0  0  0  0  0  0  0  0  0  0
   10.3459   47.1867   30.4107 H   0  0  0  0  0  0  0  0  0  0  0  0
    5.4668   46.2874   30.5157 H   0  0  0  0  0  0  0  0  0  0  0  0
    8.7936   48.7697   29.3419 H   0  0  0  0  0  0  0  0  0  0  0  0
    4.3329   48.3438   30.0936 H   0  0  0  0  0  0  0  0  0  0  0  0
    4.6459   50.0043   27.5299 H   0  0  0  0  0  0  0  0  0  0  0  0
    3.1068   49.7392   28.4461 H   0  0  0  0  0  0  0  0  0  0  0  0
    4.4764   50.6231   29.2167 H   0  0  0  0  0  0  0  0  0  0  0  0
    6.0704   47.6893   26.7978 H   0  0  0  0  0  0  0  0  0  0  0  0
    1.9464   44.9744   27.5119 H   0  0  0  0  0  0  0  0  0  0  0  0
    5.2231   43.7382   24.2866 H   0  0  0  0  0  0  0  0  0  0  0  0
    4.2558   44.9759   23.3523 H   0  0  0  0  0  0  0  0  0  0  0  0
    9.8225   40.7225   31.7631 H   0  0  0  0  0  0  0  0  0  0  0  0
   11.3827   41.5438   31.4669 H   0  0  0  0  0  0  0  0  0  0  0  0
   11.6978   39.5037   30.3478 H   0  0  0  0  0  0  0  0  0  0  0  0
   10.1084   38.2787   32.6627 H   0  0  0  0  0  0  0  0  0  0  0  0
   13.6638   37.4472   31.2214 H   0  0  0  0  0  0  0  0  0  0  0  0
    8.9762   37.4191   30.9532 H   0  0  0  0  0  0  0  0  0  0  0  0
   11.2821   36.3054   32.5172 H   0  0  0  0  0  0  0  0  0  0  0  0
   10.8658   35.6936   30.4652 H   0  0  0  0  0  0  0  0  0  0  0  0
   12.3293   38.3523   34.7444 H   0  0  0  0  0  0  0  0  0  0  0  0
   16.7561   34.1778   32.4621 H   0  0  0  0  0  0  0  0  0  0  0  0
   15.3533   35.7361   37.5138 H   0  0  0  0  0  0  0  0  0  0  0  0
   16.6345   34.5300   37.1416 H   0  0  0  0  0  0  0  0  0  0  0  0
  1  2  2  0
  1  3  1  0
  3  4  1  0
  4  5  1  0
  6  1  1  0
  7  6  1  0
  6  8  1  0
  8  9  1  0
  9 10  2  0
 11  9  1  0
 10 12  1  0
 13 11  2  0
 12 14  2  0
 14 13  1  0
 14 15  1  0
 15 16  1  0
 16 17  1  0
 16 18  1  0
 18 19  2  0
 20 18  1  0
 19 21  1  0
 22 20  2  0
 20 23  1  0
 21 24  1  0
 21 25  2  0
 25 22  1  0
 23 26  1  0
 23 27  2  0
 24 28  1  0
 25 29  1  0
 28 29  1  0
  4 30  2  0
  4 31  1  0
 32 31  1  0
 32 33  1  0
 33 34  1  0
 33 35  1  0
 34 36  1  0
 35 37  1  0
 35 38  1  0
 38 36  1  0
 36 39  1  0
 38 40  1  0
 41 39  1  0
 42 39  1  0
 43 41  2  0
 41 44  1  0
 45 42  2  0
 46 43  1  0
 44 47  2  0
 44 45  1  0
 48 46  2  0
 48 47  1  0
 47 49  1  0
  6 50  1  1
  7 51  1  0
  7 52  1  0
  8 53  1  0
  8 54  1  0
 10 55  1  0
 11 56  1  0
 12 57  1  0
 13 58  1  0
 16 59  1  1
 17 60  1  0
 17 61  1  0
 17 62  1  0
 19 63  1  0
 22 64  1  0
 28 65  1  0
 28 66  1  0
 32 67  1  0
 32 68  1  0
 33 69  1  0
 35 70  1  0
 36 71  1  0
 37 72  1  0
 38 73  1  0
 40 74  1  0
 42 75  1  0
 46 76  1  0
 49 77  1  0
 49 78  1  0
M  CHG  3   5  -1  23   1  26  -1
M  END
>  <EmbedRMS>  (66) 
0.0825524341771

$$$$

     RDKit          3D

 78 83  0  0  0  0  0  0  0  0999 V2000
   10.2834   43.7662   33.8258 C   0  0  0  0  0  0  0  0  0  0  0  0
   11.4102   43.5930   34.3753 O   0  0  0  0  0  0  0  0  0  0  0  0
    9.3635   42.7257   33.7353 O   0  0  0  0  0  0  0  0  0  0  0  0
    9.8902   41.2268   34.2942 P   0  0  0  0  0  0  0  0  0  0  0  0
   10.3739   41.4559   35.8835 O   0  0  0  0  0  0  0  0  0  0  0  0
    9.9547   45.0695   33.2036 C   0  0  1  0  0  0  0  0  0  0  0  0
   11.0274   46.0322   33.4756 N   0  0  0  0  0  0  0  0  0  0  0  0
    9.7468   44.8478   31.6878 C   0  0  0  0  0  0  0  0  0  0  0  0
    8.7923   45.8403   31.0846 C   0  0  0  0  0  0  0  0  0  0  0  0
    7.4063   45.6017   31.0994 C   0  0  0  0  0  0  0  0  0  0  0  0
    9.2812   46.9870   30.4429 C   0  0  0  0  0  0  0  0  0  0  0  0
    6.5286   46.5037   30.4842 C   0  0  0  0  0  0  0  0  0  0  0  0
    8.4022   47.8893   29.8323 C   0  0  0  0  0  0  0  0  0  0  0  0
    7.0130   47.6544   29.8452 C   0  0  0  0  0  0  0  0  0  0  0  0
    6.0698   48.5085   29.2444 O   0  0  0  0  0  0  0  0  0  0  0  0
    6.3001   49.7185   28.5116 C   0  0  1  0  0  0  0  0  0  0  0  0
    6.7324   50.8482   29.4592 C   0  0  0  0  0  0  0  0  0  0  0  0
    7.1766   49.4942   27.2789 C   0  0  0  0  0  0  0  0  0  0  0  0
    8.4455   50.1245   27.1567 C   0  0  0  0  0  0  0  0  0  0  0  0
    6.6894   48.7113   26.1777 C   0  0  0  0  0  0  0  0  0  0  0  0
    9.1789   49.9309   25.9939 C   0  0  0  0  0  0  0  0  0  0  0  0
    7.4762   48.5627   25.0135 C   0  0  0  0  0  0  0  0  0  0  0  0
    5.3854   48.1119   26.1999 N   0  0  0  0  0  0  0  0  0  0  0  0
   10.4265   50.4309   25.6733 O   0  0  0  0  0  0  0  0  0  0  0  0
    8.7157   49.1825   24.9685 C   0  0  0  0  0  0  0  0  0  0  0  0
    5.0601   47.1995   27.1750 O   0  0  0  0  0  0  0  0  0  0  0  0
    4.6401   48.2181   25.2043 O   0  0  0  0  0  0  0  0  0  0  0  0
   10.7672   49.9625   24.3615 C   0  0  0  0  0  0  0  0  0  0  0  0
    9.6464   49.1696   23.9474 O   0  0  0  0  0  0  0  0  0  0  0  0
    8.8121   40.1851   34.2131 O   0  0  0  0  0  0  0  0  0  0  0  0
   11.2402   40.7952   33.3681 O   0  0  0  0  0  0  0  0  0  0  0  0
   10.9126   40.6877   31.9968 C   0  0  0  0  0  0  0  0  0  0  0  0
   11.5169   39.3811   31.4420 C   0  0  0  0  0  0  0  0  0  0  0  0
   12.7500   39.0881   32.0759 O   0  0  0  0  0  0  0  0  0  0  0  0
   10.6043   38.1893   31.6659 C   0  0  0  0  0  0  0  0  0  0  0  0
   12.9395   37.6814   32.0280 C   0  0  0  0  0  0  0  0  0  0  0  0
    9.6353   38.0951   30.6499 O   0  0  0  0  0  0  0  0  0  0  0  0
   11.5804   37.0191   31.6934 C   0  0  0  0  0  0  0  0  0  0  0  0
   13.4851   37.2119   33.3244 N   0  0  0  0  0  0  0  0  0  0  0  0
   11.6118   36.3189   30.4673 O   0  0  0  0  0  0  0  0  0  0  0  0
   14.4801   36.3316   33.5732 C   0  0  0  0  0  0  0  0  0  0  0  0
   13.1139   37.6277   34.5692 C   0  0  0  0  0  0  0  0  0  0  0  0
   15.2076   35.6154   32.6744 N   0  0  0  0  0  0  0  0  0  0  0  0
   14.6756   36.2303   34.9186 C   0  0  0  0  0  0  0  0  0  0  0  0
   13.8215   37.0451   35.5786 N   0  0  0  0  0  0  0  0  0  0  0  0
   16.1642   34.7602   33.1551 C   0  0  0  0  0  0  0  0  0  0  0  0
   15.6526   35.3505   35.4134 C   0  0  0  0  0  0  0  0  0  0  0  0
   16.3796   34.6316   34.5045 N   0  0  0  0  0  0  0  0  0  0  0  0
   15.9001   35.1933   36.8093 N   0  0  0  0  0  0  0  0  0  0  0  0
    9.0121   45.4318   33.6714 H   0  0  0  0  0  0  0  0  0  0  0  0
   10.7261   46.9687   33.1212 H   0  0  0  0  0  0  0  0  0  0  0  0
   11.8907   45.7657   32.9471 H   0  0  0  0  0  0  0  0  0  0  0  0
   10.7231   44.8814   31.1558 H   0  0  0  0  0  0  0  0  0  0  0  0
    9.3418   43.8326   31.4764 H   0  0  0  0  0  0  0  0  0  0  0  0
    7.0086   44.7169   31.5812 H   0  0  0  0  0  0  0  0  0  0  0  0
   10.3458   47.1846   30.4128 H   0  0  0  0  0  0  0  0  0  0  0  0
    5.4643   46.3054   30.5013 H   0  0  0  0  0  0  0  0  0  0  0  0
    8.8247   48.7562   29.3593 H   0  0  0  0  0  0  0  0  0  0  0  0
    5.3105   50.0445   28.1235 H   0  0  0  0  0  0  0  0  0  0  0  0
    6.8356   51.8015   28.8982 H   0  0  0  0  0  0  0  0  0  0  0  0
    7.6865   50.6207   29.9733 H   0  0  0  0  0  0  0  0  0  0  0  0
    5.9548   50.9922   30.2391 H   0  0  0  0  0  0  0  0  0  0  0  0
    8.8640   50.7463   27.9350 H   0  0  0  0  0  0  0  0  0  0  0  0
    7.1283   47.9790   24.1708 H   0  0  0  0  0  0  0  0  0  0  0  0
   11.6841   49.3380   24.4027 H   0  0  0  0  0  0  0  0  0  0  0  0
   10.9054   50.8209   23.6711 H   0  0  0  0  0  0  0  0  0  0  0  0
   11.3809   41.5456   31.4685 H   0  0  0  0  0  0  0  0  0  0  0  0
    9.8216   40.7222   31.7646 H   0  0  0  0  0  0  0  0  0  0  0  0
   11.6986   39.5089   30.3499 H   0  0  0  0  0  0  0  0  0  0  0  0
   10.1109   38.2737   32.6630 H   0  0  0  0  0  0  0  0  0  0  0  0
   13.6783   37.4562   31.2271 H   0  0  0  0  0  0  0  0  0  0  0  0
    9.0020   37.3860   30.9348 H   0  0  0  0  0  0  0  0  0  0  0  0
   11.2807   36.3053   32.4921 H   0  0  0  0  0  0  0  0  0  0  0  0
   11.8818   36.9600   29.7584 H   0  0  0  0  0  0  0  0  0  0  0  0
   12.3303   38.3538   34.7446 H   0  0  0  0  0  0  0  0  0  0  0  0
   16.7563   34.1783   32.4623 H   0  0  0  0  0  0  0  0  0  0  0  0
   16.6348   34.5301   37.1418 H   0  0  0  0  0  0  0  0  0  0  0  0
   15.3532   35.7359   37.5142 H   0  0  0  0  0  0  0  0  0  0  0  0
  1  2  2  0
  1  3  1  0
  3  4  1  0
  4  5  1  0
  6  1  1  0
  7  6  1  0
  6  8  1  0
  8  9  1  0
  9 10  2  0
 11  9  1  0
 10 12  1  0
 13 11  2  0
 12 14  2  0
 14 13  1  0
 14 15  1  0
 15 16  1  0
 16 17  1  0
 16 18  1  0
 18 19  2  0
 20 18  1  0
 19 21  1  0
 22 20  2  0
 20 23  1  0
 21 24  1  0
 21 25  2  0
 25 22  1  0
 23 26  1  0
 23 27  2  0
 24 28  1  0
 25 29  1  0
 28 29  1  0
  4 30  2  0
  4 31  1  0
 32 31  1  0
 32 33  1  0
 33 34  1  0
 33 35  1  0
 34 36  1  0
 35 37  1  0
 35 38  1  0
 38 36  1  0
 36 39  1  0
 38 40  1  0
 41 39  1  0
 42 39  1  0
 43 41  2  0
 41 44  1  0
 45 42  2  0
 46 43  1  0
 44 47  2  0
 44 45  1  0
 48 46  2  0
 48 47  1  0
 47 49  1  0
  6 50  1  1
  7 51  1  0
  7 52  1  0
  8 53  1  0
  8 54  1  0
 10 55  1  0
 11 56  1  0
 12 57  1  0
 13 58  1  0
 16 59  1  6
 17 60  1  0
 17 61  1  0
 17 62  1  0
 19 63  1  0
 22 64  1  0
 28 65  1  0
 28 66  1  0
 32 67  1  0
 32 68  1  0
 33 69  1  0
 35 70  1  0
 36 71  1  0
 37 72  1  0
 38 73  1  0
 40 74  1  0
 42 75  1  0
 46 76  1  0
 49 77  1  0
 49 78  1  0
M  CHG  3   5  -1  23   1  26  -1
M  END
>  <EmbedRMS>  (67) 
0.0815531231121

$$$$

     RDKit          3D

 78 83  0  0  0  0  0  0  0  0999 V2000
   10.2803   43.7665   33.8249 C   0  0  0  0  0  0  0  0  0  0  0  0
   11.4110   43.5918   34.3666 O   0  0  0  0  0  0  0  0  0  0  0  0
    9.3616   42.7251   33.7347 O   0  0  0  0  0  0  0  0  0  0  0  0
    9.8895   41.2269   34.2945 P   0  0  0  0  0  0  0  0  0  0  0  0
   10.3731   41.4568   35.8837 O   0  0  0  0  0  0  0  0  0  0  0  0
    9.9460   45.0737   33.2111 C   0  0  1  0  0  0  0  0  0  0  0  0
   11.0267   46.0292   33.4708 N   0  0  0  0  0  0  0  0  0  0  0  0
    9.7540   44.8542   31.6947 C   0  0  0  0  0  0  0  0  0  0  0  0
    8.7957   45.8412   31.0847 C   0  0  0  0  0  0  0  0  0  0  0  0
    7.4089   45.6001   31.1015 C   0  0  0  0  0  0  0  0  0  0  0  0
    9.2823   46.9882   30.4400 C   0  0  0  0  0  0  0  0  0  0  0  0
    6.5258   46.4991   30.4873 C   0  0  0  0  0  0  0  0  0  0  0  0
    8.3996   47.8877   29.8315 C   0  0  0  0  0  0  0  0  0  0  0  0
    7.0186   47.6536   29.8448 C   0  0  0  0  0  0  0  0  0  0  0  0
    6.1813   48.5826   29.2051 O   0  0  0  0  0  0  0  0  0  0  0  0
    4.7647   48.4563   29.0622 C   0  0  1  0  0  0  0  0  0  0  0  0
    4.1749   49.7702   28.5508 C   0  0  0  0  0  0  0  0  0  0  0  0
    4.3772   47.3036   28.1469 C   0  0  0  0  0  0  0  0  0  0  0  0
    3.1768   46.6155   28.4477 C   0  0  0  0  0  0  0  0  0  0  0  0
    5.1817   46.8559   27.0407 C   0  0  0  0  0  0  0  0  0  0  0  0
    2.8304   45.5118   27.6804 C   0  0  0  0  0  0  0  0  0  0  0  0
    4.7840   45.7152   26.3073 C   0  0  0  0  0  0  0  0  0  0  0  0
    6.3957   47.5190   26.6553 N   0  0  0  0  0  0  0  0  0  0  0  0
    1.7221   44.6956   27.8009 O   0  0  0  0  0  0  0  0  0  0  0  0
    3.6020   45.0782   26.6583 C   0  0  0  0  0  0  0  0  0  0  0  0
    7.4747   46.7755   26.2360 O   0  0  0  0  0  0  0  0  0  0  0  0
    6.4139   48.7542   26.4831 O   0  0  0  0  0  0  0  0  0  0  0  0
    1.8052   43.6847   26.7870 C   0  0  0  0  0  0  0  0  0  0  0  0
    3.0207   43.9662   26.0800 O   0  0  0  0  0  0  0  0  0  0  0  0
    8.8122   40.1844   34.2135 O   0  0  0  0  0  0  0  0  0  0  0  0
   11.2401   40.7950   33.3698 O   0  0  0  0  0  0  0  0  0  0  0  0
   10.9143   40.6914   31.9980 C   0  0  0  0  0  0  0  0  0  0  0  0
   11.5269   39.3912   31.4385 C   0  0  0  0  0  0  0  0  0  0  0  0
   12.7519   39.0911   32.0837 O   0  0  0  0  0  0  0  0  0  0  0  0
   10.6113   38.1932   31.6451 C   0  0  0  0  0  0  0  0  0  0  0  0
   12.9413   37.6838   32.0297 C   0  0  0  0  0  0  0  0  0  0  0  0
    9.6064   38.0878   30.6599 O   0  0  0  0  0  0  0  0  0  0  0  0
   11.5822   37.0197   31.6877 C   0  0  0  0  0  0  0  0  0  0  0  0
   13.4840   37.2104   33.3254 N   0  0  0  0  0  0  0  0  0  0  0  0
   11.6179   36.3072   30.4690 O   0  0  0  0  0  0  0  0  0  0  0  0
   14.4797   36.3309   33.5738 C   0  0  0  0  0  0  0  0  0  0  0  0
   13.1136   37.6269   34.5702 C   0  0  0  0  0  0  0  0  0  0  0  0
   15.2074   35.6152   32.6747 N   0  0  0  0  0  0  0  0  0  0  0  0
   14.6756   36.2298   34.9190 C   0  0  0  0  0  0  0  0  0  0  0  0
   13.8217   37.0445   35.5793 N   0  0  0  0  0  0  0  0  0  0  0  0
   16.1643   34.7603   33.1551 C   0  0  0  0  0  0  0  0  0  0  0  0
   15.6528   35.3503   35.4136 C   0  0  0  0  0  0  0  0  0  0  0  0
   16.3798   34.6316   34.5046 N   0  0  0  0  0  0  0  0  0  0  0  0
   15.9004   35.1930   36.8094 N   0  0  0  0  0  0  0  0  0  0  0  0
    8.9996   45.4383   33.6720 H   0  0  0  0  0  0  0  0  0  0  0  0
   10.7766   46.9369   33.0157 H   0  0  0  0  0  0  0  0  0  0  0  0
   11.0502   46.2277   34.4982 H   0  0  0  0  0  0  0  0  0  0  0  0
   10.7411   44.9080   31.1834 H   0  0  0  0  0  0  0  0  0  0  0  0
    9.3646   43.8355   31.4709 H   0  0  0  0  0  0  0  0  0  0  0  0
    7.0148   44.7155   31.5865 H   0  0  0  0  0  0  0  0  0  0  0  0
   10.3462   47.1879   30.4052 H   0  0  0  0  0  0  0  0  0  0  0  0
    5.4674   46.2835   30.5197 H   0  0  0  0  0  0  0  0  0  0  0  0
    8.7916   48.7679   29.3378 H   0  0  0  0  0  0  0  0  0  0  0  0
    4.3335   48.2933   30.0756 H   0  0  0  0  0  0  0  0  0  0  0  0
    3.0654   49.7111   28.5418 H   0  0  0  0  0  0  0  0  0  0  0  0
    4.4751   50.6022   29.2225 H   0  0  0  0  0  0  0  0  0  0  0  0
    4.5243   50.0002   27.5246 H   0  0  0  0  0  0  0  0  0  0  0  0
    2.5391   46.9227   29.2672 H   0  0  0  0  0  0  0  0  0  0  0  0
    5.3711   45.3481   25.4753 H   0  0  0  0  0  0  0  0  0  0  0  0
    1.8567   42.6779   27.2519 H   0  0  0  0  0  0  0  0  0  0  0  0
    0.9364   43.7578   26.0997 H   0  0  0  0  0  0  0  0  0  0  0  0
   11.3775   41.5548   31.4741 H   0  0  0  0  0  0  0  0  0  0  0  0
    9.8233   40.7200   31.7651 H   0  0  0  0  0  0  0  0  0  0  0  0
   11.7312   39.5362   30.3532 H   0  0  0  0  0  0  0  0  0  0  0  0
   10.1202   38.2696   32.6410 H   0  0  0  0  0  0  0  0  0  0  0  0
   13.6850   37.4639   31.2321 H   0  0  0  0  0  0  0  0  0  0  0  0
   10.0250   38.1792   29.7654 H   0  0  0  0  0  0  0  0  0  0  0  0
   11.2757   36.3135   32.4907 H   0  0  0  0  0  0  0  0  0  0  0  0
   11.9838   36.9111   29.7708 H   0  0  0  0  0  0  0  0  0  0  0  0
   12.3307   38.3536   34.7458 H   0  0  0  0  0  0  0  0  0  0  0  0
   16.7566   34.1787   32.4623 H   0  0  0  0  0  0  0  0  0  0  0  0
   16.6353   34.5301   37.1419 H   0  0  0  0  0  0  0  0  0  0  0  0
   15.3535   35.7355   37.5144 H   0  0  0  0  0  0  0  0  0  0  0  0
  1  2  2  0
  1  3  1  0
  3  4  1  0
  4  5  1  0
  6  1  1  0
  7  6  1  0
  6  8  1  0
  8  9  1  0
  9 10  2  0
 11  9  1  0
 10 12  1  0
 13 11  2  0
 12 14  2  0
 14 13  1  0
 14 15  1  0
 15 16  1  0
 16 17  1  0
 16 18  1  0
 18 19  2  0
 20 18  1  0
 19 21  1  0
 22 20  2  0
 20 23  1  0
 21 24  1  0
 21 25  2  0
 25 22  1  0
 23 26  1  0
 23 27  2  0
 24 28  1  0
 25 29  1  0
 28 29  1  0
  4 30  2  0
  4 31  1  0
 32 31  1  0
 32 33  1  0
 33 34  1  0
 33 35  1  0
 34 36  1  0
 35 37  1  0
 35 38  1  0
 38 36  1  0
 36 39  1  0
 38 40  1  0
 41 39  1  0
 42 39  1  0
 43 41  2  0
 41 44  1  0
 45 42  2  0
 46 43  1  0
 44 47  2  0
 44 45  1  0
 48 46  2  0
 48 47  1  0
 47 49  1  0
  6 50  1  1
  7 51  1  0
  7 52  1  0
  8 53  1  0
  8 54  1  0
 10 55  1  0
 11 56  1  0
 12 57  1  0
 13 58  1  0
 16 59  1  1
 17 60  1  0
 17 61  1  0
 17 62  1  0
 19 63  1  0
 22 64  1  0
 28 65  1  0
 28 66  1  0
 32 67  1  0
 32 68  1  0
 33 69  1  0
 35 70  1  0
 36 71  1  0
 37 72  1  0
 38 73  1  0
 40 74  1  0
 42 75  1  0
 46 76  1  0
 49 77  1  0
 49 78  1  0
M  CHG  3   5  -1  23   1  26  -1
M  END
>  <EmbedRMS>  (68) 
0.0806496241314

$$$$

     RDKit          3D

 78 83  0  0  0  0  0  0  0  0999 V2000
   10.2840   43.7626   33.8275 C   0  0  0  0  0  0  0  0  0  0  0  0
   11.4104   43.5863   34.3767 O   0  0  0  0  0  0  0  0  0  0  0  0
    9.3634   42.7234   33.7351 O   0  0  0  0  0  0  0  0  0  0  0  0
    9.8899   41.2247   34.2940 P   0  0  0  0  0  0  0  0  0  0  0  0
   10.3723   41.4545   35.8837 O   0  0  0  0  0  0  0  0  0  0  0  0
    9.9549   45.0699   33.2063 C   0  0  1  0  0  0  0  0  0  0  0  0
   11.0198   46.0481   33.4571 N   0  0  0  0  0  0  0  0  0  0  0  0
    9.7506   44.8511   31.6921 C   0  0  0  0  0  0  0  0  0  0  0  0
    8.7944   45.8418   31.0868 C   0  0  0  0  0  0  0  0  0  0  0  0
    7.4077   45.6006   31.1008 C   0  0  0  0  0  0  0  0  0  0  0  0
    9.2826   46.9896   30.4451 C   0  0  0  0  0  0  0  0  0  0  0  0
    6.5257   46.5001   30.4861 C   0  0  0  0  0  0  0  0  0  0  0  0
    8.4008   47.8886   29.8338 C   0  0  0  0  0  0  0  0  0  0  0  0
    7.0196   47.6542   29.8440 C   0  0  0  0  0  0  0  0  0  0  0  0
    6.1828   48.5856   29.2073 O   0  0  0  0  0  0  0  0  0  0  0  0
    4.7685   48.4492   29.0429 C   0  0  1  0  0  0  0  0  0  0  0  0
    4.2073   49.7656   28.5081 C   0  0  0  0  0  0  0  0  0  0  0  0
    4.4504   47.3184   28.0793 C   0  0  0  0  0  0  0  0  0  0  0  0
    5.2106   47.2101   26.8889 C   0  0  0  0  0  0  0  0  0  0  0  0
    3.4499   46.3318   28.3648 C   0  0  0  0  0  0  0  0  0  0  0  0
    4.9834   46.1250   26.0530 C   0  0  0  0  0  0  0  0  0  0  0  0
    3.2742   45.2401   27.4834 C   0  0  0  0  0  0  0  0  0  0  0  0
    2.6027   46.4315   29.5201 N   0  0  0  0  0  0  0  0  0  0  0  0
    5.6088   45.8131   24.8612 O   0  0  0  0  0  0  0  0  0  0  0  0
    4.0600   45.1790   26.3402 C   0  0  0  0  0  0  0  0  0  0  0  0
    1.9643   47.6156   29.8076 O   0  0  0  0  0  0  0  0  0  0  0  0
    2.2644   45.3999   30.1362 O   0  0  0  0  0  0  0  0  0  0  0  0
    5.0390   44.5923   24.3691 C   0  0  0  0  0  0  0  0  0  0  0  0
    4.0540   44.2221   25.3436 O   0  0  0  0  0  0  0  0  0  0  0  0
    8.8119   40.1831   34.2120 O   0  0  0  0  0  0  0  0  0  0  0  0
   11.2415   40.7932   33.3699 O   0  0  0  0  0  0  0  0  0  0  0  0
   10.9186   40.6909   31.9972 C   0  0  0  0  0  0  0  0  0  0  0  0
   11.5172   39.3814   31.4407 C   0  0  0  0  0  0  0  0  0  0  0  0
   12.7493   39.0855   32.0727 O   0  0  0  0  0  0  0  0  0  0  0  0
   10.6023   38.1907   31.6665 C   0  0  0  0  0  0  0  0  0  0  0  0
   12.9319   37.6781   32.0281 C   0  0  0  0  0  0  0  0  0  0  0  0
    9.6392   38.0797   30.6452 O   0  0  0  0  0  0  0  0  0  0  0  0
   11.5715   37.0165   31.7056 C   0  0  0  0  0  0  0  0  0  0  0  0
   13.4846   37.2121   33.3235 N   0  0  0  0  0  0  0  0  0  0  0  0
   11.6187   36.3383   30.4694 O   0  0  0  0  0  0  0  0  0  0  0  0
   14.4801   36.3321   33.5724 C   0  0  0  0  0  0  0  0  0  0  0  0
   13.1137   37.6275   34.5687 C   0  0  0  0  0  0  0  0  0  0  0  0
   15.2073   35.6153   32.6738 N   0  0  0  0  0  0  0  0  0  0  0  0
   14.6759   36.2308   34.9179 C   0  0  0  0  0  0  0  0  0  0  0  0
   13.8216   37.0452   35.5780 N   0  0  0  0  0  0  0  0  0  0  0  0
   16.1640   34.7602   33.1546 C   0  0  0  0  0  0  0  0  0  0  0  0
   15.6526   35.3508   35.4129 C   0  0  0  0  0  0  0  0  0  0  0  0
   16.3794   34.6317   34.5041 N   0  0  0  0  0  0  0  0  0  0  0  0
   15.8999   35.1935   36.8088 N   0  0  0  0  0  0  0  0  0  0  0  0
    9.0098   45.4347   33.6668 H   0  0  0  0  0  0  0  0  0  0  0  0
   11.1132   46.1992   34.4884 H   0  0  0  0  0  0  0  0  0  0  0  0
   11.9349   45.6934   33.0928 H   0  0  0  0  0  0  0  0  0  0  0  0
   10.7309   44.8931   31.1675 H   0  0  0  0  0  0  0  0  0  0  0  0
    9.3519   43.8344   31.4757 H   0  0  0  0  0  0  0  0  0  0  0  0
    7.0125   44.7157   31.5844 H   0  0  0  0  0  0  0  0  0  0  0  0
   10.3466   47.1899   30.4156 H   0  0  0  0  0  0  0  0  0  0  0  0
    5.4674   46.2865   30.5206 H   0  0  0  0  0  0  0  0  0  0  0  0
    8.7937   48.7701   29.3432 H   0  0  0  0  0  0  0  0  0  0  0  0
    4.3202   48.2769   30.0429 H   0  0  0  0  0  0  0  0  0  0  0  0
    3.1085   49.6885   28.3652 H   0  0  0  0  0  0  0  0  0  0  0  0
    4.4119   50.5819   29.2329 H   0  0  0  0  0  0  0  0  0  0  0  0
    4.6805   50.0279   27.5377 H   0  0  0  0  0  0  0  0  0  0  0  0
    5.9716   47.9373   26.6352 H   0  0  0  0  0  0  0  0  0  0  0  0
    2.5309   44.4765   27.6729 H   0  0  0  0  0  0  0  0  0  0  0  0
    5.8197   43.8064   24.2957 H   0  0  0  0  0  0  0  0  0  0  0  0
    4.5576   44.7632   23.3835 H   0  0  0  0  0  0  0  0  0  0  0  0
    9.8300   40.7410   31.7610 H   0  0  0  0  0  0  0  0  0  0  0  0
   11.3971   41.5459   31.4735 H   0  0  0  0  0  0  0  0  0  0  0  0
   11.6974   39.5067   30.3480 H   0  0  0  0  0  0  0  0  0  0  0  0
   10.1076   38.2647   32.6645 H   0  0  0  0  0  0  0  0  0  0  0  0
   13.6621   37.4467   31.2208 H   0  0  0  0  0  0  0  0  0  0  0  0
    8.8975   38.6944   30.8830 H   0  0  0  0  0  0  0  0  0  0  0  0
   11.2806   36.3073   32.5170 H   0  0  0  0  0  0  0  0  0  0  0  0
   10.8492   35.7110   30.4585 H   0  0  0  0  0  0  0  0  0  0  0  0
   12.3290   38.3524   34.7444 H   0  0  0  0  0  0  0  0  0  0  0  0
   16.7559   34.1780   32.4619 H   0  0  0  0  0  0  0  0  0  0  0  0
   15.3532   35.7362   37.5137 H   0  0  0  0  0  0  0  0  0  0  0  0
   16.6344   34.5301   37.1414 H   0  0  0  0  0  0  0  0  0  0  0  0
  1  2  2  0
  1  3  1  0
  3  4  1  0
  4  5  1  0
  6  1  1  0
  7  6  1  0
  6  8  1  0
  8  9  1  0
  9 10  2  0
 11  9  1  0
 10 12  1  0
 13 11  2  0
 12 14  2  0
 14 13  1  0
 14 15  1  0
 15 16  1  0
 16 17  1  0
 16 18  1  0
 18 19  2  0
 20 18  1  0
 19 21  1  0
 22 20  2  0
 20 23  1  0
 21 24  1  0
 21 25  2  0
 25 22  1  0
 23 26  1  0
 23 27  2  0
 24 28  1  0
 25 29  1  0
 28 29  1  0
  4 30  2  0
  4 31  1  0
 32 31  1  0
 32 33  1  0
 33 34  1  0
 33 35  1  0
 34 36  1  0
 35 37  1  0
 35 38  1  0
 38 36  1  0
 36 39  1  0
 38 40  1  0
 41 39  1  0
 42 39  1  0
 43 41  2  0
 41 44  1  0
 45 42  2  0
 46 43  1  0
 44 47  2  0
 44 45  1  0
 48 46  2  0
 48 47  1  0
 47 49  1  0
  6 50  1  1
  7 51  1  0
  7 52  1  0
  8 53  1  0
  8 54  1  0
 10 55  1  0
 11 56  1  0
 12 57  1  0
 13 58  1  0
 16 59  1  1
 17 60  1  0
 17 61  1  0
 17 62  1  0
 19 63  1  0
 22 64  1  0
 28 65  1  0
 28 66  1  0
 32 67  1  0
 32 68  1  0
 33 69  1  0
 35 70  1  0
 36 71  1  0
 37 72  1  0
 38 73  1  0
 40 74  1  0
 42 75  1  0
 46 76  1  0
 49 77  1  0
 49 78  1  0
M  CHG  3   5  -1  23   1  26  -1
M  END
>  <EmbedRMS>  (69) 
0.0838285407396

$$$$

     RDKit          3D

 78 83  0  0  0  0  0  0  0  0999 V2000
   10.2804   43.7665   33.8250 C   0  0  0  0  0  0  0  0  0  0  0  0
   11.4111   43.5919   34.3666 O   0  0  0  0  0  0  0  0  0  0  0  0
    9.3619   42.7249   33.7345 O   0  0  0  0  0  0  0  0  0  0  0  0
    9.8903   41.2265   34.2932 P   0  0  0  0  0  0  0  0  0  0  0  0
   10.3742   41.4563   35.8824 O   0  0  0  0  0  0  0  0  0  0  0  0
    9.9458   45.0736   33.2112 C   0  0  1  0  0  0  0  0  0  0  0  0
   11.0266   46.0293   33.4706 N   0  0  0  0  0  0  0  0  0  0  0  0
    9.7535   44.8539   31.6950 C   0  0  0  0  0  0  0  0  0  0  0  0
    8.7955   45.8410   31.0848 C   0  0  0  0  0  0  0  0  0  0  0  0
    7.4087   45.6003   31.1003 C   0  0  0  0  0  0  0  0  0  0  0  0
    9.2830   46.9875   30.4397 C   0  0  0  0  0  0  0  0  0  0  0  0
    6.5282   46.5009   30.4849 C   0  0  0  0  0  0  0  0  0  0  0  0
    8.4024   47.8886   29.8301 C   0  0  0  0  0  0  0  0  0  0  0  0
    7.0137   47.6519   29.8493 C   0  0  0  0  0  0  0  0  0  0  0  0
    6.0864   48.5255   29.2580 O   0  0  0  0  0  0  0  0  0  0  0  0
    6.4052   49.7653   28.6189 C   0  0  1  0  0  0  0  0  0  0  0  0
    5.1530   50.2947   27.9241 C   0  0  0  0  0  0  0  0  0  0  0  0
    6.9009   50.7903   29.6260 C   0  0  0  0  0  0  0  0  0  0  0  0
    6.3083   50.8262   30.9129 C   0  0  0  0  0  0  0  0  0  0  0  0
    7.8751   51.7822   29.2778 C   0  0  0  0  0  0  0  0  0  0  0  0
    6.7114   51.8138   31.8022 C   0  0  0  0  0  0  0  0  0  0  0  0
    8.2356   52.7724   30.2187 C   0  0  0  0  0  0  0  0  0  0  0  0
    8.4847   51.8123   27.9804 N   0  0  0  0  0  0  0  0  0  0  0  0
    6.2798   52.0325   33.0963 O   0  0  0  0  0  0  0  0  0  0  0  0
    7.6340   52.7459   31.4698 C   0  0  0  0  0  0  0  0  0  0  0  0
    9.2481   50.7492   27.5579 O   0  0  0  0  0  0  0  0  0  0  0  0
    8.5584   52.8916   27.3580 O   0  0  0  0  0  0  0  0  0  0  0  0
    6.9799   53.1744   33.6090 C   0  0  0  0  0  0  0  0  0  0  0  0
    7.8336   53.5994   32.5378 O   0  0  0  0  0  0  0  0  0  0  0  0
    8.8124   40.1845   34.2130 O   0  0  0  0  0  0  0  0  0  0  0  0
   11.2404   40.7948   33.3669 O   0  0  0  0  0  0  0  0  0  0  0  0
   10.9132   40.6866   31.9953 C   0  0  0  0  0  0  0  0  0  0  0  0
   11.5166   39.3787   31.4404 C   0  0  0  0  0  0  0  0  0  0  0  0
   12.7485   39.0849   32.0735 O   0  0  0  0  0  0  0  0  0  0  0  0
   10.6039   38.1884   31.6669 C   0  0  0  0  0  0  0  0  0  0  0  0
   12.9329   37.6776   32.0284 C   0  0  0  0  0  0  0  0  0  0  0  0
    9.6374   38.0938   30.6484 O   0  0  0  0  0  0  0  0  0  0  0  0
   11.5737   37.0140   31.7055 C   0  0  0  0  0  0  0  0  0  0  0  0
   13.4853   37.2121   33.3238 N   0  0  0  0  0  0  0  0  0  0  0  0
   11.6210   36.3379   30.4683 O   0  0  0  0  0  0  0  0  0  0  0  0
   14.4804   36.3319   33.5726 C   0  0  0  0  0  0  0  0  0  0  0  0
   13.1141   37.6275   34.5689 C   0  0  0  0  0  0  0  0  0  0  0  0
   15.2076   35.6152   32.6740 N   0  0  0  0  0  0  0  0  0  0  0  0
   14.6761   36.2306   34.9181 C   0  0  0  0  0  0  0  0  0  0  0  0
   13.8218   37.0451   35.5782 N   0  0  0  0  0  0  0  0  0  0  0  0
   16.1642   34.7600   33.1548 C   0  0  0  0  0  0  0  0  0  0  0  0
   15.6527   35.3506   35.4131 C   0  0  0  0  0  0  0  0  0  0  0  0
   16.3795   34.6315   34.5043 N   0  0  0  0  0  0  0  0  0  0  0  0
   15.9000   35.1934   36.8090 N   0  0  0  0  0  0  0  0  0  0  0  0
    8.9995   45.4383   33.6723 H   0  0  0  0  0  0  0  0  0  0  0  0
   10.7762   46.9369   33.0157 H   0  0  0  0  0  0  0  0  0  0  0  0
   11.0503   46.2279   34.4979 H   0  0  0  0  0  0  0  0  0  0  0  0
    9.3636   43.8352   31.4715 H   0  0  0  0  0  0  0  0  0  0  0  0
   10.7407   44.9071   31.1836 H   0  0  0  0  0  0  0  0  0  0  0  0
    7.0130   44.7160   31.5845 H   0  0  0  0  0  0  0  0  0  0  0  0
   10.3472   47.1860   30.4063 H   0  0  0  0  0  0  0  0  0  0  0  0
    5.4637   46.3049   30.5058 H   0  0  0  0  0  0  0  0  0  0  0  0
    8.8141   48.7615   29.3462 H   0  0  0  0  0  0  0  0  0  0  0  0
    7.1558   49.5657   27.8298 H   0  0  0  0  0  0  0  0  0  0  0  0
    4.7951   49.5531   27.1787 H   0  0  0  0  0  0  0  0  0  0  0  0
    4.3431   50.4745   28.6635 H   0  0  0  0  0  0  0  0  0  0  0  0
    5.3798   51.2449   27.3945 H   0  0  0  0  0  0  0  0  0  0  0  0
    5.5480   50.1145   31.2083 H   0  0  0  0  0  0  0  0  0  0  0  0
    8.9683   53.5331   29.9814 H   0  0  0  0  0  0  0  0  0  0  0  0
    7.5877   52.8874   34.4925 H   0  0  0  0  0  0  0  0  0  0  0  0
    6.2618   53.9801   33.8693 H   0  0  0  0  0  0  0  0  0  0  0  0
   11.3824   41.5438   31.4666 H   0  0  0  0  0  0  0  0  0  0  0  0
    9.8223   40.7223   31.7630 H   0  0  0  0  0  0  0  0  0  0  0  0
   11.6978   39.5037   30.3478 H   0  0  0  0  0  0  0  0  0  0  0  0
   10.1084   38.2786   32.6626 H   0  0  0  0  0  0  0  0  0  0  0  0
   13.6638   37.4473   31.2214 H   0  0  0  0  0  0  0  0  0  0  0  0
    8.9762   37.4191   30.9531 H   0  0  0  0  0  0  0  0  0  0  0  0
   11.2822   36.3053   32.5171 H   0  0  0  0  0  0  0  0  0  0  0  0
   10.8659   35.6935   30.4652 H   0  0  0  0  0  0  0  0  0  0  0  0
   12.3293   38.3523   34.7444 H   0  0  0  0  0  0  0  0  0  0  0  0
   16.7561   34.1778   32.4622 H   0  0  0  0  0  0  0  0  0  0  0  0
   15.3532   35.7362   37.5138 H   0  0  0  0  0  0  0  0  0  0  0  0
   16.6345   34.5300   37.1417 H   0  0  0  0  0  0  0  0  0  0  0  0
  1  2  2  0
  1  3  1  0
  3  4  1  0
  4  5  1  0
  6  1  1  0
  7  6  1  0
  6  8  1  0
  8  9  1  0
  9 10  2  0
 11  9  1  0
 10 12  1  0
 13 11  2  0
 12 14  2  0
 14 13  1  0
 14 15  1  0
 15 16  1  0
 16 17  1  0
 16 18  1  0
 18 19  2  0
 20 18  1  0
 19 21  1  0
 22 20  2  0
 20 23  1  0
 21 24  1  0
 21 25  2  0
 25 22  1  0
 23 26  1  0
 23 27  2  0
 24 28  1  0
 25 29  1  0
 28 29  1  0
  4 30  2  0
  4 31  1  0
 32 31  1  0
 32 33  1  0
 33 34  1  0
 33 35  1  0
 34 36  1  0
 35 37  1  0
 35 38  1  0
 38 36  1  0
 36 39  1  0
 38 40  1  0
 41 39  1  0
 42 39  1  0
 43 41  2  0
 41 44  1  0
 45 42  2  0
 46 43  1  0
 44 47  2  0
 44 45  1  0
 48 46  2  0
 48 47  1  0
 47 49  1  0
  6 50  1  1
  7 51  1  0
  7 52  1  0
  8 53  1  0
  8 54  1  0
 10 55  1  0
 11 56  1  0
 12 57  1  0
 13 58  1  0
 16 59  1  6
 17 60  1  0
 17 61  1  0
 17 62  1  0
 19 63  1  0
 22 64  1  0
 28 65  1  0
 28 66  1  0
 32 67  1  0
 32 68  1  0
 33 69  1  0
 35 70  1  0
 36 71  1  0
 37 72  1  0
 38 73  1  0
 40 74  1  0
 42 75  1  0
 46 76  1  0
 49 77  1  0
 49 78  1  0
M  CHG  3   5  -1  23   1  26  -1
M  END
>  <EmbedRMS>  (70) 
0.0823859954214

$$$$

     RDKit          3D

 78 83  0  0  0  0  0  0  0  0999 V2000
   10.2834   43.7662   33.8258 C   0  0  0  0  0  0  0  0  0  0  0  0
   11.4102   43.5930   34.3752 O   0  0  0  0  0  0  0  0  0  0  0  0
    9.3635   42.7257   33.7353 O   0  0  0  0  0  0  0  0  0  0  0  0
    9.8902   41.2268   34.2942 P   0  0  0  0  0  0  0  0  0  0  0  0
   10.3739   41.4559   35.8835 O   0  0  0  0  0  0  0  0  0  0  0  0
    9.9546   45.0695   33.2035 C   0  0  1  0  0  0  0  0  0  0  0  0
   11.0274   46.0321   33.4756 N   0  0  0  0  0  0  0  0  0  0  0  0
    9.7466   44.8479   31.6876 C   0  0  0  0  0  0  0  0  0  0  0  0
    8.7923   45.8405   31.0842 C   0  0  0  0  0  0  0  0  0  0  0  0
    7.4058   45.6016   31.0993 C   0  0  0  0  0  0  0  0  0  0  0  0
    9.2821   46.9876   30.4426 C   0  0  0  0  0  0  0  0  0  0  0  0
    6.5271   46.5035   30.4846 C   0  0  0  0  0  0  0  0  0  0  0  0
    8.4033   47.8905   29.8323 C   0  0  0  0  0  0  0  0  0  0  0  0
    7.0134   47.6526   29.8458 C   0  0  0  0  0  0  0  0  0  0  0  0
    6.0820   48.5212   29.2521 O   0  0  0  0  0  0  0  0  0  0  0  0
    6.3889   49.6843   28.4750 C   0  0  1  0  0  0  0  0  0  0  0  0
    6.8878   49.2668   27.0872 C   0  0  0  0  0  0  0  0  0  0  0  0
    5.1576   50.5676   28.3310 C   0  0  0  0  0  0  0  0  0  0  0  0
    3.8680   50.0037   28.5176 C   0  0  0  0  0  0  0  0  0  0  0  0
    5.2613   51.9383   27.9113 C   0  0  0  0  0  0  0  0  0  0  0  0
    2.7533   50.8016   28.2959 C   0  0  0  0  0  0  0  0  0  0  0  0
    4.0897   52.6947   27.6864 C   0  0  0  0  0  0  0  0  0  0  0  0
    6.5311   52.5684   27.6857 N   0  0  0  0  0  0  0  0  0  0  0  0
    1.4188   50.4644   28.4167 O   0  0  0  0  0  0  0  0  0  0  0  0
    2.8592   52.0891   27.8970 C   0  0  0  0  0  0  0  0  0  0  0  0
    6.6931   53.3962   26.5990 O   0  0  0  0  0  0  0  0  0  0  0  0
    7.3923   52.5872   28.5882 O   0  0  0  0  0  0  0  0  0  0  0  0
    0.6382   51.6175   28.0738 C   0  0  0  0  0  0  0  0  0  0  0  0
    1.5976   52.6323   27.7477 O   0  0  0  0  0  0  0  0  0  0  0  0
    8.8121   40.1851   34.2131 O   0  0  0  0  0  0  0  0  0  0  0  0
   11.2402   40.7952   33.3681 O   0  0  0  0  0  0  0  0  0  0  0  0
   10.9125   40.6877   31.9968 C   0  0  0  0  0  0  0  0  0  0  0  0
   11.5169   39.3811   31.4420 C   0  0  0  0  0  0  0  0  0  0  0  0
   12.7500   39.0881   32.0759 O   0  0  0  0  0  0  0  0  0  0  0  0
   10.6043   38.1893   31.6659 C   0  0  0  0  0  0  0  0  0  0  0  0
   12.9395   37.6814   32.0280 C   0  0  0  0  0  0  0  0  0  0  0  0
    9.6353   38.0951   30.6499 O   0  0  0  0  0  0  0  0  0  0  0  0
   11.5804   37.0191   31.6934 C   0  0  0  0  0  0  0  0  0  0  0  0
   13.4851   37.2119   33.3244 N   0  0  0  0  0  0  0  0  0  0  0  0
   11.6118   36.3189   30.4673 O   0  0  0  0  0  0  0  0  0  0  0  0
   14.4801   36.3316   33.5732 C   0  0  0  0  0  0  0  0  0  0  0  0
   13.1139   37.6277   34.5692 C   0  0  0  0  0  0  0  0  0  0  0  0
   15.2076   35.6154   32.6744 N   0  0  0  0  0  0  0  0  0  0  0  0
   14.6756   36.2303   34.9186 C   0  0  0  0  0  0  0  0  0  0  0  0
   13.8215   37.0451   35.5786 N   0  0  0  0  0  0  0  0  0  0  0  0
   16.1642   34.7602   33.1551 C   0  0  0  0  0  0  0  0  0  0  0  0
   15.6526   35.3505   35.4134 C   0  0  0  0  0  0  0  0  0  0  0  0
   16.3796   34.6316   34.5045 N   0  0  0  0  0  0  0  0  0  0  0  0
   15.9001   35.1933   36.8093 N   0  0  0  0  0  0  0  0  0  0  0  0
    9.0121   45.4318   33.6713 H   0  0  0  0  0  0  0  0  0  0  0  0
   11.8906   45.7658   32.9469 H   0  0  0  0  0  0  0  0  0  0  0  0
   10.7260   46.9687   33.1213 H   0  0  0  0  0  0  0  0  0  0  0  0
   10.7230   44.8812   31.1557 H   0  0  0  0  0  0  0  0  0  0  0  0
    9.3415   43.8327   31.4764 H   0  0  0  0  0  0  0  0  0  0  0  0
    7.0084   44.7172   31.5819 H   0  0  0  0  0  0  0  0  0  0  0  0
   10.3467   47.1850   30.4130 H   0  0  0  0  0  0  0  0  0  0  0  0
    5.4624   46.3075   30.5038 H   0  0  0  0  0  0  0  0  0  0  0  0
    8.8210   48.7648   29.3549 H   0  0  0  0  0  0  0  0  0  0  0  0
    7.1732   50.2534   29.0076 H   0  0  0  0  0  0  0  0  0  0  0  0
    7.1636   50.1590   26.4868 H   0  0  0  0  0  0  0  0  0  0  0  0
    6.0964   48.7014   26.5501 H   0  0  0  0  0  0  0  0  0  0  0  0
    7.7844   48.6196   27.1707 H   0  0  0  0  0  0  0  0  0  0  0  0
    3.7271   48.9702   28.8052 H   0  0  0  0  0  0  0  0  0  0  0  0
    4.1398   53.7278   27.3674 H   0  0  0  0  0  0  0  0  0  0  0  0
    0.0228   51.9365   28.9410 H   0  0  0  0  0  0  0  0  0  0  0  0
   -0.0030   51.3995   27.1941 H   0  0  0  0  0  0  0  0  0  0  0  0
    9.8216   40.7222   31.7647 H   0  0  0  0  0  0  0  0  0  0  0  0
   11.3808   41.5456   31.4685 H   0  0  0  0  0  0  0  0  0  0  0  0
   11.6986   39.5089   30.3499 H   0  0  0  0  0  0  0  0  0  0  0  0
   10.1109   38.2737   32.6630 H   0  0  0  0  0  0  0  0  0  0  0  0
   13.6783   37.4562   31.2271 H   0  0  0  0  0  0  0  0  0  0  0  0
    9.0020   37.3860   30.9348 H   0  0  0  0  0  0  0  0  0  0  0  0
   11.2808   36.3053   32.4921 H   0  0  0  0  0  0  0  0  0  0  0  0
   11.8818   36.9600   29.7584 H   0  0  0  0  0  0  0  0  0  0  0  0
   12.3304   38.3538   34.7445 H   0  0  0  0  0  0  0  0  0  0  0  0
   16.7563   34.1783   32.4623 H   0  0  0  0  0  0  0  0  0  0  0  0
   15.3532   35.7359   37.5142 H   0  0  0  0  0  0  0  0  0  0  0  0
   16.6348   34.5301   37.1418 H   0  0  0  0  0  0  0  0  0  0  0  0
  1  2  2  0
  1  3  1  0
  3  4  1  0
  4  5  1  0
  6  1  1  0
  7  6  1  0
  6  8  1  0
  8  9  1  0
  9 10  2  0
 11  9  1  0
 10 12  1  0
 13 11  2  0
 12 14  2  0
 14 13  1  0
 14 15  1  0
 15 16  1  0
 16 17  1  0
 16 18  1  0
 18 19  2  0
 20 18  1  0
 19 21  1  0
 22 20  2  0
 20 23  1  0
 21 24  1  0
 21 25  2  0
 25 22  1  0
 23 26  1  0
 23 27  2  0
 24 28  1  0
 25 29  1  0
 28 29  1  0
  4 30  2  0
  4 31  1  0
 32 31  1  0
 32 33  1  0
 33 34  1  0
 33 35  1  0
 34 36  1  0
 35 37  1  0
 35 38  1  0
 38 36  1  0
 36 39  1  0
 38 40  1  0
 41 39  1  0
 42 39  1  0
 43 41  2  0
 41 44  1  0
 45 42  2  0
 46 43  1  0
 44 47  2  0
 44 45  1  0
 48 46  2  0
 48 47  1  0
 47 49  1  0
  6 50  1  1
  7 51  1  0
  7 52  1  0
  8 53  1  0
  8 54  1  0
 10 55  1  0
 11 56  1  0
 12 57  1  0
 13 58  1  0
 16 59  1  1
 17 60  1  0
 17 61  1  0
 17 62  1  0
 19 63  1  0
 22 64  1  0
 28 65  1  0
 28 66  1  0
 32 67  1  0
 32 68  1  0
 33 69  1  0
 35 70  1  0
 36 71  1  0
 37 72  1  0
 38 73  1  0
 40 74  1  0
 42 75  1  0
 46 76  1  0
 49 77  1  0
 49 78  1  0
M  CHG  3   5  -1  23   1  26  -1
M  END
>  <EmbedRMS>  (71) 
0.0815627194638

$$$$

     RDKit          3D

 78 83  0  0  0  0  0  0  0  0999 V2000
   10.2836   43.7660   33.8257 C   0  0  0  0  0  0  0  0  0  0  0  0
   11.4103   43.5930   34.3754 O   0  0  0  0  0  0  0  0  0  0  0  0
    9.3641   42.7252   33.7347 O   0  0  0  0  0  0  0  0  0  0  0  0
    9.8908   41.2264   34.2939 P   0  0  0  0  0  0  0  0  0  0  0  0
   10.3732   41.4558   35.8836 O   0  0  0  0  0  0  0  0  0  0  0  0
    9.9547   45.0693   33.2036 C   0  0  1  0  0  0  0  0  0  0  0  0
   11.0274   46.0321   33.4756 N   0  0  0  0  0  0  0  0  0  0  0  0
    9.7466   44.8479   31.6877 C   0  0  0  0  0  0  0  0  0  0  0  0
    8.7923   45.8406   31.0848 C   0  0  0  0  0  0  0  0  0  0  0  0
    7.4061   45.6016   31.0992 C   0  0  0  0  0  0  0  0  0  0  0  0
    9.2816   46.9871   30.4426 C   0  0  0  0  0  0  0  0  0  0  0  0
    6.5280   46.5032   30.4836 C   0  0  0  0  0  0  0  0  0  0  0  0
    8.4030   47.8895   29.8319 C   0  0  0  0  0  0  0  0  0  0  0  0
    7.0128   47.6544   29.8466 C   0  0  0  0  0  0  0  0  0  0  0  0
    6.0735   48.5110   29.2431 O   0  0  0  0  0  0  0  0  0  0  0  0
    6.3248   49.7502   28.5666 C   0  0  1  0  0  0  0  0  0  0  0  0
    6.7227   50.8333   29.5821 C   0  0  0  0  0  0  0  0  0  0  0  0
    7.2575   49.5609   27.3690 C   0  0  0  0  0  0  0  0  0  0  0  0
    8.3828   50.4093   27.1794 C   0  0  0  0  0  0  0  0  0  0  0  0
    7.0254   48.5012   26.4254 C   0  0  0  0  0  0  0  0  0  0  0  0
    9.2375   50.1565   26.1151 C   0  0  0  0  0  0  0  0  0  0  0  0
    7.9414   48.2863   25.3700 C   0  0  0  0  0  0  0  0  0  0  0  0
    5.8816   47.6358   26.5274 N   0  0  0  0  0  0  0  0  0  0  0  0
   10.3850   50.8376   25.7564 O   0  0  0  0  0  0  0  0  0  0  0  0
    9.0292   49.1379   25.2521 C   0  0  0  0  0  0  0  0  0  0  0  0
    4.6299   48.1579   26.7561 O   0  0  0  0  0  0  0  0  0  0  0  0
    5.9830   46.4292   26.2236 O   0  0  0  0  0  0  0  0  0  0  0  0
   10.9306   50.2029   24.5920 C   0  0  0  0  0  0  0  0  0  0  0  0
   10.0334   49.1223   24.3034 O   0  0  0  0  0  0  0  0  0  0  0  0
    8.8127   40.1847   34.2122 O   0  0  0  0  0  0  0  0  0  0  0  0
   11.2421   40.7941   33.3697 O   0  0  0  0  0  0  0  0  0  0  0  0
   10.9187   40.6911   31.9971 C   0  0  0  0  0  0  0  0  0  0  0  0
   11.5172   39.3815   31.4407 C   0  0  0  0  0  0  0  0  0  0  0  0
   12.7493   39.0856   32.0728 O   0  0  0  0  0  0  0  0  0  0  0  0
   10.6023   38.1908   31.6665 C   0  0  0  0  0  0  0  0  0  0  0  0
   12.9319   37.6781   32.0281 C   0  0  0  0  0  0  0  0  0  0  0  0
    9.6392   38.0798   30.6452 O   0  0  0  0  0  0  0  0  0  0  0  0
   11.5715   37.0166   31.7056 C   0  0  0  0  0  0  0  0  0  0  0  0
   13.4847   37.2121   33.3235 N   0  0  0  0  0  0  0  0  0  0  0  0
   11.6187   36.3384   30.4695 O   0  0  0  0  0  0  0  0  0  0  0  0
   14.4801   36.3321   33.5724 C   0  0  0  0  0  0  0  0  0  0  0  0
   13.1137   37.6275   34.5688 C   0  0  0  0  0  0  0  0  0  0  0  0
   15.2073   35.6153   32.6738 N   0  0  0  0  0  0  0  0  0  0  0  0
   14.6759   36.2308   34.9179 C   0  0  0  0  0  0  0  0  0  0  0  0
   13.8216   37.0452   35.5781 N   0  0  0  0  0  0  0  0  0  0  0  0
   16.1640   34.7602   33.1546 C   0  0  0  0  0  0  0  0  0  0  0  0
   15.6526   35.3508   35.4129 C   0  0  0  0  0  0  0  0  0  0  0  0
   16.3794   34.6317   34.5041 N   0  0  0  0  0  0  0  0  0  0  0  0
   15.8999   35.1935   36.8088 N   0  0  0  0  0  0  0  0  0  0  0  0
    9.0121   45.4315   33.6715 H   0  0  0  0  0  0  0  0  0  0  0  0
   11.8906   45.7658   32.9469 H   0  0  0  0  0  0  0  0  0  0  0  0
   10.7259   46.9686   33.1212 H   0  0  0  0  0  0  0  0  0  0  0  0
   10.7230   44.8813   31.1556 H   0  0  0  0  0  0  0  0  0  0  0  0
    9.3415   43.8328   31.4763 H   0  0  0  0  0  0  0  0  0  0  0  0
    7.0086   44.7166   31.5806 H   0  0  0  0  0  0  0  0  0  0  0  0
   10.3464   47.1833   30.4106 H   0  0  0  0  0  0  0  0  0  0  0  0
    5.4638   46.3047   30.4999 H   0  0  0  0  0  0  0  0  0  0  0  0
    8.8258   48.7545   29.3492 H   0  0  0  0  0  0  0  0  0  0  0  0
    5.3534   50.0920   28.1520 H   0  0  0  0  0  0  0  0  0  0  0  0
    5.9819   50.8542   30.4094 H   0  0  0  0  0  0  0  0  0  0  0  0
    7.7221   50.6426   30.0208 H   0  0  0  0  0  0  0  0  0  0  0  0
    6.7176   51.8340   29.0998 H   0  0  0  0  0  0  0  0  0  0  0  0
    8.6123   51.2318   27.8406 H   0  0  0  0  0  0  0  0  0  0  0  0
    7.7965   47.4903   24.6509 H   0  0  0  0  0  0  0  0  0  0  0  0
   11.9462   49.8103   24.8088 H   0  0  0  0  0  0  0  0  0  0  0  0
   10.9568   50.9168   23.7422 H   0  0  0  0  0  0  0  0  0  0  0  0
    9.8300   40.7410   31.7613 H   0  0  0  0  0  0  0  0  0  0  0  0
   11.3968   41.5460   31.4729 H   0  0  0  0  0  0  0  0  0  0  0  0
   11.6975   39.5067   30.3481 H   0  0  0  0  0  0  0  0  0  0  0  0
   10.1076   38.2648   32.6645 H   0  0  0  0  0  0  0  0  0  0  0  0
   13.6621   37.4467   31.2209 H   0  0  0  0  0  0  0  0  0  0  0  0
    8.8975   38.6944   30.8831 H   0  0  0  0  0  0  0  0  0  0  0  0
   11.2806   36.3073   32.5170 H   0  0  0  0  0  0  0  0  0  0  0  0
   10.8492   35.7110   30.4586 H   0  0  0  0  0  0  0  0  0  0  0  0
   12.3290   38.3524   34.7444 H   0  0  0  0  0  0  0  0  0  0  0  0
   16.7559   34.1780   32.4619 H   0  0  0  0  0  0  0  0  0  0  0  0
   16.6344   34.5301   37.1414 H   0  0  0  0  0  0  0  0  0  0  0  0
   15.3532   35.7362   37.5137 H   0  0  0  0  0  0  0  0  0  0  0  0
  1  2  2  0
  1  3  1  0
  3  4  1  0
  4  5  1  0
  6  1  1  0
  7  6  1  0
  6  8  1  0
  8  9  1  0
  9 10  2  0
 11  9  1  0
 10 12  1  0
 13 11  2  0
 12 14  2  0
 14 13  1  0
 14 15  1  0
 15 16  1  0
 16 17  1  0
 16 18  1  0
 18 19  2  0
 20 18  1  0
 19 21  1  0
 22 20  2  0
 20 23  1  0
 21 24  1  0
 21 25  2  0
 25 22  1  0
 23 26  1  0
 23 27  2  0
 24 28  1  0
 25 29  1  0
 28 29  1  0
  4 30  2  0
  4 31  1  0
 32 31  1  0
 32 33  1  0
 33 34  1  0
 33 35  1  0
 34 36  1  0
 35 37  1  0
 35 38  1  0
 38 36  1  0
 36 39  1  0
 38 40  1  0
 41 39  1  0
 42 39  1  0
 43 41  2  0
 41 44  1  0
 45 42  2  0
 46 43  1  0
 44 47  2  0
 44 45  1  0
 48 46  2  0
 48 47  1  0
 47 49  1  0
  6 50  1  1
  7 51  1  0
  7 52  1  0
  8 53  1  0
  8 54  1  0
 10 55  1  0
 11 56  1  0
 12 57  1  0
 13 58  1  0
 16 59  1  6
 17 60  1  0
 17 61  1  0
 17 62  1  0
 19 63  1  0
 22 64  1  0
 28 65  1  0
 28 66  1  0
 32 67  1  0
 32 68  1  0
 33 69  1  0
 35 70  1  0
 36 71  1  0
 37 72  1  0
 38 73  1  0
 40 74  1  0
 42 75  1  0
 46 76  1  0
 49 77  1  0
 49 78  1  0
M  CHG  3   5  -1  23   1  26  -1
M  END
>  <EmbedRMS>  (72) 
0.0829330355792

$$$$

     RDKit          3D

 78 83  0  0  0  0  0  0  0  0999 V2000
   10.2840   43.7628   33.8277 C   0  0  0  0  0  0  0  0  0  0  0  0
   11.4107   43.5866   34.3759 O   0  0  0  0  0  0  0  0  0  0  0  0
    9.3631   42.7237   33.7359 O   0  0  0  0  0  0  0  0  0  0  0  0
    9.8891   41.2249   34.2951 P   0  0  0  0  0  0  0  0  0  0  0  0
   10.3716   41.4554   35.8846 O   0  0  0  0  0  0  0  0  0  0  0  0
    9.9546   45.0706   33.2077 C   0  0  1  0  0  0  0  0  0  0  0  0
   11.0197   46.0488   33.4584 N   0  0  0  0  0  0  0  0  0  0  0  0
    9.7500   44.8525   31.6937 C   0  0  0  0  0  0  0  0  0  0  0  0
    8.7939   45.8438   31.0901 C   0  0  0  0  0  0  0  0  0  0  0  0
    7.4077   45.6026   31.1023 C   0  0  0  0  0  0  0  0  0  0  0  0
    9.2827   46.9891   30.4452 C   0  0  0  0  0  0  0  0  0  0  0  0
    6.5290   46.5012   30.4826 C   0  0  0  0  0  0  0  0  0  0  0  0
    8.4035   47.8883   29.8306 C   0  0  0  0  0  0  0  0  0  0  0  0
    7.0138   47.6509   29.8431 C   0  0  0  0  0  0  0  0  0  0  0  0
    6.0787   48.4968   29.2141 O   0  0  0  0  0  0  0  0  0  0  0  0
    6.2883   49.8308   28.7210 C   0  0  1  0  0  0  0  0  0  0  0  0
    6.8654   50.7297   29.8326 C   0  0  0  0  0  0  0  0  0  0  0  0
    7.0899   49.8790   27.4168 C   0  0  0  0  0  0  0  0  0  0  0  0
    7.5460   48.6759   26.8135 C   0  0  0  0  0  0  0  0  0  0  0  0
    7.3903   51.1261   26.7675 C   0  0  0  0  0  0  0  0  0  0  0  0
    8.3528   48.7554   25.6867 C   0  0  0  0  0  0  0  0  0  0  0  0
    8.2254   51.1439   25.6271 C   0  0  0  0  0  0  0  0  0  0  0  0
    6.8303   52.3675   27.2214 N   0  0  0  0  0  0  0  0  0  0  0  0
    8.9397   47.7257   24.9773 O   0  0  0  0  0  0  0  0  0  0  0  0
    8.6855   49.9369   25.1240 C   0  0  0  0  0  0  0  0  0  0  0  0
    5.4751   52.4759   27.4270 O   0  0  0  0  0  0  0  0  0  0  0  0
    7.5228   53.4062   27.2083 O   0  0  0  0  0  0  0  0  0  0  0  0
    9.6965   48.3026   23.9040 C   0  0  0  0  0  0  0  0  0  0  0  0
    9.4990   49.7163   24.0289 O   0  0  0  0  0  0  0  0  0  0  0  0
    8.8109   40.1832   34.2128 O   0  0  0  0  0  0  0  0  0  0  0  0
   11.2410   40.7940   33.3713 O   0  0  0  0  0  0  0  0  0  0  0  0
   10.9179   40.6916   31.9987 C   0  0  0  0  0  0  0  0  0  0  0  0
   11.5176   39.3835   31.4419 C   0  0  0  0  0  0  0  0  0  0  0  0
   12.7509   39.0885   32.0748 O   0  0  0  0  0  0  0  0  0  0  0  0
   10.6030   38.1912   31.6656 C   0  0  0  0  0  0  0  0  0  0  0  0
   12.9387   37.6816   32.0276 C   0  0  0  0  0  0  0  0  0  0  0  0
    9.6369   38.0799   30.6472 O   0  0  0  0  0  0  0  0  0  0  0  0
   11.5782   37.0210   31.6931 C   0  0  0  0  0  0  0  0  0  0  0  0
   13.4851   37.2119   33.3240 N   0  0  0  0  0  0  0  0  0  0  0  0
   11.6099   36.3198   30.4672 O   0  0  0  0  0  0  0  0  0  0  0  0
   14.4795   36.3310   33.5730 C   0  0  0  0  0  0  0  0  0  0  0  0
   13.1142   37.6277   34.5688 C   0  0  0  0  0  0  0  0  0  0  0  0
   15.2069   35.6149   32.6740 N   0  0  0  0  0  0  0  0  0  0  0  0
   14.6752   36.2298   34.9184 C   0  0  0  0  0  0  0  0  0  0  0  0
   13.8215   37.0449   35.5785 N   0  0  0  0  0  0  0  0  0  0  0  0
   16.1640   34.7601   33.1545 C   0  0  0  0  0  0  0  0  0  0  0  0
   15.6526   35.3505   35.4132 C   0  0  0  0  0  0  0  0  0  0  0  0
   16.3796   34.6318   34.5041 N   0  0  0  0  0  0  0  0  0  0  0  0
   15.9002   35.1938   36.8092 N   0  0  0  0  0  0  0  0  0  0  0  0
    9.0098   45.4350   33.6695 H   0  0  0  0  0  0  0  0  0  0  0  0
   11.9345   45.6957   33.0918 H   0  0  0  0  0  0  0  0  0  0  0  0
   11.1155   46.1987   34.4897 H   0  0  0  0  0  0  0  0  0  0  0  0
   10.7302   44.8953   31.1686 H   0  0  0  0  0  0  0  0  0  0  0  0
    9.3510   43.8360   31.4775 H   0  0  0  0  0  0  0  0  0  0  0  0
    7.0109   44.7176   31.5844 H   0  0  0  0  0  0  0  0  0  0  0  0
   10.3478   47.1819   30.4063 H   0  0  0  0  0  0  0  0  0  0  0  0
    5.4655   46.3001   30.4952 H   0  0  0  0  0  0  0  0  0  0  0  0
    8.8246   48.7358   29.3138 H   0  0  0  0  0  0  0  0  0  0  0  0
    5.2755   50.2173   28.4854 H   0  0  0  0  0  0  0  0  0  0  0  0
    6.5230   51.7775   29.7143 H   0  0  0  0  0  0  0  0  0  0  0  0
    7.9743   50.7324   29.8305 H   0  0  0  0  0  0  0  0  0  0  0  0
    6.5089   50.3840   30.8270 H   0  0  0  0  0  0  0  0  0  0  0  0
    7.3013   47.6998   27.2034 H   0  0  0  0  0  0  0  0  0  0  0  0
    8.4802   52.0714   25.1303 H   0  0  0  0  0  0  0  0  0  0  0  0
    9.3100   47.9462   22.9265 H   0  0  0  0  0  0  0  0  0  0  0  0
   10.7727   48.0556   24.0165 H   0  0  0  0  0  0  0  0  0  0  0  0
    9.8295   40.7406   31.7621 H   0  0  0  0  0  0  0  0  0  0  0  0
   11.3953   41.5468   31.4744 H   0  0  0  0  0  0  0  0  0  0  0  0
   11.6978   39.5126   30.3494 H   0  0  0  0  0  0  0  0  0  0  0  0
   10.1130   38.2608   32.6663 H   0  0  0  0  0  0  0  0  0  0  0  0
   13.6766   37.4550   31.2261 H   0  0  0  0  0  0  0  0  0  0  0  0
    8.8960   38.6948   30.8869 H   0  0  0  0  0  0  0  0  0  0  0  0
   11.2782   36.3068   32.4917 H   0  0  0  0  0  0  0  0  0  0  0  0
   11.8835   36.9596   29.7583 H   0  0  0  0  0  0  0  0  0  0  0  0
   12.3316   38.3547   34.7433 H   0  0  0  0  0  0  0  0  0  0  0  0
   16.7550   34.1771   32.4615 H   0  0  0  0  0  0  0  0  0  0  0  0
   16.6342   34.5302   37.1424 H   0  0  0  0  0  0  0  0  0  0  0  0
   15.3529   35.7359   37.5142 H   0  0  0  0  0  0  0  0  0  0  0  0
  1  2  2  0
  1  3  1  0
  3  4  1  0
  4  5  1  0
  6  1  1  0
  7  6  1  0
  6  8  1  0
  8  9  1  0
  9 10  2  0
 11  9  1  0
 10 12  1  0
 13 11  2  0
 12 14  2  0
 14 13  1  0
 14 15  1  0
 15 16  1  0
 16 17  1  0
 16 18  1  0
 18 19  2  0
 20 18  1  0
 19 21  1  0
 22 20  2  0
 20 23  1  0
 21 24  1  0
 21 25  2  0
 25 22  1  0
 23 26  1  0
 23 27  2  0
 24 28  1  0
 25 29  1  0
 28 29  1  0
  4 30  2  0
  4 31  1  0
 32 31  1  0
 32 33  1  0
 33 34  1  0
 33 35  1  0
 34 36  1  0
 35 37  1  0
 35 38  1  0
 38 36  1  0
 36 39  1  0
 38 40  1  0
 41 39  1  0
 42 39  1  0
 43 41  2  0
 41 44  1  0
 45 42  2  0
 46 43  1  0
 44 47  2  0
 44 45  1  0
 48 46  2  0
 48 47  1  0
 47 49  1  0
  6 50  1  1
  7 51  1  0
  7 52  1  0
  8 53  1  0
  8 54  1  0
 10 55  1  0
 11 56  1  0
 12 57  1  0
 13 58  1  0
 16 59  1  6
 17 60  1  0
 17 61  1  0
 17 62  1  0
 19 63  1  0
 22 64  1  0
 28 65  1  0
 28 66  1  0
 32 67  1  0
 32 68  1  0
 33 69  1  0
 35 70  1  0
 36 71  1  0
 37 72  1  0
 38 73  1  0
 40 74  1  0
 42 75  1  0
 46 76  1  0
 49 77  1  0
 49 78  1  0
M  CHG  3   5  -1  23   1  26  -1
M  END
>  <EmbedRMS>  (73) 
0.0828898334396

$$$$

     RDKit          3D

 78 83  0  0  0  0  0  0  0  0999 V2000
   10.2835   43.7631   33.8277 C   0  0  0  0  0  0  0  0  0  0  0  0
   11.4101   43.5869   34.3766 O   0  0  0  0  0  0  0  0  0  0  0  0
    9.3630   42.7238   33.7355 O   0  0  0  0  0  0  0  0  0  0  0  0
    9.8895   41.2252   34.2947 P   0  0  0  0  0  0  0  0  0  0  0  0
   10.3720   41.4548   35.8843 O   0  0  0  0  0  0  0  0  0  0  0  0
    9.9542   45.0705   33.2064 C   0  0  1  0  0  0  0  0  0  0  0  0
   11.0190   46.0488   33.4569 N   0  0  0  0  0  0  0  0  0  0  0  0
    9.7499   44.8513   31.6924 C   0  0  0  0  0  0  0  0  0  0  0  0
    8.7941   45.8419   31.0866 C   0  0  0  0  0  0  0  0  0  0  0  0
    7.4060   45.5993   31.0980 C   0  0  0  0  0  0  0  0  0  0  0  0
    9.2840   46.9890   30.4421 C   0  0  0  0  0  0  0  0  0  0  0  0
    6.5260   46.4998   30.4814 C   0  0  0  0  0  0  0  0  0  0  0  0
    8.4026   47.8879   29.8299 C   0  0  0  0  0  0  0  0  0  0  0  0
    7.0208   47.6535   29.8583 C   0  0  0  0  0  0  0  0  0  0  0  0
    6.1443   48.5500   29.2423 O   0  0  0  0  0  0  0  0  0  0  0  0
    5.6046   49.7092   29.8855 C   0  0  1  0  0  0  0  0  0  0  0  0
    4.5062   49.3332   30.8856 C   0  0  0  0  0  0  0  0  0  0  0  0
    6.7050   50.6208   30.4280 C   0  0  0  0  0  0  0  0  0  0  0  0
    7.1977   51.6223   29.5538 C   0  0  0  0  0  0  0  0  0  0  0  0
    7.3275   50.4638   31.7149 C   0  0  0  0  0  0  0  0  0  0  0  0
    8.2550   52.4186   29.9741 C   0  0  0  0  0  0  0  0  0  0  0  0
    8.4016   51.2999   32.0867 C   0  0  0  0  0  0  0  0  0  0  0  0
    6.8851   49.4884   32.6596 N   0  0  0  0  0  0  0  0  0  0  0  0
    8.8848   53.4409   29.2906 O   0  0  0  0  0  0  0  0  0  0  0  0
    8.8322   52.2635   31.1867 C   0  0  0  0  0  0  0  0  0  0  0  0
    5.9211   49.8456   33.5731 O   0  0  0  0  0  0  0  0  0  0  0  0
    7.6171   48.5103   32.9125 O   0  0  0  0  0  0  0  0  0  0  0  0
    9.9232   53.9613   30.1318 C   0  0  0  0  0  0  0  0  0  0  0  0
    9.8547   53.1810   31.3330 O   0  0  0  0  0  0  0  0  0  0  0  0
    8.8118   40.1833   34.2124 O   0  0  0  0  0  0  0  0  0  0  0  0
   11.2411   40.7940   33.3709 O   0  0  0  0  0  0  0  0  0  0  0  0
   10.9179   40.6920   31.9985 C   0  0  0  0  0  0  0  0  0  0  0  0
   11.5175   39.3837   31.4423 C   0  0  0  0  0  0  0  0  0  0  0  0
   12.7508   39.0887   32.0752 O   0  0  0  0  0  0  0  0  0  0  0  0
   10.6028   38.1916   31.6658 C   0  0  0  0  0  0  0  0  0  0  0  0
   12.9385   37.6818   32.0278 C   0  0  0  0  0  0  0  0  0  0  0  0
    9.6371   38.0805   30.6470 O   0  0  0  0  0  0  0  0  0  0  0  0
   11.5780   37.0215   31.6935 C   0  0  0  0  0  0  0  0  0  0  0  0
   13.4844   37.2119   33.3242 N   0  0  0  0  0  0  0  0  0  0  0  0
   11.6095   36.3201   30.4679 O   0  0  0  0  0  0  0  0  0  0  0  0
   14.4797   36.3318   33.5730 C   0  0  0  0  0  0  0  0  0  0  0  0
   13.1135   37.6278   34.5691 C   0  0  0  0  0  0  0  0  0  0  0  0
   15.2073   35.6155   32.6742 N   0  0  0  0  0  0  0  0  0  0  0  0
   14.6754   36.2305   34.9184 C   0  0  0  0  0  0  0  0  0  0  0  0
   13.8213   37.0452   35.5785 N   0  0  0  0  0  0  0  0  0  0  0  0
   16.1640   34.7604   33.1549 C   0  0  0  0  0  0  0  0  0  0  0  0
   15.6524   35.3507   35.4132 C   0  0  0  0  0  0  0  0  0  0  0  0
   16.3794   34.6318   34.5044 N   0  0  0  0  0  0  0  0  0  0  0  0
   15.8999   35.1934   36.8091 N   0  0  0  0  0  0  0  0  0  0  0  0
    9.0091   45.4356   33.6667 H   0  0  0  0  0  0  0  0  0  0  0  0
   11.1118   46.2007   34.4881 H   0  0  0  0  0  0  0  0  0  0  0  0
   11.9343   45.6940   33.0932 H   0  0  0  0  0  0  0  0  0  0  0  0
    9.3509   43.8347   31.4762 H   0  0  0  0  0  0  0  0  0  0  0  0
   10.7303   44.8930   31.1678 H   0  0  0  0  0  0  0  0  0  0  0  0
    7.0100   44.7126   31.5774 H   0  0  0  0  0  0  0  0  0  0  0  0
   10.3481   47.1881   30.4111 H   0  0  0  0  0  0  0  0  0  0  0  0
    5.4619   46.3020   30.4906 H   0  0  0  0  0  0  0  0  0  0  0  0
    8.7929   48.7687   29.3360 H   0  0  0  0  0  0  0  0  0  0  0  0
    5.0692   50.2767   29.0922 H   0  0  0  0  0  0  0  0  0  0  0  0
    3.6225   48.9462   30.3347 H   0  0  0  0  0  0  0  0  0  0  0  0
    4.8347   48.5304   31.5737 H   0  0  0  0  0  0  0  0  0  0  0  0
    4.1887   50.2255   31.4658 H   0  0  0  0  0  0  0  0  0  0  0  0
    6.7809   51.7671   28.5650 H   0  0  0  0  0  0  0  0  0  0  0  0
    8.8814   51.1990   33.0520 H   0  0  0  0  0  0  0  0  0  0  0  0
   10.9128   53.8306   29.6459 H   0  0  0  0  0  0  0  0  0  0  0  0
    9.7336   55.0314   30.3587 H   0  0  0  0  0  0  0  0  0  0  0  0
   11.3954   41.5477   31.4750 H   0  0  0  0  0  0  0  0  0  0  0  0
    9.8291   40.7410   31.7624 H   0  0  0  0  0  0  0  0  0  0  0  0
   11.6981   39.5116   30.3500 H   0  0  0  0  0  0  0  0  0  0  0  0
   10.1117   38.2603   32.6660 H   0  0  0  0  0  0  0  0  0  0  0  0
   13.6767   37.4556   31.2267 H   0  0  0  0  0  0  0  0  0  0  0  0
    8.8961   38.6951   30.8872 H   0  0  0  0  0  0  0  0  0  0  0  0
   11.2792   36.3072   32.4922 H   0  0  0  0  0  0  0  0  0  0  0  0
   11.8828   36.9598   29.7588 H   0  0  0  0  0  0  0  0  0  0  0  0
   12.3300   38.3538   34.7446 H   0  0  0  0  0  0  0  0  0  0  0  0
   16.7562   34.1785   32.4622 H   0  0  0  0  0  0  0  0  0  0  0  0
   15.3531   35.7360   37.5140 H   0  0  0  0  0  0  0  0  0  0  0  0
   16.6347   34.5303   37.1416 H   0  0  0  0  0  0  0  0  0  0  0  0
  1  2  2  0
  1  3  1  0
  3  4  1  0
  4  5  1  0
  6  1  1  0
  7  6  1  0
  6  8  1  0
  8  9  1  0
  9 10  2  0
 11  9  1  0
 10 12  1  0
 13 11  2  0
 12 14  2  0
 14 13  1  0
 14 15  1  0
 15 16  1  0
 16 17  1  0
 16 18  1  0
 18 19  2  0
 20 18  1  0
 19 21  1  0
 22 20  2  0
 20 23  1  0
 21 24  1  0
 21 25  2  0
 25 22  1  0
 23 26  1  0
 23 27  2  0
 24 28  1  0
 25 29  1  0
 28 29  1  0
  4 30  2  0
  4 31  1  0
 32 31  1  0
 32 33  1  0
 33 34  1  0
 33 35  1  0
 34 36  1  0
 35 37  1  0
 35 38  1  0
 38 36  1  0
 36 39  1  0
 38 40  1  0
 41 39  1  0
 42 39  1  0
 43 41  2  0
 41 44  1  0
 45 42  2  0
 46 43  1  0
 44 47  2  0
 44 45  1  0
 48 46  2  0
 48 47  1  0
 47 49  1  0
  6 50  1  1
  7 51  1  0
  7 52  1  0
  8 53  1  0
  8 54  1  0
 10 55  1  0
 11 56  1  0
 12 57  1  0
 13 58  1  0
 16 59  1  6
 17 60  1  0
 17 61  1  0
 17 62  1  0
 19 63  1  0
 22 64  1  0
 28 65  1  0
 28 66  1  0
 32 67  1  0
 32 68  1  0
 33 69  1  0
 35 70  1  0
 36 71  1  0
 37 72  1  0
 38 73  1  0
 40 74  1  0
 42 75  1  0
 46 76  1  0
 49 77  1  0
 49 78  1  0
M  CHG  3   5  -1  23   1  26  -1
M  END
>  <EmbedRMS>  (74) 
0.0829922686127

$$$$

     RDKit          3D

 78 83  0  0  0  0  0  0  0  0999 V2000
   10.2833   43.7663   33.8257 C   0  0  0  0  0  0  0  0  0  0  0  0
   11.4100   43.5931   34.3752 O   0  0  0  0  0  0  0  0  0  0  0  0
    9.3634   42.7257   33.7352 O   0  0  0  0  0  0  0  0  0  0  0  0
    9.8899   41.2270   34.2947 P   0  0  0  0  0  0  0  0  0  0  0  0
   10.3732   41.4563   35.8841 O   0  0  0  0  0  0  0  0  0  0  0  0
    9.9546   45.0695   33.2032 C   0  0  1  0  0  0  0  0  0  0  0  0
   11.0271   46.0323   33.4757 N   0  0  0  0  0  0  0  0  0  0  0  0
    9.7474   44.8480   31.6872 C   0  0  0  0  0  0  0  0  0  0  0  0
    8.7929   45.8399   31.0830 C   0  0  0  0  0  0  0  0  0  0  0  0
    7.4064   45.6016   31.1002 C   0  0  0  0  0  0  0  0  0  0  0  0
    9.2816   46.9877   30.4425 C   0  0  0  0  0  0  0  0  0  0  0  0
    6.5251   46.5021   30.4868 C   0  0  0  0  0  0  0  0  0  0  0  0
    8.3999   47.8888   29.8349 C   0  0  0  0  0  0  0  0  0  0  0  0
    7.0181   47.6555   29.8422 C   0  0  0  0  0  0  0  0  0  0  0  0
    6.1867   48.6041   29.2143 O   0  0  0  0  0  0  0  0  0  0  0  0
    4.8054   48.4528   28.8457 C   0  0  1  0  0  0  0  0  0  0  0  0
    4.6086   47.1773   28.0005 C   0  0  0  0  0  0  0  0  0  0  0  0
    3.8464   48.5509   30.0356 C   0  0  0  0  0  0  0  0  0  0  0  0
    4.3527   48.7713   31.3449 C   0  0  0  0  0  0  0  0  0  0  0  0
    2.4228   48.4391   29.8617 C   0  0  0  0  0  0  0  0  0  0  0  0
    3.4668   48.7745   32.4137 C   0  0  0  0  0  0  0  0  0  0  0  0
    1.5730   48.4308   30.9903 C   0  0  0  0  0  0  0  0  0  0  0  0
    1.8212   48.3728   28.5608 N   0  0  0  0  0  0  0  0  0  0  0  0
    3.7437   48.9429   33.7569 O   0  0  0  0  0  0  0  0  0  0  0  0
    2.1375   48.6007   32.2453 C   0  0  0  0  0  0  0  0  0  0  0  0
    0.7260   47.5658   28.3558 O   0  0  0  0  0  0  0  0  0  0  0  0
    2.1179   49.2175   27.6914 O   0  0  0  0  0  0  0  0  0  0  0  0
    2.5058   48.8660   34.4767 C   0  0  0  0  0  0  0  0  0  0  0  0
    1.5053   48.6480   33.4728 O   0  0  0  0  0  0  0  0  0  0  0  0
    8.8120   40.1851   34.2133 O   0  0  0  0  0  0  0  0  0  0  0  0
   11.2403   40.7947   33.3700 O   0  0  0  0  0  0  0  0  0  0  0  0
   10.9144   40.6914   31.9982 C   0  0  0  0  0  0  0  0  0  0  0  0
   11.5270   39.3912   31.4385 C   0  0  0  0  0  0  0  0  0  0  0  0
   12.7520   39.0911   32.0837 O   0  0  0  0  0  0  0  0  0  0  0  0
   10.6113   38.1932   31.6451 C   0  0  0  0  0  0  0  0  0  0  0  0
   12.9413   37.6838   32.0297 C   0  0  0  0  0  0  0  0  0  0  0  0
    9.6064   38.0878   30.6599 O   0  0  0  0  0  0  0  0  0  0  0  0
   11.5822   37.0198   31.6877 C   0  0  0  0  0  0  0  0  0  0  0  0
   13.4840   37.2104   33.3254 N   0  0  0  0  0  0  0  0  0  0  0  0
   11.6179   36.3072   30.4690 O   0  0  0  0  0  0  0  0  0  0  0  0
   14.4797   36.3309   33.5738 C   0  0  0  0  0  0  0  0  0  0  0  0
   13.1136   37.6269   34.5702 C   0  0  0  0  0  0  0  0  0  0  0  0
   15.2074   35.6152   32.6747 N   0  0  0  0  0  0  0  0  0  0  0  0
   14.6756   36.2298   34.9190 C   0  0  0  0  0  0  0  0  0  0  0  0
   13.8217   37.0445   35.5793 N   0  0  0  0  0  0  0  0  0  0  0  0
   16.1643   34.7603   33.1551 C   0  0  0  0  0  0  0  0  0  0  0  0
   15.6528   35.3503   35.4136 C   0  0  0  0  0  0  0  0  0  0  0  0
   16.3798   34.6316   34.5046 N   0  0  0  0  0  0  0  0  0  0  0  0
   15.9004   35.1930   36.8094 N   0  0  0  0  0  0  0  0  0  0  0  0
    9.0117   45.4319   33.6705 H   0  0  0  0  0  0  0  0  0  0  0  0
   11.8907   45.7660   32.9475 H   0  0  0  0  0  0  0  0  0  0  0  0
   10.7258   46.9688   33.1212 H   0  0  0  0  0  0  0  0  0  0  0  0
   10.7240   44.8819   31.1557 H   0  0  0  0  0  0  0  0  0  0  0  0
    9.3429   43.8326   31.4757 H   0  0  0  0  0  0  0  0  0  0  0  0
    7.0100   44.7213   31.5912 H   0  0  0  0  0  0  0  0  0  0  0  0
   10.3458   47.1870   30.4119 H   0  0  0  0  0  0  0  0  0  0  0  0
    5.4671   46.3031   30.5522 H   0  0  0  0  0  0  0  0  0  0  0  0
    8.7938   48.7720   29.3481 H   0  0  0  0  0  0  0  0  0  0  0  0
    4.5817   49.3166   28.1857 H   0  0  0  0  0  0  0  0  0  0  0  0
    5.5430   46.9297   27.4535 H   0  0  0  0  0  0  0  0  0  0  0  0
    4.3174   46.3085   28.6247 H   0  0  0  0  0  0  0  0  0  0  0  0
    3.8195   47.3264   27.2365 H   0  0  0  0  0  0  0  0  0  0  0  0
    5.4019   48.9330   31.5432 H   0  0  0  0  0  0  0  0  0  0  0  0
    0.4998   48.3344   30.8869 H   0  0  0  0  0  0  0  0  0  0  0  0
    2.3119   49.8200   35.0103 H   0  0  0  0  0  0  0  0  0  0  0  0
    2.5273   48.0137   35.1878 H   0  0  0  0  0  0  0  0  0  0  0  0
   11.3776   41.5549   31.4744 H   0  0  0  0  0  0  0  0  0  0  0  0
    9.8234   40.7201   31.7654 H   0  0  0  0  0  0  0  0  0  0  0  0
   11.7312   39.5362   30.3532 H   0  0  0  0  0  0  0  0  0  0  0  0
   10.1202   38.2697   32.6410 H   0  0  0  0  0  0  0  0  0  0  0  0
   13.6850   37.4639   31.2321 H   0  0  0  0  0  0  0  0  0  0  0  0
   10.0251   38.1792   29.7654 H   0  0  0  0  0  0  0  0  0  0  0  0
   11.2757   36.3136   32.4908 H   0  0  0  0  0  0  0  0  0  0  0  0
   11.9838   36.9111   29.7708 H   0  0  0  0  0  0  0  0  0  0  0  0
   12.3307   38.3536   34.7458 H   0  0  0  0  0  0  0  0  0  0  0  0
   16.7566   34.1787   32.4623 H   0  0  0  0  0  0  0  0  0  0  0  0
   16.6353   34.5301   37.1419 H   0  0  0  0  0  0  0  0  0  0  0  0
   15.3535   35.7355   37.5144 H   0  0  0  0  0  0  0  0  0  0  0  0
  1  2  2  0
  1  3  1  0
  3  4  1  0
  4  5  1  0
  6  1  1  0
  7  6  1  0
  6  8  1  0
  8  9  1  0
  9 10  2  0
 11  9  1  0
 10 12  1  0
 13 11  2  0
 12 14  2  0
 14 13  1  0
 14 15  1  0
 15 16  1  0
 16 17  1  0
 16 18  1  0
 18 19  2  0
 20 18  1  0
 19 21  1  0
 22 20  2  0
 20 23  1  0
 21 24  1  0
 21 25  2  0
 25 22  1  0
 23 26  1  0
 23 27  2  0
 24 28  1  0
 25 29  1  0
 28 29  1  0
  4 30  2  0
  4 31  1  0
 32 31  1  0
 32 33  1  0
 33 34  1  0
 33 35  1  0
 34 36  1  0
 35 37  1  0
 35 38  1  0
 38 36  1  0
 36 39  1  0
 38 40  1  0
 41 39  1  0
 42 39  1  0
 43 41  2  0
 41 44  1  0
 45 42  2  0
 46 43  1  0
 44 47  2  0
 44 45  1  0
 48 46  2  0
 48 47  1  0
 47 49  1  0
  6 50  1  1
  7 51  1  0
  7 52  1  0
  8 53  1  0
  8 54  1  0
 10 55  1  0
 11 56  1  0
 12 57  1  0
 13 58  1  0
 16 59  1  6
 17 60  1  0
 17 61  1  0
 17 62  1  0
 19 63  1  0
 22 64  1  0
 28 65  1  0
 28 66  1  0
 32 67  1  0
 32 68  1  0
 33 69  1  0
 35 70  1  0
 36 71  1  0
 37 72  1  0
 38 73  1  0
 40 74  1  0
 42 75  1  0
 46 76  1  0
 49 77  1  0
 49 78  1  0
M  CHG  3   5  -1  23   1  26  -1
M  END
>  <EmbedRMS>  (75) 
0.0808443000789

$$$$

     RDKit          3D

 78 83  0  0  0  0  0  0  0  0999 V2000
   10.2836   43.7661   33.8256 C   0  0  0  0  0  0  0  0  0  0  0  0
   11.4103   43.5930   34.3753 O   0  0  0  0  0  0  0  0  0  0  0  0
    9.3641   42.7253   33.7346 O   0  0  0  0  0  0  0  0  0  0  0  0
    9.8908   41.2264   34.2938 P   0  0  0  0  0  0  0  0  0  0  0  0
   10.3732   41.4559   35.8835 O   0  0  0  0  0  0  0  0  0  0  0  0
    9.9548   45.0694   33.2036 C   0  0  1  0  0  0  0  0  0  0  0  0
   11.0274   46.0322   33.4760 N   0  0  0  0  0  0  0  0  0  0  0  0
    9.7471   44.8484   31.6877 C   0  0  0  0  0  0  0  0  0  0  0  0
    8.7926   45.8411   31.0847 C   0  0  0  0  0  0  0  0  0  0  0  0
    7.4061   45.6011   31.0991 C   0  0  0  0  0  0  0  0  0  0  0  0
    9.2817   46.9876   30.4420 C   0  0  0  0  0  0  0  0  0  0  0  0
    6.5243   46.5006   30.4842 C   0  0  0  0  0  0  0  0  0  0  0  0
    8.4005   47.8873   29.8317 C   0  0  0  0  0  0  0  0  0  0  0  0
    7.0181   47.6580   29.8467 C   0  0  0  0  0  0  0  0  0  0  0  0
    6.1875   48.5964   29.2114 O   0  0  0  0  0  0  0  0  0  0  0  0
    4.7575   48.6005   29.2240 C   0  0  1  0  0  0  0  0  0  0  0  0
    4.2360   49.0489   30.5960 C   0  0  0  0  0  0  0  0  0  0  0  0
    4.2640   49.5410   28.1386 C   0  0  0  0  0  0  0  0  0  0  0  0
    4.6760   50.8967   28.1800 C   0  0  0  0  0  0  0  0  0  0  0  0
    3.3668   49.1163   27.1018 C   0  0  0  0  0  0  0  0  0  0  0  0
    4.1606   51.7776   27.2383 C   0  0  0  0  0  0  0  0  0  0  0  0
    2.8608   50.0619   26.1824 C   0  0  0  0  0  0  0  0  0  0  0  0
    2.9789   47.7438   26.9516 N   0  0  0  0  0  0  0  0  0  0  0  0
    4.4113   53.1291   27.0987 O   0  0  0  0  0  0  0  0  0  0  0  0
    3.2866   51.3793   26.2858 C   0  0  0  0  0  0  0  0  0  0  0  0
    1.6736   47.4372   26.6438 O   0  0  0  0  0  0  0  0  0  0  0  0
    3.8527   46.8631   26.8140 O   0  0  0  0  0  0  0  0  0  0  0  0
    3.6441   53.6086   25.9858 C   0  0  0  0  0  0  0  0  0  0  0  0
    2.9409   52.4587   25.4957 O   0  0  0  0  0  0  0  0  0  0  0  0
    8.8127   40.1847   34.2122 O   0  0  0  0  0  0  0  0  0  0  0  0
   11.2420   40.7941   33.3697 O   0  0  0  0  0  0  0  0  0  0  0  0
   10.9187   40.6911   31.9971 C   0  0  0  0  0  0  0  0  0  0  0  0
   11.5172   39.3815   31.4407 C   0  0  0  0  0  0  0  0  0  0  0  0
   12.7493   39.0856   32.0728 O   0  0  0  0  0  0  0  0  0  0  0  0
   10.6023   38.1908   31.6665 C   0  0  0  0  0  0  0  0  0  0  0  0
   12.9319   37.6781   32.0281 C   0  0  0  0  0  0  0  0  0  0  0  0
    9.6392   38.0798   30.6452 O   0  0  0  0  0  0  0  0  0  0  0  0
   11.5715   37.0166   31.7056 C   0  0  0  0  0  0  0  0  0  0  0  0
   13.4847   37.2121   33.3235 N   0  0  0  0  0  0  0  0  0  0  0  0
   11.6187   36.3383   30.4695 O   0  0  0  0  0  0  0  0  0  0  0  0
   14.4801   36.3321   33.5724 C   0  0  0  0  0  0  0  0  0  0  0  0
   13.1137   37.6275   34.5688 C   0  0  0  0  0  0  0  0  0  0  0  0
   15.2073   35.6153   32.6738 N   0  0  0  0  0  0  0  0  0  0  0  0
   14.6759   36.2308   34.9179 C   0  0  0  0  0  0  0  0  0  0  0  0
   13.8216   37.0452   35.5781 N   0  0  0  0  0  0  0  0  0  0  0  0
   16.1640   34.7602   33.1546 C   0  0  0  0  0  0  0  0  0  0  0  0
   15.6526   35.3508   35.4129 C   0  0  0  0  0  0  0  0  0  0  0  0
   16.3794   34.6317   34.5041 N   0  0  0  0  0  0  0  0  0  0  0  0
   15.8999   35.1935   36.8088 N   0  0  0  0  0  0  0  0  0  0  0  0
    9.0121   45.4316   33.6714 H   0  0  0  0  0  0  0  0  0  0  0  0
   11.8908   45.7659   32.9476 H   0  0  0  0  0  0  0  0  0  0  0  0
   10.7260   46.9688   33.1216 H   0  0  0  0  0  0  0  0  0  0  0  0
    9.3425   43.8331   31.4758 H   0  0  0  0  0  0  0  0  0  0  0  0
   10.7236   44.8824   31.1559 H   0  0  0  0  0  0  0  0  0  0  0  0
    7.0108   44.7148   31.5802 H   0  0  0  0  0  0  0  0  0  0  0  0
   10.3460   47.1857   30.4097 H   0  0  0  0  0  0  0  0  0  0  0  0
    5.4681   46.2771   30.5105 H   0  0  0  0  0  0  0  0  0  0  0  0
    8.7945   48.7685   29.3413 H   0  0  0  0  0  0  0  0  0  0  0  0
    4.3821   47.5766   29.0459 H   0  0  0  0  0  0  0  0  0  0  0  0
    3.1281   49.1292   30.5753 H   0  0  0  0  0  0  0  0  0  0  0  0
    4.6654   50.0316   30.8829 H   0  0  0  0  0  0  0  0  0  0  0  0
    4.5132   48.3122   31.3773 H   0  0  0  0  0  0  0  0  0  0  0  0
    5.3672   51.2564   28.9315 H   0  0  0  0  0  0  0  0  0  0  0  0
    2.1781   49.7709   25.3943 H   0  0  0  0  0  0  0  0  0  0  0  0
    2.9238   54.3839   26.3215 H   0  0  0  0  0  0  0  0  0  0  0  0
    4.3174   54.0099   25.1996 H   0  0  0  0  0  0  0  0  0  0  0  0
   11.3969   41.5460   31.4729 H   0  0  0  0  0  0  0  0  0  0  0  0
    9.8300   40.7410   31.7613 H   0  0  0  0  0  0  0  0  0  0  0  0
   11.6975   39.5067   30.3481 H   0  0  0  0  0  0  0  0  0  0  0  0
   10.1077   38.2648   32.6645 H   0  0  0  0  0  0  0  0  0  0  0  0
   13.6621   37.4467   31.2209 H   0  0  0  0  0  0  0  0  0  0  0  0
    8.8975   38.6944   30.8831 H   0  0  0  0  0  0  0  0  0  0  0  0
   11.2806   36.3073   32.5170 H   0  0  0  0  0  0  0  0  0  0  0  0
   10.8492   35.7110   30.4586 H   0  0  0  0  0  0  0  0  0  0  0  0
   12.3290   38.3524   34.7444 H   0  0  0  0  0  0  0  0  0  0  0  0
   16.7559   34.1780   32.4619 H   0  0  0  0  0  0  0  0  0  0  0  0
   16.6344   34.5301   37.1414 H   0  0  0  0  0  0  0  0  0  0  0  0
   15.3531   35.7362   37.5137 H   0  0  0  0  0  0  0  0  0  0  0  0
  1  2  2  0
  1  3  1  0
  3  4  1  0
  4  5  1  0
  6  1  1  0
  7  6  1  0
  6  8  1  0
  8  9  1  0
  9 10  2  0
 11  9  1  0
 10 12  1  0
 13 11  2  0
 12 14  2  0
 14 13  1  0
 14 15  1  0
 15 16  1  0
 16 17  1  0
 16 18  1  0
 18 19  2  0
 20 18  1  0
 19 21  1  0
 22 20  2  0
 20 23  1  0
 21 24  1  0
 21 25  2  0
 25 22  1  0
 23 26  1  0
 23 27  2  0
 24 28  1  0
 25 29  1  0
 28 29  1  0
  4 30  2  0
  4 31  1  0
 32 31  1  0
 32 33  1  0
 33 34  1  0
 33 35  1  0
 34 36  1  0
 35 37  1  0
 35 38  1  0
 38 36  1  0
 36 39  1  0
 38 40  1  0
 41 39  1  0
 42 39  1  0
 43 41  2  0
 41 44  1  0
 45 42  2  0
 46 43  1  0
 44 47  2  0
 44 45  1  0
 48 46  2  0
 48 47  1  0
 47 49  1  0
  6 50  1  1
  7 51  1  0
  7 52  1  0
  8 53  1  0
  8 54  1  0
 10 55  1  0
 11 56  1  0
 12 57  1  0
 13 58  1  0
 16 59  1  6
 17 60  1  0
 17 61  1  0
 17 62  1  0
 19 63  1  0
 22 64  1  0
 28 65  1  0
 28 66  1  0
 32 67  1  0
 32 68  1  0
 33 69  1  0
 35 70  1  0
 36 71  1  0
 37 72  1  0
 38 73  1  0
 40 74  1  0
 42 75  1  0
 46 76  1  0
 49 77  1  0
 49 78  1  0
M  CHG  3   5  -1  23   1  26  -1
M  END
>  <EmbedRMS>  (76) 
0.0829151488992

$$$$

     RDKit          3D

 78 83  0  0  0  0  0  0  0  0999 V2000
   10.2834   43.7662   33.8253 C   0  0  0  0  0  0  0  0  0  0  0  0
   11.4101   43.5932   34.3751 O   0  0  0  0  0  0  0  0  0  0  0  0
    9.3637   42.7255   33.7349 O   0  0  0  0  0  0  0  0  0  0  0  0
    9.8903   41.2268   34.2946 P   0  0  0  0  0  0  0  0  0  0  0  0
   10.3728   41.4562   35.8842 O   0  0  0  0  0  0  0  0  0  0  0  0
    9.9545   45.0695   33.2030 C   0  0  1  0  0  0  0  0  0  0  0  0
   11.0271   46.0322   33.4753 N   0  0  0  0  0  0  0  0  0  0  0  0
    9.7466   44.8481   31.6869 C   0  0  0  0  0  0  0  0  0  0  0  0
    8.7921   45.8405   31.0832 C   0  0  0  0  0  0  0  0  0  0  0  0
    7.4043   45.6017   31.1005 C   0  0  0  0  0  0  0  0  0  0  0  0
    9.2821   46.9901   30.4434 C   0  0  0  0  0  0  0  0  0  0  0  0
    6.5250   46.5051   30.4883 C   0  0  0  0  0  0  0  0  0  0  0  0
    8.4012   47.8923   29.8349 C   0  0  0  0  0  0  0  0  0  0  0  0
    7.0205   47.6455   29.8414 C   0  0  0  0  0  0  0  0  0  0  0  0
    6.1288   48.5345   29.2324 O   0  0  0  0  0  0  0  0  0  0  0  0
    5.8876   48.6163   27.8207 C   0  0  1  0  0  0  0  0  0  0  0  0
    7.1255   49.0852   27.0469 C   0  0  0  0  0  0  0  0  0  0  0  0
    5.3229   47.3093   27.2705 C   0  0  0  0  0  0  0  0  0  0  0  0
    6.1491   46.1559   27.2362 C   0  0  0  0  0  0  0  0  0  0  0  0
    3.9553   47.1928   26.8473 C   0  0  0  0  0  0  0  0  0  0  0  0
    5.5936   44.9481   26.8369 C   0  0  0  0  0  0  0  0  0  0  0  0
    3.4418   45.9336   26.4653 C   0  0  0  0  0  0  0  0  0  0  0  0
    3.0843   48.3297   26.7811 N   0  0  0  0  0  0  0  0  0  0  0  0
    6.2029   43.7114   26.7467 O   0  0  0  0  0  0  0  0  0  0  0  0
    4.2960   44.8402   26.4734 C   0  0  0  0  0  0  0  0  0  0  0  0
    1.7889   48.2185   27.2304 O   0  0  0  0  0  0  0  0  0  0  0  0
    3.3918   49.3050   26.0652 O   0  0  0  0  0  0  0  0  0  0  0  0
    5.2221   42.7671   26.2963 C   0  0  0  0  0  0  0  0  0  0  0  0
    4.0188   43.5301   26.1333 O   0  0  0  0  0  0  0  0  0  0  0  0
    8.8125   40.1848   34.2125 O   0  0  0  0  0  0  0  0  0  0  0  0
   11.2416   40.7948   33.3707 O   0  0  0  0  0  0  0  0  0  0  0  0
   10.9179   40.6922   31.9984 C   0  0  0  0  0  0  0  0  0  0  0  0
   11.5175   39.3838   31.4423 C   0  0  0  0  0  0  0  0  0  0  0  0
   12.7507   39.0887   32.0752 O   0  0  0  0  0  0  0  0  0  0  0  0
   10.6027   38.1916   31.6658 C   0  0  0  0  0  0  0  0  0  0  0  0
   12.9384   37.6819   32.0278 C   0  0  0  0  0  0  0  0  0  0  0  0
    9.6371   38.0806   30.6470 O   0  0  0  0  0  0  0  0  0  0  0  0
   11.5780   37.0216   31.6935 C   0  0  0  0  0  0  0  0  0  0  0  0
   13.4844   37.2119   33.3242 N   0  0  0  0  0  0  0  0  0  0  0  0
   11.6095   36.3202   30.4679 O   0  0  0  0  0  0  0  0  0  0  0  0
   14.4797   36.3318   33.5730 C   0  0  0  0  0  0  0  0  0  0  0  0
   13.1136   37.6278   34.5691 C   0  0  0  0  0  0  0  0  0  0  0  0
   15.2073   35.6155   32.6742 N   0  0  0  0  0  0  0  0  0  0  0  0
   14.6754   36.2305   34.9184 C   0  0  0  0  0  0  0  0  0  0  0  0
   13.8213   37.0452   35.5785 N   0  0  0  0  0  0  0  0  0  0  0  0
   16.1640   34.7604   33.1549 C   0  0  0  0  0  0  0  0  0  0  0  0
   15.6525   35.3507   35.4132 C   0  0  0  0  0  0  0  0  0  0  0  0
   16.3794   34.6318   34.5043 N   0  0  0  0  0  0  0  0  0  0  0  0
   15.9000   35.1934   36.8091 N   0  0  0  0  0  0  0  0  0  0  0  0
    9.0118   45.4317   33.6707 H   0  0  0  0  0  0  0  0  0  0  0  0
   11.8904   45.7661   32.9465 H   0  0  0  0  0  0  0  0  0  0  0  0
   10.7256   46.9688   33.1213 H   0  0  0  0  0  0  0  0  0  0  0  0
   10.7229   44.8820   31.1549 H   0  0  0  0  0  0  0  0  0  0  0  0
    9.3417   43.8329   31.4754 H   0  0  0  0  0  0  0  0  0  0  0  0
    7.0071   44.7173   31.5833 H   0  0  0  0  0  0  0  0  0  0  0  0
   10.3459   47.1916   30.4181 H   0  0  0  0  0  0  0  0  0  0  0  0
    5.4599   46.3118   30.5033 H   0  0  0  0  0  0  0  0  0  0  0  0
    8.7940   48.7846   29.3663 H   0  0  0  0  0  0  0  0  0  0  0  0
    5.1457   49.4273   27.7045 H   0  0  0  0  0  0  0  0  0  0  0  0
    7.9461   48.3413   27.0911 H   0  0  0  0  0  0  0  0  0  0  0  0
    7.4917   50.0439   27.4711 H   0  0  0  0  0  0  0  0  0  0  0  0
    6.8608   49.2524   25.9810 H   0  0  0  0  0  0  0  0  0  0  0  0
    7.1884   46.1858   27.5324 H   0  0  0  0  0  0  0  0  0  0  0  0
    2.4130   45.8183   26.1490 H   0  0  0  0  0  0  0  0  0  0  0  0
    5.0731   41.9748   27.0595 H   0  0  0  0  0  0  0  0  0  0  0  0
    5.5309   42.3263   25.3253 H   0  0  0  0  0  0  0  0  0  0  0  0
    9.8291   40.7409   31.7626 H   0  0  0  0  0  0  0  0  0  0  0  0
   11.3951   41.5478   31.4744 H   0  0  0  0  0  0  0  0  0  0  0  0
   11.6982   39.5115   30.3500 H   0  0  0  0  0  0  0  0  0  0  0  0
   10.1116   38.2604   32.6660 H   0  0  0  0  0  0  0  0  0  0  0  0
   13.6767   37.4556   31.2267 H   0  0  0  0  0  0  0  0  0  0  0  0
    8.8962   38.6954   30.8869 H   0  0  0  0  0  0  0  0  0  0  0  0
   11.2791   36.3073   32.4923 H   0  0  0  0  0  0  0  0  0  0  0  0
   11.8827   36.9598   29.7588 H   0  0  0  0  0  0  0  0  0  0  0  0
   12.3300   38.3539   34.7446 H   0  0  0  0  0  0  0  0  0  0  0  0
   16.7561   34.1785   32.4621 H   0  0  0  0  0  0  0  0  0  0  0  0
   16.6347   34.5303   37.1416 H   0  0  0  0  0  0  0  0  0  0  0  0
   15.3531   35.7360   37.5140 H   0  0  0  0  0  0  0  0  0  0  0  0
  1  2  2  0
  1  3  1  0
  3  4  1  0
  4  5  1  0
  6  1  1  0
  7  6  1  0
  6  8  1  0
  8  9  1  0
  9 10  2  0
 11  9  1  0
 10 12  1  0
 13 11  2  0
 12 14  2  0
 14 13  1  0
 14 15  1  0
 15 16  1  0
 16 17  1  0
 16 18  1  0
 18 19  2  0
 20 18  1  0
 19 21  1  0
 22 20  2  0
 20 23  1  0
 21 24  1  0
 21 25  2  0
 25 22  1  0
 23 26  1  0
 23 27  2  0
 24 28  1  0
 25 29  1  0
 28 29  1  0
  4 30  2  0
  4 31  1  0
 32 31  1  0
 32 33  1  0
 33 34  1  0
 33 35  1  0
 34 36  1  0
 35 37  1  0
 35 38  1  0
 38 36  1  0
 36 39  1  0
 38 40  1  0
 41 39  1  0
 42 39  1  0
 43 41  2  0
 41 44  1  0
 45 42  2  0
 46 43  1  0
 44 47  2  0
 44 45  1  0
 48 46  2  0
 48 47  1  0
 47 49  1  0
  6 50  1  1
  7 51  1  0
  7 52  1  0
  8 53  1  0
  8 54  1  0
 10 55  1  0
 11 56  1  0
 12 57  1  0
 13 58  1  0
 16 59  1  1
 17 60  1  0
 17 61  1  0
 17 62  1  0
 19 63  1  0
 22 64  1  0
 28 65  1  0
 28 66  1  0
 32 67  1  0
 32 68  1  0
 33 69  1  0
 35 70  1  0
 36 71  1  0
 37 72  1  0
 38 73  1  0
 40 74  1  0
 42 75  1  0
 46 76  1  0
 49 77  1  0
 49 78  1  0
M  CHG  3   5  -1  23   1  26  -1
M  END
>  <EmbedRMS>  (77) 
0.0821062726495

$$$$

     RDKit          3D

 78 83  0  0  0  0  0  0  0  0999 V2000
   10.2834   43.7661   33.8257 C   0  0  0  0  0  0  0  0  0  0  0  0
   11.4102   43.5930   34.3753 O   0  0  0  0  0  0  0  0  0  0  0  0
    9.3637   42.7254   33.7349 O   0  0  0  0  0  0  0  0  0  0  0  0
    9.8907   41.2265   34.2933 P   0  0  0  0  0  0  0  0  0  0  0  0
   10.3743   41.4557   35.8828 O   0  0  0  0  0  0  0  0  0  0  0  0
    9.9546   45.0694   33.2035 C   0  0  1  0  0  0  0  0  0  0  0  0
   11.0273   46.0321   33.4756 N   0  0  0  0  0  0  0  0  0  0  0  0
    9.7467   44.8479   31.6876 C   0  0  0  0  0  0  0  0  0  0  0  0
    8.7924   45.8405   31.0842 C   0  0  0  0  0  0  0  0  0  0  0  0
    7.4058   45.6016   31.0993 C   0  0  0  0  0  0  0  0  0  0  0  0
    9.2821   46.9876   30.4426 C   0  0  0  0  0  0  0  0  0  0  0  0
    6.5271   46.5035   30.4846 C   0  0  0  0  0  0  0  0  0  0  0  0
    8.4033   47.8906   29.8323 C   0  0  0  0  0  0  0  0  0  0  0  0
    7.0134   47.6527   29.8458 C   0  0  0  0  0  0  0  0  0  0  0  0
    6.0820   48.5213   29.2523 O   0  0  0  0  0  0  0  0  0  0  0  0
    6.3887   49.6847   28.4756 C   0  0  1  0  0  0  0  0  0  0  0  0
    6.8876   49.2676   27.0876 C   0  0  0  0  0  0  0  0  0  0  0  0
    5.1573   50.5680   28.3320 C   0  0  0  0  0  0  0  0  0  0  0  0
    3.8678   50.0038   28.5182 C   0  0  0  0  0  0  0  0  0  0  0  0
    5.2610   51.9388   27.9130 C   0  0  0  0  0  0  0  0  0  0  0  0
    2.7530   50.8017   28.2967 C   0  0  0  0  0  0  0  0  0  0  0  0
    4.0893   52.6952   27.6883 C   0  0  0  0  0  0  0  0  0  0  0  0
    6.5308   52.5691   27.6877 N   0  0  0  0  0  0  0  0  0  0  0  0
    1.4186   50.4643   28.4172 O   0  0  0  0  0  0  0  0  0  0  0  0
    2.8589   52.0894   27.8984 C   0  0  0  0  0  0  0  0  0  0  0  0
    6.6928   53.3974   26.6014 O   0  0  0  0  0  0  0  0  0  0  0  0
    7.3918   52.5877   28.5905 O   0  0  0  0  0  0  0  0  0  0  0  0
    0.6379   51.6175   28.0747 C   0  0  0  0  0  0  0  0  0  0  0  0
    1.5973   52.6325   27.7493 O   0  0  0  0  0  0  0  0  0  0  0  0
    8.8123   40.1850   34.2127 O   0  0  0  0  0  0  0  0  0  0  0  0
   11.2407   40.7945   33.3670 O   0  0  0  0  0  0  0  0  0  0  0  0
   10.9134   40.6866   31.9954 C   0  0  0  0  0  0  0  0  0  0  0  0
   11.5167   39.3787   31.4404 C   0  0  0  0  0  0  0  0  0  0  0  0
   12.7486   39.0849   32.0735 O   0  0  0  0  0  0  0  0  0  0  0  0
   10.6039   38.1884   31.6669 C   0  0  0  0  0  0  0  0  0  0  0  0
   12.9329   37.6776   32.0284 C   0  0  0  0  0  0  0  0  0  0  0  0
    9.6374   38.0938   30.6484 O   0  0  0  0  0  0  0  0  0  0  0  0
   11.5737   37.0141   31.7055 C   0  0  0  0  0  0  0  0  0  0  0  0
   13.4853   37.2120   33.3238 N   0  0  0  0  0  0  0  0  0  0  0  0
   11.6210   36.3379   30.4683 O   0  0  0  0  0  0  0  0  0  0  0  0
   14.4804   36.3319   33.5726 C   0  0  0  0  0  0  0  0  0  0  0  0
   13.1141   37.6275   34.5689 C   0  0  0  0  0  0  0  0  0  0  0  0
   15.2075   35.6152   32.6740 N   0  0  0  0  0  0  0  0  0  0  0  0
   14.6761   36.2306   34.9181 C   0  0  0  0  0  0  0  0  0  0  0  0
   13.8218   37.0451   35.5783 N   0  0  0  0  0  0  0  0  0  0  0  0
   16.1642   34.7600   33.1548 C   0  0  0  0  0  0  0  0  0  0  0  0
   15.6527   35.3506   35.4131 C   0  0  0  0  0  0  0  0  0  0  0  0
   16.3795   34.6315   34.5043 N   0  0  0  0  0  0  0  0  0  0  0  0
   15.9001   35.1933   36.8090 N   0  0  0  0  0  0  0  0  0  0  0  0
    9.0120   45.4317   33.6713 H   0  0  0  0  0  0  0  0  0  0  0  0
   10.7259   46.9687   33.1213 H   0  0  0  0  0  0  0  0  0  0  0  0
   11.8906   45.7658   32.9469 H   0  0  0  0  0  0  0  0  0  0  0  0
   10.7230   44.8813   31.1556 H   0  0  0  0  0  0  0  0  0  0  0  0
    9.3416   43.8328   31.4762 H   0  0  0  0  0  0  0  0  0  0  0  0
    7.0085   44.7172   31.5819 H   0  0  0  0  0  0  0  0  0  0  0  0
   10.3467   47.1850   30.4130 H   0  0  0  0  0  0  0  0  0  0  0  0
    5.4624   46.3075   30.5039 H   0  0  0  0  0  0  0  0  0  0  0  0
    8.8210   48.7649   29.3550 H   0  0  0  0  0  0  0  0  0  0  0  0
    7.1731   50.2536   29.0083 H   0  0  0  0  0  0  0  0  0  0  0  0
    6.0961   48.7023   26.5504 H   0  0  0  0  0  0  0  0  0  0  0  0
    7.7842   48.6206   27.1708 H   0  0  0  0  0  0  0  0  0  0  0  0
    7.1632   50.1601   26.4875 H   0  0  0  0  0  0  0  0  0  0  0  0
    3.7270   48.9702   28.8052 H   0  0  0  0  0  0  0  0  0  0  0  0
    4.1394   53.7285   27.3697 H   0  0  0  0  0  0  0  0  0  0  0  0
    0.0223   51.9360   28.9419 H   0  0  0  0  0  0  0  0  0  0  0  0
   -0.0031   51.3999   27.1948 H   0  0  0  0  0  0  0  0  0  0  0  0
   11.3827   41.5438   31.4669 H   0  0  0  0  0  0  0  0  0  0  0  0
    9.8225   40.7225   31.7631 H   0  0  0  0  0  0  0  0  0  0  0  0
   11.6979   39.5037   30.3478 H   0  0  0  0  0  0  0  0  0  0  0  0
   10.1084   38.2787   32.6627 H   0  0  0  0  0  0  0  0  0  0  0  0
   13.6638   37.4472   31.2214 H   0  0  0  0  0  0  0  0  0  0  0  0
    8.9763   37.4191   30.9532 H   0  0  0  0  0  0  0  0  0  0  0  0
   11.2821   36.3054   32.5172 H   0  0  0  0  0  0  0  0  0  0  0  0
   10.8658   35.6935   30.4652 H   0  0  0  0  0  0  0  0  0  0  0  0
   12.3293   38.3523   34.7444 H   0  0  0  0  0  0  0  0  0  0  0  0
   16.7561   34.1778   32.4621 H   0  0  0  0  0  0  0  0  0  0  0  0
   15.3533   35.7361   37.5138 H   0  0  0  0  0  0  0  0  0  0  0  0
   16.6345   34.5300   37.1416 H   0  0  0  0  0  0  0  0  0  0  0  0
  1  2  2  0
  1  3  1  0
  3  4  1  0
  4  5  1  0
  6  1  1  0
  7  6  1  0
  6  8  1  0
  8  9  1  0
  9 10  2  0
 11  9  1  0
 10 12  1  0
 13 11  2  0
 12 14  2  0
 14 13  1  0
 14 15  1  0
 15 16  1  0
 16 17  1  0
 16 18  1  0
 18 19  2  0
 20 18  1  0
 19 21  1  0
 22 20  2  0
 20 23  1  0
 21 24  1  0
 21 25  2  0
 25 22  1  0
 23 26  1  0
 23 27  2  0
 24 28  1  0
 25 29  1  0
 28 29  1  0
  4 30  2  0
  4 31  1  0
 32 31  1  0
 32 33  1  0
 33 34  1  0
 33 35  1  0
 34 36  1  0
 35 37  1  0
 35 38  1  0
 38 36  1  0
 36 39  1  0
 38 40  1  0
 41 39  1  0
 42 39  1  0
 43 41  2  0
 41 44  1  0
 45 42  2  0
 46 43  1  0
 44 47  2  0
 44 45  1  0
 48 46  2  0
 48 47  1  0
 47 49  1  0
  6 50  1  1
  7 51  1  0
  7 52  1  0
  8 53  1  0
  8 54  1  0
 10 55  1  0
 11 56  1  0
 12 57  1  0
 13 58  1  0
 16 59  1  1
 17 60  1  0
 17 61  1  0
 17 62  1  0
 19 63  1  0
 22 64  1  0
 28 65  1  0
 28 66  1  0
 32 67  1  0
 32 68  1  0
 33 69  1  0
 35 70  1  0
 36 71  1  0
 37 72  1  0
 38 73  1  0
 40 74  1  0
 42 75  1  0
 46 76  1  0
 49 77  1  0
 49 78  1  0
M  CHG  3   5  -1  23   1  26  -1
M  END
>  <EmbedRMS>  (78) 
0.0825559933715

$$$$

     RDKit          3D

 78 83  0  0  0  0  0  0  0  0999 V2000
   10.2802   43.7667   33.8250 C   0  0  0  0  0  0  0  0  0  0  0  0
   11.4109   43.5922   34.3665 O   0  0  0  0  0  0  0  0  0  0  0  0
    9.3618   42.7251   33.7345 O   0  0  0  0  0  0  0  0  0  0  0  0
    9.8902   41.2267   34.2931 P   0  0  0  0  0  0  0  0  0  0  0  0
   10.3743   41.4563   35.8823 O   0  0  0  0  0  0  0  0  0  0  0  0
    9.9454   45.0741   33.2114 C   0  0  1  0  0  0  0  0  0  0  0  0
   11.0258   46.0300   33.4708 N   0  0  0  0  0  0  0  0  0  0  0  0
    9.7532   44.8545   31.6952 C   0  0  0  0  0  0  0  0  0  0  0  0
    8.7951   45.8417   31.0853 C   0  0  0  0  0  0  0  0  0  0  0  0
    7.4074   45.5988   31.0984 C   0  0  0  0  0  0  0  0  0  0  0  0
    9.2834   46.9876   30.4374 C   0  0  0  0  0  0  0  0  0  0  0  0
    6.5261   46.4985   30.4821 C   0  0  0  0  0  0  0  0  0  0  0  0
    8.4012   47.8858   29.8263 C   0  0  0  0  0  0  0  0  0  0  0  0
    7.0198   47.6548   29.8593 C   0  0  0  0  0  0  0  0  0  0  0  0
    6.1534   48.5709   29.2547 O   0  0  0  0  0  0  0  0  0  0  0  0
    5.3750   49.5482   29.9594 C   0  0  1  0  0  0  0  0  0  0  0  0
    4.2950   48.9039   30.8365 C   0  0  0  0  0  0  0  0  0  0  0  0
    6.2604   50.5121   30.7457 C   0  0  0  0  0  0  0  0  0  0  0  0
    6.9806   50.0327   31.8710 C   0  0  0  0  0  0  0  0  0  0  0  0
    6.4437   51.8770   30.3383 C   0  0  0  0  0  0  0  0  0  0  0  0
    7.8692   50.8872   32.5089 C   0  0  0  0  0  0  0  0  0  0  0  0
    7.3728   52.6956   31.0180 C   0  0  0  0  0  0  0  0  0  0  0  0
    5.6939   52.4518   29.2598 N   0  0  0  0  0  0  0  0  0  0  0  0
    8.6780   50.6266   33.5982 O   0  0  0  0  0  0  0  0  0  0  0  0
    8.0615   52.1603   32.0971 C   0  0  0  0  0  0  0  0  0  0  0  0
    6.3301   53.2611   28.3474 O   0  0  0  0  0  0  0  0  0  0  0  0
    4.4467   52.4659   29.3107 O   0  0  0  0  0  0  0  0  0  0  0  0
    9.4257   51.8155   33.8879 C   0  0  0  0  0  0  0  0  0  0  0  0
    9.0007   52.7706   32.9061 O   0  0  0  0  0  0  0  0  0  0  0  0
    8.8124   40.1846   34.2130 O   0  0  0  0  0  0  0  0  0  0  0  0
   11.2402   40.7950   33.3666 O   0  0  0  0  0  0  0  0  0  0  0  0
   10.9124   40.6859   31.9952 C   0  0  0  0  0  0  0  0  0  0  0  0
   11.5175   39.3786   31.4405 C   0  0  0  0  0  0  0  0  0  0  0  0
   12.7490   39.0864   32.0753 O   0  0  0  0  0  0  0  0  0  0  0  0
   10.6060   38.1868   31.6656 C   0  0  0  0  0  0  0  0  0  0  0  0
   12.9355   37.6796   32.0292 C   0  0  0  0  0  0  0  0  0  0  0  0
    9.6399   38.0903   30.6471 O   0  0  0  0  0  0  0  0  0  0  0  0
   11.5765   37.0145   31.7044 C   0  0  0  0  0  0  0  0  0  0  0  0
   13.4858   37.2125   33.3244 N   0  0  0  0  0  0  0  0  0  0  0  0
   11.6101   36.3397   30.4673 O   0  0  0  0  0  0  0  0  0  0  0  0
   14.4805   36.3319   33.5729 C   0  0  0  0  0  0  0  0  0  0  0  0
   13.1143   37.6277   34.5694 C   0  0  0  0  0  0  0  0  0  0  0  0
   15.2076   35.6153   32.6741 N   0  0  0  0  0  0  0  0  0  0  0  0
   14.6760   36.2304   34.9184 C   0  0  0  0  0  0  0  0  0  0  0  0
   13.8219   37.0449   35.5786 N   0  0  0  0  0  0  0  0  0  0  0  0
   16.1641   34.7600   33.1548 C   0  0  0  0  0  0  0  0  0  0  0  0
   15.6528   35.3505   35.4132 C   0  0  0  0  0  0  0  0  0  0  0  0
   16.3795   34.6314   34.5043 N   0  0  0  0  0  0  0  0  0  0  0  0
   15.9002   35.1931   36.8091 N   0  0  0  0  0  0  0  0  0  0  0  0
    8.9989   45.4385   33.6724 H   0  0  0  0  0  0  0  0  0  0  0  0
   11.0499   46.2280   34.4983 H   0  0  0  0  0  0  0  0  0  0  0  0
   10.7745   46.9379   33.0168 H   0  0  0  0  0  0  0  0  0  0  0  0
    9.3635   43.8359   31.4715 H   0  0  0  0  0  0  0  0  0  0  0  0
   10.7404   44.9080   31.1838 H   0  0  0  0  0  0  0  0  0  0  0  0
    7.0126   44.7109   31.5768 H   0  0  0  0  0  0  0  0  0  0  0  0
   10.3473   47.1868   30.4027 H   0  0  0  0  0  0  0  0  0  0  0  0
    5.4645   46.2903   30.4845 H   0  0  0  0  0  0  0  0  0  0  0  0
    8.7892   48.7703   29.3373 H   0  0  0  0  0  0  0  0  0  0  0  0
    4.8243   50.0961   29.1732 H   0  0  0  0  0  0  0  0  0  0  0  0
    4.7337   48.3212   31.6711 H   0  0  0  0  0  0  0  0  0  0  0  0
    3.6399   49.6921   31.2652 H   0  0  0  0  0  0  0  0  0  0  0  0
    3.6685   48.2244   30.2207 H   0  0  0  0  0  0  0  0  0  0  0  0
    6.8763   49.0181   32.2295 H   0  0  0  0  0  0  0  0  0  0  0  0
    7.5343   53.7253   30.7257 H   0  0  0  0  0  0  0  0  0  0  0  0
   10.5136   51.6193   33.7859 H   0  0  0  0  0  0  0  0  0  0  0  0
    9.1849   52.1816   34.9080 H   0  0  0  0  0  0  0  0  0  0  0  0
   11.3801   41.5436   31.4660 H   0  0  0  0  0  0  0  0  0  0  0  0
    9.8214   40.7199   31.7634 H   0  0  0  0  0  0  0  0  0  0  0  0
   11.6999   39.5040   30.3482 H   0  0  0  0  0  0  0  0  0  0  0  0
   10.1085   38.2767   32.6603 H   0  0  0  0  0  0  0  0  0  0  0  0
   13.6680   37.4521   31.2229 H   0  0  0  0  0  0  0  0  0  0  0  0
    9.0016   37.3868   30.9349 H   0  0  0  0  0  0  0  0  0  0  0  0
   11.2667   36.3062   32.5084 H   0  0  0  0  0  0  0  0  0  0  0  0
   12.1390   35.5126   30.6150 H   0  0  0  0  0  0  0  0  0  0  0  0
   12.3301   38.3529   34.7449 H   0  0  0  0  0  0  0  0  0  0  0  0
   16.7560   34.1779   32.4620 H   0  0  0  0  0  0  0  0  0  0  0  0
   16.6347   34.5298   37.1416 H   0  0  0  0  0  0  0  0  0  0  0  0
   15.3534   35.7359   37.5140 H   0  0  0  0  0  0  0  0  0  0  0  0
  1  2  2  0
  1  3  1  0
  3  4  1  0
  4  5  1  0
  6  1  1  0
  7  6  1  0
  6  8  1  0
  8  9  1  0
  9 10  2  0
 11  9  1  0
 10 12  1  0
 13 11  2  0
 12 14  2  0
 14 13  1  0
 14 15  1  0
 15 16  1  0
 16 17  1  0
 16 18  1  0
 18 19  2  0
 20 18  1  0
 19 21  1  0
 22 20  2  0
 20 23  1  0
 21 24  1  0
 21 25  2  0
 25 22  1  0
 23 26  1  0
 23 27  2  0
 24 28  1  0
 25 29  1  0
 28 29  1  0
  4 30  2  0
  4 31  1  0
 32 31  1  0
 32 33  1  0
 33 34  1  0
 33 35  1  0
 34 36  1  0
 35 37  1  0
 35 38  1  0
 38 36  1  0
 36 39  1  0
 38 40  1  0
 41 39  1  0
 42 39  1  0
 43 41  2  0
 41 44  1  0
 45 42  2  0
 46 43  1  0
 44 47  2  0
 44 45  1  0
 48 46  2  0
 48 47  1  0
 47 49  1  0
  6 50  1  1
  7 51  1  0
  7 52  1  0
  8 53  1  0
  8 54  1  0
 10 55  1  0
 11 56  1  0
 12 57  1  0
 13 58  1  0
 16 59  1  6
 17 60  1  0
 17 61  1  0
 17 62  1  0
 19 63  1  0
 22 64  1  0
 28 65  1  0
 28 66  1  0
 32 67  1  0
 32 68  1  0
 33 69  1  0
 35 70  1  0
 36 71  1  0
 37 72  1  0
 38 73  1  0
 40 74  1  0
 42 75  1  0
 46 76  1  0
 49 77  1  0
 49 78  1  0
M  CHG  3   5  -1  23   1  26  -1
M  END
>  <EmbedRMS>  (79) 
0.0823356069456

$$$$

     RDKit          3D

 78 83  0  0  0  0  0  0  0  0999 V2000
   10.2834   43.7662   33.8255 C   0  0  0  0  0  0  0  0  0  0  0  0
   11.4101   43.5930   34.3752 O   0  0  0  0  0  0  0  0  0  0  0  0
    9.3637   42.7255   33.7347 O   0  0  0  0  0  0  0  0  0  0  0  0
    9.8906   41.2266   34.2933 P   0  0  0  0  0  0  0  0  0  0  0  0
   10.3742   41.4557   35.8827 O   0  0  0  0  0  0  0  0  0  0  0  0
    9.9547   45.0695   33.2034 C   0  0  1  0  0  0  0  0  0  0  0  0
   11.0273   46.0322   33.4758 N   0  0  0  0  0  0  0  0  0  0  0  0
    9.7471   44.8483   31.6874 C   0  0  0  0  0  0  0  0  0  0  0  0
    8.7925   45.8408   31.0841 C   0  0  0  0  0  0  0  0  0  0  0  0
    7.4058   45.6012   31.0998 C   0  0  0  0  0  0  0  0  0  0  0  0
    9.2816   46.9882   30.4423 C   0  0  0  0  0  0  0  0  0  0  0  0
    6.5244   46.5015   30.4862 C   0  0  0  0  0  0  0  0  0  0  0  0
    8.4003   47.8886   29.8328 C   0  0  0  0  0  0  0  0  0  0  0  0
    7.0189   47.6556   29.8443 C   0  0  0  0  0  0  0  0  0  0  0  0
    6.1824   48.5883   29.2093 O   0  0  0  0  0  0  0  0  0  0  0  0
    4.7661   48.4586   29.0565 C   0  0  1  0  0  0  0  0  0  0  0  0
    4.2072   49.7758   28.5217 C   0  0  0  0  0  0  0  0  0  0  0  0
    4.4333   47.3263   28.0992 C   0  0  0  0  0  0  0  0  0  0  0  0
    5.1948   47.1993   26.9114 C   0  0  0  0  0  0  0  0  0  0  0  0
    3.4148   46.3571   28.3862 C   0  0  0  0  0  0  0  0  0  0  0  0
    4.9541   46.1122   26.0819 C   0  0  0  0  0  0  0  0  0  0  0  0
    3.2272   45.2624   27.5124 C   0  0  0  0  0  0  0  0  0  0  0  0
    2.5628   46.4716   29.5364 N   0  0  0  0  0  0  0  0  0  0  0  0
    5.5783   45.7832   24.8942 O   0  0  0  0  0  0  0  0  0  0  0  0
    4.0159   45.1819   26.3725 C   0  0  0  0  0  0  0  0  0  0  0  0
    2.1472   45.3369   30.1942 O   0  0  0  0  0  0  0  0  0  0  0  0
    2.0093   47.5581   29.8026 O   0  0  0  0  0  0  0  0  0  0  0  0
    4.9923   44.5677   24.4085 C   0  0  0  0  0  0  0  0  0  0  0  0
    3.9990   44.2185   25.3823 O   0  0  0  0  0  0  0  0  0  0  0  0
    8.8122   40.1851   34.2126 O   0  0  0  0  0  0  0  0  0  0  0  0
   11.2406   40.7945   33.3670 O   0  0  0  0  0  0  0  0  0  0  0  0
   10.9134   40.6866   31.9954 C   0  0  0  0  0  0  0  0  0  0  0  0
   11.5167   39.3787   31.4404 C   0  0  0  0  0  0  0  0  0  0  0  0
   12.7486   39.0849   32.0735 O   0  0  0  0  0  0  0  0  0  0  0  0
   10.6039   38.1884   31.6669 C   0  0  0  0  0  0  0  0  0  0  0  0
   12.9329   37.6776   32.0284 C   0  0  0  0  0  0  0  0  0  0  0  0
    9.6374   38.0938   30.6484 O   0  0  0  0  0  0  0  0  0  0  0  0
   11.5737   37.0141   31.7055 C   0  0  0  0  0  0  0  0  0  0  0  0
   13.4853   37.2120   33.3238 N   0  0  0  0  0  0  0  0  0  0  0  0
   11.6210   36.3379   30.4683 O   0  0  0  0  0  0  0  0  0  0  0  0
   14.4804   36.3319   33.5726 C   0  0  0  0  0  0  0  0  0  0  0  0
   13.1141   37.6275   34.5689 C   0  0  0  0  0  0  0  0  0  0  0  0
   15.2076   35.6152   32.6740 N   0  0  0  0  0  0  0  0  0  0  0  0
   14.6761   36.2306   34.9181 C   0  0  0  0  0  0  0  0  0  0  0  0
   13.8218   37.0451   35.5783 N   0  0  0  0  0  0  0  0  0  0  0  0
   16.1642   34.7600   33.1548 C   0  0  0  0  0  0  0  0  0  0  0  0
   15.6527   35.3507   35.4131 C   0  0  0  0  0  0  0  0  0  0  0  0
   16.3795   34.6315   34.5043 N   0  0  0  0  0  0  0  0  0  0  0  0
   15.9000   35.1933   36.8090 N   0  0  0  0  0  0  0  0  0  0  0  0
    9.0120   45.4317   33.6710 H   0  0  0  0  0  0  0  0  0  0  0  0
   10.7260   46.9688   33.1214 H   0  0  0  0  0  0  0  0  0  0  0  0
   11.8908   45.7659   32.9475 H   0  0  0  0  0  0  0  0  0  0  0  0
    9.3426   43.8330   31.4756 H   0  0  0  0  0  0  0  0  0  0  0  0
   10.7236   44.8824   31.1556 H   0  0  0  0  0  0  0  0  0  0  0  0
    7.0100   44.7166   31.5836 H   0  0  0  0  0  0  0  0  0  0  0  0
   10.3459   47.1866   30.4106 H   0  0  0  0  0  0  0  0  0  0  0  0
    5.4658   46.2890   30.5215 H   0  0  0  0  0  0  0  0  0  0  0  0
    8.7937   48.7698   29.3420 H   0  0  0  0  0  0  0  0  0  0  0  0
    4.3260   48.2921   30.0611 H   0  0  0  0  0  0  0  0  0  0  0  0
    4.6701   50.0295   27.5441 H   0  0  0  0  0  0  0  0  0  0  0  0
    3.1061   49.7049   28.3931 H   0  0  0  0  0  0  0  0  0  0  0  0
    4.4259   50.5945   29.2396 H   0  0  0  0  0  0  0  0  0  0  0  0
    5.9670   47.9136   26.6550 H   0  0  0  0  0  0  0  0  0  0  0  0
    2.4718   44.5112   27.7040 H   0  0  0  0  0  0  0  0  0  0  0  0
    5.7616   43.7699   24.3429 H   0  0  0  0  0  0  0  0  0  0  0  0
    4.5165   44.7388   23.4202 H   0  0  0  0  0  0  0  0  0  0  0  0
   11.3828   41.5438   31.4669 H   0  0  0  0  0  0  0  0  0  0  0  0
    9.8225   40.7225   31.7631 H   0  0  0  0  0  0  0  0  0  0  0  0
   11.6979   39.5037   30.3478 H   0  0  0  0  0  0  0  0  0  0  0  0
   10.1084   38.2787   32.6626 H   0  0  0  0  0  0  0  0  0  0  0  0
   13.6638   37.4472   31.2214 H   0  0  0  0  0  0  0  0  0  0  0  0
    8.9763   37.4191   30.9532 H   0  0  0  0  0  0  0  0  0  0  0  0
   11.2821   36.3054   32.5171 H   0  0  0  0  0  0  0  0  0  0  0  0
   10.8658   35.6936   30.4652 H   0  0  0  0  0  0  0  0  0  0  0  0
   12.3293   38.3523   34.7445 H   0  0  0  0  0  0  0  0  0  0  0  0
   16.7561   34.1778   32.4622 H   0  0  0  0  0  0  0  0  0  0  0  0
   15.3532   35.7361   37.5139 H   0  0  0  0  0  0  0  0  0  0  0  0
   16.6345   34.5300   37.1416 H   0  0  0  0  0  0  0  0  0  0  0  0
  1  2  2  0
  1  3  1  0
  3  4  1  0
  4  5  1  0
  6  1  1  0
  7  6  1  0
  6  8  1  0
  8  9  1  0
  9 10  2  0
 11  9  1  0
 10 12  1  0
 13 11  2  0
 12 14  2  0
 14 13  1  0
 14 15  1  0
 15 16  1  0
 16 17  1  0
 16 18  1  0
 18 19  2  0
 20 18  1  0
 19 21  1  0
 22 20  2  0
 20 23  1  0
 21 24  1  0
 21 25  2  0
 25 22  1  0
 23 26  1  0
 23 27  2  0
 24 28  1  0
 25 29  1  0
 28 29  1  0
  4 30  2  0
  4 31  1  0
 32 31  1  0
 32 33  1  0
 33 34  1  0
 33 35  1  0
 34 36  1  0
 35 37  1  0
 35 38  1  0
 38 36  1  0
 36 39  1  0
 38 40  1  0
 41 39  1  0
 42 39  1  0
 43 41  2  0
 41 44  1  0
 45 42  2  0
 46 43  1  0
 44 47  2  0
 44 45  1  0
 48 46  2  0
 48 47  1  0
 47 49  1  0
  6 50  1  1
  7 51  1  0
  7 52  1  0
  8 53  1  0
  8 54  1  0
 10 55  1  0
 11 56  1  0
 12 57  1  0
 13 58  1  0
 16 59  1  1
 17 60  1  0
 17 61  1  0
 17 62  1  0
 19 63  1  0
 22 64  1  0
 28 65  1  0
 28 66  1  0
 32 67  1  0
 32 68  1  0
 33 69  1  0
 35 70  1  0
 36 71  1  0
 37 72  1  0
 38 73  1  0
 40 74  1  0
 42 75  1  0
 46 76  1  0
 49 77  1  0
 49 78  1  0
M  CHG  3   5  -1  23   1  26  -1
M  END
>  <EmbedRMS>  (80) 
0.0825569914916

$$$$

     RDKit          3D

 78 83  0  0  0  0  0  0  0  0999 V2000
   10.2836   43.7661   33.8257 C   0  0  0  0  0  0  0  0  0  0  0  0
   11.4103   43.5929   34.3753 O   0  0  0  0  0  0  0  0  0  0  0  0
    9.3637   42.7255   33.7350 O   0  0  0  0  0  0  0  0  0  0  0  0
    9.8902   41.2267   34.2942 P   0  0  0  0  0  0  0  0  0  0  0  0
   10.3736   41.4560   35.8836 O   0  0  0  0  0  0  0  0  0  0  0  0
    9.9548   45.0695   33.2038 C   0  0  1  0  0  0  0  0  0  0  0  0
   11.0276   46.0321   33.4757 N   0  0  0  0  0  0  0  0  0  0  0  0
    9.7464   44.8482   31.6880 C   0  0  0  0  0  0  0  0  0  0  0  0
    8.7922   45.8415   31.0858 C   0  0  0  0  0  0  0  0  0  0  0  0
    7.4059   45.6014   31.0985 C   0  0  0  0  0  0  0  0  0  0  0  0
    9.2820   46.9869   30.4416 C   0  0  0  0  0  0  0  0  0  0  0  0
    6.5277   46.5021   30.4816 C   0  0  0  0  0  0  0  0  0  0  0  0
    8.4031   47.8884   29.8303 C   0  0  0  0  0  0  0  0  0  0  0  0
    7.0127   47.6560   29.8500 C   0  0  0  0  0  0  0  0  0  0  0  0
    6.0767   48.5199   29.2477 O   0  0  0  0  0  0  0  0  0  0  0  0
    6.2876   49.8719   28.8068 C   0  0  1  0  0  0  0  0  0  0  0  0
    6.8980   50.7211   29.9408 C   0  0  0  0  0  0  0  0  0  0  0  0
    7.0622   49.9656   27.4891 C   0  0  0  0  0  0  0  0  0  0  0  0
    7.4970   48.7839   26.8305 C   0  0  0  0  0  0  0  0  0  0  0  0
    7.3546   51.2359   26.8806 C   0  0  0  0  0  0  0  0  0  0  0  0
    8.2661   48.9025   25.6809 C   0  0  0  0  0  0  0  0  0  0  0  0
    8.1582   51.2936   25.7201 C   0  0  0  0  0  0  0  0  0  0  0  0
    6.8201   52.4638   27.3956 N   0  0  0  0  0  0  0  0  0  0  0  0
    8.8094   47.8966   24.9048 O   0  0  0  0  0  0  0  0  0  0  0  0
    8.5917   50.1038   25.1553 C   0  0  0  0  0  0  0  0  0  0  0  0
    7.5896   53.6041   27.3768 O   0  0  0  0  0  0  0  0  0  0  0  0
    5.5972   52.5664   27.6227 O   0  0  0  0  0  0  0  0  0  0  0  0
    9.5251   48.5096   23.8239 C   0  0  0  0  0  0  0  0  0  0  0  0
    9.3593   49.9202   24.0213 O   0  0  0  0  0  0  0  0  0  0  0  0
    8.8121   40.1850   34.2131 O   0  0  0  0  0  0  0  0  0  0  0  0
   11.2404   40.7941   33.3690 O   0  0  0  0  0  0  0  0  0  0  0  0
   10.9143   40.6898   31.9972 C   0  0  0  0  0  0  0  0  0  0  0  0
   11.5261   39.3885   31.4376 C   0  0  0  0  0  0  0  0  0  0  0  0
   12.7504   39.0888   32.0816 O   0  0  0  0  0  0  0  0  0  0  0  0
   10.6115   38.1910   31.6460 C   0  0  0  0  0  0  0  0  0  0  0  0
   12.9357   37.6812   32.0303 C   0  0  0  0  0  0  0  0  0  0  0  0
    9.6146   38.0859   30.6533 O   0  0  0  0  0  0  0  0  0  0  0  0
   11.5769   37.0148   31.7012 C   0  0  0  0  0  0  0  0  0  0  0  0
   13.4849   37.2112   33.3247 N   0  0  0  0  0  0  0  0  0  0  0  0
   11.6193   36.3261   30.4724 O   0  0  0  0  0  0  0  0  0  0  0  0
   14.4802   36.3313   33.5730 C   0  0  0  0  0  0  0  0  0  0  0  0
   13.1141   37.6268   34.5698 C   0  0  0  0  0  0  0  0  0  0  0  0
   15.2075   35.6151   32.6741 N   0  0  0  0  0  0  0  0  0  0  0  0
   14.6761   36.2300   34.9184 C   0  0  0  0  0  0  0  0  0  0  0  0
   13.8221   37.0445   35.5789 N   0  0  0  0  0  0  0  0  0  0  0  0
   16.1642   34.7600   33.1547 C   0  0  0  0  0  0  0  0  0  0  0  0
   15.6529   35.3503   35.4132 C   0  0  0  0  0  0  0  0  0  0  0  0
   16.3797   34.6314   34.5042 N   0  0  0  0  0  0  0  0  0  0  0  0
   15.9004   35.1930   36.8090 N   0  0  0  0  0  0  0  0  0  0  0  0
    9.0123   45.4318   33.6719 H   0  0  0  0  0  0  0  0  0  0  0  0
   11.8908   45.7656   32.9471 H   0  0  0  0  0  0  0  0  0  0  0  0
   10.7262   46.9686   33.1211 H   0  0  0  0  0  0  0  0  0  0  0  0
   10.7227   44.8815   31.1558 H   0  0  0  0  0  0  0  0  0  0  0  0
    9.3410   43.8332   31.4766 H   0  0  0  0  0  0  0  0  0  0  0  0
    7.0086   44.7160   31.5793 H   0  0  0  0  0  0  0  0  0  0  0  0
   10.3472   47.1790   30.4025 H   0  0  0  0  0  0  0  0  0  0  0  0
    5.4634   46.3039   30.4978 H   0  0  0  0  0  0  0  0  0  0  0  0
    8.8230   48.7391   29.3172 H   0  0  0  0  0  0  0  0  0  0  0  0
    5.2735   50.2769   28.6084 H   0  0  0  0  0  0  0  0  0  0  0  0
    6.5271   51.7647   29.8978 H   0  0  0  0  0  0  0  0  0  0  0  0
    6.5993   50.3142   30.9301 H   0  0  0  0  0  0  0  0  0  0  0  0
    8.0049   50.7514   29.8848 H   0  0  0  0  0  0  0  0  0  0  0  0
    7.2562   47.7949   27.1913 H   0  0  0  0  0  0  0  0  0  0  0  0
    8.4036   52.2377   25.2510 H   0  0  0  0  0  0  0  0  0  0  0  0
   10.6008   48.2396   23.8734 H   0  0  0  0  0  0  0  0  0  0  0  0
    9.0863   48.2045   22.8508 H   0  0  0  0  0  0  0  0  0  0  0  0
   11.3779   41.5526   31.4726 H   0  0  0  0  0  0  0  0  0  0  0  0
    9.8233   40.7191   31.7647 H   0  0  0  0  0  0  0  0  0  0  0  0
   11.7283   39.5312   30.3515 H   0  0  0  0  0  0  0  0  0  0  0  0
   10.1127   38.2734   32.6376 H   0  0  0  0  0  0  0  0  0  0  0  0
   13.6692   37.4566   31.2242 H   0  0  0  0  0  0  0  0  0  0  0  0
   10.0533   38.1118   29.7635 H   0  0  0  0  0  0  0  0  0  0  0  0
   11.2607   36.3148   32.5102 H   0  0  0  0  0  0  0  0  0  0  0  0
   12.1496   35.5023   30.6324 H   0  0  0  0  0  0  0  0  0  0  0  0
   12.3301   38.3524   34.7455 H   0  0  0  0  0  0  0  0  0  0  0  0
   16.7563   34.1780   32.4619 H   0  0  0  0  0  0  0  0  0  0  0  0
   16.6351   34.5298   37.1415 H   0  0  0  0  0  0  0  0  0  0  0  0
   15.3536   35.7357   37.5140 H   0  0  0  0  0  0  0  0  0  0  0  0
  1  2  2  0
  1  3  1  0
  3  4  1  0
  4  5  1  0
  6  1  1  0
  7  6  1  0
  6  8  1  0
  8  9  1  0
  9 10  2  0
 11  9  1  0
 10 12  1  0
 13 11  2  0
 12 14  2  0
 14 13  1  0
 14 15  1  0
 15 16  1  0
 16 17  1  0
 16 18  1  0
 18 19  2  0
 20 18  1  0
 19 21  1  0
 22 20  2  0
 20 23  1  0
 21 24  1  0
 21 25  2  0
 25 22  1  0
 23 26  1  0
 23 27  2  0
 24 28  1  0
 25 29  1  0
 28 29  1  0
  4 30  2  0
  4 31  1  0
 32 31  1  0
 32 33  1  0
 33 34  1  0
 33 35  1  0
 34 36  1  0
 35 37  1  0
 35 38  1  0
 38 36  1  0
 36 39  1  0
 38 40  1  0
 41 39  1  0
 42 39  1  0
 43 41  2  0
 41 44  1  0
 45 42  2  0
 46 43  1  0
 44 47  2  0
 44 45  1  0
 48 46  2  0
 48 47  1  0
 47 49  1  0
  6 50  1  1
  7 51  1  0
  7 52  1  0
  8 53  1  0
  8 54  1  0
 10 55  1  0
 11 56  1  0
 12 57  1  0
 13 58  1  0
 16 59  1  6
 17 60  1  0
 17 61  1  0
 17 62  1  0
 19 63  1  0
 22 64  1  0
 28 65  1  0
 28 66  1  0
 32 67  1  0
 32 68  1  0
 33 69  1  0
 35 70  1  0
 36 71  1  0
 37 72  1  0
 38 73  1  0
 40 74  1  0
 42 75  1  0
 46 76  1  0
 49 77  1  0
 49 78  1  0
M  CHG  3   5  -1  23   1  26  -1
M  END
>  <EmbedRMS>  (81) 
0.0815993482308

$$$$

     RDKit          3D

 78 83  0  0  0  0  0  0  0  0999 V2000
   10.2832   43.7663   33.8253 C   0  0  0  0  0  0  0  0  0  0  0  0
   11.4100   43.5931   34.3750 O   0  0  0  0  0  0  0  0  0  0  0  0
    9.3634   42.7257   33.7350 O   0  0  0  0  0  0  0  0  0  0  0  0
    9.8899   41.2270   34.2947 P   0  0  0  0  0  0  0  0  0  0  0  0
   10.3732   41.4563   35.8841 O   0  0  0  0  0  0  0  0  0  0  0  0
    9.9545   45.0695   33.2030 C   0  0  1  0  0  0  0  0  0  0  0  0
   11.0272   46.0322   33.4753 N   0  0  0  0  0  0  0  0  0  0  0  0
    9.7466   44.8482   31.6869 C   0  0  0  0  0  0  0  0  0  0  0  0
    8.7921   45.8405   31.0831 C   0  0  0  0  0  0  0  0  0  0  0  0
    7.4043   45.6017   31.1004 C   0  0  0  0  0  0  0  0  0  0  0  0
    9.2821   46.9901   30.4434 C   0  0  0  0  0  0  0  0  0  0  0  0
    6.5250   46.5051   30.4882 C   0  0  0  0  0  0  0  0  0  0  0  0
    8.4012   47.8923   29.8350 C   0  0  0  0  0  0  0  0  0  0  0  0
    7.0205   47.6457   29.8414 C   0  0  0  0  0  0  0  0  0  0  0  0
    6.1285   48.5348   29.2332 O   0  0  0  0  0  0  0  0  0  0  0  0
    5.8902   48.6210   27.8212 C   0  0  1  0  0  0  0  0  0  0  0  0
    7.1290   49.0927   27.0509 C   0  0  0  0  0  0  0  0  0  0  0  0
    5.3269   47.3161   27.2657 C   0  0  0  0  0  0  0  0  0  0  0  0
    6.1513   46.1615   27.2316 C   0  0  0  0  0  0  0  0  0  0  0  0
    3.9618   47.2041   26.8362 C   0  0  0  0  0  0  0  0  0  0  0  0
    5.5959   44.9563   26.8244 C   0  0  0  0  0  0  0  0  0  0  0  0
    3.4480   45.9473   26.4443 C   0  0  0  0  0  0  0  0  0  0  0  0
    3.0993   48.3475   26.7666 N   0  0  0  0  0  0  0  0  0  0  0  0
    6.2036   43.7190   26.7320 O   0  0  0  0  0  0  0  0  0  0  0  0
    4.3002   44.8522   26.4528 C   0  0  0  0  0  0  0  0  0  0  0  0
    3.4522   49.4189   25.9788 O   0  0  0  0  0  0  0  0  0  0  0  0
    1.9254   48.2656   27.1830 O   0  0  0  0  0  0  0  0  0  0  0  0
    5.2239   42.7784   26.2717 C   0  0  0  0  0  0  0  0  0  0  0  0
    4.0227   43.5442   26.1052 O   0  0  0  0  0  0  0  0  0  0  0  0
    8.8120   40.1850   34.2133 O   0  0  0  0  0  0  0  0  0  0  0  0
   11.2402   40.7947   33.3699 O   0  0  0  0  0  0  0  0  0  0  0  0
   10.9144   40.6914   31.9982 C   0  0  0  0  0  0  0  0  0  0  0  0
   11.5269   39.3912   31.4385 C   0  0  0  0  0  0  0  0  0  0  0  0
   12.7520   39.0911   32.0836 O   0  0  0  0  0  0  0  0  0  0  0  0
   10.6113   38.1932   31.6451 C   0  0  0  0  0  0  0  0  0  0  0  0
   12.9412   37.6838   32.0297 C   0  0  0  0  0  0  0  0  0  0  0  0
    9.6064   38.0878   30.6599 O   0  0  0  0  0  0  0  0  0  0  0  0
   11.5821   37.0198   31.6877 C   0  0  0  0  0  0  0  0  0  0  0  0
   13.4840   37.2105   33.3254 N   0  0  0  0  0  0  0  0  0  0  0  0
   11.6179   36.3072   30.4690 O   0  0  0  0  0  0  0  0  0  0  0  0
   14.4797   36.3309   33.5738 C   0  0  0  0  0  0  0  0  0  0  0  0
   13.1136   37.6269   34.5702 C   0  0  0  0  0  0  0  0  0  0  0  0
   15.2074   35.6152   32.6747 N   0  0  0  0  0  0  0  0  0  0  0  0
   14.6756   36.2298   34.9190 C   0  0  0  0  0  0  0  0  0  0  0  0
   13.8217   37.0446   35.5793 N   0  0  0  0  0  0  0  0  0  0  0  0
   16.1643   34.7603   33.1551 C   0  0  0  0  0  0  0  0  0  0  0  0
   15.6528   35.3503   35.4136 C   0  0  0  0  0  0  0  0  0  0  0  0
   16.3798   34.6316   34.5045 N   0  0  0  0  0  0  0  0  0  0  0  0
   15.9004   35.1930   36.8094 N   0  0  0  0  0  0  0  0  0  0  0  0
    9.0119   45.4318   33.6706 H   0  0  0  0  0  0  0  0  0  0  0  0
   11.8904   45.7660   32.9465 H   0  0  0  0  0  0  0  0  0  0  0  0
   10.7257   46.9689   33.1213 H   0  0  0  0  0  0  0  0  0  0  0  0
   10.7229   44.8820   31.1548 H   0  0  0  0  0  0  0  0  0  0  0  0
    9.3417   43.8330   31.4754 H   0  0  0  0  0  0  0  0  0  0  0  0
    7.0071   44.7173   31.5831 H   0  0  0  0  0  0  0  0  0  0  0  0
   10.3459   47.1916   30.4182 H   0  0  0  0  0  0  0  0  0  0  0  0
    5.4599   46.3118   30.5032 H   0  0  0  0  0  0  0  0  0  0  0  0
    8.7941   48.7849   29.3670 H   0  0  0  0  0  0  0  0  0  0  0  0
    5.1471   49.4313   27.7060 H   0  0  0  0  0  0  0  0  0  0  0  0
    6.8655   49.2651   25.9855 H   0  0  0  0  0  0  0  0  0  0  0  0
    7.4955   50.0492   27.4799 H   0  0  0  0  0  0  0  0  0  0  0  0
    7.9489   48.3477   27.0922 H   0  0  0  0  0  0  0  0  0  0  0  0
    7.1894   46.1889   27.5327 H   0  0  0  0  0  0  0  0  0  0  0  0
    2.4210   45.8355   26.1208 H   0  0  0  0  0  0  0  0  0  0  0  0
    5.5375   42.3415   25.3005 H   0  0  0  0  0  0  0  0  0  0  0  0
    5.0690   41.9828   27.0304 H   0  0  0  0  0  0  0  0  0  0  0  0
    9.8234   40.7201   31.7653 H   0  0  0  0  0  0  0  0  0  0  0  0
   11.3776   41.5549   31.4743 H   0  0  0  0  0  0  0  0  0  0  0  0
   11.7311   39.5362   30.3532 H   0  0  0  0  0  0  0  0  0  0  0  0
   10.1202   38.2697   32.6410 H   0  0  0  0  0  0  0  0  0  0  0  0
   13.6850   37.4639   31.2321 H   0  0  0  0  0  0  0  0  0  0  0  0
   10.0250   38.1794   29.7654 H   0  0  0  0  0  0  0  0  0  0  0  0
   11.2756   36.3135   32.4907 H   0  0  0  0  0  0  0  0  0  0  0  0
   11.9837   36.9111   29.7708 H   0  0  0  0  0  0  0  0  0  0  0  0
   12.3307   38.3536   34.7458 H   0  0  0  0  0  0  0  0  0  0  0  0
   16.7566   34.1787   32.4622 H   0  0  0  0  0  0  0  0  0  0  0  0
   16.6353   34.5301   37.1419 H   0  0  0  0  0  0  0  0  0  0  0  0
   15.3535   35.7355   37.5144 H   0  0  0  0  0  0  0  0  0  0  0  0
  1  2  2  0
  1  3  1  0
  3  4  1  0
  4  5  1  0
  6  1  1  0
  7  6  1  0
  6  8  1  0
  8  9  1  0
  9 10  2  0
 11  9  1  0
 10 12  1  0
 13 11  2  0
 12 14  2  0
 14 13  1  0
 14 15  1  0
 15 16  1  0
 16 17  1  0
 16 18  1  0
 18 19  2  0
 20 18  1  0
 19 21  1  0
 22 20  2  0
 20 23  1  0
 21 24  1  0
 21 25  2  0
 25 22  1  0
 23 26  1  0
 23 27  2  0
 24 28  1  0
 25 29  1  0
 28 29  1  0
  4 30  2  0
  4 31  1  0
 32 31  1  0
 32 33  1  0
 33 34  1  0
 33 35  1  0
 34 36  1  0
 35 37  1  0
 35 38  1  0
 38 36  1  0
 36 39  1  0
 38 40  1  0
 41 39  1  0
 42 39  1  0
 43 41  2  0
 41 44  1  0
 45 42  2  0
 46 43  1  0
 44 47  2  0
 44 45  1  0
 48 46  2  0
 48 47  1  0
 47 49  1  0
  6 50  1  1
  7 51  1  0
  7 52  1  0
  8 53  1  0
  8 54  1  0
 10 55  1  0
 11 56  1  0
 12 57  1  0
 13 58  1  0
 16 59  1  1
 17 60  1  0
 17 61  1  0
 17 62  1  0
 19 63  1  0
 22 64  1  0
 28 65  1  0
 28 66  1  0
 32 67  1  0
 32 68  1  0
 33 69  1  0
 35 70  1  0
 36 71  1  0
 37 72  1  0
 38 73  1  0
 40 74  1  0
 42 75  1  0
 46 76  1  0
 49 77  1  0
 49 78  1  0
M  CHG  3   5  -1  23   1  26  -1
M  END
>  <EmbedRMS>  (82) 
0.0809602309771

$$$$

     RDKit          3D

 78 83  0  0  0  0  0  0  0  0999 V2000
   10.2840   43.7626   33.8274 C   0  0  0  0  0  0  0  0  0  0  0  0
   11.4104   43.5861   34.3766 O   0  0  0  0  0  0  0  0  0  0  0  0
    9.3632   42.7236   33.7349 O   0  0  0  0  0  0  0  0  0  0  0  0
    9.8894   41.2249   34.2940 P   0  0  0  0  0  0  0  0  0  0  0  0
   10.3724   41.4553   35.8834 O   0  0  0  0  0  0  0  0  0  0  0  0
    9.9552   45.0703   33.2068 C   0  0  1  0  0  0  0  0  0  0  0  0
   11.0200   46.0485   33.4581 N   0  0  0  0  0  0  0  0  0  0  0  0
    9.7513   44.8525   31.6925 C   0  0  0  0  0  0  0  0  0  0  0  0
    8.7948   45.8433   31.0882 C   0  0  0  0  0  0  0  0  0  0  0  0
    7.4085   45.6017   31.1035 C   0  0  0  0  0  0  0  0  0  0  0  0
    9.2820   46.9920   30.4472 C   0  0  0  0  0  0  0  0  0  0  0  0
    6.5261   46.4990   30.4873 C   0  0  0  0  0  0  0  0  0  0  0  0
    8.3996   47.8890   29.8334 C   0  0  0  0  0  0  0  0  0  0  0  0
    7.0191   47.6491   29.8377 C   0  0  0  0  0  0  0  0  0  0  0  0
    6.1817   48.5631   29.1769 O   0  0  0  0  0  0  0  0  0  0  0  0
    4.7795   48.3856   28.9556 C   0  0  1  0  0  0  0  0  0  0  0  0
    4.2122   49.6650   28.3435 C   0  0  0  0  0  0  0  0  0  0  0  0
    4.5301   47.2090   28.0259 C   0  0  0  0  0  0  0  0  0  0  0  0
    5.3554   47.0638   26.8840 C   0  0  0  0  0  0  0  0  0  0  0  0
    3.5397   46.2095   28.3067 C   0  0  0  0  0  0  0  0  0  0  0  0
    5.2077   45.9286   26.0987 C   0  0  0  0  0  0  0  0  0  0  0  0
    3.4469   45.0674   27.4796 C   0  0  0  0  0  0  0  0  0  0  0  0
    2.6243   46.3391   29.4052 N   0  0  0  0  0  0  0  0  0  0  0  0
    5.9101   45.5729   24.9637 O   0  0  0  0  0  0  0  0  0  0  0  0
    4.2989   44.9692   26.3875 C   0  0  0  0  0  0  0  0  0  0  0  0
    2.2185   45.2193   30.0936 O   0  0  0  0  0  0  0  0  0  0  0  0
    2.0200   47.4139   29.5959 O   0  0  0  0  0  0  0  0  0  0  0  0
    5.4094   44.3071   24.5124 C   0  0  0  0  0  0  0  0  0  0  0  0
    4.3810   43.9583   25.4490 O   0  0  0  0  0  0  0  0  0  0  0  0
    8.8115   40.1832   34.2127 O   0  0  0  0  0  0  0  0  0  0  0  0
   11.2402   40.7929   33.3692 O   0  0  0  0  0  0  0  0  0  0  0  0
   10.9151   40.6900   31.9971 C   0  0  0  0  0  0  0  0  0  0  0  0
   11.5254   39.3883   31.4373 C   0  0  0  0  0  0  0  0  0  0  0  0
   12.7500   39.0872   32.0798 O   0  0  0  0  0  0  0  0  0  0  0  0
   10.6092   38.1926   31.6470 C   0  0  0  0  0  0  0  0  0  0  0  0
   12.9331   37.6791   32.0294 C   0  0  0  0  0  0  0  0  0  0  0  0
    9.6120   38.0896   30.6544 O   0  0  0  0  0  0  0  0  0  0  0  0
   11.5741   37.0144   31.7026 C   0  0  0  0  0  0  0  0  0  0  0  0
   13.4846   37.2107   33.3240 N   0  0  0  0  0  0  0  0  0  0  0  0
   11.6296   36.3240   30.4741 O   0  0  0  0  0  0  0  0  0  0  0  0
   14.4803   36.3313   33.5726 C   0  0  0  0  0  0  0  0  0  0  0  0
   13.1140   37.6267   34.5691 C   0  0  0  0  0  0  0  0  0  0  0  0
   15.2075   35.6149   32.6738 N   0  0  0  0  0  0  0  0  0  0  0  0
   14.6761   36.2302   34.9180 C   0  0  0  0  0  0  0  0  0  0  0  0
   13.8220   37.0446   35.5784 N   0  0  0  0  0  0  0  0  0  0  0  0
   16.1642   34.7597   33.1546 C   0  0  0  0  0  0  0  0  0  0  0  0
   15.6527   35.3502   35.4129 C   0  0  0  0  0  0  0  0  0  0  0  0
   16.3795   34.6312   34.5041 N   0  0  0  0  0  0  0  0  0  0  0  0
   15.9000   35.1931   36.8088 N   0  0  0  0  0  0  0  0  0  0  0  0
    9.0102   45.4348   33.6677 H   0  0  0  0  0  0  0  0  0  0  0  0
   11.1136   46.1985   34.4896 H   0  0  0  0  0  0  0  0  0  0  0  0
   11.9350   45.6939   33.0938 H   0  0  0  0  0  0  0  0  0  0  0  0
    9.3532   43.8358   31.4752 H   0  0  0  0  0  0  0  0  0  0  0  0
   10.7315   44.8957   31.1674 H   0  0  0  0  0  0  0  0  0  0  0  0
    7.0141   44.7183   31.5901 H   0  0  0  0  0  0  0  0  0  0  0  0
   10.3457   47.1938   30.4189 H   0  0  0  0  0  0  0  0  0  0  0  0
    5.4681   46.2846   30.5226 H   0  0  0  0  0  0  0  0  0  0  0  0
    8.7921   48.7680   29.3382 H   0  0  0  0  0  0  0  0  0  0  0  0
    4.2931   48.2415   29.9420 H   0  0  0  0  0  0  0  0  0  0  0  0
    4.7179   49.8956   27.3816 H   0  0  0  0  0  0  0  0  0  0  0  0
    3.1219   49.5561   28.1626 H   0  0  0  0  0  0  0  0  0  0  0  0
    4.3707   50.5157   29.0393 H   0  0  0  0  0  0  0  0  0  0  0  0
    6.1100   47.7987   26.6338 H   0  0  0  0  0  0  0  0  0  0  0  0
    2.7174   44.2912   27.6705 H   0  0  0  0  0  0  0  0  0  0  0  0
    4.9821   44.4047   23.4930 H   0  0  0  0  0  0  0  0  0  0  0  0
    6.2178   43.5462   24.5302 H   0  0  0  0  0  0  0  0  0  0  0  0
    9.8244   40.7214   31.7637 H   0  0  0  0  0  0  0  0  0  0  0  0
   11.3800   41.5523   31.4732 H   0  0  0  0  0  0  0  0  0  0  0  0
   11.7271   39.5306   30.3510 H   0  0  0  0  0  0  0  0  0  0  0  0
   10.1111   38.2748   32.6389 H   0  0  0  0  0  0  0  0  0  0  0  0
   13.6650   37.4517   31.2224 H   0  0  0  0  0  0  0  0  0  0  0  0
   10.0508   38.1161   29.7646 H   0  0  0  0  0  0  0  0  0  0  0  0
   11.2763   36.3140   32.5195 H   0  0  0  0  0  0  0  0  0  0  0  0
   10.8596   35.6975   30.4635 H   0  0  0  0  0  0  0  0  0  0  0  0
   12.3294   38.3514   34.7448 H   0  0  0  0  0  0  0  0  0  0  0  0
   16.7557   34.1772   32.4619 H   0  0  0  0  0  0  0  0  0  0  0  0
   15.3532   35.7360   37.5135 H   0  0  0  0  0  0  0  0  0  0  0  0
   16.6348   34.5301   37.1415 H   0  0  0  0  0  0  0  0  0  0  0  0
  1  2  2  0
  1  3  1  0
  3  4  1  0
  4  5  1  0
  6  1  1  0
  7  6  1  0
  6  8  1  0
  8  9  1  0
  9 10  2  0
 11  9  1  0
 10 12  1  0
 13 11  2  0
 12 14  2  0
 14 13  1  0
 14 15  1  0
 15 16  1  0
 16 17  1  0
 16 18  1  0
 18 19  2  0
 20 18  1  0
 19 21  1  0
 22 20  2  0
 20 23  1  0
 21 24  1  0
 21 25  2  0
 25 22  1  0
 23 26  1  0
 23 27  2  0
 24 28  1  0
 25 29  1  0
 28 29  1  0
  4 30  2  0
  4 31  1  0
 32 31  1  0
 32 33  1  0
 33 34  1  0
 33 35  1  0
 34 36  1  0
 35 37  1  0
 35 38  1  0
 38 36  1  0
 36 39  1  0
 38 40  1  0
 41 39  1  0
 42 39  1  0
 43 41  2  0
 41 44  1  0
 45 42  2  0
 46 43  1  0
 44 47  2  0
 44 45  1  0
 48 46  2  0
 48 47  1  0
 47 49  1  0
  6 50  1  1
  7 51  1  0
  7 52  1  0
  8 53  1  0
  8 54  1  0
 10 55  1  0
 11 56  1  0
 12 57  1  0
 13 58  1  0
 16 59  1  1
 17 60  1  0
 17 61  1  0
 17 62  1  0
 19 63  1  0
 22 64  1  0
 28 65  1  0
 28 66  1  0
 32 67  1  0
 32 68  1  0
 33 69  1  0
 35 70  1  0
 36 71  1  0
 37 72  1  0
 38 73  1  0
 40 74  1  0
 42 75  1  0
 46 76  1  0
 49 77  1  0
 49 78  1  0
M  CHG  3   5  -1  23   1  26  -1
M  END
>  <EmbedRMS>  (83) 
0.0827515589923

$$$$

     RDKit          3D

 78 83  0  0  0  0  0  0  0  0999 V2000
   10.2835   43.7661   33.8257 C   0  0  0  0  0  0  0  0  0  0  0  0
   11.4103   43.5930   34.3753 O   0  0  0  0  0  0  0  0  0  0  0  0
    9.3638   42.7254   33.7350 O   0  0  0  0  0  0  0  0  0  0  0  0
    9.8903   41.2267   34.2943 P   0  0  0  0  0  0  0  0  0  0  0  0
   10.3735   41.4560   35.8837 O   0  0  0  0  0  0  0  0  0  0  0  0
    9.9547   45.0694   33.2036 C   0  0  1  0  0  0  0  0  0  0  0  0
   11.0274   46.0321   33.4756 N   0  0  0  0  0  0  0  0  0  0  0  0
    9.7466   44.8479   31.6878 C   0  0  0  0  0  0  0  0  0  0  0  0
    8.7923   45.8406   31.0848 C   0  0  0  0  0  0  0  0  0  0  0  0
    7.4061   45.6017   31.0992 C   0  0  0  0  0  0  0  0  0  0  0  0
    9.2816   46.9871   30.4426 C   0  0  0  0  0  0  0  0  0  0  0  0
    6.5280   46.5034   30.4837 C   0  0  0  0  0  0  0  0  0  0  0  0
    8.4030   47.8894   29.8318 C   0  0  0  0  0  0  0  0  0  0  0  0
    7.0129   47.6543   29.8463 C   0  0  0  0  0  0  0  0  0  0  0  0
    6.0735   48.5108   29.2426 O   0  0  0  0  0  0  0  0  0  0  0  0
    6.3251   49.7458   28.5585 C   0  0  1  0  0  0  0  0  0  0  0  0
    6.7247   50.8351   29.5666 C   0  0  0  0  0  0  0  0  0  0  0  0
    7.2560   49.5479   27.3606 C   0  0  0  0  0  0  0  0  0  0  0  0
    8.3909   50.3840   27.1729 C   0  0  0  0  0  0  0  0  0  0  0  0
    7.0129   48.4918   26.4142 C   0  0  0  0  0  0  0  0  0  0  0  0
    9.2444   50.1220   26.1099 C   0  0  0  0  0  0  0  0  0  0  0  0
    7.9285   48.2667   25.3618 C   0  0  0  0  0  0  0  0  0  0  0  0
    5.8615   47.6357   26.5093 N   0  0  0  0  0  0  0  0  0  0  0  0
   10.4004   50.7900   25.7537 O   0  0  0  0  0  0  0  0  0  0  0  0
    9.0262   49.1060   25.2464 C   0  0  0  0  0  0  0  0  0  0  0  0
    5.9570   46.3161   26.1315 O   0  0  0  0  0  0  0  0  0  0  0  0
    4.7323   48.1141   26.7398 O   0  0  0  0  0  0  0  0  0  0  0  0
   10.9410   50.1494   24.5902 C   0  0  0  0  0  0  0  0  0  0  0  0
   10.0320   49.0791   24.2995 O   0  0  0  0  0  0  0  0  0  0  0  0
    8.8122   40.1850   34.2131 O   0  0  0  0  0  0  0  0  0  0  0  0
   11.2407   40.7939   33.3693 O   0  0  0  0  0  0  0  0  0  0  0  0
   10.9151   40.6905   31.9974 C   0  0  0  0  0  0  0  0  0  0  0  0
   11.5252   39.3886   31.4375 C   0  0  0  0  0  0  0  0  0  0  0  0
   12.7500   39.0874   32.0799 O   0  0  0  0  0  0  0  0  0  0  0  0
   10.6092   38.1926   31.6470 C   0  0  0  0  0  0  0  0  0  0  0  0
   12.9332   37.6793   32.0294 C   0  0  0  0  0  0  0  0  0  0  0  0
    9.6122   38.0895   30.6542 O   0  0  0  0  0  0  0  0  0  0  0  0
   11.5743   37.0145   31.7024 C   0  0  0  0  0  0  0  0  0  0  0  0
   13.4844   37.2108   33.3241 N   0  0  0  0  0  0  0  0  0  0  0  0
   11.6297   36.3239   30.4740 O   0  0  0  0  0  0  0  0  0  0  0  0
   14.4802   36.3313   33.5726 C   0  0  0  0  0  0  0  0  0  0  0  0
   13.1139   37.6267   34.5692 C   0  0  0  0  0  0  0  0  0  0  0  0
   15.2075   35.6149   32.6739 N   0  0  0  0  0  0  0  0  0  0  0  0
   14.6761   36.2303   34.9181 C   0  0  0  0  0  0  0  0  0  0  0  0
   13.8220   37.0447   35.5785 N   0  0  0  0  0  0  0  0  0  0  0  0
   16.1643   34.7600   33.1547 C   0  0  0  0  0  0  0  0  0  0  0  0
   15.6529   35.3505   35.4130 C   0  0  0  0  0  0  0  0  0  0  0  0
   16.3798   34.6315   34.5042 N   0  0  0  0  0  0  0  0  0  0  0  0
   15.9003   35.1932   36.8090 N   0  0  0  0  0  0  0  0  0  0  0  0
    9.0122   45.4317   33.6715 H   0  0  0  0  0  0  0  0  0  0  0  0
   10.7260   46.9687   33.1211 H   0  0  0  0  0  0  0  0  0  0  0  0
   11.8906   45.7657   32.9469 H   0  0  0  0  0  0  0  0  0  0  0  0
    9.3414   43.8328   31.4764 H   0  0  0  0  0  0  0  0  0  0  0  0
   10.7229   44.8813   31.1557 H   0  0  0  0  0  0  0  0  0  0  0  0
    7.0085   44.7167   31.5808 H   0  0  0  0  0  0  0  0  0  0  0  0
   10.3464   47.1832   30.4107 H   0  0  0  0  0  0  0  0  0  0  0  0
    5.4638   46.3049   30.5001 H   0  0  0  0  0  0  0  0  0  0  0  0
    8.8260   48.7544   29.3495 H   0  0  0  0  0  0  0  0  0  0  0  0
    5.3532   50.0857   28.1429 H   0  0  0  0  0  0  0  0  0  0  0  0
    7.7214   50.6431   30.0109 H   0  0  0  0  0  0  0  0  0  0  0  0
    5.9810   50.8661   30.3909 H   0  0  0  0  0  0  0  0  0  0  0  0
    6.7264   51.8318   29.0761 H   0  0  0  0  0  0  0  0  0  0  0  0
    8.6291   51.2031   27.8353 H   0  0  0  0  0  0  0  0  0  0  0  0
    7.7763   47.4731   24.6418 H   0  0  0  0  0  0  0  0  0  0  0  0
   11.9515   49.7451   24.8089 H   0  0  0  0  0  0  0  0  0  0  0  0
   10.9770   50.8630   23.7406 H   0  0  0  0  0  0  0  0  0  0  0  0
    9.8243   40.7216   31.7643 H   0  0  0  0  0  0  0  0  0  0  0  0
   11.3802   41.5529   31.4733 H   0  0  0  0  0  0  0  0  0  0  0  0
   11.7266   39.5311   30.3513 H   0  0  0  0  0  0  0  0  0  0  0  0
   10.1110   38.2747   32.6387 H   0  0  0  0  0  0  0  0  0  0  0  0
   13.6652   37.4519   31.2226 H   0  0  0  0  0  0  0  0  0  0  0  0
   10.0511   38.1143   29.7645 H   0  0  0  0  0  0  0  0  0  0  0  0
   11.2762   36.3141   32.5189 H   0  0  0  0  0  0  0  0  0  0  0  0
   10.8593   35.6978   30.4640 H   0  0  0  0  0  0  0  0  0  0  0  0
   12.3295   38.3518   34.7449 H   0  0  0  0  0  0  0  0  0  0  0  0
   16.7564   34.1780   32.4620 H   0  0  0  0  0  0  0  0  0  0  0  0
   16.6349   34.5300   37.1415 H   0  0  0  0  0  0  0  0  0  0  0  0
   15.3534   35.7359   37.5138 H   0  0  0  0  0  0  0  0  0  0  0  0
  1  2  2  0
  1  3  1  0
  3  4  1  0
  4  5  1  0
  6  1  1  0
  7  6  1  0
  6  8  1  0
  8  9  1  0
  9 10  2  0
 11  9  1  0
 10 12  1  0
 13 11  2  0
 12 14  2  0
 14 13  1  0
 14 15  1  0
 15 16  1  0
 16 17  1  0
 16 18  1  0
 18 19  2  0
 20 18  1  0
 19 21  1  0
 22 20  2  0
 20 23  1  0
 21 24  1  0
 21 25  2  0
 25 22  1  0
 23 26  1  0
 23 27  2  0
 24 28  1  0
 25 29  1  0
 28 29  1  0
  4 30  2  0
  4 31  1  0
 32 31  1  0
 32 33  1  0
 33 34  1  0
 33 35  1  0
 34 36  1  0
 35 37  1  0
 35 38  1  0
 38 36  1  0
 36 39  1  0
 38 40  1  0
 41 39  1  0
 42 39  1  0
 43 41  2  0
 41 44  1  0
 45 42  2  0
 46 43  1  0
 44 47  2  0
 44 45  1  0
 48 46  2  0
 48 47  1  0
 47 49  1  0
  6 50  1  1
  7 51  1  0
  7 52  1  0
  8 53  1  0
  8 54  1  0
 10 55  1  0
 11 56  1  0
 12 57  1  0
 13 58  1  0
 16 59  1  6
 17 60  1  0
 17 61  1  0
 17 62  1  0
 19 63  1  0
 22 64  1  0
 28 65  1  0
 28 66  1  0
 32 67  1  0
 32 68  1  0
 33 69  1  0
 35 70  1  0
 36 71  1  0
 37 72  1  0
 38 73  1  0
 40 74  1  0
 42 75  1  0
 46 76  1  0
 49 77  1  0
 49 78  1  0
M  CHG  3   5  -1  23   1  26  -1
M  END
>  <EmbedRMS>  (84) 
0.0818059109591

$$$$

     RDKit          3D

 78 83  0  0  0  0  0  0  0  0999 V2000
   10.2837   43.7626   33.8276 C   0  0  0  0  0  0  0  0  0  0  0  0
   11.4102   43.5863   34.3766 O   0  0  0  0  0  0  0  0  0  0  0  0
    9.3630   42.7235   33.7354 O   0  0  0  0  0  0  0  0  0  0  0  0
    9.8895   41.2249   34.2944 P   0  0  0  0  0  0  0  0  0  0  0  0
   10.3728   41.4548   35.8838 O   0  0  0  0  0  0  0  0  0  0  0  0
    9.9547   45.0698   33.2063 C   0  0  1  0  0  0  0  0  0  0  0  0
   11.0197   46.0480   33.4568 N   0  0  0  0  0  0  0  0  0  0  0  0
    9.7500   44.8506   31.6923 C   0  0  0  0  0  0  0  0  0  0  0  0
    8.7942   45.8417   31.0870 C   0  0  0  0  0  0  0  0  0  0  0  0
    7.4075   45.6003   31.0993 C   0  0  0  0  0  0  0  0  0  0  0  0
    9.2829   46.9884   30.4443 C   0  0  0  0  0  0  0  0  0  0  0  0
    6.5253   46.4995   30.4836 C   0  0  0  0  0  0  0  0  0  0  0  0
    8.4015   47.8875   29.8332 C   0  0  0  0  0  0  0  0  0  0  0  0
    7.0191   47.6581   29.8482 C   0  0  0  0  0  0  0  0  0  0  0  0
    6.1888   48.5987   29.2162 O   0  0  0  0  0  0  0  0  0  0  0  0
    4.7589   48.6042   29.2282 C   0  0  1  0  0  0  0  0  0  0  0  0
    4.2363   49.0411   30.6038 C   0  0  0  0  0  0  0  0  0  0  0  0
    4.2688   49.5552   28.1503 C   0  0  0  0  0  0  0  0  0  0  0  0
    4.6751   50.9120   28.2103 C   0  0  0  0  0  0  0  0  0  0  0  0
    3.3832   49.1385   27.1006 C   0  0  0  0  0  0  0  0  0  0  0  0
    4.1643   51.8015   27.2745 C   0  0  0  0  0  0  0  0  0  0  0  0
    2.8813   50.0926   26.1875 C   0  0  0  0  0  0  0  0  0  0  0  0
    3.0045   47.7656   26.9300 N   0  0  0  0  0  0  0  0  0  0  0  0
    4.4109   53.1556   27.1524 O   0  0  0  0  0  0  0  0  0  0  0  0
    3.3007   51.4105   26.3098 C   0  0  0  0  0  0  0  0  0  0  0  0
    1.7054   47.4555   26.6006 O   0  0  0  0  0  0  0  0  0  0  0  0
    3.8847   46.8908   26.7953 O   0  0  0  0  0  0  0  0  0  0  0  0
    3.6524   53.6446   26.0381 C   0  0  0  0  0  0  0  0  0  0  0  0
    2.9582   52.4975   25.5287 O   0  0  0  0  0  0  0  0  0  0  0  0
    8.8115   40.1832   34.2130 O   0  0  0  0  0  0  0  0  0  0  0  0
   11.2403   40.7933   33.3695 O   0  0  0  0  0  0  0  0  0  0  0  0
   10.9151   40.6904   31.9974 C   0  0  0  0  0  0  0  0  0  0  0  0
   11.5253   39.3886   31.4376 C   0  0  0  0  0  0  0  0  0  0  0  0
   12.7500   39.0873   32.0800 O   0  0  0  0  0  0  0  0  0  0  0  0
   10.6094   38.1926   31.6470 C   0  0  0  0  0  0  0  0  0  0  0  0
   12.9332   37.6791   32.0294 C   0  0  0  0  0  0  0  0  0  0  0  0
    9.6121   38.0897   30.6546 O   0  0  0  0  0  0  0  0  0  0  0  0
   11.5743   37.0144   31.7024 C   0  0  0  0  0  0  0  0  0  0  0  0
   13.4844   37.2106   33.3241 N   0  0  0  0  0  0  0  0  0  0  0  0
   11.6299   36.3237   30.4741 O   0  0  0  0  0  0  0  0  0  0  0  0
   14.4802   36.3312   33.5726 C   0  0  0  0  0  0  0  0  0  0  0  0
   13.1140   37.6268   34.5692 C   0  0  0  0  0  0  0  0  0  0  0  0
   15.2075   35.6148   32.6739 N   0  0  0  0  0  0  0  0  0  0  0  0
   14.6762   36.2303   34.9181 C   0  0  0  0  0  0  0  0  0  0  0  0
   13.8222   37.0449   35.5784 N   0  0  0  0  0  0  0  0  0  0  0  0
   16.1643   34.7598   33.1547 C   0  0  0  0  0  0  0  0  0  0  0  0
   15.6530   35.3505   35.4130 C   0  0  0  0  0  0  0  0  0  0  0  0
   16.3798   34.6314   34.5042 N   0  0  0  0  0  0  0  0  0  0  0  0
   15.9002   35.1932   36.8089 N   0  0  0  0  0  0  0  0  0  0  0  0
    9.0098   45.4348   33.6670 H   0  0  0  0  0  0  0  0  0  0  0  0
   11.9348   45.6932   33.0927 H   0  0  0  0  0  0  0  0  0  0  0  0
   11.1131   46.1995   34.4881 H   0  0  0  0  0  0  0  0  0  0  0  0
   10.7302   44.8920   31.1674 H   0  0  0  0  0  0  0  0  0  0  0  0
    9.3507   43.8341   31.4760 H   0  0  0  0  0  0  0  0  0  0  0  0
    7.0127   44.7133   31.5796 H   0  0  0  0  0  0  0  0  0  0  0  0
   10.3471   47.1881   30.4145 H   0  0  0  0  0  0  0  0  0  0  0  0
    5.4692   46.2750   30.5076 H   0  0  0  0  0  0  0  0  0  0  0  0
    8.7954   48.7695   29.3437 H   0  0  0  0  0  0  0  0  0  0  0  0
    4.3824   47.5820   29.0413 H   0  0  0  0  0  0  0  0  0  0  0  0
    4.5057   48.2941   31.3778 H   0  0  0  0  0  0  0  0  0  0  0  0
    4.6714   50.0177   30.9030 H   0  0  0  0  0  0  0  0  0  0  0  0
    3.1290   49.1289   30.5811 H   0  0  0  0  0  0  0  0  0  0  0  0
    5.3587   51.2661   28.9712 H   0  0  0  0  0  0  0  0  0  0  0  0
    2.2075   49.8077   25.3896 H   0  0  0  0  0  0  0  0  0  0  0  0
    4.3313   54.0572   25.2626 H   0  0  0  0  0  0  0  0  0  0  0  0
    2.9262   54.4134   26.3757 H   0  0  0  0  0  0  0  0  0  0  0  0
    9.8243   40.7216   31.7641 H   0  0  0  0  0  0  0  0  0  0  0  0
   11.3803   41.5529   31.4736 H   0  0  0  0  0  0  0  0  0  0  0  0
   11.7266   39.5310   30.3513 H   0  0  0  0  0  0  0  0  0  0  0  0
   10.1114   38.2747   32.6389 H   0  0  0  0  0  0  0  0  0  0  0  0
   13.6652   37.4519   31.2226 H   0  0  0  0  0  0  0  0  0  0  0  0
   10.0512   38.1138   29.7649 H   0  0  0  0  0  0  0  0  0  0  0  0
   11.2762   36.3139   32.5188 H   0  0  0  0  0  0  0  0  0  0  0  0
   10.8594   35.6977   30.4640 H   0  0  0  0  0  0  0  0  0  0  0  0
   12.3302   38.3527   34.7449 H   0  0  0  0  0  0  0  0  0  0  0  0
   16.7557   34.1770   32.4621 H   0  0  0  0  0  0  0  0  0  0  0  0
   15.3533   35.7361   37.5135 H   0  0  0  0  0  0  0  0  0  0  0  0
   16.6349   34.5302   37.1417 H   0  0  0  0  0  0  0  0  0  0  0  0
  1  2  2  0
  1  3  1  0
  3  4  1  0
  4  5  1  0
  6  1  1  0
  7  6  1  0
  6  8  1  0
  8  9  1  0
  9 10  2  0
 11  9  1  0
 10 12  1  0
 13 11  2  0
 12 14  2  0
 14 13  1  0
 14 15  1  0
 15 16  1  0
 16 17  1  0
 16 18  1  0
 18 19  2  0
 20 18  1  0
 19 21  1  0
 22 20  2  0
 20 23  1  0
 21 24  1  0
 21 25  2  0
 25 22  1  0
 23 26  1  0
 23 27  2  0
 24 28  1  0
 25 29  1  0
 28 29  1  0
  4 30  2  0
  4 31  1  0
 32 31  1  0
 32 33  1  0
 33 34  1  0
 33 35  1  0
 34 36  1  0
 35 37  1  0
 35 38  1  0
 38 36  1  0
 36 39  1  0
 38 40  1  0
 41 39  1  0
 42 39  1  0
 43 41  2  0
 41 44  1  0
 45 42  2  0
 46 43  1  0
 44 47  2  0
 44 45  1  0
 48 46  2  0
 48 47  1  0
 47 49  1  0
  6 50  1  1
  7 51  1  0
  7 52  1  0
  8 53  1  0
  8 54  1  0
 10 55  1  0
 11 56  1  0
 12 57  1  0
 13 58  1  0
 16 59  1  6
 17 60  1  0
 17 61  1  0
 17 62  1  0
 19 63  1  0
 22 64  1  0
 28 65  1  0
 28 66  1  0
 32 67  1  0
 32 68  1  0
 33 69  1  0
 35 70  1  0
 36 71  1  0
 37 72  1  0
 38 73  1  0
 40 74  1  0
 42 75  1  0
 46 76  1  0
 49 77  1  0
 49 78  1  0
M  CHG  3   5  -1  23   1  26  -1
M  END
>  <EmbedRMS>  (85) 
0.082641850973

$$$$

     RDKit          3D

 78 83  0  0  0  0  0  0  0  0999 V2000
   10.2839   43.7626   33.8275 C   0  0  0  0  0  0  0  0  0  0  0  0
   11.4103   43.5863   34.3766 O   0  0  0  0  0  0  0  0  0  0  0  0
    9.3631   42.7236   33.7355 O   0  0  0  0  0  0  0  0  0  0  0  0
    9.8895   41.2250   34.2947 P   0  0  0  0  0  0  0  0  0  0  0  0
   10.3720   41.4547   35.8844 O   0  0  0  0  0  0  0  0  0  0  0  0
    9.9549   45.0700   33.2063 C   0  0  1  0  0  0  0  0  0  0  0  0
   11.0198   46.0481   33.4570 N   0  0  0  0  0  0  0  0  0  0  0  0
    9.7506   44.8511   31.6921 C   0  0  0  0  0  0  0  0  0  0  0  0
    8.7944   45.8417   31.0867 C   0  0  0  0  0  0  0  0  0  0  0  0
    7.4077   45.6006   31.1008 C   0  0  0  0  0  0  0  0  0  0  0  0
    9.2826   46.9896   30.4450 C   0  0  0  0  0  0  0  0  0  0  0  0
    6.5257   46.5001   30.4862 C   0  0  0  0  0  0  0  0  0  0  0  0
    8.4008   47.8886   29.8338 C   0  0  0  0  0  0  0  0  0  0  0  0
    7.0195   47.6543   29.8440 C   0  0  0  0  0  0  0  0  0  0  0  0
    6.1827   48.5856   29.2074 O   0  0  0  0  0  0  0  0  0  0  0  0
    4.7682   48.4501   29.0448 C   0  0  1  0  0  0  0  0  0  0  0  0
    4.2073   49.7666   28.5097 C   0  0  0  0  0  0  0  0  0  0  0  0
    4.4480   47.3189   28.0823 C   0  0  0  0  0  0  0  0  0  0  0  0
    5.2070   47.2089   26.8913 C   0  0  0  0  0  0  0  0  0  0  0  0
    3.4467   46.3335   28.3695 C   0  0  0  0  0  0  0  0  0  0  0  0
    4.9779   46.1234   26.0564 C   0  0  0  0  0  0  0  0  0  0  0  0
    3.2691   45.2414   27.4891 C   0  0  0  0  0  0  0  0  0  0  0  0
    2.6007   46.4350   29.5255 N   0  0  0  0  0  0  0  0  0  0  0  0
    5.6018   45.8098   24.8643 O   0  0  0  0  0  0  0  0  0  0  0  0
    4.0537   45.1785   26.3452 C   0  0  0  0  0  0  0  0  0  0  0  0
    1.9640   47.6201   29.8128 O   0  0  0  0  0  0  0  0  0  0  0  0
    2.2618   45.4042   30.1427 O   0  0  0  0  0  0  0  0  0  0  0  0
    5.0304   44.5893   24.3738 C   0  0  0  0  0  0  0  0  0  0  0  0
    4.0459   44.2209   25.3494 O   0  0  0  0  0  0  0  0  0  0  0  0
    8.8117   40.1832   34.2124 O   0  0  0  0  0  0  0  0  0  0  0  0
   11.2411   40.7939   33.3709 O   0  0  0  0  0  0  0  0  0  0  0  0
   10.9179   40.6920   31.9985 C   0  0  0  0  0  0  0  0  0  0  0  0
   11.5175   39.3837   31.4422 C   0  0  0  0  0  0  0  0  0  0  0  0
   12.7508   39.0887   32.0751 O   0  0  0  0  0  0  0  0  0  0  0  0
   10.6028   38.1916   31.6658 C   0  0  0  0  0  0  0  0  0  0  0  0
   12.9384   37.6818   32.0278 C   0  0  0  0  0  0  0  0  0  0  0  0
    9.6371   38.0805   30.6470 O   0  0  0  0  0  0  0  0  0  0  0  0
   11.5780   37.0215   31.6934 C   0  0  0  0  0  0  0  0  0  0  0  0
   13.4844   37.2119   33.3242 N   0  0  0  0  0  0  0  0  0  0  0  0
   11.6095   36.3201   30.4679 O   0  0  0  0  0  0  0  0  0  0  0  0
   14.4797   36.3318   33.5730 C   0  0  0  0  0  0  0  0  0  0  0  0
   13.1135   37.6278   34.5691 C   0  0  0  0  0  0  0  0  0  0  0  0
   15.2073   35.6155   32.6742 N   0  0  0  0  0  0  0  0  0  0  0  0
   14.6754   36.2305   34.9184 C   0  0  0  0  0  0  0  0  0  0  0  0
   13.8213   37.0452   35.5785 N   0  0  0  0  0  0  0  0  0  0  0  0
   16.1640   34.7604   33.1549 C   0  0  0  0  0  0  0  0  0  0  0  0
   15.6524   35.3507   35.4132 C   0  0  0  0  0  0  0  0  0  0  0  0
   16.3794   34.6318   34.5044 N   0  0  0  0  0  0  0  0  0  0  0  0
   15.8999   35.1934   36.8091 N   0  0  0  0  0  0  0  0  0  0  0  0
    9.0098   45.4348   33.6668 H   0  0  0  0  0  0  0  0  0  0  0  0
   11.9349   45.6934   33.0928 H   0  0  0  0  0  0  0  0  0  0  0  0
   11.1132   46.1992   34.4883 H   0  0  0  0  0  0  0  0  0  0  0  0
   10.7310   44.8931   31.1674 H   0  0  0  0  0  0  0  0  0  0  0  0
    9.3519   43.8344   31.4757 H   0  0  0  0  0  0  0  0  0  0  0  0
    7.0125   44.7157   31.5845 H   0  0  0  0  0  0  0  0  0  0  0  0
   10.3466   47.1899   30.4155 H   0  0  0  0  0  0  0  0  0  0  0  0
    5.4674   46.2866   30.5208 H   0  0  0  0  0  0  0  0  0  0  0  0
    8.7937   48.7701   29.3431 H   0  0  0  0  0  0  0  0  0  0  0  0
    4.3209   48.2787   30.0454 H   0  0  0  0  0  0  0  0  0  0  0  0
    4.4132   50.5831   29.2338 H   0  0  0  0  0  0  0  0  0  0  0  0
    4.6798   50.0279   27.5387 H   0  0  0  0  0  0  0  0  0  0  0  0
    3.1083   49.6902   28.3679 H   0  0  0  0  0  0  0  0  0  0  0  0
    5.9685   47.9351   26.6363 H   0  0  0  0  0  0  0  0  0  0  0  0
    2.5251   44.4787   27.6799 H   0  0  0  0  0  0  0  0  0  0  0  0
    4.5483   44.7598   23.3884 H   0  0  0  0  0  0  0  0  0  0  0  0
    5.8102   43.8025   24.3003 H   0  0  0  0  0  0  0  0  0  0  0  0
    9.8292   40.7410   31.7624 H   0  0  0  0  0  0  0  0  0  0  0  0
   11.3955   41.5477   31.4751 H   0  0  0  0  0  0  0  0  0  0  0  0
   11.6981   39.5116   30.3500 H   0  0  0  0  0  0  0  0  0  0  0  0
   10.1117   38.2603   32.6660 H   0  0  0  0  0  0  0  0  0  0  0  0
   13.6767   37.4555   31.2267 H   0  0  0  0  0  0  0  0  0  0  0  0
    8.8961   38.6952   30.8871 H   0  0  0  0  0  0  0  0  0  0  0  0
   11.2791   36.3072   32.4922 H   0  0  0  0  0  0  0  0  0  0  0  0
   11.8828   36.9598   29.7588 H   0  0  0  0  0  0  0  0  0  0  0  0
   12.3300   38.3538   34.7446 H   0  0  0  0  0  0  0  0  0  0  0  0
   16.7561   34.1785   32.4622 H   0  0  0  0  0  0  0  0  0  0  0  0
   16.6346   34.5303   37.1416 H   0  0  0  0  0  0  0  0  0  0  0  0
   15.3531   35.7360   37.5140 H   0  0  0  0  0  0  0  0  0  0  0  0
  1  2  2  0
  1  3  1  0
  3  4  1  0
  4  5  1  0
  6  1  1  0
  7  6  1  0
  6  8  1  0
  8  9  1  0
  9 10  2  0
 11  9  1  0
 10 12  1  0
 13 11  2  0
 12 14  2  0
 14 13  1  0
 14 15  1  0
 15 16  1  0
 16 17  1  0
 16 18  1  0
 18 19  2  0
 20 18  1  0
 19 21  1  0
 22 20  2  0
 20 23  1  0
 21 24  1  0
 21 25  2  0
 25 22  1  0
 23 26  1  0
 23 27  2  0
 24 28  1  0
 25 29  1  0
 28 29  1  0
  4 30  2  0
  4 31  1  0
 32 31  1  0
 32 33  1  0
 33 34  1  0
 33 35  1  0
 34 36  1  0
 35 37  1  0
 35 38  1  0
 38 36  1  0
 36 39  1  0
 38 40  1  0
 41 39  1  0
 42 39  1  0
 43 41  2  0
 41 44  1  0
 45 42  2  0
 46 43  1  0
 44 47  2  0
 44 45  1  0
 48 46  2  0
 48 47  1  0
 47 49  1  0
  6 50  1  1
  7 51  1  0
  7 52  1  0
  8 53  1  0
  8 54  1  0
 10 55  1  0
 11 56  1  0
 12 57  1  0
 13 58  1  0
 16 59  1  1
 17 60  1  0
 17 61  1  0
 17 62  1  0
 19 63  1  0
 22 64  1  0
 28 65  1  0
 28 66  1  0
 32 67  1  0
 32 68  1  0
 33 69  1  0
 35 70  1  0
 36 71  1  0
 37 72  1  0
 38 73  1  0
 40 74  1  0
 42 75  1  0
 46 76  1  0
 49 77  1  0
 49 78  1  0
M  CHG  3   5  -1  23   1  26  -1
M  END
>  <EmbedRMS>  (86) 
0.0828731496452

$$$$

     RDKit          3D

 78 83  0  0  0  0  0  0  0  0999 V2000
   10.2837   43.7629   33.8276 C   0  0  0  0  0  0  0  0  0  0  0  0
   11.4102   43.5866   34.3766 O   0  0  0  0  0  0  0  0  0  0  0  0
    9.3631   42.7237   33.7353 O   0  0  0  0  0  0  0  0  0  0  0  0
    9.8898   41.2249   34.2934 P   0  0  0  0  0  0  0  0  0  0  0  0
   10.3734   41.4543   35.8829 O   0  0  0  0  0  0  0  0  0  0  0  0
    9.9545   45.0704   33.2066 C   0  0  1  0  0  0  0  0  0  0  0  0
   11.0194   46.0486   33.4571 N   0  0  0  0  0  0  0  0  0  0  0  0
    9.7498   44.8516   31.6926 C   0  0  0  0  0  0  0  0  0  0  0  0
    8.7938   45.8426   31.0876 C   0  0  0  0  0  0  0  0  0  0  0  0
    7.4061   45.5994   31.0979 C   0  0  0  0  0  0  0  0  0  0  0  0
    9.2836   46.9891   30.4425 C   0  0  0  0  0  0  0  0  0  0  0  0
    6.5259   46.4993   30.4808 C   0  0  0  0  0  0  0  0  0  0  0  0
    8.4022   47.8867   29.8284 C   0  0  0  0  0  0  0  0  0  0  0  0
    7.0207   47.6552   29.8582 C   0  0  0  0  0  0  0  0  0  0  0  0
    6.1558   48.5691   29.2478 O   0  0  0  0  0  0  0  0  0  0  0  0
    5.3671   49.5427   29.9462 C   0  0  1  0  0  0  0  0  0  0  0  0
    4.2918   48.8944   30.8259 C   0  0  0  0  0  0  0  0  0  0  0  0
    6.2420   50.5191   30.7278 C   0  0  0  0  0  0  0  0  0  0  0  0
    6.9705   50.0530   31.8531 C   0  0  0  0  0  0  0  0  0  0  0  0
    6.4043   51.8846   30.3161 C   0  0  0  0  0  0  0  0  0  0  0  0
    7.8462   50.9226   32.4885 C   0  0  0  0  0  0  0  0  0  0  0  0
    7.3204   52.7201   30.9943 C   0  0  0  0  0  0  0  0  0  0  0  0
    5.6373   52.4418   29.2403 N   0  0  0  0  0  0  0  0  0  0  0  0
    8.6591   50.6774   33.5783 O   0  0  0  0  0  0  0  0  0  0  0  0
    8.0182   52.1979   32.0741 C   0  0  0  0  0  0  0  0  0  0  0  0
    4.2633   52.4337   29.3090 O   0  0  0  0  0  0  0  0  0  0  0  0
    6.1948   53.1687   28.3923 O   0  0  0  0  0  0  0  0  0  0  0  0
    9.3878   51.8787   33.8655 C   0  0  0  0  0  0  0  0  0  0  0  0
    8.9476   52.8248   32.8817 O   0  0  0  0  0  0  0  0  0  0  0  0
    8.8115   40.1835   34.2125 O   0  0  0  0  0  0  0  0  0  0  0  0
   11.2402   40.7937   33.3673 O   0  0  0  0  0  0  0  0  0  0  0  0
   10.9134   40.6864   31.9955 C   0  0  0  0  0  0  0  0  0  0  0  0
   11.5166   39.3786   31.4404 C   0  0  0  0  0  0  0  0  0  0  0  0
   12.7486   39.0849   32.0734 O   0  0  0  0  0  0  0  0  0  0  0  0
   10.6039   38.1883   31.6669 C   0  0  0  0  0  0  0  0  0  0  0  0
   12.9329   37.6775   32.0284 C   0  0  0  0  0  0  0  0  0  0  0  0
    9.6373   38.0938   30.6484 O   0  0  0  0  0  0  0  0  0  0  0  0
   11.5737   37.0140   31.7055 C   0  0  0  0  0  0  0  0  0  0  0  0
   13.4853   37.2120   33.3238 N   0  0  0  0  0  0  0  0  0  0  0  0
   11.6210   36.3379   30.4683 O   0  0  0  0  0  0  0  0  0  0  0  0
   14.4804   36.3319   33.5726 C   0  0  0  0  0  0  0  0  0  0  0  0
   13.1141   37.6275   34.5689 C   0  0  0  0  0  0  0  0  0  0  0  0
   15.2076   35.6152   32.6740 N   0  0  0  0  0  0  0  0  0  0  0  0
   14.6761   36.2306   34.9181 C   0  0  0  0  0  0  0  0  0  0  0  0
   13.8218   37.0451   35.5783 N   0  0  0  0  0  0  0  0  0  0  0  0
   16.1642   34.7600   33.1548 C   0  0  0  0  0  0  0  0  0  0  0  0
   15.6528   35.3507   35.4131 C   0  0  0  0  0  0  0  0  0  0  0  0
   16.3796   34.6315   34.5043 N   0  0  0  0  0  0  0  0  0  0  0  0
   15.9001   35.1933   36.8090 N   0  0  0  0  0  0  0  0  0  0  0  0
    9.0095   45.4353   33.6673 H   0  0  0  0  0  0  0  0  0  0  0  0
   11.9345   45.6938   33.0931 H   0  0  0  0  0  0  0  0  0  0  0  0
   11.1126   46.2002   34.4884 H   0  0  0  0  0  0  0  0  0  0  0  0
   10.7301   44.8934   31.1678 H   0  0  0  0  0  0  0  0  0  0  0  0
    9.3508   43.8351   31.4763 H   0  0  0  0  0  0  0  0  0  0  0  0
    7.0105   44.7107   31.5739 H   0  0  0  0  0  0  0  0  0  0  0  0
   10.3476   47.1888   30.4123 H   0  0  0  0  0  0  0  0  0  0  0  0
    5.4646   46.2899   30.4801 H   0  0  0  0  0  0  0  0  0  0  0  0
    8.7911   48.7711   29.3399 H   0  0  0  0  0  0  0  0  0  0  0  0
    4.8134   50.0822   29.1560 H   0  0  0  0  0  0  0  0  0  0  0  0
    3.6279   49.6792   31.2472 H   0  0  0  0  0  0  0  0  0  0  0  0
    3.6734   48.2040   30.2141 H   0  0  0  0  0  0  0  0  0  0  0  0
    4.7351   48.3231   31.6660 H   0  0  0  0  0  0  0  0  0  0  0  0
    6.8805   49.0380   32.2145 H   0  0  0  0  0  0  0  0  0  0  0  0
    7.4647   53.7519   30.7004 H   0  0  0  0  0  0  0  0  0  0  0  0
    9.1412   52.2430   34.8848 H   0  0  0  0  0  0  0  0  0  0  0  0
   10.4787   51.6996   33.7638 H   0  0  0  0  0  0  0  0  0  0  0  0
    9.8226   40.7225   31.7629 H   0  0  0  0  0  0  0  0  0  0  0  0
   11.3830   41.5438   31.4674 H   0  0  0  0  0  0  0  0  0  0  0  0
   11.6978   39.5037   30.3478 H   0  0  0  0  0  0  0  0  0  0  0  0
   10.1084   38.2786   32.6626 H   0  0  0  0  0  0  0  0  0  0  0  0
   13.6638   37.4472   31.2214 H   0  0  0  0  0  0  0  0  0  0  0  0
    8.9763   37.4190   30.9532 H   0  0  0  0  0  0  0  0  0  0  0  0
   11.2821   36.3053   32.5171 H   0  0  0  0  0  0  0  0  0  0  0  0
   10.8659   35.6935   30.4652 H   0  0  0  0  0  0  0  0  0  0  0  0
   12.3293   38.3523   34.7444 H   0  0  0  0  0  0  0  0  0  0  0  0
   16.7561   34.1778   32.4621 H   0  0  0  0  0  0  0  0  0  0  0  0
   15.3533   35.7361   37.5138 H   0  0  0  0  0  0  0  0  0  0  0  0
   16.6345   34.5300   37.1416 H   0  0  0  0  0  0  0  0  0  0  0  0
  1  2  2  0
  1  3  1  0
  3  4  1  0
  4  5  1  0
  6  1  1  0
  7  6  1  0
  6  8  1  0
  8  9  1  0
  9 10  2  0
 11  9  1  0
 10 12  1  0
 13 11  2  0
 12 14  2  0
 14 13  1  0
 14 15  1  0
 15 16  1  0
 16 17  1  0
 16 18  1  0
 18 19  2  0
 20 18  1  0
 19 21  1  0
 22 20  2  0
 20 23  1  0
 21 24  1  0
 21 25  2  0
 25 22  1  0
 23 26  1  0
 23 27  2  0
 24 28  1  0
 25 29  1  0
 28 29  1  0
  4 30  2  0
  4 31  1  0
 32 31  1  0
 32 33  1  0
 33 34  1  0
 33 35  1  0
 34 36  1  0
 35 37  1  0
 35 38  1  0
 38 36  1  0
 36 39  1  0
 38 40  1  0
 41 39  1  0
 42 39  1  0
 43 41  2  0
 41 44  1  0
 45 42  2  0
 46 43  1  0
 44 47  2  0
 44 45  1  0
 48 46  2  0
 48 47  1  0
 47 49  1  0
  6 50  1  1
  7 51  1  0
  7 52  1  0
  8 53  1  0
  8 54  1  0
 10 55  1  0
 11 56  1  0
 12 57  1  0
 13 58  1  0
 16 59  1  6
 17 60  1  0
 17 61  1  0
 17 62  1  0
 19 63  1  0
 22 64  1  0
 28 65  1  0
 28 66  1  0
 32 67  1  0
 32 68  1  0
 33 69  1  0
 35 70  1  0
 36 71  1  0
 37 72  1  0
 38 73  1  0
 40 74  1  0
 42 75  1  0
 46 76  1  0
 49 77  1  0
 49 78  1  0
M  CHG  3   5  -1  23   1  26  -1
M  END
>  <EmbedRMS>  (87) 
0.0835333585848

$$$$

     RDKit          3D

 78 83  0  0  0  0  0  0  0  0999 V2000
   10.2838   43.7626   33.8272 C   0  0  0  0  0  0  0  0  0  0  0  0
   11.4102   43.5864   34.3764 O   0  0  0  0  0  0  0  0  0  0  0  0
    9.3630   42.7236   33.7351 O   0  0  0  0  0  0  0  0  0  0  0  0
    9.8894   41.2249   34.2943 P   0  0  0  0  0  0  0  0  0  0  0  0
   10.3726   41.4548   35.8837 O   0  0  0  0  0  0  0  0  0  0  0  0
    9.9547   45.0700   33.2059 C   0  0  1  0  0  0  0  0  0  0  0  0
   11.0197   46.0481   33.4565 N   0  0  0  0  0  0  0  0  0  0  0  0
    9.7499   44.8511   31.6917 C   0  0  0  0  0  0  0  0  0  0  0  0
    8.7939   45.8420   31.0864 C   0  0  0  0  0  0  0  0  0  0  0  0
    7.4058   45.6012   31.1018 C   0  0  0  0  0  0  0  0  0  0  0  0
    9.2832   46.9914   30.4452 C   0  0  0  0  0  0  0  0  0  0  0  0
    6.5258   46.5028   30.4874 C   0  0  0  0  0  0  0  0  0  0  0  0
    8.4014   47.8918   29.8349 C   0  0  0  0  0  0  0  0  0  0  0  0
    7.0223   47.6454   29.8432 C   0  0  0  0  0  0  0  0  0  0  0  0
    6.1439   48.5501   29.2418 O   0  0  0  0  0  0  0  0  0  0  0  0
    5.6621   48.4255   27.8998 C   0  0  1  0  0  0  0  0  0  0  0  0
    6.7437   48.8005   26.8809 C   0  0  0  0  0  0  0  0  0  0  0  0
    4.9748   47.0806   27.6670 C   0  0  0  0  0  0  0  0  0  0  0  0
    3.5844   47.0153   27.9362 C   0  0  0  0  0  0  0  0  0  0  0  0
    5.6598   45.8743   27.2886 C   0  0  0  0  0  0  0  0  0  0  0  0
    2.9346   45.7938   27.8157 C   0  0  0  0  0  0  0  0  0  0  0  0
    4.9481   44.6603   27.1850 C   0  0  0  0  0  0  0  0  0  0  0  0
    7.0564   45.8549   26.9915 N   0  0  0  0  0  0  0  0  0  0  0  0
    1.6002   45.5062   28.0288 O   0  0  0  0  0  0  0  0  0  0  0  0
    3.5879   44.6659   27.4567 C   0  0  0  0  0  0  0  0  0  0  0  0
    7.4566   46.0378   25.6886 O   0  0  0  0  0  0  0  0  0  0  0  0
    7.8410   45.3021   27.7884 O   0  0  0  0  0  0  0  0  0  0  0  0
    1.4050   44.1064   27.7851 C   0  0  0  0  0  0  0  0  0  0  0  0
    2.6999   43.6081   27.4223 O   0  0  0  0  0  0  0  0  0  0  0  0
    8.8114   40.1834   34.2129 O   0  0  0  0  0  0  0  0  0  0  0  0
   11.2402   40.7931   33.3695 O   0  0  0  0  0  0  0  0  0  0  0  0
   10.9151   40.6903   31.9974 C   0  0  0  0  0  0  0  0  0  0  0  0
   11.5252   39.3886   31.4375 C   0  0  0  0  0  0  0  0  0  0  0  0
   12.7500   39.0873   32.0798 O   0  0  0  0  0  0  0  0  0  0  0  0
   10.6092   38.1925   31.6469 C   0  0  0  0  0  0  0  0  0  0  0  0
   12.9332   37.6792   32.0294 C   0  0  0  0  0  0  0  0  0  0  0  0
    9.6121   38.0894   30.6542 O   0  0  0  0  0  0  0  0  0  0  0  0
   11.5743   37.0144   31.7024 C   0  0  0  0  0  0  0  0  0  0  0  0
   13.4844   37.2108   33.3241 N   0  0  0  0  0  0  0  0  0  0  0  0
   11.6297   36.3238   30.4740 O   0  0  0  0  0  0  0  0  0  0  0  0
   14.4802   36.3313   33.5726 C   0  0  0  0  0  0  0  0  0  0  0  0
   13.1138   37.6267   34.5692 C   0  0  0  0  0  0  0  0  0  0  0  0
   15.2075   35.6149   32.6739 N   0  0  0  0  0  0  0  0  0  0  0  0
   14.6761   36.2303   34.9181 C   0  0  0  0  0  0  0  0  0  0  0  0
   13.8220   37.0447   35.5784 N   0  0  0  0  0  0  0  0  0  0  0  0
   16.1643   34.7600   33.1547 C   0  0  0  0  0  0  0  0  0  0  0  0
   15.6529   35.3505   35.4130 C   0  0  0  0  0  0  0  0  0  0  0  0
   16.3798   34.6315   34.5042 N   0  0  0  0  0  0  0  0  0  0  0  0
   15.9003   35.1932   36.8090 N   0  0  0  0  0  0  0  0  0  0  0  0
    9.0098   45.4348   33.6666 H   0  0  0  0  0  0  0  0  0  0  0  0
   11.9347   45.6933   33.0920 H   0  0  0  0  0  0  0  0  0  0  0  0
   11.1133   46.1991   34.4878 H   0  0  0  0  0  0  0  0  0  0  0  0
    9.3507   43.8347   31.4753 H   0  0  0  0  0  0  0  0  0  0  0  0
   10.7300   44.8930   31.1666 H   0  0  0  0  0  0  0  0  0  0  0  0
    7.0093   44.7170   31.5854 H   0  0  0  0  0  0  0  0  0  0  0  0
   10.3469   47.1927   30.4182 H   0  0  0  0  0  0  0  0  0  0  0  0
    5.4605   46.3114   30.5088 H   0  0  0  0  0  0  0  0  0  0  0  0
    8.7902   48.7790   29.3517 H   0  0  0  0  0  0  0  0  0  0  0  0
    4.8874   49.2150   27.7790 H   0  0  0  0  0  0  0  0  0  0  0  0
    7.6976   48.2759   27.0828 H   0  0  0  0  0  0  0  0  0  0  0  0
    6.3976   48.5780   25.8492 H   0  0  0  0  0  0  0  0  0  0  0  0
    6.9523   49.8896   26.9485 H   0  0  0  0  0  0  0  0  0  0  0  0
    3.0255   47.8888   28.2476 H   0  0  0  0  0  0  0  0  0  0  0  0
    5.4457   43.7425   26.8987 H   0  0  0  0  0  0  0  0  0  0  0  0
    0.6894   43.9582   26.9493 H   0  0  0  0  0  0  0  0  0  0  0  0
    1.0449   43.6027   28.7066 H   0  0  0  0  0  0  0  0  0  0  0  0
    9.8243   40.7216   31.7640 H   0  0  0  0  0  0  0  0  0  0  0  0
   11.3805   41.5528   31.4739 H   0  0  0  0  0  0  0  0  0  0  0  0
   11.7265   39.5311   30.3512 H   0  0  0  0  0  0  0  0  0  0  0  0
   10.1110   38.2746   32.6387 H   0  0  0  0  0  0  0  0  0  0  0  0
   13.6652   37.4519   31.2226 H   0  0  0  0  0  0  0  0  0  0  0  0
   10.0511   38.1143   29.7644 H   0  0  0  0  0  0  0  0  0  0  0  0
   11.2762   36.3141   32.5189 H   0  0  0  0  0  0  0  0  0  0  0  0
   10.8593   35.6978   30.4639 H   0  0  0  0  0  0  0  0  0  0  0  0
   12.3294   38.3518   34.7449 H   0  0  0  0  0  0  0  0  0  0  0  0
   16.7564   34.1780   32.4620 H   0  0  0  0  0  0  0  0  0  0  0  0
   16.6349   34.5300   37.1415 H   0  0  0  0  0  0  0  0  0  0  0  0
   15.3534   35.7359   37.5138 H   0  0  0  0  0  0  0  0  0  0  0  0
  1  2  2  0
  1  3  1  0
  3  4  1  0
  4  5  1  0
  6  1  1  0
  7  6  1  0
  6  8  1  0
  8  9  1  0
  9 10  2  0
 11  9  1  0
 10 12  1  0
 13 11  2  0
 12 14  2  0
 14 13  1  0
 14 15  1  0
 15 16  1  0
 16 17  1  0
 16 18  1  0
 18 19  2  0
 20 18  1  0
 19 21  1  0
 22 20  2  0
 20 23  1  0
 21 24  1  0
 21 25  2  0
 25 22  1  0
 23 26  1  0
 23 27  2  0
 24 28  1  0
 25 29  1  0
 28 29  1  0
  4 30  2  0
  4 31  1  0
 32 31  1  0
 32 33  1  0
 33 34  1  0
 33 35  1  0
 34 36  1  0
 35 37  1  0
 35 38  1  0
 38 36  1  0
 36 39  1  0
 38 40  1  0
 41 39  1  0
 42 39  1  0
 43 41  2  0
 41 44  1  0
 45 42  2  0
 46 43  1  0
 44 47  2  0
 44 45  1  0
 48 46  2  0
 48 47  1  0
 47 49  1  0
  6 50  1  1
  7 51  1  0
  7 52  1  0
  8 53  1  0
  8 54  1  0
 10 55  1  0
 11 56  1  0
 12 57  1  0
 13 58  1  0
 16 59  1  1
 17 60  1  0
 17 61  1  0
 17 62  1  0
 19 63  1  0
 22 64  1  0
 28 65  1  0
 28 66  1  0
 32 67  1  0
 32 68  1  0
 33 69  1  0
 35 70  1  0
 36 71  1  0
 37 72  1  0
 38 73  1  0
 40 74  1  0
 42 75  1  0
 46 76  1  0
 49 77  1  0
 49 78  1  0
M  CHG  3   5  -1  23   1  26  -1
M  END
>  <EmbedRMS>  (88) 
0.0828410885342

$$$$

     RDKit          3D

 78 83  0  0  0  0  0  0  0  0999 V2000
   10.2803   43.7665   33.8250 C   0  0  0  0  0  0  0  0  0  0  0  0
   11.4110   43.5918   34.3667 O   0  0  0  0  0  0  0  0  0  0  0  0
    9.3618   42.7250   33.7345 O   0  0  0  0  0  0  0  0  0  0  0  0
    9.8902   41.2266   34.2932 P   0  0  0  0  0  0  0  0  0  0  0  0
   10.3744   41.4564   35.8824 O   0  0  0  0  0  0  0  0  0  0  0  0
    9.9459   45.0737   33.2113 C   0  0  1  0  0  0  0  0  0  0  0  0
   11.0265   46.0292   33.4711 N   0  0  0  0  0  0  0  0  0  0  0  0
    9.7542   44.8545   31.6949 C   0  0  0  0  0  0  0  0  0  0  0  0
    8.7958   45.8413   31.0848 C   0  0  0  0  0  0  0  0  0  0  0  0
    7.4089   45.6010   31.1028 C   0  0  0  0  0  0  0  0  0  0  0  0
    9.2822   46.9887   30.4407 C   0  0  0  0  0  0  0  0  0  0  0  0
    6.5259   46.4998   30.4884 C   0  0  0  0  0  0  0  0  0  0  0  0
    8.3993   47.8875   29.8316 C   0  0  0  0  0  0  0  0  0  0  0  0
    7.0183   47.6511   29.8408 C   0  0  0  0  0  0  0  0  0  0  0  0
    6.1828   48.5779   29.1958 O   0  0  0  0  0  0  0  0  0  0  0  0
    4.7798   48.4218   28.9780 C   0  0  1  0  0  0  0  0  0  0  0  0
    4.1885   49.7444   28.4897 C   0  0  0  0  0  0  0  0  0  0  0  0
    4.4887   47.2952   27.9949 C   0  0  0  0  0  0  0  0  0  0  0  0
    3.6185   46.2590   28.4161 C   0  0  0  0  0  0  0  0  0  0  0  0
    5.0076   47.2660   26.6542 C   0  0  0  0  0  0  0  0  0  0  0  0
    3.3034   45.2465   27.5198 C   0  0  0  0  0  0  0  0  0  0  0  0
    4.6359   46.2191   25.7819 C   0  0  0  0  0  0  0  0  0  0  0  0
    5.8786   48.2872   26.1502 N   0  0  0  0  0  0  0  0  0  0  0  0
    2.4910   44.1466   27.7176 O   0  0  0  0  0  0  0  0  0  0  0  0
    3.7893   45.2281   26.2581 C   0  0  0  0  0  0  0  0  0  0  0  0
    5.6403   48.8214   24.9051 O   0  0  0  0  0  0  0  0  0  0  0  0
    6.9879   48.4838   26.6850 O   0  0  0  0  0  0  0  0  0  0  0  0
    2.4688   43.3884   26.5004 C   0  0  0  0  0  0  0  0  0  0  0  0
    3.3098   44.1153   25.5942 O   0  0  0  0  0  0  0  0  0  0  0  0
    8.8124   40.1845   34.2132 O   0  0  0  0  0  0  0  0  0  0  0  0
   11.2402   40.7948   33.3668 O   0  0  0  0  0  0  0  0  0  0  0  0
   10.9126   40.6860   31.9953 C   0  0  0  0  0  0  0  0  0  0  0  0
   11.5175   39.3787   31.4406 C   0  0  0  0  0  0  0  0  0  0  0  0
   12.7490   39.0864   32.0753 O   0  0  0  0  0  0  0  0  0  0  0  0
   10.6060   38.1868   31.6656 C   0  0  0  0  0  0  0  0  0  0  0  0
   12.9356   37.6796   32.0292 C   0  0  0  0  0  0  0  0  0  0  0  0
    9.6400   38.0905   30.6469 O   0  0  0  0  0  0  0  0  0  0  0  0
   11.5764   37.0146   31.7042 C   0  0  0  0  0  0  0  0  0  0  0  0
   13.4858   37.2124   33.3243 N   0  0  0  0  0  0  0  0  0  0  0  0
   11.6099   36.3402   30.4669 O   0  0  0  0  0  0  0  0  0  0  0  0
   14.4805   36.3319   33.5729 C   0  0  0  0  0  0  0  0  0  0  0  0
   13.1145   37.6277   34.5693 C   0  0  0  0  0  0  0  0  0  0  0  0
   15.2075   35.6152   32.6741 N   0  0  0  0  0  0  0  0  0  0  0  0
   14.6759   36.2303   34.9184 C   0  0  0  0  0  0  0  0  0  0  0  0
   13.8219   37.0449   35.5787 N   0  0  0  0  0  0  0  0  0  0  0  0
   16.1640   34.7599   33.1548 C   0  0  0  0  0  0  0  0  0  0  0  0
   15.6527   35.3504   35.4131 C   0  0  0  0  0  0  0  0  0  0  0  0
   16.3794   34.6314   34.5042 N   0  0  0  0  0  0  0  0  0  0  0  0
   15.9002   35.1928   36.8089 N   0  0  0  0  0  0  0  0  0  0  0  0
    8.9995   45.4384   33.6724 H   0  0  0  0  0  0  0  0  0  0  0  0
   11.0497   46.2273   34.4986 H   0  0  0  0  0  0  0  0  0  0  0  0
   10.7767   46.9370   33.0162 H   0  0  0  0  0  0  0  0  0  0  0  0
    9.3653   43.8357   31.4707 H   0  0  0  0  0  0  0  0  0  0  0  0
   10.7414   44.9086   31.1838 H   0  0  0  0  0  0  0  0  0  0  0  0
    7.0142   44.7186   31.5915 H   0  0  0  0  0  0  0  0  0  0  0  0
   10.3460   47.1893   30.4066 H   0  0  0  0  0  0  0  0  0  0  0  0
    5.4683   46.2896   30.5328 H   0  0  0  0  0  0  0  0  0  0  0  0
    8.7918   48.7677   29.3381 H   0  0  0  0  0  0  0  0  0  0  0  0
    4.2959   48.2166   29.9590 H   0  0  0  0  0  0  0  0  0  0  0  0
    4.6833   50.0914   27.5603 H   0  0  0  0  0  0  0  0  0  0  0  0
    4.3297   50.5242   29.2675 H   0  0  0  0  0  0  0  0  0  0  0  0
    3.0994   49.6311   28.3012 H   0  0  0  0  0  0  0  0  0  0  0  0
    3.1915   46.2439   29.4109 H   0  0  0  0  0  0  0  0  0  0  0  0
    5.0084   46.1751   24.7665 H   0  0  0  0  0  0  0  0  0  0  0  0
    2.8813   42.3722   26.6734 H   0  0  0  0  0  0  0  0  0  0  0  0
    1.4340   43.3319   26.1020 H   0  0  0  0  0  0  0  0  0  0  0  0
   11.3803   41.5439   31.4665 H   0  0  0  0  0  0  0  0  0  0  0  0
    9.8215   40.7198   31.7635 H   0  0  0  0  0  0  0  0  0  0  0  0
   11.7000   39.5044   30.3482 H   0  0  0  0  0  0  0  0  0  0  0  0
   10.1083   38.2761   32.6602 H   0  0  0  0  0  0  0  0  0  0  0  0
   13.6681   37.4521   31.2229 H   0  0  0  0  0  0  0  0  0  0  0  0
    9.0015   37.3872   30.9345 H   0  0  0  0  0  0  0  0  0  0  0  0
   11.2664   36.3058   32.5078 H   0  0  0  0  0  0  0  0  0  0  0  0
   12.1384   35.5130   30.6143 H   0  0  0  0  0  0  0  0  0  0  0  0
   12.3307   38.3535   34.7447 H   0  0  0  0  0  0  0  0  0  0  0  0
   16.7559   34.1777   32.4622 H   0  0  0  0  0  0  0  0  0  0  0  0
   15.3537   35.7357   37.5138 H   0  0  0  0  0  0  0  0  0  0  0  0
   16.6351   34.5296   37.1411 H   0  0  0  0  0  0  0  0  0  0  0  0
  1  2  2  0
  1  3  1  0
  3  4  1  0
  4  5  1  0
  6  1  1  0
  7  6  1  0
  6  8  1  0
  8  9  1  0
  9 10  2  0
 11  9  1  0
 10 12  1  0
 13 11  2  0
 12 14  2  0
 14 13  1  0
 14 15  1  0
 15 16  1  0
 16 17  1  0
 16 18  1  0
 18 19  2  0
 20 18  1  0
 19 21  1  0
 22 20  2  0
 20 23  1  0
 21 24  1  0
 21 25  2  0
 25 22  1  0
 23 26  1  0
 23 27  2  0
 24 28  1  0
 25 29  1  0
 28 29  1  0
  4 30  2  0
  4 31  1  0
 32 31  1  0
 32 33  1  0
 33 34  1  0
 33 35  1  0
 34 36  1  0
 35 37  1  0
 35 38  1  0
 38 36  1  0
 36 39  1  0
 38 40  1  0
 41 39  1  0
 42 39  1  0
 43 41  2  0
 41 44  1  0
 45 42  2  0
 46 43  1  0
 44 47  2  0
 44 45  1  0
 48 46  2  0
 48 47  1  0
 47 49  1  0
  6 50  1  1
  7 51  1  0
  7 52  1  0
  8 53  1  0
  8 54  1  0
 10 55  1  0
 11 56  1  0
 12 57  1  0
 13 58  1  0
 16 59  1  1
 17 60  1  0
 17 61  1  0
 17 62  1  0
 19 63  1  0
 22 64  1  0
 28 65  1  0
 28 66  1  0
 32 67  1  0
 32 68  1  0
 33 69  1  0
 35 70  1  0
 36 71  1  0
 37 72  1  0
 38 73  1  0
 40 74  1  0
 42 75  1  0
 46 76  1  0
 49 77  1  0
 49 78  1  0
M  CHG  3   5  -1  23   1  26  -1
M  END
>  <EmbedRMS>  (89) 
0.0822346262407

$$$$

     RDKit          3D

 78 83  0  0  0  0  0  0  0  0999 V2000
   10.2835   43.7661   33.8257 C   0  0  0  0  0  0  0  0  0  0  0  0
   11.4102   43.5930   34.3753 O   0  0  0  0  0  0  0  0  0  0  0  0
    9.3638   42.7255   33.7350 O   0  0  0  0  0  0  0  0  0  0  0  0
    9.8903   41.2267   34.2942 P   0  0  0  0  0  0  0  0  0  0  0  0
   10.3735   41.4560   35.8837 O   0  0  0  0  0  0  0  0  0  0  0  0
    9.9548   45.0694   33.2035 C   0  0  1  0  0  0  0  0  0  0  0  0
   11.0274   46.0321   33.4757 N   0  0  0  0  0  0  0  0  0  0  0  0
    9.7469   44.8478   31.6876 C   0  0  0  0  0  0  0  0  0  0  0  0
    8.7924   45.8402   31.0844 C   0  0  0  0  0  0  0  0  0  0  0  0
    7.4064   45.6016   31.0994 C   0  0  0  0  0  0  0  0  0  0  0  0
    9.2812   46.9870   30.4427 C   0  0  0  0  0  0  0  0  0  0  0  0
    6.5286   46.5038   30.4844 C   0  0  0  0  0  0  0  0  0  0  0  0
    8.4020   47.8894   29.8324 C   0  0  0  0  0  0  0  0  0  0  0  0
    7.0129   47.6545   29.8454 C   0  0  0  0  0  0  0  0  0  0  0  0
    6.0691   48.5091   29.2465 O   0  0  0  0  0  0  0  0  0  0  0  0
    6.2966   49.7101   28.4972 C   0  0  1  0  0  0  0  0  0  0  0  0
    6.7345   50.8512   29.4287 C   0  0  0  0  0  0  0  0  0  0  0  0
    7.1655   49.4704   27.2610 C   0  0  0  0  0  0  0  0  0  0  0  0
    8.4436   50.0827   27.1402 C   0  0  0  0  0  0  0  0  0  0  0  0
    6.6678   48.6938   26.1559 C   0  0  0  0  0  0  0  0  0  0  0  0
    9.1774   49.8783   25.9800 C   0  0  0  0  0  0  0  0  0  0  0  0
    7.4584   48.5352   24.9953 C   0  0  0  0  0  0  0  0  0  0  0  0
    5.3511   48.1169   26.1598 N   0  0  0  0  0  0  0  0  0  0  0  0
   10.4328   50.3606   25.6631 O   0  0  0  0  0  0  0  0  0  0  0  0
    8.7068   49.1364   24.9542 C   0  0  0  0  0  0  0  0  0  0  0  0
    4.6103   48.1071   25.0004 O   0  0  0  0  0  0  0  0  0  0  0  0
    4.9590   47.4322   27.1255 O   0  0  0  0  0  0  0  0  0  0  0  0
   10.7708   49.8869   24.3525 C   0  0  0  0  0  0  0  0  0  0  0  0
    9.6401   49.1097   23.9357 O   0  0  0  0  0  0  0  0  0  0  0  0
    8.8122   40.1850   34.2130 O   0  0  0  0  0  0  0  0  0  0  0  0
   11.2407   40.7939   33.3694 O   0  0  0  0  0  0  0  0  0  0  0  0
   10.9152   40.6905   31.9974 C   0  0  0  0  0  0  0  0  0  0  0  0
   11.5253   39.3886   31.4375 C   0  0  0  0  0  0  0  0  0  0  0  0
   12.7500   39.0874   32.0799 O   0  0  0  0  0  0  0  0  0  0  0  0
   10.6092   38.1926   31.6469 C   0  0  0  0  0  0  0  0  0  0  0  0
   12.9332   37.6793   32.0294 C   0  0  0  0  0  0  0  0  0  0  0  0
    9.6122   38.0895   30.6542 O   0  0  0  0  0  0  0  0  0  0  0  0
   11.5743   37.0145   31.7024 C   0  0  0  0  0  0  0  0  0  0  0  0
   13.4844   37.2108   33.3241 N   0  0  0  0  0  0  0  0  0  0  0  0
   11.6297   36.3239   30.4740 O   0  0  0  0  0  0  0  0  0  0  0  0
   14.4802   36.3313   33.5727 C   0  0  0  0  0  0  0  0  0  0  0  0
   13.1138   37.6266   34.5692 C   0  0  0  0  0  0  0  0  0  0  0  0
   15.2075   35.6149   32.6739 N   0  0  0  0  0  0  0  0  0  0  0  0
   14.6761   36.2303   34.9182 C   0  0  0  0  0  0  0  0  0  0  0  0
   13.8220   37.0447   35.5785 N   0  0  0  0  0  0  0  0  0  0  0  0
   16.1643   34.7600   33.1547 C   0  0  0  0  0  0  0  0  0  0  0  0
   15.6529   35.3505   35.4130 C   0  0  0  0  0  0  0  0  0  0  0  0
   16.3798   34.6315   34.5042 N   0  0  0  0  0  0  0  0  0  0  0  0
   15.9002   35.1932   36.8090 N   0  0  0  0  0  0  0  0  0  0  0  0
    9.0121   45.4317   33.6713 H   0  0  0  0  0  0  0  0  0  0  0  0
   10.7260   46.9687   33.1212 H   0  0  0  0  0  0  0  0  0  0  0  0
   11.8907   45.7658   32.9471 H   0  0  0  0  0  0  0  0  0  0  0  0
    9.3420   43.8326   31.4762 H   0  0  0  0  0  0  0  0  0  0  0  0
   10.7233   44.8815   31.1557 H   0  0  0  0  0  0  0  0  0  0  0  0
    7.0087   44.7169   31.5813 H   0  0  0  0  0  0  0  0  0  0  0  0
   10.3458   47.1848   30.4130 H   0  0  0  0  0  0  0  0  0  0  0  0
    5.4643   46.3056   30.5019 H   0  0  0  0  0  0  0  0  0  0  0  0
    8.8243   48.7570   29.3613 H   0  0  0  0  0  0  0  0  0  0  0  0
    5.3055   50.0342   28.1116 H   0  0  0  0  0  0  0  0  0  0  0  0
    6.8441   51.7955   28.8539 H   0  0  0  0  0  0  0  0  0  0  0  0
    5.9567   51.0112   30.2053 H   0  0  0  0  0  0  0  0  0  0  0  0
    7.6860   50.6257   29.9482 H   0  0  0  0  0  0  0  0  0  0  0  0
    8.8695   50.7000   27.9179 H   0  0  0  0  0  0  0  0  0  0  0  0
    7.1078   47.9571   24.1500 H   0  0  0  0  0  0  0  0  0  0  0  0
   11.6787   49.2494   24.3967 H   0  0  0  0  0  0  0  0  0  0  0  0
   10.9230   50.7429   23.6621 H   0  0  0  0  0  0  0  0  0  0  0  0
   11.3802   41.5529   31.4734 H   0  0  0  0  0  0  0  0  0  0  0  0
    9.8243   40.7216   31.7643 H   0  0  0  0  0  0  0  0  0  0  0  0
   11.7266   39.5311   30.3513 H   0  0  0  0  0  0  0  0  0  0  0  0
   10.1110   38.2747   32.6387 H   0  0  0  0  0  0  0  0  0  0  0  0
   13.6652   37.4519   31.2226 H   0  0  0  0  0  0  0  0  0  0  0  0
   10.0512   38.1144   29.7645 H   0  0  0  0  0  0  0  0  0  0  0  0
   11.2762   36.3141   32.5189 H   0  0  0  0  0  0  0  0  0  0  0  0
   10.8593   35.6978   30.4640 H   0  0  0  0  0  0  0  0  0  0  0  0
   12.3294   38.3518   34.7449 H   0  0  0  0  0  0  0  0  0  0  0  0
   16.7564   34.1780   32.4620 H   0  0  0  0  0  0  0  0  0  0  0  0
   16.6348   34.5300   37.1416 H   0  0  0  0  0  0  0  0  0  0  0  0
   15.3534   35.7359   37.5138 H   0  0  0  0  0  0  0  0  0  0  0  0
  1  2  2  0
  1  3  1  0
  3  4  1  0
  4  5  1  0
  6  1  1  0
  7  6  1  0
  6  8  1  0
  8  9  1  0
  9 10  2  0
 11  9  1  0
 10 12  1  0
 13 11  2  0
 12 14  2  0
 14 13  1  0
 14 15  1  0
 15 16  1  0
 16 17  1  0
 16 18  1  0
 18 19  2  0
 20 18  1  0
 19 21  1  0
 22 20  2  0
 20 23  1  0
 21 24  1  0
 21 25  2  0
 25 22  1  0
 23 26  1  0
 23 27  2  0
 24 28  1  0
 25 29  1  0
 28 29  1  0
  4 30  2  0
  4 31  1  0
 32 31  1  0
 32 33  1  0
 33 34  1  0
 33 35  1  0
 34 36  1  0
 35 37  1  0
 35 38  1  0
 38 36  1  0
 36 39  1  0
 38 40  1  0
 41 39  1  0
 42 39  1  0
 43 41  2  0
 41 44  1  0
 45 42  2  0
 46 43  1  0
 44 47  2  0
 44 45  1  0
 48 46  2  0
 48 47  1  0
 47 49  1  0
  6 50  1  1
  7 51  1  0
  7 52  1  0
  8 53  1  0
  8 54  1  0
 10 55  1  0
 11 56  1  0
 12 57  1  0
 13 58  1  0
 16 59  1  6
 17 60  1  0
 17 61  1  0
 17 62  1  0
 19 63  1  0
 22 64  1  0
 28 65  1  0
 28 66  1  0
 32 67  1  0
 32 68  1  0
 33 69  1  0
 35 70  1  0
 36 71  1  0
 37 72  1  0
 38 73  1  0
 40 74  1  0
 42 75  1  0
 46 76  1  0
 49 77  1  0
 49 78  1  0
M  CHG  3   5  -1  23   1  26  -1
M  END
>  <EmbedRMS>  (90) 
0.0818118095673

$$$$

     RDKit          3D

 78 83  0  0  0  0  0  0  0  0999 V2000
   10.2834   43.7662   33.8257 C   0  0  0  0  0  0  0  0  0  0  0  0
   11.4103   43.5926   34.3748 O   0  0  0  0  0  0  0  0  0  0  0  0
    9.3634   42.7257   33.7352 O   0  0  0  0  0  0  0  0  0  0  0  0
    9.8897   41.2266   34.2941 P   0  0  0  0  0  0  0  0  0  0  0  0
   10.3736   41.4552   35.8835 O   0  0  0  0  0  0  0  0  0  0  0  0
    9.9548   45.0696   33.2036 C   0  0  1  0  0  0  0  0  0  0  0  0
   11.0274   46.0322   33.4759 N   0  0  0  0  0  0  0  0  0  0  0  0
    9.7471   44.8483   31.6877 C   0  0  0  0  0  0  0  0  0  0  0  0
    8.7928   45.8408   31.0843 C   0  0  0  0  0  0  0  0  0  0  0  0
    7.4063   45.6023   31.1004 C   0  0  0  0  0  0  0  0  0  0  0  0
    9.2818   46.9874   30.4424 C   0  0  0  0  0  0  0  0  0  0  0  0
    6.5249   46.5021   30.4858 C   0  0  0  0  0  0  0  0  0  0  0  0
    8.4004   47.8871   29.8327 C   0  0  0  0  0  0  0  0  0  0  0  0
    7.0180   47.6569   29.8429 C   0  0  0  0  0  0  0  0  0  0  0  0
    6.1936   48.6054   29.2096 O   0  0  0  0  0  0  0  0  0  0  0  0
    4.7662   48.5765   29.0761 C   0  0  1  0  0  0  0  0  0  0  0  0
    4.3518   47.4926   28.0681 C   0  0  0  0  0  0  0  0  0  0  0  0
    4.0736   48.5438   30.4392 C   0  0  0  0  0  0  0  0  0  0  0  0
    3.0472   47.5985   30.7132 C   0  0  0  0  0  0  0  0  0  0  0  0
    4.4688   49.4550   31.4791 C   0  0  0  0  0  0  0  0  0  0  0  0
    2.4946   47.5635   31.9862 C   0  0  0  0  0  0  0  0  0  0  0  0
    3.8764   49.3596   32.7593 C   0  0  0  0  0  0  0  0  0  0  0  0
    5.4679   50.4660   31.2599 N   0  0  0  0  0  0  0  0  0  0  0  0
    1.5076   46.7261   32.4700 O   0  0  0  0  0  0  0  0  0  0  0  0
    2.8945   48.4030   32.9666 C   0  0  0  0  0  0  0  0  0  0  0  0
    5.4402   51.2407   30.1238 O   0  0  0  0  0  0  0  0  0  0  0  0
    6.2508   50.7792   32.1810 O   0  0  0  0  0  0  0  0  0  0  0  0
    1.2745   47.0645   33.8435 C   0  0  0  0  0  0  0  0  0  0  0  0
    2.1811   48.1406   34.1200 O   0  0  0  0  0  0  0  0  0  0  0  0
    8.8111   40.1853   34.2130 O   0  0  0  0  0  0  0  0  0  0  0  0
   11.2398   40.7939   33.3690 O   0  0  0  0  0  0  0  0  0  0  0  0
   10.9141   40.6899   31.9971 C   0  0  0  0  0  0  0  0  0  0  0  0
   11.5260   39.3886   31.4376 C   0  0  0  0  0  0  0  0  0  0  0  0
   12.7504   39.0889   32.0816 O   0  0  0  0  0  0  0  0  0  0  0  0
   10.6112   38.1910   31.6459 C   0  0  0  0  0  0  0  0  0  0  0  0
   12.9357   37.6813   32.0303 C   0  0  0  0  0  0  0  0  0  0  0  0
    9.6142   38.0858   30.6533 O   0  0  0  0  0  0  0  0  0  0  0  0
   11.5768   37.0149   31.7010 C   0  0  0  0  0  0  0  0  0  0  0  0
   13.4849   37.2110   33.3247 N   0  0  0  0  0  0  0  0  0  0  0  0
   11.6191   36.3263   30.4722 O   0  0  0  0  0  0  0  0  0  0  0  0
   14.4802   36.3310   33.5731 C   0  0  0  0  0  0  0  0  0  0  0  0
   13.1144   37.6266   34.5698 C   0  0  0  0  0  0  0  0  0  0  0  0
   15.2077   35.6152   32.6741 N   0  0  0  0  0  0  0  0  0  0  0  0
   14.6762   36.2299   34.9186 C   0  0  0  0  0  0  0  0  0  0  0  0
   13.8225   37.0446   35.5790 N   0  0  0  0  0  0  0  0  0  0  0  0
   16.1646   34.7602   33.1547 C   0  0  0  0  0  0  0  0  0  0  0  0
   15.6533   35.3503   35.4132 C   0  0  0  0  0  0  0  0  0  0  0  0
   16.3800   34.6314   34.5042 N   0  0  0  0  0  0  0  0  0  0  0  0
   15.9010   35.1930   36.8091 N   0  0  0  0  0  0  0  0  0  0  0  0
    9.0122   45.4319   33.6712 H   0  0  0  0  0  0  0  0  0  0  0  0
   10.7260   46.9692   33.1224 H   0  0  0  0  0  0  0  0  0  0  0  0
   11.8908   45.7655   32.9478 H   0  0  0  0  0  0  0  0  0  0  0  0
    9.3417   43.8330   31.4770 H   0  0  0  0  0  0  0  0  0  0  0  0
   10.7237   44.8821   31.1561 H   0  0  0  0  0  0  0  0  0  0  0  0
    7.0105   44.7180   31.5850 H   0  0  0  0  0  0  0  0  0  0  0  0
   10.3462   47.1856   30.4104 H   0  0  0  0  0  0  0  0  0  0  0  0
    5.4714   46.2816   30.5255 H   0  0  0  0  0  0  0  0  0  0  0  0
    8.7950   48.7691   29.3443 H   0  0  0  0  0  0  0  0  0  0  0  0
    4.4687   49.5343   28.6000 H   0  0  0  0  0  0  0  0  0  0  0  0
    4.9380   47.6139   27.1330 H   0  0  0  0  0  0  0  0  0  0  0  0
    4.5347   46.4717   28.4578 H   0  0  0  0  0  0  0  0  0  0  0  0
    3.2773   47.5993   27.8087 H   0  0  0  0  0  0  0  0  0  0  0  0
    2.6918   46.8924   29.9772 H   0  0  0  0  0  0  0  0  0  0  0  0
    4.1604   50.0266   33.5631 H   0  0  0  0  0  0  0  0  0  0  0  0
    0.2259   47.4016   33.9826 H   0  0  0  0  0  0  0  0  0  0  0  0
    1.5007   46.1957   34.4966 H   0  0  0  0  0  0  0  0  0  0  0  0
    9.8229   40.7189   31.7648 H   0  0  0  0  0  0  0  0  0  0  0  0
   11.3779   41.5530   31.4730 H   0  0  0  0  0  0  0  0  0  0  0  0
   11.7285   39.5309   30.3515 H   0  0  0  0  0  0  0  0  0  0  0  0
   10.1122   38.2733   32.6374 H   0  0  0  0  0  0  0  0  0  0  0  0
   13.6693   37.4571   31.2241 H   0  0  0  0  0  0  0  0  0  0  0  0
   10.0530   38.1121   29.7636 H   0  0  0  0  0  0  0  0  0  0  0  0
   11.2607   36.3150   32.5101 H   0  0  0  0  0  0  0  0  0  0  0  0
   12.1496   35.5026   30.6322 H   0  0  0  0  0  0  0  0  0  0  0  0
   12.3306   38.3522   34.7455 H   0  0  0  0  0  0  0  0  0  0  0  0
   16.7563   34.1781   32.4617 H   0  0  0  0  0  0  0  0  0  0  0  0
   15.3538   35.7354   37.5140 H   0  0  0  0  0  0  0  0  0  0  0  0
   16.6354   34.5295   37.1416 H   0  0  0  0  0  0  0  0  0  0  0  0
  1  2  2  0
  1  3  1  0
  3  4  1  0
  4  5  1  0
  6  1  1  0
  7  6  1  0
  6  8  1  0
  8  9  1  0
  9 10  2  0
 11  9  1  0
 10 12  1  0
 13 11  2  0
 12 14  2  0
 14 13  1  0
 14 15  1  0
 15 16  1  0
 16 17  1  0
 16 18  1  0
 18 19  2  0
 20 18  1  0
 19 21  1  0
 22 20  2  0
 20 23  1  0
 21 24  1  0
 21 25  2  0
 25 22  1  0
 23 26  1  0
 23 27  2  0
 24 28  1  0
 25 29  1  0
 28 29  1  0
  4 30  2  0
  4 31  1  0
 32 31  1  0
 32 33  1  0
 33 34  1  0
 33 35  1  0
 34 36  1  0
 35 37  1  0
 35 38  1  0
 38 36  1  0
 36 39  1  0
 38 40  1  0
 41 39  1  0
 42 39  1  0
 43 41  2  0
 41 44  1  0
 45 42  2  0
 46 43  1  0
 44 47  2  0
 44 45  1  0
 48 46  2  0
 48 47  1  0
 47 49  1  0
  6 50  1  1
  7 51  1  0
  7 52  1  0
  8 53  1  0
  8 54  1  0
 10 55  1  0
 11 56  1  0
 12 57  1  0
 13 58  1  0
 16 59  1  6
 17 60  1  0
 17 61  1  0
 17 62  1  0
 19 63  1  0
 22 64  1  0
 28 65  1  0
 28 66  1  0
 32 67  1  0
 32 68  1  0
 33 69  1  0
 35 70  1  0
 36 71  1  0
 37 72  1  0
 38 73  1  0
 40 74  1  0
 42 75  1  0
 46 76  1  0
 49 77  1  0
 49 78  1  0
M  CHG  3   5  -1  23   1  26  -1
M  END
>  <EmbedRMS>  (91) 
0.0816179621523

$$$$

     RDKit          3D

 78 83  0  0  0  0  0  0  0  0999 V2000
   10.2804   43.7665   33.8250 C   0  0  0  0  0  0  0  0  0  0  0  0
   11.4110   43.5918   34.3666 O   0  0  0  0  0  0  0  0  0  0  0  0
    9.3616   42.7251   33.7348 O   0  0  0  0  0  0  0  0  0  0  0  0
    9.8896   41.2269   34.2945 P   0  0  0  0  0  0  0  0  0  0  0  0
   10.3731   41.4568   35.8837 O   0  0  0  0  0  0  0  0  0  0  0  0
    9.9460   45.0737   33.2112 C   0  0  1  0  0  0  0  0  0  0  0  0
   11.0268   46.0292   33.4709 N   0  0  0  0  0  0  0  0  0  0  0  0
    9.7541   44.8542   31.6950 C   0  0  0  0  0  0  0  0  0  0  0  0
    8.7958   45.8413   31.0850 C   0  0  0  0  0  0  0  0  0  0  0  0
    7.4091   45.6001   31.1010 C   0  0  0  0  0  0  0  0  0  0  0  0
    9.2824   46.9876   30.4394 C   0  0  0  0  0  0  0  0  0  0  0  0
    6.5257   46.4984   30.4858 C   0  0  0  0  0  0  0  0  0  0  0  0
    8.3997   47.8867   29.8305 C   0  0  0  0  0  0  0  0  0  0  0  0
    7.0178   47.6560   29.8471 C   0  0  0  0  0  0  0  0  0  0  0  0
    6.1849   48.5934   29.2131 O   0  0  0  0  0  0  0  0  0  0  0  0
    4.7529   48.5838   29.2103 C   0  0  1  0  0  0  0  0  0  0  0  0
    4.2261   49.0327   30.5779 C   0  0  0  0  0  0  0  0  0  0  0  0
    4.2170   49.5094   28.1272 C   0  0  0  0  0  0  0  0  0  0  0  0
    5.0464   50.5442   27.6200 C   0  0  0  0  0  0  0  0  0  0  0  0
    2.8555   49.4269   27.6745 C   0  0  0  0  0  0  0  0  0  0  0  0
    4.5126   51.4340   26.6971 C   0  0  0  0  0  0  0  0  0  0  0  0
    2.3656   50.3715   26.7455 C   0  0  0  0  0  0  0  0  0  0  0  0
    1.9554   48.4187   28.1579 N   0  0  0  0  0  0  0  0  0  0  0  0
    5.1318   52.5033   26.0787 O   0  0  0  0  0  0  0  0  0  0  0  0
    3.2293   51.3521   26.2794 C   0  0  0  0  0  0  0  0  0  0  0  0
    0.6555   48.7572   28.4551 O   0  0  0  0  0  0  0  0  0  0  0  0
    2.2541   47.2112   28.0612 O   0  0  0  0  0  0  0  0  0  0  0  0
    4.1739   53.1302   25.2149 C   0  0  0  0  0  0  0  0  0  0  0  0
    2.9724   52.3636   25.3739 O   0  0  0  0  0  0  0  0  0  0  0  0
    8.8122   40.1844   34.2135 O   0  0  0  0  0  0  0  0  0  0  0  0
   11.2401   40.7950   33.3698 O   0  0  0  0  0  0  0  0  0  0  0  0
   10.9143   40.6914   31.9981 C   0  0  0  0  0  0  0  0  0  0  0  0
   11.5270   39.3911   31.4385 C   0  0  0  0  0  0  0  0  0  0  0  0
   12.7519   39.0911   32.0837 O   0  0  0  0  0  0  0  0  0  0  0  0
   10.6113   38.1932   31.6451 C   0  0  0  0  0  0  0  0  0  0  0  0
   12.9413   37.6838   32.0297 C   0  0  0  0  0  0  0  0  0  0  0  0
    9.6064   38.0877   30.6599 O   0  0  0  0  0  0  0  0  0  0  0  0
   11.5822   37.0197   31.6877 C   0  0  0  0  0  0  0  0  0  0  0  0
   13.4840   37.2104   33.3254 N   0  0  0  0  0  0  0  0  0  0  0  0
   11.6179   36.3072   30.4690 O   0  0  0  0  0  0  0  0  0  0  0  0
   14.4797   36.3309   33.5738 C   0  0  0  0  0  0  0  0  0  0  0  0
   13.1136   37.6269   34.5702 C   0  0  0  0  0  0  0  0  0  0  0  0
   15.2074   35.6152   32.6747 N   0  0  0  0  0  0  0  0  0  0  0  0
   14.6756   36.2298   34.9190 C   0  0  0  0  0  0  0  0  0  0  0  0
   13.8217   37.0445   35.5793 N   0  0  0  0  0  0  0  0  0  0  0  0
   16.1643   34.7603   33.1551 C   0  0  0  0  0  0  0  0  0  0  0  0
   15.6528   35.3503   35.4136 C   0  0  0  0  0  0  0  0  0  0  0  0
   16.3798   34.6316   34.5046 N   0  0  0  0  0  0  0  0  0  0  0  0
   15.9004   35.1930   36.8094 N   0  0  0  0  0  0  0  0  0  0  0  0
    8.9996   45.4383   33.6722 H   0  0  0  0  0  0  0  0  0  0  0  0
   11.0503   46.2277   34.4983 H   0  0  0  0  0  0  0  0  0  0  0  0
   10.7767   46.9369   33.0159 H   0  0  0  0  0  0  0  0  0  0  0  0
    9.3646   43.8355   31.4712 H   0  0  0  0  0  0  0  0  0  0  0  0
   10.7412   44.9080   31.1836 H   0  0  0  0  0  0  0  0  0  0  0  0
    7.0154   44.7146   31.5848 H   0  0  0  0  0  0  0  0  0  0  0  0
   10.3463   47.1872   30.4046 H   0  0  0  0  0  0  0  0  0  0  0  0
    5.4691   46.2762   30.5156 H   0  0  0  0  0  0  0  0  0  0  0  0
    8.7922   48.7679   29.3390 H   0  0  0  0  0  0  0  0  0  0  0  0
    4.4190   47.5523   28.9923 H   0  0  0  0  0  0  0  0  0  0  0  0
    4.6068   48.3706   31.3818 H   0  0  0  0  0  0  0  0  0  0  0  0
    3.1167   48.9961   30.6000 H   0  0  0  0  0  0  0  0  0  0  0  0
    4.5569   50.0714   30.7932 H   0  0  0  0  0  0  0  0  0  0  0  0
    6.0703   50.6734   27.9449 H   0  0  0  0  0  0  0  0  0  0  0  0
    1.3437   50.3335   26.3906 H   0  0  0  0  0  0  0  0  0  0  0  0
    4.0025   54.1809   25.5297 H   0  0  0  0  0  0  0  0  0  0  0  0
    4.5201   53.0857   24.1610 H   0  0  0  0  0  0  0  0  0  0  0  0
    9.8233   40.7201   31.7652 H   0  0  0  0  0  0  0  0  0  0  0  0
   11.3775   41.5548   31.4741 H   0  0  0  0  0  0  0  0  0  0  0  0
   11.7312   39.5361   30.3532 H   0  0  0  0  0  0  0  0  0  0  0  0
   10.1202   38.2696   32.6410 H   0  0  0  0  0  0  0  0  0  0  0  0
   13.6850   37.4639   31.2321 H   0  0  0  0  0  0  0  0  0  0  0  0
   10.0251   38.1792   29.7654 H   0  0  0  0  0  0  0  0  0  0  0  0
   11.2757   36.3135   32.4907 H   0  0  0  0  0  0  0  0  0  0  0  0
   11.9839   36.9111   29.7709 H   0  0  0  0  0  0  0  0  0  0  0  0
   12.3307   38.3536   34.7458 H   0  0  0  0  0  0  0  0  0  0  0  0
   16.7566   34.1786   32.4623 H   0  0  0  0  0  0  0  0  0  0  0  0
   15.3535   35.7355   37.5144 H   0  0  0  0  0  0  0  0  0  0  0  0
   16.6353   34.5301   37.1419 H   0  0  0  0  0  0  0  0  0  0  0  0
  1  2  2  0
  1  3  1  0
  3  4  1  0
  4  5  1  0
  6  1  1  0
  7  6  1  0
  6  8  1  0
  8  9  1  0
  9 10  2  0
 11  9  1  0
 10 12  1  0
 13 11  2  0
 12 14  2  0
 14 13  1  0
 14 15  1  0
 15 16  1  0
 16 17  1  0
 16 18  1  0
 18 19  2  0
 20 18  1  0
 19 21  1  0
 22 20  2  0
 20 23  1  0
 21 24  1  0
 21 25  2  0
 25 22  1  0
 23 26  1  0
 23 27  2  0
 24 28  1  0
 25 29  1  0
 28 29  1  0
  4 30  2  0
  4 31  1  0
 32 31  1  0
 32 33  1  0
 33 34  1  0
 33 35  1  0
 34 36  1  0
 35 37  1  0
 35 38  1  0
 38 36  1  0
 36 39  1  0
 38 40  1  0
 41 39  1  0
 42 39  1  0
 43 41  2  0
 41 44  1  0
 45 42  2  0
 46 43  1  0
 44 47  2  0
 44 45  1  0
 48 46  2  0
 48 47  1  0
 47 49  1  0
  6 50  1  1
  7 51  1  0
  7 52  1  0
  8 53  1  0
  8 54  1  0
 10 55  1  0
 11 56  1  0
 12 57  1  0
 13 58  1  0
 16 59  1  6
 17 60  1  0
 17 61  1  0
 17 62  1  0
 19 63  1  0
 22 64  1  0
 28 65  1  0
 28 66  1  0
 32 67  1  0
 32 68  1  0
 33 69  1  0
 35 70  1  0
 36 71  1  0
 37 72  1  0
 38 73  1  0
 40 74  1  0
 42 75  1  0
 46 76  1  0
 49 77  1  0
 49 78  1  0
M  CHG  3   5  -1  23   1  26  -1
M  END
>  <EmbedRMS>  (92) 
0.0806240448573

$$$$

     RDKit          3D

 78 83  0  0  0  0  0  0  0  0999 V2000
   10.2835   43.7662   33.8257 C   0  0  0  0  0  0  0  0  0  0  0  0
   11.4103   43.5930   34.3753 O   0  0  0  0  0  0  0  0  0  0  0  0
    9.3638   42.7255   33.7351 O   0  0  0  0  0  0  0  0  0  0  0  0
    9.8903   41.2268   34.2946 P   0  0  0  0  0  0  0  0  0  0  0  0
   10.3728   41.4561   35.8842 O   0  0  0  0  0  0  0  0  0  0  0  0
    9.9548   45.0695   33.2036 C   0  0  1  0  0  0  0  0  0  0  0  0
   11.0274   46.0322   33.4760 N   0  0  0  0  0  0  0  0  0  0  0  0
    9.7471   44.8484   31.6876 C   0  0  0  0  0  0  0  0  0  0  0  0
    8.7926   45.8410   31.0847 C   0  0  0  0  0  0  0  0  0  0  0  0
    7.4061   45.6010   31.0991 C   0  0  0  0  0  0  0  0  0  0  0  0
    9.2817   46.9876   30.4419 C   0  0  0  0  0  0  0  0  0  0  0  0
    6.5243   46.5005   30.4842 C   0  0  0  0  0  0  0  0  0  0  0  0
    8.4005   47.8875   29.8318 C   0  0  0  0  0  0  0  0  0  0  0  0
    7.0181   47.6580   29.8469 C   0  0  0  0  0  0  0  0  0  0  0  0
    6.1867   48.5963   29.2126 O   0  0  0  0  0  0  0  0  0  0  0  0
    4.7555   48.5951   29.2212 C   0  0  1  0  0  0  0  0  0  0  0  0
    4.2355   49.0444   30.5914 C   0  0  0  0  0  0  0  0  0  0  0  0
    4.2510   49.5415   28.1480 C   0  0  0  0  0  0  0  0  0  0  0  0
    4.8800   50.8040   28.0092 C   0  0  0  0  0  0  0  0  0  0  0  0
    3.1875   49.1868   27.2509 C   0  0  0  0  0  0  0  0  0  0  0  0
    4.4705   51.6406   26.9795 C   0  0  0  0  0  0  0  0  0  0  0  0
    2.8270   50.0731   26.2106 C   0  0  0  0  0  0  0  0  0  0  0  0
    2.4543   47.9597   27.3905 N   0  0  0  0  0  0  0  0  0  0  0  0
    4.9452   52.8963   26.6528 O   0  0  0  0  0  0  0  0  0  0  0  0
    3.4917   51.2883   26.1149 C   0  0  0  0  0  0  0  0  0  0  0  0
    2.0045   47.3018   26.2690 O   0  0  0  0  0  0  0  0  0  0  0  0
    2.0161   47.6135   28.5068 O   0  0  0  0  0  0  0  0  0  0  0  0
    4.2155   53.3612   25.5090 C   0  0  0  0  0  0  0  0  0  0  0  0
    3.2976   52.3039   25.1985 O   0  0  0  0  0  0  0  0  0  0  0  0
    8.8125   40.1848   34.2126 O   0  0  0  0  0  0  0  0  0  0  0  0
   11.2416   40.7948   33.3707 O   0  0  0  0  0  0  0  0  0  0  0  0
   10.9179   40.6922   31.9984 C   0  0  0  0  0  0  0  0  0  0  0  0
   11.5175   39.3838   31.4423 C   0  0  0  0  0  0  0  0  0  0  0  0
   12.7508   39.0887   32.0752 O   0  0  0  0  0  0  0  0  0  0  0  0
   10.6028   38.1916   31.6659 C   0  0  0  0  0  0  0  0  0  0  0  0
   12.9384   37.6818   32.0278 C   0  0  0  0  0  0  0  0  0  0  0  0
    9.6371   38.0806   30.6470 O   0  0  0  0  0  0  0  0  0  0  0  0
   11.5780   37.0215   31.6935 C   0  0  0  0  0  0  0  0  0  0  0  0
   13.4844   37.2119   33.3242 N   0  0  0  0  0  0  0  0  0  0  0  0
   11.6095   36.3201   30.4679 O   0  0  0  0  0  0  0  0  0  0  0  0
   14.4797   36.3318   33.5730 C   0  0  0  0  0  0  0  0  0  0  0  0
   13.1135   37.6278   34.5691 C   0  0  0  0  0  0  0  0  0  0  0  0
   15.2073   35.6155   32.6743 N   0  0  0  0  0  0  0  0  0  0  0  0
   14.6754   36.2305   34.9184 C   0  0  0  0  0  0  0  0  0  0  0  0
   13.8213   37.0452   35.5785 N   0  0  0  0  0  0  0  0  0  0  0  0
   16.1640   34.7604   33.1549 C   0  0  0  0  0  0  0  0  0  0  0  0
   15.6524   35.3507   35.4133 C   0  0  0  0  0  0  0  0  0  0  0  0
   16.3794   34.6318   34.5044 N   0  0  0  0  0  0  0  0  0  0  0  0
   15.8999   35.1934   36.8091 N   0  0  0  0  0  0  0  0  0  0  0  0
    9.0121   45.4317   33.6713 H   0  0  0  0  0  0  0  0  0  0  0  0
   11.8909   45.7659   32.9477 H   0  0  0  0  0  0  0  0  0  0  0  0
   10.7261   46.9688   33.1215 H   0  0  0  0  0  0  0  0  0  0  0  0
   10.7236   44.8824   31.1558 H   0  0  0  0  0  0  0  0  0  0  0  0
    9.3426   43.8331   31.4759 H   0  0  0  0  0  0  0  0  0  0  0  0
    7.0108   44.7148   31.5804 H   0  0  0  0  0  0  0  0  0  0  0  0
   10.3460   47.1857   30.4096 H   0  0  0  0  0  0  0  0  0  0  0  0
    5.4677   46.2781   30.5109 H   0  0  0  0  0  0  0  0  0  0  0  0
    8.7943   48.7688   29.3415 H   0  0  0  0  0  0  0  0  0  0  0  0
    4.4037   47.5668   29.0072 H   0  0  0  0  0  0  0  0  0  0  0  0
    3.1256   49.0848   30.5874 H   0  0  0  0  0  0  0  0  0  0  0  0
    4.6311   50.0506   30.8463 H   0  0  0  0  0  0  0  0  0  0  0  0
    4.5524   48.3344   31.3820 H   0  0  0  0  0  0  0  0  0  0  0  0
    5.6763   51.1162   28.6731 H   0  0  0  0  0  0  0  0  0  0  0  0
    2.0328   49.8331   25.5155 H   0  0  0  0  0  0  0  0  0  0  0  0
    3.6603   54.2895   25.7590 H   0  0  0  0  0  0  0  0  0  0  0  0
    4.9058   53.5320   24.6565 H   0  0  0  0  0  0  0  0  0  0  0  0
    9.8291   40.7409   31.7627 H   0  0  0  0  0  0  0  0  0  0  0  0
   11.3952   41.5478   31.4744 H   0  0  0  0  0  0  0  0  0  0  0  0
   11.6981   39.5115   30.3500 H   0  0  0  0  0  0  0  0  0  0  0  0
   10.1117   38.2604   32.6660 H   0  0  0  0  0  0  0  0  0  0  0  0
   13.6767   37.4556   31.2267 H   0  0  0  0  0  0  0  0  0  0  0  0
    8.8961   38.6952   30.8872 H   0  0  0  0  0  0  0  0  0  0  0  0
   11.2791   36.3072   32.4922 H   0  0  0  0  0  0  0  0  0  0  0  0
   11.8828   36.9598   29.7589 H   0  0  0  0  0  0  0  0  0  0  0  0
   12.3300   38.3538   34.7446 H   0  0  0  0  0  0  0  0  0  0  0  0
   16.7561   34.1785   32.4622 H   0  0  0  0  0  0  0  0  0  0  0  0
   15.3531   35.7360   37.5140 H   0  0  0  0  0  0  0  0  0  0  0  0
   16.6347   34.5303   37.1416 H   0  0  0  0  0  0  0  0  0  0  0  0
  1  2  2  0
  1  3  1  0
  3  4  1  0
  4  5  1  0
  6  1  1  0
  7  6  1  0
  6  8  1  0
  8  9  1  0
  9 10  2  0
 11  9  1  0
 10 12  1  0
 13 11  2  0
 12 14  2  0
 14 13  1  0
 14 15  1  0
 15 16  1  0
 16 17  1  0
 16 18  1  0
 18 19  2  0
 20 18  1  0
 19 21  1  0
 22 20  2  0
 20 23  1  0
 21 24  1  0
 21 25  2  0
 25 22  1  0
 23 26  1  0
 23 27  2  0
 24 28  1  0
 25 29  1  0
 28 29  1  0
  4 30  2  0
  4 31  1  0
 32 31  1  0
 32 33  1  0
 33 34  1  0
 33 35  1  0
 34 36  1  0
 35 37  1  0
 35 38  1  0
 38 36  1  0
 36 39  1  0
 38 40  1  0
 41 39  1  0
 42 39  1  0
 43 41  2  0
 41 44  1  0
 45 42  2  0
 46 43  1  0
 44 47  2  0
 44 45  1  0
 48 46  2  0
 48 47  1  0
 47 49  1  0
  6 50  1  1
  7 51  1  0
  7 52  1  0
  8 53  1  0
  8 54  1  0
 10 55  1  0
 11 56  1  0
 12 57  1  0
 13 58  1  0
 16 59  1  6
 17 60  1  0
 17 61  1  0
 17 62  1  0
 19 63  1  0
 22 64  1  0
 28 65  1  0
 28 66  1  0
 32 67  1  0
 32 68  1  0
 33 69  1  0
 35 70  1  0
 36 71  1  0
 37 72  1  0
 38 73  1  0
 40 74  1  0
 42 75  1  0
 46 76  1  0
 49 77  1  0
 49 78  1  0
M  CHG  3   5  -1  23   1  26  -1
M  END
>  <EmbedRMS>  (93) 
0.0819494178129

$$$$

     RDKit          3D

 78 83  0  0  0  0  0  0  0  0999 V2000
   10.2834   43.7662   33.8257 C   0  0  0  0  0  0  0  0  0  0  0  0
   11.4102   43.5930   34.3752 O   0  0  0  0  0  0  0  0  0  0  0  0
    9.3635   42.7257   33.7352 O   0  0  0  0  0  0  0  0  0  0  0  0
    9.8899   41.2270   34.2947 P   0  0  0  0  0  0  0  0  0  0  0  0
   10.3732   41.4562   35.8841 O   0  0  0  0  0  0  0  0  0  0  0  0
    9.9548   45.0696   33.2036 C   0  0  1  0  0  0  0  0  0  0  0  0
   11.0274   46.0322   33.4759 N   0  0  0  0  0  0  0  0  0  0  0  0
    9.7471   44.8484   31.6876 C   0  0  0  0  0  0  0  0  0  0  0  0
    8.7926   45.8410   31.0846 C   0  0  0  0  0  0  0  0  0  0  0  0
    7.4060   45.6010   31.0991 C   0  0  0  0  0  0  0  0  0  0  0  0
    9.2817   46.9876   30.4419 C   0  0  0  0  0  0  0  0  0  0  0  0
    6.5242   46.5006   30.4842 C   0  0  0  0  0  0  0  0  0  0  0  0
    8.4005   47.8874   29.8318 C   0  0  0  0  0  0  0  0  0  0  0  0
    7.0183   47.6579   29.8470 C   0  0  0  0  0  0  0  0  0  0  0  0
    6.1877   48.5964   29.2128 O   0  0  0  0  0  0  0  0  0  0  0  0
    4.7578   48.6031   29.2269 C   0  0  1  0  0  0  0  0  0  0  0  0
    4.2174   49.0253   30.5986 C   0  0  0  0  0  0  0  0  0  0  0  0
    4.2140   49.5208   28.1445 C   0  0  0  0  0  0  0  0  0  0  0  0
    2.9814   49.1601   27.5463 C   0  0  0  0  0  0  0  0  0  0  0  0
    4.8940   50.7031   27.6838 C   0  0  0  0  0  0  0  0  0  0  0  0
    2.4861   49.9439   26.5131 C   0  0  0  0  0  0  0  0  0  0  0  0
    4.3472   51.4502   26.6159 C   0  0  0  0  0  0  0  0  0  0  0  0
    6.1237   51.1594   28.2686 N   0  0  0  0  0  0  0  0  0  0  0  0
    1.3210   49.7754   25.7898 O   0  0  0  0  0  0  0  0  0  0  0  0
    3.1421   51.0377   26.0647 C   0  0  0  0  0  0  0  0  0  0  0  0
    7.1049   51.6897   27.4630 O   0  0  0  0  0  0  0  0  0  0  0  0
    6.2195   51.3019   29.5042 O   0  0  0  0  0  0  0  0  0  0  0  0
    1.2423   50.8337   24.8252 C   0  0  0  0  0  0  0  0  0  0  0  0
    2.4253   51.6168   25.0353 O   0  0  0  0  0  0  0  0  0  0  0  0
    8.8120   40.1851   34.2132 O   0  0  0  0  0  0  0  0  0  0  0  0
   11.2403   40.7947   33.3700 O   0  0  0  0  0  0  0  0  0  0  0  0
   10.9145   40.6914   31.9982 C   0  0  0  0  0  0  0  0  0  0  0  0
   11.5270   39.3912   31.4385 C   0  0  0  0  0  0  0  0  0  0  0  0
   12.7520   39.0911   32.0836 O   0  0  0  0  0  0  0  0  0  0  0  0
   10.6114   38.1932   31.6451 C   0  0  0  0  0  0  0  0  0  0  0  0
   12.9413   37.6838   32.0297 C   0  0  0  0  0  0  0  0  0  0  0  0
    9.6064   38.0878   30.6599 O   0  0  0  0  0  0  0  0  0  0  0  0
   11.5822   37.0198   31.6877 C   0  0  0  0  0  0  0  0  0  0  0  0
   13.4840   37.2104   33.3254 N   0  0  0  0  0  0  0  0  0  0  0  0
   11.6179   36.3072   30.4690 O   0  0  0  0  0  0  0  0  0  0  0  0
   14.4797   36.3309   33.5738 C   0  0  0  0  0  0  0  0  0  0  0  0
   13.1137   37.6269   34.5702 C   0  0  0  0  0  0  0  0  0  0  0  0
   15.2074   35.6152   32.6747 N   0  0  0  0  0  0  0  0  0  0  0  0
   14.6756   36.2298   34.9190 C   0  0  0  0  0  0  0  0  0  0  0  0
   13.8217   37.0445   35.5793 N   0  0  0  0  0  0  0  0  0  0  0  0
   16.1643   34.7603   33.1551 C   0  0  0  0  0  0  0  0  0  0  0  0
   15.6528   35.3503   35.4136 C   0  0  0  0  0  0  0  0  0  0  0  0
   16.3798   34.6316   34.5046 N   0  0  0  0  0  0  0  0  0  0  0  0
   15.9004   35.1930   36.8094 N   0  0  0  0  0  0  0  0  0  0  0  0
    9.0121   45.4318   33.6713 H   0  0  0  0  0  0  0  0  0  0  0  0
   11.8909   45.7658   32.9476 H   0  0  0  0  0  0  0  0  0  0  0  0
   10.7262   46.9688   33.1214 H   0  0  0  0  0  0  0  0  0  0  0  0
   10.7236   44.8824   31.1558 H   0  0  0  0  0  0  0  0  0  0  0  0
    9.3425   43.8332   31.4759 H   0  0  0  0  0  0  0  0  0  0  0  0
    7.0106   44.7149   31.5804 H   0  0  0  0  0  0  0  0  0  0  0  0
   10.3460   47.1858   30.4097 H   0  0  0  0  0  0  0  0  0  0  0  0
    5.4674   46.2790   30.5110 H   0  0  0  0  0  0  0  0  0  0  0  0
    8.7940   48.7691   29.3417 H   0  0  0  0  0  0  0  0  0  0  0  0
    4.4019   47.5725   29.0083 H   0  0  0  0  0  0  0  0  0  0  0  0
    4.6218   48.3720   31.3980 H   0  0  0  0  0  0  0  0  0  0  0  0
    3.1099   48.9392   30.6109 H   0  0  0  0  0  0  0  0  0  0  0  0
    4.4907   50.0733   30.8335 H   0  0  0  0  0  0  0  0  0  0  0  0
    2.4301   48.2859   27.8697 H   0  0  0  0  0  0  0  0  0  0  0  0
    4.8376   52.3399   26.2423 H   0  0  0  0  0  0  0  0  0  0  0  0
    1.2369   50.4162   23.7965 H   0  0  0  0  0  0  0  0  0  0  0  0
    0.3373   51.4509   25.0051 H   0  0  0  0  0  0  0  0  0  0  0  0
    9.8235   40.7201   31.7654 H   0  0  0  0  0  0  0  0  0  0  0  0
   11.3777   41.5549   31.4744 H   0  0  0  0  0  0  0  0  0  0  0  0
   11.7312   39.5362   30.3532 H   0  0  0  0  0  0  0  0  0  0  0  0
   10.1203   38.2697   32.6410 H   0  0  0  0  0  0  0  0  0  0  0  0
   13.6850   37.4639   31.2321 H   0  0  0  0  0  0  0  0  0  0  0  0
   10.0251   38.1793   29.7654 H   0  0  0  0  0  0  0  0  0  0  0  0
   11.2757   36.3135   32.4908 H   0  0  0  0  0  0  0  0  0  0  0  0
   11.9838   36.9111   29.7708 H   0  0  0  0  0  0  0  0  0  0  0  0
   12.3307   38.3537   34.7458 H   0  0  0  0  0  0  0  0  0  0  0  0
   16.7566   34.1787   32.4623 H   0  0  0  0  0  0  0  0  0  0  0  0
   16.6353   34.5301   37.1419 H   0  0  0  0  0  0  0  0  0  0  0  0
   15.3535   35.7355   37.5144 H   0  0  0  0  0  0  0  0  0  0  0  0
  1  2  2  0
  1  3  1  0
  3  4  1  0
  4  5  1  0
  6  1  1  0
  7  6  1  0
  6  8  1  0
  8  9  1  0
  9 10  2  0
 11  9  1  0
 10 12  1  0
 13 11  2  0
 12 14  2  0
 14 13  1  0
 14 15  1  0
 15 16  1  0
 16 17  1  0
 16 18  1  0
 18 19  2  0
 20 18  1  0
 19 21  1  0
 22 20  2  0
 20 23  1  0
 21 24  1  0
 21 25  2  0
 25 22  1  0
 23 26  1  0
 23 27  2  0
 24 28  1  0
 25 29  1  0
 28 29  1  0
  4 30  2  0
  4 31  1  0
 32 31  1  0
 32 33  1  0
 33 34  1  0
 33 35  1  0
 34 36  1  0
 35 37  1  0
 35 38  1  0
 38 36  1  0
 36 39  1  0
 38 40  1  0
 41 39  1  0
 42 39  1  0
 43 41  2  0
 41 44  1  0
 45 42  2  0
 46 43  1  0
 44 47  2  0
 44 45  1  0
 48 46  2  0
 48 47  1  0
 47 49  1  0
  6 50  1  1
  7 51  1  0
  7 52  1  0
  8 53  1  0
  8 54  1  0
 10 55  1  0
 11 56  1  0
 12 57  1  0
 13 58  1  0
 16 59  1  6
 17 60  1  0
 17 61  1  0
 17 62  1  0
 19 63  1  0
 22 64  1  0
 28 65  1  0
 28 66  1  0
 32 67  1  0
 32 68  1  0
 33 69  1  0
 35 70  1  0
 36 71  1  0
 37 72  1  0
 38 73  1  0
 40 74  1  0
 42 75  1  0
 46 76  1  0
 49 77  1  0
 49 78  1  0
M  CHG  3   5  -1  23   1  26  -1
M  END
>  <EmbedRMS>  (94) 
0.0808066306215

$$$$

     RDKit          3D

 78 83  0  0  0  0  0  0  0  0999 V2000
   10.2839   43.7625   33.8276 C   0  0  0  0  0  0  0  0  0  0  0  0
   11.4104   43.5863   34.3767 O   0  0  0  0  0  0  0  0  0  0  0  0
    9.3633   42.7234   33.7353 O   0  0  0  0  0  0  0  0  0  0  0  0
    9.8898   41.2246   34.2940 P   0  0  0  0  0  0  0  0  0  0  0  0
   10.3725   41.4544   35.8837 O   0  0  0  0  0  0  0  0  0  0  0  0
    9.9548   45.0698   33.2064 C   0  0  1  0  0  0  0  0  0  0  0  0
   11.0198   46.0480   33.4568 N   0  0  0  0  0  0  0  0  0  0  0  0
    9.7501   44.8506   31.6924 C   0  0  0  0  0  0  0  0  0  0  0  0
    8.7942   45.8414   31.0867 C   0  0  0  0  0  0  0  0  0  0  0  0
    7.4076   45.6011   31.1003 C   0  0  0  0  0  0  0  0  0  0  0  0
    9.2830   46.9889   30.4452 C   0  0  0  0  0  0  0  0  0  0  0  0
    6.5284   46.5024   30.4850 C   0  0  0  0  0  0  0  0  0  0  0  0
    8.4038   47.8905   29.8332 C   0  0  0  0  0  0  0  0  0  0  0  0
    7.0141   47.6516   29.8456 C   0  0  0  0  0  0  0  0  0  0  0  0
    6.0820   48.5190   29.2517 O   0  0  0  0  0  0  0  0  0  0  0  0
    6.3878   49.6691   28.4586 C   0  0  1  0  0  0  0  0  0  0  0  0
    6.8892   49.2447   27.0716 C   0  0  0  0  0  0  0  0  0  0  0  0
    5.1364   50.5193   28.3314 C   0  0  0  0  0  0  0  0  0  0  0  0
    3.9767   49.9372   27.7609 C   0  0  0  0  0  0  0  0  0  0  0  0
    5.1014   51.8967   28.7304 C   0  0  0  0  0  0  0  0  0  0  0  0
    2.8574   50.7365   27.5685 C   0  0  0  0  0  0  0  0  0  0  0  0
    3.9391   52.6655   28.4944 C   0  0  0  0  0  0  0  0  0  0  0  0
    6.2108   52.5152   29.3969 N   0  0  0  0  0  0  0  0  0  0  0  0
    1.6358   50.3876   27.0256 O   0  0  0  0  0  0  0  0  0  0  0  0
    2.8415   52.0443   27.9139 C   0  0  0  0  0  0  0  0  0  0  0  0
    6.6963   51.9690   30.5627 O   0  0  0  0  0  0  0  0  0  0  0  0
    6.5565   53.6729   29.0836 O   0  0  0  0  0  0  0  0  0  0  0  0
    0.8001   51.5531   27.0314 C   0  0  0  0  0  0  0  0  0  0  0  0
    1.6089   52.5880   27.6072 O   0  0  0  0  0  0  0  0  0  0  0  0
    8.8118   40.1831   34.2121 O   0  0  0  0  0  0  0  0  0  0  0  0
   11.2413   40.7934   33.3696 O   0  0  0  0  0  0  0  0  0  0  0  0
   10.9178   40.6902   31.9971 C   0  0  0  0  0  0  0  0  0  0  0  0
   11.5181   39.3813   31.4408 C   0  0  0  0  0  0  0  0  0  0  0  0
   12.7497   39.0870   32.0745 O   0  0  0  0  0  0  0  0  0  0  0  0
   10.6045   38.1891   31.6655 C   0  0  0  0  0  0  0  0  0  0  0  0
   12.9344   37.6801   32.0290 C   0  0  0  0  0  0  0  0  0  0  0  0
    9.6418   38.0757   30.6441 O   0  0  0  0  0  0  0  0  0  0  0  0
   11.5741   37.0169   31.7045 C   0  0  0  0  0  0  0  0  0  0  0  0
   13.4851   37.2125   33.3241 N   0  0  0  0  0  0  0  0  0  0  0  0
   11.6079   36.3407   30.4679 O   0  0  0  0  0  0  0  0  0  0  0  0
   14.4801   36.3321   33.5727 C   0  0  0  0  0  0  0  0  0  0  0  0
   13.1140   37.6277   34.5692 C   0  0  0  0  0  0  0  0  0  0  0  0
   15.2073   35.6155   32.6739 N   0  0  0  0  0  0  0  0  0  0  0  0
   14.6758   36.2306   34.9182 C   0  0  0  0  0  0  0  0  0  0  0  0
   13.8217   37.0451   35.5785 N   0  0  0  0  0  0  0  0  0  0  0  0
   16.1639   34.7602   33.1546 C   0  0  0  0  0  0  0  0  0  0  0  0
   15.6526   35.3506   35.4130 C   0  0  0  0  0  0  0  0  0  0  0  0
   16.3794   34.6316   34.5041 N   0  0  0  0  0  0  0  0  0  0  0  0
   15.9001   35.1933   36.8089 N   0  0  0  0  0  0  0  0  0  0  0  0
    9.0098   45.4347   33.6671 H   0  0  0  0  0  0  0  0  0  0  0  0
   11.9348   45.6932   33.0924 H   0  0  0  0  0  0  0  0  0  0  0  0
   11.1134   46.1992   34.4881 H   0  0  0  0  0  0  0  0  0  0  0  0
    9.3508   43.8340   31.4763 H   0  0  0  0  0  0  0  0  0  0  0  0
   10.7304   44.8919   31.1675 H   0  0  0  0  0  0  0  0  0  0  0  0
    7.0109   44.7164   31.5828 H   0  0  0  0  0  0  0  0  0  0  0  0
   10.3473   47.1884   30.4184 H   0  0  0  0  0  0  0  0  0  0  0  0
    5.4640   46.3053   30.5037 H   0  0  0  0  0  0  0  0  0  0  0  0
    8.8217   48.7659   29.3587 H   0  0  0  0  0  0  0  0  0  0  0  0
    7.1969   50.2480   28.9401 H   0  0  0  0  0  0  0  0  0  0  0  0
    7.8558   48.7073   27.1550 H   0  0  0  0  0  0  0  0  0  0  0  0
    6.1620   48.5681   26.5757 H   0  0  0  0  0  0  0  0  0  0  0  0
    7.0463   50.1398   26.4324 H   0  0  0  0  0  0  0  0  0  0  0  0
    3.9520   48.8964   27.4646 H   0  0  0  0  0  0  0  0  0  0  0  0
    3.8860   53.7079   28.7813 H   0  0  0  0  0  0  0  0  0  0  0  0
   -0.0999   51.3773   27.6572 H   0  0  0  0  0  0  0  0  0  0  0  0
    0.5121   51.8244   25.9941 H   0  0  0  0  0  0  0  0  0  0  0  0
    9.8290   40.7386   31.7615 H   0  0  0  0  0  0  0  0  0  0  0  0
   11.3949   41.5458   31.4729 H   0  0  0  0  0  0  0  0  0  0  0  0
   11.6993   39.5069   30.3483 H   0  0  0  0  0  0  0  0  0  0  0  0
   10.1090   38.2634   32.6632 H   0  0  0  0  0  0  0  0  0  0  0  0
   13.6662   37.4514   31.2224 H   0  0  0  0  0  0  0  0  0  0  0  0
    8.9009   38.6924   30.8793 H   0  0  0  0  0  0  0  0  0  0  0  0
   11.2650   36.3082   32.5086 H   0  0  0  0  0  0  0  0  0  0  0  0
   12.1372   35.5140   30.6162 H   0  0  0  0  0  0  0  0  0  0  0  0
   12.3297   38.3530   34.7450 H   0  0  0  0  0  0  0  0  0  0  0  0
   16.7558   34.1781   32.4619 H   0  0  0  0  0  0  0  0  0  0  0  0
   16.6346   34.5300   37.1414 H   0  0  0  0  0  0  0  0  0  0  0  0
   15.3533   35.7360   37.5138 H   0  0  0  0  0  0  0  0  0  0  0  0
  1  2  2  0
  1  3  1  0
  3  4  1  0
  4  5  1  0
  6  1  1  0
  7  6  1  0
  6  8  1  0
  8  9  1  0
  9 10  2  0
 11  9  1  0
 10 12  1  0
 13 11  2  0
 12 14  2  0
 14 13  1  0
 14 15  1  0
 15 16  1  0
 16 17  1  0
 16 18  1  0
 18 19  2  0
 20 18  1  0
 19 21  1  0
 22 20  2  0
 20 23  1  0
 21 24  1  0
 21 25  2  0
 25 22  1  0
 23 26  1  0
 23 27  2  0
 24 28  1  0
 25 29  1  0
 28 29  1  0
  4 30  2  0
  4 31  1  0
 32 31  1  0
 32 33  1  0
 33 34  1  0
 33 35  1  0
 34 36  1  0
 35 37  1  0
 35 38  1  0
 38 36  1  0
 36 39  1  0
 38 40  1  0
 41 39  1  0
 42 39  1  0
 43 41  2  0
 41 44  1  0
 45 42  2  0
 46 43  1  0
 44 47  2  0
 44 45  1  0
 48 46  2  0
 48 47  1  0
 47 49  1  0
  6 50  1  1
  7 51  1  0
  7 52  1  0
  8 53  1  0
  8 54  1  0
 10 55  1  0
 11 56  1  0
 12 57  1  0
 13 58  1  0
 16 59  1  1
 17 60  1  0
 17 61  1  0
 17 62  1  0
 19 63  1  0
 22 64  1  0
 28 65  1  0
 28 66  1  0
 32 67  1  0
 32 68  1  0
 33 69  1  0
 35 70  1  0
 36 71  1  0
 37 72  1  0
 38 73  1  0
 40 74  1  0
 42 75  1  0
 46 76  1  0
 49 77  1  0
 49 78  1  0
M  CHG  3   5  -1  23   1  26  -1
M  END
>  <EmbedRMS>  (95) 
0.0837177698916

$$$$

     RDKit          3D

 78 83  0  0  0  0  0  0  0  0999 V2000
   10.2836   43.7626   33.8273 C   0  0  0  0  0  0  0  0  0  0  0  0
   11.4101   43.5863   34.3764 O   0  0  0  0  0  0  0  0  0  0  0  0
    9.3627   42.7237   33.7355 O   0  0  0  0  0  0  0  0  0  0  0  0
    9.8890   41.2251   34.2948 P   0  0  0  0  0  0  0  0  0  0  0  0
   10.3724   41.4549   35.8842 O   0  0  0  0  0  0  0  0  0  0  0  0
    9.9546   45.0700   33.2059 C   0  0  1  0  0  0  0  0  0  0  0  0
   11.0196   46.0481   33.4566 N   0  0  0  0  0  0  0  0  0  0  0  0
    9.7501   44.8511   31.6917 C   0  0  0  0  0  0  0  0  0  0  0  0
    8.7941   45.8419   31.0861 C   0  0  0  0  0  0  0  0  0  0  0  0
    7.4061   45.6010   31.1013 C   0  0  0  0  0  0  0  0  0  0  0  0
    9.2831   46.9915   30.4452 C   0  0  0  0  0  0  0  0  0  0  0  0
    6.5260   46.5030   30.4879 C   0  0  0  0  0  0  0  0  0  0  0  0
    8.4012   47.8917   29.8347 C   0  0  0  0  0  0  0  0  0  0  0  0
    7.0221   47.6453   29.8433 C   0  0  0  0  0  0  0  0  0  0  0  0
    6.1433   48.5420   29.2285 O   0  0  0  0  0  0  0  0  0  0  0  0
    5.6983   48.4098   27.8744 C   0  0  1  0  0  0  0  0  0  0  0  0
    6.8361   48.7075   26.8871 C   0  0  0  0  0  0  0  0  0  0  0  0
    5.0214   47.0627   27.6409 C   0  0  0  0  0  0  0  0  0  0  0  0
    5.8040   45.9243   27.3138 C   0  0  0  0  0  0  0  0  0  0  0  0
    3.5981   46.9166   27.7561 C   0  0  0  0  0  0  0  0  0  0  0  0
    5.1580   44.7213   27.0647 C   0  0  0  0  0  0  0  0  0  0  0  0
    2.9954   45.6700   27.4695 C   0  0  0  0  0  0  0  0  0  0  0  0
    2.7645   48.0003   28.1976 N   0  0  0  0  0  0  0  0  0  0  0  0
    5.7142   43.5025   26.7270 O   0  0  0  0  0  0  0  0  0  0  0  0
    3.8131   44.6011   27.1315 C   0  0  0  0  0  0  0  0  0  0  0  0
    3.1209   48.7395   29.3020 O   0  0  0  0  0  0  0  0  0  0  0  0
    1.6164   48.1368   27.7269 O   0  0  0  0  0  0  0  0  0  0  0  0
    4.6471   42.5575   26.5705 C   0  0  0  0  0  0  0  0  0  0  0  0
    3.4502   43.3007   26.8381 O   0  0  0  0  0  0  0  0  0  0  0  0
    8.8112   40.1833   34.2132 O   0  0  0  0  0  0  0  0  0  0  0  0
   11.2397   40.7937   33.3702 O   0  0  0  0  0  0  0  0  0  0  0  0
   10.9144   40.6912   31.9983 C   0  0  0  0  0  0  0  0  0  0  0  0
   11.5269   39.3911   31.4385 C   0  0  0  0  0  0  0  0  0  0  0  0
   12.7520   39.0911   32.0835 O   0  0  0  0  0  0  0  0  0  0  0  0
   10.6113   38.1932   31.6451 C   0  0  0  0  0  0  0  0  0  0  0  0
   12.9413   37.6838   32.0297 C   0  0  0  0  0  0  0  0  0  0  0  0
    9.6063   38.0878   30.6599 O   0  0  0  0  0  0  0  0  0  0  0  0
   11.5821   37.0197   31.6876 C   0  0  0  0  0  0  0  0  0  0  0  0
   13.4840   37.2105   33.3254 N   0  0  0  0  0  0  0  0  0  0  0  0
   11.6178   36.3072   30.4690 O   0  0  0  0  0  0  0  0  0  0  0  0
   14.4797   36.3310   33.5738 C   0  0  0  0  0  0  0  0  0  0  0  0
   13.1136   37.6269   34.5702 C   0  0  0  0  0  0  0  0  0  0  0  0
   15.2074   35.6153   32.6747 N   0  0  0  0  0  0  0  0  0  0  0  0
   14.6756   36.2298   34.9190 C   0  0  0  0  0  0  0  0  0  0  0  0
   13.8217   37.0446   35.5793 N   0  0  0  0  0  0  0  0  0  0  0  0
   16.1643   34.7603   33.1551 C   0  0  0  0  0  0  0  0  0  0  0  0
   15.6528   35.3503   35.4136 C   0  0  0  0  0  0  0  0  0  0  0  0
   16.3797   34.6315   34.5046 N   0  0  0  0  0  0  0  0  0  0  0  0
   15.9005   35.1931   36.8094 N   0  0  0  0  0  0  0  0  0  0  0  0
    9.0097   45.4349   33.6667 H   0  0  0  0  0  0  0  0  0  0  0  0
   11.1131   46.1991   34.4879 H   0  0  0  0  0  0  0  0  0  0  0  0
   11.9346   45.6933   33.0920 H   0  0  0  0  0  0  0  0  0  0  0  0
   10.7303   44.8932   31.1667 H   0  0  0  0  0  0  0  0  0  0  0  0
    9.3512   43.8345   31.4754 H   0  0  0  0  0  0  0  0  0  0  0  0
    7.0097   44.7166   31.5846 H   0  0  0  0  0  0  0  0  0  0  0  0
   10.3469   47.1927   30.4178 H   0  0  0  0  0  0  0  0  0  0  0  0
    5.4609   46.3107   30.5072 H   0  0  0  0  0  0  0  0  0  0  0  0
    8.7899   48.7772   29.3482 H   0  0  0  0  0  0  0  0  0  0  0  0
    4.9571   49.2152   27.6922 H   0  0  0  0  0  0  0  0  0  0  0  0
    7.7132   48.0520   27.0589 H   0  0  0  0  0  0  0  0  0  0  0  0
    6.4812   48.5737   25.8429 H   0  0  0  0  0  0  0  0  0  0  0  0
    7.1699   49.7595   27.0120 H   0  0  0  0  0  0  0  0  0  0  0  0
    6.8823   45.9636   27.2576 H   0  0  0  0  0  0  0  0  0  0  0  0
    1.9245   45.5309   27.5440 H   0  0  0  0  0  0  0  0  0  0  0  0
    4.7564   41.7303   27.3029 H   0  0  0  0  0  0  0  0  0  0  0  0
    4.6305   42.1652   25.5321 H   0  0  0  0  0  0  0  0  0  0  0  0
    9.8235   40.7202   31.7650 H   0  0  0  0  0  0  0  0  0  0  0  0
   11.3781   41.5548   31.4750 H   0  0  0  0  0  0  0  0  0  0  0  0
   11.7310   39.5364   30.3532 H   0  0  0  0  0  0  0  0  0  0  0  0
   10.1203   38.2695   32.6411 H   0  0  0  0  0  0  0  0  0  0  0  0
   13.6849   37.4637   31.2321 H   0  0  0  0  0  0  0  0  0  0  0  0
   10.0248   38.1791   29.7654 H   0  0  0  0  0  0  0  0  0  0  0  0
   11.2757   36.3135   32.4907 H   0  0  0  0  0  0  0  0  0  0  0  0
   11.9836   36.9112   29.7708 H   0  0  0  0  0  0  0  0  0  0  0  0
   12.3307   38.3536   34.7457 H   0  0  0  0  0  0  0  0  0  0  0  0
   16.7566   34.1787   32.4623 H   0  0  0  0  0  0  0  0  0  0  0  0
   15.3534   35.7354   37.5144 H   0  0  0  0  0  0  0  0  0  0  0  0
   16.6352   34.5300   37.1417 H   0  0  0  0  0  0  0  0  0  0  0  0
  1  2  2  0
  1  3  1  0
  3  4  1  0
  4  5  1  0
  6  1  1  0
  7  6  1  0
  6  8  1  0
  8  9  1  0
  9 10  2  0
 11  9  1  0
 10 12  1  0
 13 11  2  0
 12 14  2  0
 14 13  1  0
 14 15  1  0
 15 16  1  0
 16 17  1  0
 16 18  1  0
 18 19  2  0
 20 18  1  0
 19 21  1  0
 22 20  2  0
 20 23  1  0
 21 24  1  0
 21 25  2  0
 25 22  1  0
 23 26  1  0
 23 27  2  0
 24 28  1  0
 25 29  1  0
 28 29  1  0
  4 30  2  0
  4 31  1  0
 32 31  1  0
 32 33  1  0
 33 34  1  0
 33 35  1  0
 34 36  1  0
 35 37  1  0
 35 38  1  0
 38 36  1  0
 36 39  1  0
 38 40  1  0
 41 39  1  0
 42 39  1  0
 43 41  2  0
 41 44  1  0
 45 42  2  0
 46 43  1  0
 44 47  2  0
 44 45  1  0
 48 46  2  0
 48 47  1  0
 47 49  1  0
  6 50  1  1
  7 51  1  0
  7 52  1  0
  8 53  1  0
  8 54  1  0
 10 55  1  0
 11 56  1  0
 12 57  1  0
 13 58  1  0
 16 59  1  6
 17 60  1  0
 17 61  1  0
 17 62  1  0
 19 63  1  0
 22 64  1  0
 28 65  1  0
 28 66  1  0
 32 67  1  0
 32 68  1  0
 33 69  1  0
 35 70  1  0
 36 71  1  0
 37 72  1  0
 38 73  1  0
 40 74  1  0
 42 75  1  0
 46 76  1  0
 49 77  1  0
 49 78  1  0
M  CHG  3   5  -1  23   1  26  -1
M  END
>  <EmbedRMS>  (96) 
0.0818711317745

$$$$

     RDKit          3D

 78 83  0  0  0  0  0  0  0  0999 V2000
   10.2802   43.7666   33.8251 C   0  0  0  0  0  0  0  0  0  0  0  0
   11.4110   43.5920   34.3666 O   0  0  0  0  0  0  0  0  0  0  0  0
    9.3616   42.7252   33.7349 O   0  0  0  0  0  0  0  0  0  0  0  0
    9.8896   41.2269   34.2945 P   0  0  0  0  0  0  0  0  0  0  0  0
   10.3732   41.4568   35.8838 O   0  0  0  0  0  0  0  0  0  0  0  0
    9.9457   45.0737   33.2113 C   0  0  1  0  0  0  0  0  0  0  0  0
   11.0265   46.0293   33.4705 N   0  0  0  0  0  0  0  0  0  0  0  0
    9.7534   44.8538   31.6951 C   0  0  0  0  0  0  0  0  0  0  0  0
    8.7955   45.8410   31.0848 C   0  0  0  0  0  0  0  0  0  0  0  0
    7.4087   45.6002   31.1002 C   0  0  0  0  0  0  0  0  0  0  0  0
    9.2831   46.9874   30.4395 C   0  0  0  0  0  0  0  0  0  0  0  0
    6.5282   46.5007   30.4848 C   0  0  0  0  0  0  0  0  0  0  0  0
    8.4028   47.8886   29.8297 C   0  0  0  0  0  0  0  0  0  0  0  0
    7.0136   47.6520   29.8499 C   0  0  0  0  0  0  0  0  0  0  0  0
    6.0852   48.5287   29.2642 O   0  0  0  0  0  0  0  0  0  0  0  0
    6.4041   49.7793   28.6498 C   0  0  1  0  0  0  0  0  0  0  0  0
    5.1820   50.3207   27.9089 C   0  0  0  0  0  0  0  0  0  0  0  0
    6.9176   50.8016   29.6538 C   0  0  0  0  0  0  0  0  0  0  0  0
    7.8901   51.7238   29.1965 C   0  0  0  0  0  0  0  0  0  0  0  0
    6.5077   50.8437   31.0327 C   0  0  0  0  0  0  0  0  0  0  0  0
    8.4372   52.6208   30.1036 C   0  0  0  0  0  0  0  0  0  0  0  0
    7.1140   51.7697   31.9114 C   0  0  0  0  0  0  0  0  0  0  0  0
    5.5065   49.9622   31.5640 N   0  0  0  0  0  0  0  0  0  0  0  0
    9.3958   53.5905   29.8808 O   0  0  0  0  0  0  0  0  0  0  0  0
    8.0687   52.6400   31.4043 C   0  0  0  0  0  0  0  0  0  0  0  0
    5.6553   49.4467   32.8309 O   0  0  0  0  0  0  0  0  0  0  0  0
    4.4071   49.8345   30.9888 O   0  0  0  0  0  0  0  0  0  0  0  0
    9.6435   54.2613   31.1240 C   0  0  0  0  0  0  0  0  0  0  0  0
    8.7750   53.6232   32.0702 O   0  0  0  0  0  0  0  0  0  0  0  0
    8.8122   40.1844   34.2135 O   0  0  0  0  0  0  0  0  0  0  0  0
   11.2401   40.7950   33.3698 O   0  0  0  0  0  0  0  0  0  0  0  0
   10.9143   40.6914   31.9981 C   0  0  0  0  0  0  0  0  0  0  0  0
   11.5269   39.3912   31.4385 C   0  0  0  0  0  0  0  0  0  0  0  0
   12.7519   39.0911   32.0837 O   0  0  0  0  0  0  0  0  0  0  0  0
   10.6113   38.1932   31.6451 C   0  0  0  0  0  0  0  0  0  0  0  0
   12.9413   37.6838   32.0297 C   0  0  0  0  0  0  0  0  0  0  0  0
    9.6064   38.0878   30.6599 O   0  0  0  0  0  0  0  0  0  0  0  0
   11.5822   37.0197   31.6877 C   0  0  0  0  0  0  0  0  0  0  0  0
   13.4840   37.2104   33.3254 N   0  0  0  0  0  0  0  0  0  0  0  0
   11.6179   36.3072   30.4690 O   0  0  0  0  0  0  0  0  0  0  0  0
   14.4797   36.3309   33.5738 C   0  0  0  0  0  0  0  0  0  0  0  0
   13.1137   37.6269   34.5702 C   0  0  0  0  0  0  0  0  0  0  0  0
   15.2074   35.6152   32.6747 N   0  0  0  0  0  0  0  0  0  0  0  0
   14.6756   36.2298   34.9190 C   0  0  0  0  0  0  0  0  0  0  0  0
   13.8217   37.0445   35.5793 N   0  0  0  0  0  0  0  0  0  0  0  0
   16.1643   34.7603   33.1551 C   0  0  0  0  0  0  0  0  0  0  0  0
   15.6528   35.3503   35.4136 C   0  0  0  0  0  0  0  0  0  0  0  0
   16.3798   34.6316   34.5046 N   0  0  0  0  0  0  0  0  0  0  0  0
   15.9004   35.1930   36.8094 N   0  0  0  0  0  0  0  0  0  0  0  0
    8.9994   45.4384   33.6723 H   0  0  0  0  0  0  0  0  0  0  0  0
   11.0503   46.2279   34.4979 H   0  0  0  0  0  0  0  0  0  0  0  0
   10.7761   46.9370   33.0156 H   0  0  0  0  0  0  0  0  0  0  0  0
   10.7405   44.9068   31.1836 H   0  0  0  0  0  0  0  0  0  0  0  0
    9.3634   43.8352   31.4717 H   0  0  0  0  0  0  0  0  0  0  0  0
    7.0129   44.7162   31.5848 H   0  0  0  0  0  0  0  0  0  0  0  0
   10.3473   47.1856   30.4058 H   0  0  0  0  0  0  0  0  0  0  0  0
    5.4635   46.3059   30.5074 H   0  0  0  0  0  0  0  0  0  0  0  0
    8.8157   48.7615   29.3446 H   0  0  0  0  0  0  0  0  0  0  0  0
    7.1810   49.5897   27.8753 H   0  0  0  0  0  0  0  0  0  0  0  0
    5.4558   51.2359   27.3414 H   0  0  0  0  0  0  0  0  0  0  0  0
    4.3608   50.5722   28.6090 H   0  0  0  0  0  0  0  0  0  0  0  0
    4.8134   49.5601   27.1883 H   0  0  0  0  0  0  0  0  0  0  0  0
    8.2224   51.7304   28.1659 H   0  0  0  0  0  0  0  0  0  0  0  0
    6.8340   51.8210   32.9558 H   0  0  0  0  0  0  0  0  0  0  0  0
   10.7033   54.1295   31.4271 H   0  0  0  0  0  0  0  0  0  0  0  0
    9.3894   55.3385   31.0364 H   0  0  0  0  0  0  0  0  0  0  0  0
   11.3774   41.5548   31.4741 H   0  0  0  0  0  0  0  0  0  0  0  0
    9.8233   40.7200   31.7652 H   0  0  0  0  0  0  0  0  0  0  0  0
   11.7312   39.5361   30.3532 H   0  0  0  0  0  0  0  0  0  0  0  0
   10.1203   38.2696   32.6410 H   0  0  0  0  0  0  0  0  0  0  0  0
   13.6850   37.4639   31.2321 H   0  0  0  0  0  0  0  0  0  0  0  0
   10.0251   38.1792   29.7654 H   0  0  0  0  0  0  0  0  0  0  0  0
   11.2757   36.3135   32.4907 H   0  0  0  0  0  0  0  0  0  0  0  0
   11.9838   36.9111   29.7708 H   0  0  0  0  0  0  0  0  0  0  0  0
   12.3307   38.3536   34.7458 H   0  0  0  0  0  0  0  0  0  0  0  0
   16.7566   34.1787   32.4623 H   0  0  0  0  0  0  0  0  0  0  0  0
   16.6353   34.5301   37.1418 H   0  0  0  0  0  0  0  0  0  0  0  0
   15.3535   35.7355   37.5144 H   0  0  0  0  0  0  0  0  0  0  0  0
  1  2  2  0
  1  3  1  0
  3  4  1  0
  4  5  1  0
  6  1  1  0
  7  6  1  0
  6  8  1  0
  8  9  1  0
  9 10  2  0
 11  9  1  0
 10 12  1  0
 13 11  2  0
 12 14  2  0
 14 13  1  0
 14 15  1  0
 15 16  1  0
 16 17  1  0
 16 18  1  0
 18 19  2  0
 20 18  1  0
 19 21  1  0
 22 20  2  0
 20 23  1  0
 21 24  1  0
 21 25  2  0
 25 22  1  0
 23 26  1  0
 23 27  2  0
 24 28  1  0
 25 29  1  0
 28 29  1  0
  4 30  2  0
  4 31  1  0
 32 31  1  0
 32 33  1  0
 33 34  1  0
 33 35  1  0
 34 36  1  0
 35 37  1  0
 35 38  1  0
 38 36  1  0
 36 39  1  0
 38 40  1  0
 41 39  1  0
 42 39  1  0
 43 41  2  0
 41 44  1  0
 45 42  2  0
 46 43  1  0
 44 47  2  0
 44 45  1  0
 48 46  2  0
 48 47  1  0
 47 49  1  0
  6 50  1  1
  7 51  1  0
  7 52  1  0
  8 53  1  0
  8 54  1  0
 10 55  1  0
 11 56  1  0
 12 57  1  0
 13 58  1  0
 16 59  1  6
 17 60  1  0
 17 61  1  0
 17 62  1  0
 19 63  1  0
 22 64  1  0
 28 65  1  0
 28 66  1  0
 32 67  1  0
 32 68  1  0
 33 69  1  0
 35 70  1  0
 36 71  1  0
 37 72  1  0
 38 73  1  0
 40 74  1  0
 42 75  1  0
 46 76  1  0
 49 77  1  0
 49 78  1  0
M  CHG  3   5  -1  23   1  26  -1
M  END
>  <EmbedRMS>  (97) 
0.0806640562516

$$$$

     RDKit          3D

 78 83  0  0  0  0  0  0  0  0999 V2000
   10.2805   43.7664   33.8250 C   0  0  0  0  0  0  0  0  0  0  0  0
   11.4112   43.5919   34.3668 O   0  0  0  0  0  0  0  0  0  0  0  0
    9.3622   42.7247   33.7343 O   0  0  0  0  0  0  0  0  0  0  0  0
    9.8904   41.2264   34.2937 P   0  0  0  0  0  0  0  0  0  0  0  0
   10.3732   41.4564   35.8832 O   0  0  0  0  0  0  0  0  0  0  0  0
    9.9458   45.0736   33.2113 C   0  0  1  0  0  0  0  0  0  0  0  0
   11.0266   46.0292   33.4706 N   0  0  0  0  0  0  0  0  0  0  0  0
    9.7534   44.8539   31.6952 C   0  0  0  0  0  0  0  0  0  0  0  0
    8.7954   45.8412   31.0853 C   0  0  0  0  0  0  0  0  0  0  0  0
    7.4088   45.6001   31.1001 C   0  0  0  0  0  0  0  0  0  0  0  0
    9.2828   46.9873   30.4394 C   0  0  0  0  0  0  0  0  0  0  0  0
    6.5286   46.5004   30.4841 C   0  0  0  0  0  0  0  0  0  0  0  0
    8.4024   47.8883   29.8293 C   0  0  0  0  0  0  0  0  0  0  0  0
    7.0134   47.6529   29.8504 C   0  0  0  0  0  0  0  0  0  0  0  0
    6.0838   48.5247   29.2597 O   0  0  0  0  0  0  0  0  0  0  0  0
    6.3808   49.8071   28.7058 C   0  0  1  0  0  0  0  0  0  0  0  0
    5.1723   50.3163   27.9194 C   0  0  0  0  0  0  0  0  0  0  0  0
    6.7905   50.8001   29.7855 C   0  0  0  0  0  0  0  0  0  0  0  0
    8.0398   51.4531   29.6420 C   0  0  0  0  0  0  0  0  0  0  0  0
    5.9488   51.1450   30.8993 C   0  0  0  0  0  0  0  0  0  0  0  0
    8.4093   52.4020   30.5857 C   0  0  0  0  0  0  0  0  0  0  0  0
    6.3721   52.1311   31.8177 C   0  0  0  0  0  0  0  0  0  0  0  0
    4.6640   50.5413   31.1018 N   0  0  0  0  0  0  0  0  0  0  0  0
    9.5695   53.1502   30.6425 O   0  0  0  0  0  0  0  0  0  0  0  0
    7.6103   52.7277   31.6266 C   0  0  0  0  0  0  0  0  0  0  0  0
    3.5889   51.3359   31.4259 O   0  0  0  0  0  0  0  0  0  0  0  0
    4.5692   49.3084   31.2643 O   0  0  0  0  0  0  0  0  0  0  0  0
    9.4924   53.9987   31.7961 C   0  0  0  0  0  0  0  0  0  0  0  0
    8.2249   53.6973   32.3954 O   0  0  0  0  0  0  0  0  0  0  0  0
    8.8129   40.1841   34.2124 O   0  0  0  0  0  0  0  0  0  0  0  0
   11.2419   40.7944   33.3695 O   0  0  0  0  0  0  0  0  0  0  0  0
   10.9186   40.6911   31.9970 C   0  0  0  0  0  0  0  0  0  0  0  0
   11.5172   39.3814   31.4407 C   0  0  0  0  0  0  0  0  0  0  0  0
   12.7492   39.0856   32.0729 O   0  0  0  0  0  0  0  0  0  0  0  0
   10.6023   38.1908   31.6665 C   0  0  0  0  0  0  0  0  0  0  0  0
   12.9319   37.6781   32.0281 C   0  0  0  0  0  0  0  0  0  0  0  0
    9.6392   38.0797   30.6452 O   0  0  0  0  0  0  0  0  0  0  0  0
   11.5715   37.0165   31.7056 C   0  0  0  0  0  0  0  0  0  0  0  0
   13.4847   37.2121   33.3235 N   0  0  0  0  0  0  0  0  0  0  0  0
   11.6187   36.3384   30.4695 O   0  0  0  0  0  0  0  0  0  0  0  0
   14.4801   36.3321   33.5724 C   0  0  0  0  0  0  0  0  0  0  0  0
   13.1137   37.6276   34.5688 C   0  0  0  0  0  0  0  0  0  0  0  0
   15.2073   35.6153   32.6738 N   0  0  0  0  0  0  0  0  0  0  0  0
   14.6759   36.2308   34.9179 C   0  0  0  0  0  0  0  0  0  0  0  0
   13.8216   37.0452   35.5781 N   0  0  0  0  0  0  0  0  0  0  0  0
   16.1640   34.7602   33.1546 C   0  0  0  0  0  0  0  0  0  0  0  0
   15.6526   35.3508   35.4129 C   0  0  0  0  0  0  0  0  0  0  0  0
   16.3794   34.6317   34.5041 N   0  0  0  0  0  0  0  0  0  0  0  0
   15.8999   35.1934   36.8088 N   0  0  0  0  0  0  0  0  0  0  0  0
    8.9995   45.4381   33.6725 H   0  0  0  0  0  0  0  0  0  0  0  0
   10.7761   46.9369   33.0156 H   0  0  0  0  0  0  0  0  0  0  0  0
   11.0503   46.2279   34.4980 H   0  0  0  0  0  0  0  0  0  0  0  0
   10.7405   44.9069   31.1836 H   0  0  0  0  0  0  0  0  0  0  0  0
    9.3633   43.8353   31.4717 H   0  0  0  0  0  0  0  0  0  0  0  0
    7.0130   44.7157   31.5839 H   0  0  0  0  0  0  0  0  0  0  0  0
   10.3473   47.1842   30.4033 H   0  0  0  0  0  0  0  0  0  0  0  0
    5.4641   46.3038   30.5046 H   0  0  0  0  0  0  0  0  0  0  0  0
    8.8170   48.7537   29.3354 H   0  0  0  0  0  0  0  0  0  0  0  0
    7.1975   49.6844   27.9599 H   0  0  0  0  0  0  0  0  0  0  0  0
    4.2652   50.3639   28.5551 H   0  0  0  0  0  0  0  0  0  0  0  0
    4.9633   49.6289   27.0723 H   0  0  0  0  0  0  0  0  0  0  0  0
    5.3808   51.3268   27.5073 H   0  0  0  0  0  0  0  0  0  0  0  0
    8.7022   51.2379   28.8132 H   0  0  0  0  0  0  0  0  0  0  0  0
    5.7563   52.4137   32.6620 H   0  0  0  0  0  0  0  0  0  0  0  0
   10.3159   53.7626   32.5022 H   0  0  0  0  0  0  0  0  0  0  0  0
    9.5281   55.0656   31.4911 H   0  0  0  0  0  0  0  0  0  0  0  0
   11.3967   41.5460   31.4726 H   0  0  0  0  0  0  0  0  0  0  0  0
    9.8298   40.7409   31.7611 H   0  0  0  0  0  0  0  0  0  0  0  0
   11.6975   39.5066   30.3481 H   0  0  0  0  0  0  0  0  0  0  0  0
   10.1077   38.2648   32.6645 H   0  0  0  0  0  0  0  0  0  0  0  0
   13.6621   37.4468   31.2209 H   0  0  0  0  0  0  0  0  0  0  0  0
    8.8974   38.6942   30.8832 H   0  0  0  0  0  0  0  0  0  0  0  0
   11.2806   36.3073   32.5170 H   0  0  0  0  0  0  0  0  0  0  0  0
   10.8493   35.7110   30.4586 H   0  0  0  0  0  0  0  0  0  0  0  0
   12.3290   38.3524   34.7444 H   0  0  0  0  0  0  0  0  0  0  0  0
   16.7559   34.1780   32.4619 H   0  0  0  0  0  0  0  0  0  0  0  0
   15.3532   35.7362   37.5137 H   0  0  0  0  0  0  0  0  0  0  0  0
   16.6344   34.5301   37.1414 H   0  0  0  0  0  0  0  0  0  0  0  0
  1  2  2  0
  1  3  1  0
  3  4  1  0
  4  5  1  0
  6  1  1  0
  7  6  1  0
  6  8  1  0
  8  9  1  0
  9 10  2  0
 11  9  1  0
 10 12  1  0
 13 11  2  0
 12 14  2  0
 14 13  1  0
 14 15  1  0
 15 16  1  0
 16 17  1  0
 16 18  1  0
 18 19  2  0
 20 18  1  0
 19 21  1  0
 22 20  2  0
 20 23  1  0
 21 24  1  0
 21 25  2  0
 25 22  1  0
 23 26  1  0
 23 27  2  0
 24 28  1  0
 25 29  1  0
 28 29  1  0
  4 30  2  0
  4 31  1  0
 32 31  1  0
 32 33  1  0
 33 34  1  0
 33 35  1  0
 34 36  1  0
 35 37  1  0
 35 38  1  0
 38 36  1  0
 36 39  1  0
 38 40  1  0
 41 39  1  0
 42 39  1  0
 43 41  2  0
 41 44  1  0
 45 42  2  0
 46 43  1  0
 44 47  2  0
 44 45  1  0
 48 46  2  0
 48 47  1  0
 47 49  1  0
  6 50  1  1
  7 51  1  0
  7 52  1  0
  8 53  1  0
  8 54  1  0
 10 55  1  0
 11 56  1  0
 12 57  1  0
 13 58  1  0
 16 59  1  6
 17 60  1  0
 17 61  1  0
 17 62  1  0
 19 63  1  0
 22 64  1  0
 28 65  1  0
 28 66  1  0
 32 67  1  0
 32 68  1  0
 33 69  1  0
 35 70  1  0
 36 71  1  0
 37 72  1  0
 38 73  1  0
 40 74  1  0
 42 75  1  0
 46 76  1  0
 49 77  1  0
 49 78  1  0
M  CHG  3   5  -1  23   1  26  -1
M  END
>  <EmbedRMS>  (98) 
0.0827689016812

$$$$

     RDKit          3D

 78 83  0  0  0  0  0  0  0  0999 V2000
   10.2804   43.7664   33.8250 C   0  0  0  0  0  0  0  0  0  0  0  0
   11.4111   43.5918   34.3667 O   0  0  0  0  0  0  0  0  0  0  0  0
    9.3619   42.7249   33.7345 O   0  0  0  0  0  0  0  0  0  0  0  0
    9.8900   41.2266   34.2940 P   0  0  0  0  0  0  0  0  0  0  0  0
   10.3734   41.4566   35.8833 O   0  0  0  0  0  0  0  0  0  0  0  0
    9.9459   45.0735   33.2111 C   0  0  1  0  0  0  0  0  0  0  0  0
   11.0267   46.0291   33.4706 N   0  0  0  0  0  0  0  0  0  0  0  0
    9.7537   44.8537   31.6949 C   0  0  0  0  0  0  0  0  0  0  0  0
    8.7956   45.8408   31.0845 C   0  0  0  0  0  0  0  0  0  0  0  0
    7.4090   45.6006   31.1011 C   0  0  0  0  0  0  0  0  0  0  0  0
    9.2827   46.9876   30.4401 C   0  0  0  0  0  0  0  0  0  0  0  0
    6.5286   46.5014   30.4864 C   0  0  0  0  0  0  0  0  0  0  0  0
    8.4024   47.8898   29.8310 C   0  0  0  0  0  0  0  0  0  0  0  0
    7.0129   47.6507   29.8460 C   0  0  0  0  0  0  0  0  0  0  0  0
    6.0795   48.5178   29.2538 O   0  0  0  0  0  0  0  0  0  0  0  0
    6.3831   49.6662   28.4574 C   0  0  1  0  0  0  0  0  0  0  0  0
    6.8820   49.2385   27.0706 C   0  0  0  0  0  0  0  0  0  0  0  0
    5.1300   50.5143   28.3289 C   0  0  0  0  0  0  0  0  0  0  0  0
    3.9684   49.9238   27.7710 C   0  0  0  0  0  0  0  0  0  0  0  0
    5.0938   51.8970   28.7123 C   0  0  0  0  0  0  0  0  0  0  0  0
    2.8466   50.7186   27.5753 C   0  0  0  0  0  0  0  0  0  0  0  0
    3.9298   52.6606   28.4717 C   0  0  0  0  0  0  0  0  0  0  0  0
    6.2047   52.5326   29.3593 N   0  0  0  0  0  0  0  0  0  0  0  0
    1.6228   50.3612   27.0428 O   0  0  0  0  0  0  0  0  0  0  0  0
    2.8302   52.0305   27.9049 C   0  0  0  0  0  0  0  0  0  0  0  0
    6.5578   53.8126   28.9999 O   0  0  0  0  0  0  0  0  0  0  0  0
    6.6598   52.0579   30.4204 O   0  0  0  0  0  0  0  0  0  0  0  0
    0.7851   51.5253   27.0389 C   0  0  0  0  0  0  0  0  0  0  0  0
    1.5952   52.5684   27.5979 O   0  0  0  0  0  0  0  0  0  0  0  0
    8.8124   40.1844   34.2133 O   0  0  0  0  0  0  0  0  0  0  0  0
   11.2405   40.7942   33.3692 O   0  0  0  0  0  0  0  0  0  0  0  0
   10.9151   40.6905   31.9972 C   0  0  0  0  0  0  0  0  0  0  0  0
   11.5252   39.3886   31.4375 C   0  0  0  0  0  0  0  0  0  0  0  0
   12.7499   39.0874   32.0799 O   0  0  0  0  0  0  0  0  0  0  0  0
   10.6092   38.1926   31.6470 C   0  0  0  0  0  0  0  0  0  0  0  0
   12.9332   37.6793   32.0294 C   0  0  0  0  0  0  0  0  0  0  0  0
    9.6122   38.0894   30.6543 O   0  0  0  0  0  0  0  0  0  0  0  0
   11.5743   37.0145   31.7024 C   0  0  0  0  0  0  0  0  0  0  0  0
   13.4844   37.2108   33.3241 N   0  0  0  0  0  0  0  0  0  0  0  0
   11.6297   36.3239   30.4740 O   0  0  0  0  0  0  0  0  0  0  0  0
   14.4802   36.3313   33.5727 C   0  0  0  0  0  0  0  0  0  0  0  0
   13.1138   37.6267   34.5692 C   0  0  0  0  0  0  0  0  0  0  0  0
   15.2075   35.6149   32.6739 N   0  0  0  0  0  0  0  0  0  0  0  0
   14.6761   36.2303   34.9181 C   0  0  0  0  0  0  0  0  0  0  0  0
   13.8220   37.0447   35.5785 N   0  0  0  0  0  0  0  0  0  0  0  0
   16.1643   34.7600   33.1547 C   0  0  0  0  0  0  0  0  0  0  0  0
   15.6529   35.3505   35.4130 C   0  0  0  0  0  0  0  0  0  0  0  0
   16.3797   34.6315   34.5042 N   0  0  0  0  0  0  0  0  0  0  0  0
   15.9002   35.1932   36.8090 N   0  0  0  0  0  0  0  0  0  0  0  0
    8.9996   45.4381   33.6722 H   0  0  0  0  0  0  0  0  0  0  0  0
   11.0504   46.2276   34.4980 H   0  0  0  0  0  0  0  0  0  0  0  0
   10.7763   46.9368   33.0157 H   0  0  0  0  0  0  0  0  0  0  0  0
   10.7408   44.9069   31.1835 H   0  0  0  0  0  0  0  0  0  0  0  0
    9.3638   43.8351   31.4714 H   0  0  0  0  0  0  0  0  0  0  0  0
    7.0133   44.7166   31.5859 H   0  0  0  0  0  0  0  0  0  0  0  0
   10.3469   47.1869   30.4085 H   0  0  0  0  0  0  0  0  0  0  0  0
    5.4642   46.3043   30.5072 H   0  0  0  0  0  0  0  0  0  0  0  0
    8.8193   48.7650   29.3553 H   0  0  0  0  0  0  0  0  0  0  0  0
    7.1929   50.2459   28.9363 H   0  0  0  0  0  0  0  0  0  0  0  0
    7.0390   50.1322   26.4294 H   0  0  0  0  0  0  0  0  0  0  0  0
    6.1533   48.5618   26.5771 H   0  0  0  0  0  0  0  0  0  0  0  0
    7.8482   48.7004   27.1535 H   0  0  0  0  0  0  0  0  0  0  0  0
    3.9442   48.8797   27.4863 H   0  0  0  0  0  0  0  0  0  0  0  0
    3.8767   53.7066   28.7449 H   0  0  0  0  0  0  0  0  0  0  0  0
    0.4913   51.7834   25.9999 H   0  0  0  0  0  0  0  0  0  0  0  0
   -0.1112   51.3555   27.6715 H   0  0  0  0  0  0  0  0  0  0  0  0
   11.3801   41.5528   31.4730 H   0  0  0  0  0  0  0  0  0  0  0  0
    9.8242   40.7215   31.7641 H   0  0  0  0  0  0  0  0  0  0  0  0
   11.7266   39.5310   30.3512 H   0  0  0  0  0  0  0  0  0  0  0  0
   10.1110   38.2747   32.6387 H   0  0  0  0  0  0  0  0  0  0  0  0
   13.6652   37.4520   31.2226 H   0  0  0  0  0  0  0  0  0  0  0  0
   10.0511   38.1142   29.7645 H   0  0  0  0  0  0  0  0  0  0  0  0
   11.2762   36.3142   32.5190 H   0  0  0  0  0  0  0  0  0  0  0  0
   10.8593   35.6978   30.4640 H   0  0  0  0  0  0  0  0  0  0  0  0
   12.3295   38.3518   34.7449 H   0  0  0  0  0  0  0  0  0  0  0  0
   16.7563   34.1779   32.4620 H   0  0  0  0  0  0  0  0  0  0  0  0
   16.6348   34.5300   37.1415 H   0  0  0  0  0  0  0  0  0  0  0  0
   15.3534   35.7359   37.5138 H   0  0  0  0  0  0  0  0  0  0  0  0
  1  2  2  0
  1  3  1  0
  3  4  1  0
  4  5  1  0
  6  1  1  0
  7  6  1  0
  6  8  1  0
  8  9  1  0
  9 10  2  0
 11  9  1  0
 10 12  1  0
 13 11  2  0
 12 14  2  0
 14 13  1  0
 14 15  1  0
 15 16  1  0
 16 17  1  0
 16 18  1  0
 18 19  2  0
 20 18  1  0
 19 21  1  0
 22 20  2  0
 20 23  1  0
 21 24  1  0
 21 25  2  0
 25 22  1  0
 23 26  1  0
 23 27  2  0
 24 28  1  0
 25 29  1  0
 28 29  1  0
  4 30  2  0
  4 31  1  0
 32 31  1  0
 32 33  1  0
 33 34  1  0
 33 35  1  0
 34 36  1  0
 35 37  1  0
 35 38  1  0
 38 36  1  0
 36 39  1  0
 38 40  1  0
 41 39  1  0
 42 39  1  0
 43 41  2  0
 41 44  1  0
 45 42  2  0
 46 43  1  0
 44 47  2  0
 44 45  1  0
 48 46  2  0
 48 47  1  0
 47 49  1  0
  6 50  1  1
  7 51  1  0
  7 52  1  0
  8 53  1  0
  8 54  1  0
 10 55  1  0
 11 56  1  0
 12 57  1  0
 13 58  1  0
 16 59  1  1
 17 60  1  0
 17 61  1  0
 17 62  1  0
 19 63  1  0
 22 64  1  0
 28 65  1  0
 28 66  1  0
 32 67  1  0
 32 68  1  0
 33 69  1  0
 35 70  1  0
 36 71  1  0
 37 72  1  0
 38 73  1  0
 40 74  1  0
 42 75  1  0
 46 76  1  0
 49 77  1  0
 49 78  1  0
M  CHG  3   5  -1  23   1  26  -1
M  END
>  <EmbedRMS>  (99) 
0.0816417414968

$$$$

     RDKit          3D

 78 83  0  0  0  0  0  0  0  0999 V2000
   10.2835   43.7662   33.8257 C   0  0  0  0  0  0  0  0  0  0  0  0
   11.4103   43.5930   34.3753 O   0  0  0  0  0  0  0  0  0  0  0  0
    9.3638   42.7255   33.7351 O   0  0  0  0  0  0  0  0  0  0  0  0
    9.8903   41.2268   34.2946 P   0  0  0  0  0  0  0  0  0  0  0  0
   10.3728   41.4561   35.8842 O   0  0  0  0  0  0  0  0  0  0  0  0
    9.9548   45.0695   33.2036 C   0  0  1  0  0  0  0  0  0  0  0  0
   11.0274   46.0322   33.4760 N   0  0  0  0  0  0  0  0  0  0  0  0
    9.7471   44.8483   31.6876 C   0  0  0  0  0  0  0  0  0  0  0  0
    8.7926   45.8410   31.0846 C   0  0  0  0  0  0  0  0  0  0  0  0
    7.4060   45.6010   31.0991 C   0  0  0  0  0  0  0  0  0  0  0  0
    9.2817   46.9875   30.4419 C   0  0  0  0  0  0  0  0  0  0  0  0
    6.5242   46.5006   30.4842 C   0  0  0  0  0  0  0  0  0  0  0  0
    8.4005   47.8875   29.8319 C   0  0  0  0  0  0  0  0  0  0  0  0
    7.0183   47.6580   29.8467 C   0  0  0  0  0  0  0  0  0  0  0  0
    6.1871   48.5967   29.2125 O   0  0  0  0  0  0  0  0  0  0  0  0
    4.7551   48.5890   29.2083 C   0  0  1  0  0  0  0  0  0  0  0  0
    4.2275   49.0370   30.5760 C   0  0  0  0  0  0  0  0  0  0  0  0
    4.2216   49.5169   28.1260 C   0  0  0  0  0  0  0  0  0  0  0  0
    5.0529   50.5513   27.6212 C   0  0  0  0  0  0  0  0  0  0  0  0
    2.8604   49.4369   27.6718 C   0  0  0  0  0  0  0  0  0  0  0  0
    4.5213   51.4433   26.6992 C   0  0  0  0  0  0  0  0  0  0  0  0
    2.3727   50.3838   26.7439 C   0  0  0  0  0  0  0  0  0  0  0  0
    1.9584   48.4293   28.1528 N   0  0  0  0  0  0  0  0  0  0  0  0
    5.1425   52.5128   26.0832 O   0  0  0  0  0  0  0  0  0  0  0  0
    3.2383   51.3640   26.2802 C   0  0  0  0  0  0  0  0  0  0  0  0
    0.6586   48.7692   28.4490 O   0  0  0  0  0  0  0  0  0  0  0  0
    2.2556   47.2216   28.0549 O   0  0  0  0  0  0  0  0  0  0  0  0
    4.1863   53.1424   25.2195 C   0  0  0  0  0  0  0  0  0  0  0  0
    2.9836   52.3773   25.3762 O   0  0  0  0  0  0  0  0  0  0  0  0
    8.8125   40.1848   34.2126 O   0  0  0  0  0  0  0  0  0  0  0  0
   11.2416   40.7948   33.3707 O   0  0  0  0  0  0  0  0  0  0  0  0
   10.9179   40.6922   31.9984 C   0  0  0  0  0  0  0  0  0  0  0  0
   11.5175   39.3837   31.4423 C   0  0  0  0  0  0  0  0  0  0  0  0
   12.7508   39.0887   32.0752 O   0  0  0  0  0  0  0  0  0  0  0  0
   10.6028   38.1916   31.6659 C   0  0  0  0  0  0  0  0  0  0  0  0
   12.9384   37.6818   32.0278 C   0  0  0  0  0  0  0  0  0  0  0  0
    9.6371   38.0806   30.6470 O   0  0  0  0  0  0  0  0  0  0  0  0
   11.5780   37.0215   31.6935 C   0  0  0  0  0  0  0  0  0  0  0  0
   13.4844   37.2119   33.3242 N   0  0  0  0  0  0  0  0  0  0  0  0
   11.6095   36.3201   30.4679 O   0  0  0  0  0  0  0  0  0  0  0  0
   14.4797   36.3318   33.5730 C   0  0  0  0  0  0  0  0  0  0  0  0
   13.1135   37.6278   34.5691 C   0  0  0  0  0  0  0  0  0  0  0  0
   15.2073   35.6155   32.6743 N   0  0  0  0  0  0  0  0  0  0  0  0
   14.6754   36.2305   34.9184 C   0  0  0  0  0  0  0  0  0  0  0  0
   13.8213   37.0452   35.5785 N   0  0  0  0  0  0  0  0  0  0  0  0
   16.1640   34.7604   33.1549 C   0  0  0  0  0  0  0  0  0  0  0  0
   15.6525   35.3507   35.4132 C   0  0  0  0  0  0  0  0  0  0  0  0
   16.3794   34.6318   34.5044 N   0  0  0  0  0  0  0  0  0  0  0  0
   15.9000   35.1934   36.8091 N   0  0  0  0  0  0  0  0  0  0  0  0
    9.0121   45.4317   33.6713 H   0  0  0  0  0  0  0  0  0  0  0  0
   10.7261   46.9688   33.1215 H   0  0  0  0  0  0  0  0  0  0  0  0
   11.8908   45.7659   32.9476 H   0  0  0  0  0  0  0  0  0  0  0  0
    9.3425   43.8331   31.4759 H   0  0  0  0  0  0  0  0  0  0  0  0
   10.7236   44.8823   31.1558 H   0  0  0  0  0  0  0  0  0  0  0  0
    7.0106   44.7151   31.5808 H   0  0  0  0  0  0  0  0  0  0  0  0
   10.3461   47.1856   30.4097 H   0  0  0  0  0  0  0  0  0  0  0  0
    5.4674   46.2794   30.5124 H   0  0  0  0  0  0  0  0  0  0  0  0
    8.7944   48.7689   29.3417 H   0  0  0  0  0  0  0  0  0  0  0  0
    4.4200   47.5582   28.9888 H   0  0  0  0  0  0  0  0  0  0  0  0
    3.1181   49.0017   30.5970 H   0  0  0  0  0  0  0  0  0  0  0  0
    4.5596   50.0749   30.7929 H   0  0  0  0  0  0  0  0  0  0  0  0
    4.6066   48.3733   31.3795 H   0  0  0  0  0  0  0  0  0  0  0  0
    6.0766   50.6786   27.9474 H   0  0  0  0  0  0  0  0  0  0  0  0
    1.3511   50.3478   26.3879 H   0  0  0  0  0  0  0  0  0  0  0  0
    4.5335   53.0992   24.1659 H   0  0  0  0  0  0  0  0  0  0  0  0
    4.0162   54.1929   25.5359 H   0  0  0  0  0  0  0  0  0  0  0  0
    9.8291   40.7409   31.7627 H   0  0  0  0  0  0  0  0  0  0  0  0
   11.3952   41.5478   31.4744 H   0  0  0  0  0  0  0  0  0  0  0  0
   11.6981   39.5115   30.3501 H   0  0  0  0  0  0  0  0  0  0  0  0
   10.1117   38.2604   32.6661 H   0  0  0  0  0  0  0  0  0  0  0  0
   13.6767   37.4556   31.2267 H   0  0  0  0  0  0  0  0  0  0  0  0
    8.8961   38.6951   30.8872 H   0  0  0  0  0  0  0  0  0  0  0  0
   11.2791   36.3072   32.4922 H   0  0  0  0  0  0  0  0  0  0  0  0
   11.8828   36.9598   29.7588 H   0  0  0  0  0  0  0  0  0  0  0  0
   12.3300   38.3539   34.7446 H   0  0  0  0  0  0  0  0  0  0  0  0
   16.7562   34.1785   32.4622 H   0  0  0  0  0  0  0  0  0  0  0  0
   15.3531   35.7360   37.5140 H   0  0  0  0  0  0  0  0  0  0  0  0
   16.6347   34.5303   37.1416 H   0  0  0  0  0  0  0  0  0  0  0  0
  1  2  2  0
  1  3  1  0
  3  4  1  0
  4  5  1  0
  6  1  1  0
  7  6  1  0
  6  8  1  0
  8  9  1  0
  9 10  2  0
 11  9  1  0
 10 12  1  0
 13 11  2  0
 12 14  2  0
 14 13  1  0
 14 15  1  0
 15 16  1  0
 16 17  1  0
 16 18  1  0
 18 19  2  0
 20 18  1  0
 19 21  1  0
 22 20  2  0
 20 23  1  0
 21 24  1  0
 21 25  2  0
 25 22  1  0
 23 26  1  0
 23 27  2  0
 24 28  1  0
 25 29  1  0
 28 29  1  0
  4 30  2  0
  4 31  1  0
 32 31  1  0
 32 33  1  0
 33 34  1  0
 33 35  1  0
 34 36  1  0
 35 37  1  0
 35 38  1  0
 38 36  1  0
 36 39  1  0
 38 40  1  0
 41 39  1  0
 42 39  1  0
 43 41  2  0
 41 44  1  0
 45 42  2  0
 46 43  1  0
 44 47  2  0
 44 45  1  0
 48 46  2  0
 48 47  1  0
 47 49  1  0
  6 50  1  1
  7 51  1  0
  7 52  1  0
  8 53  1  0
  8 54  1  0
 10 55  1  0
 11 56  1  0
 12 57  1  0
 13 58  1  0
 16 59  1  6
 17 60  1  0
 17 61  1  0
 17 62  1  0
 19 63  1  0
 22 64  1  0
 28 65  1  0
 28 66  1  0
 32 67  1  0
 32 68  1  0
 33 69  1  0
 35 70  1  0
 36 71  1  0
 37 72  1  0
 38 73  1  0
 40 74  1  0
 42 75  1  0
 46 76  1  0
 49 77  1  0
 49 78  1  0
M  CHG  3   5  -1  23   1  26  -1
M  END
>  <EmbedRMS>  (100) 
0.0819477009931

$$$$

     RDKit          3D

 78 83  0  0  0  0  0  0  0  0999 V2000
   10.2837   43.7660   33.8257 C   0  0  0  0  0  0  0  0  0  0  0  0
   11.4104   43.5929   34.3754 O   0  0  0  0  0  0  0  0  0  0  0  0
    9.3641   42.7252   33.7347 O   0  0  0  0  0  0  0  0  0  0  0  0
    9.8908   41.2264   34.2939 P   0  0  0  0  0  0  0  0  0  0  0  0
   10.3732   41.4558   35.8836 O   0  0  0  0  0  0  0  0  0  0  0  0
    9.9548   45.0694   33.2038 C   0  0  1  0  0  0  0  0  0  0  0  0
   11.0275   46.0321   33.4757 N   0  0  0  0  0  0  0  0  0  0  0  0
    9.7464   44.8481   31.6880 C   0  0  0  0  0  0  0  0  0  0  0  0
    8.7922   45.8414   31.0858 C   0  0  0  0  0  0  0  0  0  0  0  0
    7.4059   45.6014   31.0986 C   0  0  0  0  0  0  0  0  0  0  0  0
    9.2820   46.9868   30.4416 C   0  0  0  0  0  0  0  0  0  0  0  0
    6.5277   46.5022   30.4816 C   0  0  0  0  0  0  0  0  0  0  0  0
    8.4032   47.8884   29.8303 C   0  0  0  0  0  0  0  0  0  0  0  0
    7.0128   47.6560   29.8500 C   0  0  0  0  0  0  0  0  0  0  0  0
    6.0770   48.5200   29.2477 O   0  0  0  0  0  0  0  0  0  0  0  0
    6.2897   49.8706   28.8035 C   0  0  1  0  0  0  0  0  0  0  0  0
    6.8950   50.7223   29.9383 C   0  0  0  0  0  0  0  0  0  0  0  0
    7.0700   49.9596   27.4890 C   0  0  0  0  0  0  0  0  0  0  0  0
    7.4935   48.7748   26.8286 C   0  0  0  0  0  0  0  0  0  0  0  0
    7.3779   51.2277   26.8852 C   0  0  0  0  0  0  0  0  0  0  0  0
    8.2654   48.8875   25.6802 C   0  0  0  0  0  0  0  0  0  0  0  0
    8.1827   51.2795   25.7243 C   0  0  0  0  0  0  0  0  0  0  0  0
    6.8521   52.4574   27.4053 N   0  0  0  0  0  0  0  0  0  0  0  0
    8.7991   47.8776   24.9028 O   0  0  0  0  0  0  0  0  0  0  0  0
    8.6043   50.0864   25.1574 C   0  0  0  0  0  0  0  0  0  0  0  0
    5.5020   52.5836   27.6362 O   0  0  0  0  0  0  0  0  0  0  0  0
    7.5651   53.4820   27.4231 O   0  0  0  0  0  0  0  0  0  0  0  0
    9.5224   48.4851   23.8239 C   0  0  0  0  0  0  0  0  0  0  0  0
    9.3711   49.8970   24.0239 O   0  0  0  0  0  0  0  0  0  0  0  0
    8.8127   40.1847   34.2122 O   0  0  0  0  0  0  0  0  0  0  0  0
   11.2421   40.7941   33.3697 O   0  0  0  0  0  0  0  0  0  0  0  0
   10.9187   40.6911   31.9971 C   0  0  0  0  0  0  0  0  0  0  0  0
   11.5172   39.3815   31.4407 C   0  0  0  0  0  0  0  0  0  0  0  0
   12.7493   39.0856   32.0728 O   0  0  0  0  0  0  0  0  0  0  0  0
   10.6023   38.1908   31.6665 C   0  0  0  0  0  0  0  0  0  0  0  0
   12.9319   37.6781   32.0281 C   0  0  0  0  0  0  0  0  0  0  0  0
    9.6392   38.0798   30.6452 O   0  0  0  0  0  0  0  0  0  0  0  0
   11.5715   37.0166   31.7056 C   0  0  0  0  0  0  0  0  0  0  0  0
   13.4846   37.2121   33.3235 N   0  0  0  0  0  0  0  0  0  0  0  0
   11.6187   36.3384   30.4695 O   0  0  0  0  0  0  0  0  0  0  0  0
   14.4801   36.3321   33.5724 C   0  0  0  0  0  0  0  0  0  0  0  0
   13.1137   37.6276   34.5688 C   0  0  0  0  0  0  0  0  0  0  0  0
   15.2073   35.6153   32.6738 N   0  0  0  0  0  0  0  0  0  0  0  0
   14.6759   36.2308   34.9179 C   0  0  0  0  0  0  0  0  0  0  0  0
   13.8217   37.0452   35.5781 N   0  0  0  0  0  0  0  0  0  0  0  0
   16.1640   34.7602   33.1546 C   0  0  0  0  0  0  0  0  0  0  0  0
   15.6526   35.3508   35.4129 C   0  0  0  0  0  0  0  0  0  0  0  0
   16.3794   34.6317   34.5041 N   0  0  0  0  0  0  0  0  0  0  0  0
   15.8999   35.1934   36.8088 N   0  0  0  0  0  0  0  0  0  0  0  0
    9.0123   45.4316   33.6720 H   0  0  0  0  0  0  0  0  0  0  0  0
   11.8907   45.7656   32.9471 H   0  0  0  0  0  0  0  0  0  0  0  0
   10.7261   46.9686   33.1211 H   0  0  0  0  0  0  0  0  0  0  0  0
    9.3409   43.8332   31.4765 H   0  0  0  0  0  0  0  0  0  0  0  0
   10.7226   44.8814   31.1559 H   0  0  0  0  0  0  0  0  0  0  0  0
    7.0085   44.7160   31.5793 H   0  0  0  0  0  0  0  0  0  0  0  0
   10.3472   47.1790   30.4026 H   0  0  0  0  0  0  0  0  0  0  0  0
    5.4634   46.3040   30.4978 H   0  0  0  0  0  0  0  0  0  0  0  0
    8.8230   48.7394   29.3177 H   0  0  0  0  0  0  0  0  0  0  0  0
    5.2769   50.2754   28.5993 H   0  0  0  0  0  0  0  0  0  0  0  0
    8.0022   50.7517   29.8877 H   0  0  0  0  0  0  0  0  0  0  0  0
    6.5241   51.7657   29.8908 H   0  0  0  0  0  0  0  0  0  0  0  0
    6.5913   50.3178   30.9272 H   0  0  0  0  0  0  0  0  0  0  0  0
    7.2414   47.7877   27.1869 H   0  0  0  0  0  0  0  0  0  0  0  0
    8.4385   52.2221   25.2575 H   0  0  0  0  0  0  0  0  0  0  0  0
    9.0815   48.1866   22.8497 H   0  0  0  0  0  0  0  0  0  0  0  0
   10.5952   48.2038   23.8741 H   0  0  0  0  0  0  0  0  0  0  0  0
   11.3968   41.5460   31.4729 H   0  0  0  0  0  0  0  0  0  0  0  0
    9.8299   40.7410   31.7613 H   0  0  0  0  0  0  0  0  0  0  0  0
   11.6975   39.5067   30.3481 H   0  0  0  0  0  0  0  0  0  0  0  0
   10.1076   38.2648   32.6645 H   0  0  0  0  0  0  0  0  0  0  0  0
   13.6622   37.4468   31.2209 H   0  0  0  0  0  0  0  0  0  0  0  0
    8.8975   38.6944   30.8831 H   0  0  0  0  0  0  0  0  0  0  0  0
   11.2806   36.3073   32.5170 H   0  0  0  0  0  0  0  0  0  0  0  0
   10.8492   35.7110   30.4586 H   0  0  0  0  0  0  0  0  0  0  0  0
   12.3291   38.3525   34.7444 H   0  0  0  0  0  0  0  0  0  0  0  0
   16.7559   34.1781   32.4619 H   0  0  0  0  0  0  0  0  0  0  0  0
   15.3532   35.7362   37.5137 H   0  0  0  0  0  0  0  0  0  0  0  0
   16.6345   34.5301   37.1414 H   0  0  0  0  0  0  0  0  0  0  0  0
  1  2  2  0
  1  3  1  0
  3  4  1  0
  4  5  1  0
  6  1  1  0
  7  6  1  0
  6  8  1  0
  8  9  1  0
  9 10  2  0
 11  9  1  0
 10 12  1  0
 13 11  2  0
 12 14  2  0
 14 13  1  0
 14 15  1  0
 15 16  1  0
 16 17  1  0
 16 18  1  0
 18 19  2  0
 20 18  1  0
 19 21  1  0
 22 20  2  0
 20 23  1  0
 21 24  1  0
 21 25  2  0
 25 22  1  0
 23 26  1  0
 23 27  2  0
 24 28  1  0
 25 29  1  0
 28 29  1  0
  4 30  2  0
  4 31  1  0
 32 31  1  0
 32 33  1  0
 33 34  1  0
 33 35  1  0
 34 36  1  0
 35 37  1  0
 35 38  1  0
 38 36  1  0
 36 39  1  0
 38 40  1  0
 41 39  1  0
 42 39  1  0
 43 41  2  0
 41 44  1  0
 45 42  2  0
 46 43  1  0
 44 47  2  0
 44 45  1  0
 48 46  2  0
 48 47  1  0
 47 49  1  0
  6 50  1  1
  7 51  1  0
  7 52  1  0
  8 53  1  0
  8 54  1  0
 10 55  1  0
 11 56  1  0
 12 57  1  0
 13 58  1  0
 16 59  1  6
 17 60  1  0
 17 61  1  0
 17 62  1  0
 19 63  1  0
 22 64  1  0
 28 65  1  0
 28 66  1  0
 32 67  1  0
 32 68  1  0
 33 69  1  0
 35 70  1  0
 36 71  1  0
 37 72  1  0
 38 73  1  0
 40 74  1  0
 42 75  1  0
 46 76  1  0
 49 77  1  0
 49 78  1  0
M  CHG  3   5  -1  23   1  26  -1
M  END
>  <EmbedRMS>  (101) 
0.0829205511993

$$$$

     RDKit          3D

 78 83  0  0  0  0  0  0  0  0999 V2000
   10.2836   43.7662   33.8258 C   0  0  0  0  0  0  0  0  0  0  0  0
   11.4104   43.5930   34.3753 O   0  0  0  0  0  0  0  0  0  0  0  0
    9.3638   42.7255   33.7351 O   0  0  0  0  0  0  0  0  0  0  0  0
    9.8904   41.2268   34.2946 P   0  0  0  0  0  0  0  0  0  0  0  0
   10.3729   41.4561   35.8842 O   0  0  0  0  0  0  0  0  0  0  0  0
    9.9547   45.0696   33.2041 C   0  0  1  0  0  0  0  0  0  0  0  0
   11.0275   46.0323   33.4759 N   0  0  0  0  0  0  0  0  0  0  0  0
    9.7461   44.8487   31.6883 C   0  0  0  0  0  0  0  0  0  0  0  0
    8.7918   45.8422   31.0866 C   0  0  0  0  0  0  0  0  0  0  0  0
    7.4051   45.6008   31.0978 C   0  0  0  0  0  0  0  0  0  0  0  0
    9.2819   46.9872   30.4405 C   0  0  0  0  0  0  0  0  0  0  0  0
    6.5269   46.5010   30.4795 C   0  0  0  0  0  0  0  0  0  0  0  0
    8.4022   47.8873   29.8276 C   0  0  0  0  0  0  0  0  0  0  0  0
    7.0160   47.6567   29.8553 C   0  0  0  0  0  0  0  0  0  0  0  0
    6.1015   48.5309   29.2506 O   0  0  0  0  0  0  0  0  0  0  0  0
    5.9825   49.9328   29.5277 C   0  0  1  0  0  0  0  0  0  0  0  0
    5.7227   50.1604   31.0255 C   0  0  0  0  0  0  0  0  0  0  0  0
    7.1383   50.7376   28.9376 C   0  0  0  0  0  0  0  0  0  0  0  0
    8.1494   51.2769   29.7801 C   0  0  0  0  0  0  0  0  0  0  0  0
    7.2008   51.0042   27.5249 C   0  0  0  0  0  0  0  0  0  0  0  0
    9.1574   52.0410   29.2091 C   0  0  0  0  0  0  0  0  0  0  0  0
    8.2456   51.8037   27.0079 C   0  0  0  0  0  0  0  0  0  0  0  0
    6.2088   50.5070   26.6089 N   0  0  0  0  0  0  0  0  0  0  0  0
   10.2304   52.6488   29.8323 O   0  0  0  0  0  0  0  0  0  0  0  0
    9.2025   52.2950   27.8830 C   0  0  0  0  0  0  0  0  0  0  0  0
    5.8684   51.2493   25.5015 O   0  0  0  0  0  0  0  0  0  0  0  0
    5.7946   49.3333   26.6925 O   0  0  0  0  0  0  0  0  0  0  0  0
   10.9976   53.3284   28.8293 C   0  0  0  0  0  0  0  0  0  0  0  0
   10.3056   53.0769   27.5989 O   0  0  0  0  0  0  0  0  0  0  0  0
    8.8125   40.1848   34.2126 O   0  0  0  0  0  0  0  0  0  0  0  0
   11.2416   40.7948   33.3707 O   0  0  0  0  0  0  0  0  0  0  0  0
   10.9179   40.6922   31.9984 C   0  0  0  0  0  0  0  0  0  0  0  0
   11.5175   39.3838   31.4423 C   0  0  0  0  0  0  0  0  0  0  0  0
   12.7508   39.0887   32.0752 O   0  0  0  0  0  0  0  0  0  0  0  0
   10.6028   38.1916   31.6658 C   0  0  0  0  0  0  0  0  0  0  0  0
   12.9385   37.6819   32.0278 C   0  0  0  0  0  0  0  0  0  0  0  0
    9.6372   38.0806   30.6470 O   0  0  0  0  0  0  0  0  0  0  0  0
   11.5780   37.0215   31.6935 C   0  0  0  0  0  0  0  0  0  0  0  0
   13.4844   37.2119   33.3242 N   0  0  0  0  0  0  0  0  0  0  0  0
   11.6095   36.3202   30.4679 O   0  0  0  0  0  0  0  0  0  0  0  0
   14.4797   36.3318   33.5730 C   0  0  0  0  0  0  0  0  0  0  0  0
   13.1135   37.6278   34.5691 C   0  0  0  0  0  0  0  0  0  0  0  0
   15.2073   35.6155   32.6742 N   0  0  0  0  0  0  0  0  0  0  0  0
   14.6754   36.2305   34.9184 C   0  0  0  0  0  0  0  0  0  0  0  0
   13.8213   37.0452   35.5785 N   0  0  0  0  0  0  0  0  0  0  0  0
   16.1640   34.7604   33.1549 C   0  0  0  0  0  0  0  0  0  0  0  0
   15.6524   35.3507   35.4132 C   0  0  0  0  0  0  0  0  0  0  0  0
   16.3794   34.6317   34.5044 N   0  0  0  0  0  0  0  0  0  0  0  0
   15.8999   35.1934   36.8091 N   0  0  0  0  0  0  0  0  0  0  0  0
    9.0123   45.4318   33.6724 H   0  0  0  0  0  0  0  0  0  0  0  0
   10.7261   46.9687   33.1211 H   0  0  0  0  0  0  0  0  0  0  0  0
   11.8907   45.7657   32.9473 H   0  0  0  0  0  0  0  0  0  0  0  0
   10.7223   44.8820   31.1560 H   0  0  0  0  0  0  0  0  0  0  0  0
    9.3406   43.8337   31.4767 H   0  0  0  0  0  0  0  0  0  0  0  0
    7.0078   44.7149   31.5778 H   0  0  0  0  0  0  0  0  0  0  0  0
   10.3473   47.1774   30.3970 H   0  0  0  0  0  0  0  0  0  0  0  0
    5.4623   46.3053   30.4945 H   0  0  0  0  0  0  0  0  0  0  0  0
    8.8150   48.7295   29.2963 H   0  0  0  0  0  0  0  0  0  0  0  0
    5.0578   50.2895   29.0246 H   0  0  0  0  0  0  0  0  0  0  0  0
    4.7733   49.6626   31.3164 H   0  0  0  0  0  0  0  0  0  0  0  0
    5.6266   51.2461   31.2408 H   0  0  0  0  0  0  0  0  0  0  0  0
    6.5357   49.7287   31.6460 H   0  0  0  0  0  0  0  0  0  0  0  0
    8.1710   51.1061   30.8463 H   0  0  0  0  0  0  0  0  0  0  0  0
    8.3173   52.0237   25.9505 H   0  0  0  0  0  0  0  0  0  0  0  0
   12.0252   52.9109   28.7833 H   0  0  0  0  0  0  0  0  0  0  0  0
   11.0236   54.4184   29.0385 H   0  0  0  0  0  0  0  0  0  0  0  0
    9.8291   40.7409   31.7627 H   0  0  0  0  0  0  0  0  0  0  0  0
   11.3952   41.5478   31.4744 H   0  0  0  0  0  0  0  0  0  0  0  0
   11.6981   39.5116   30.3500 H   0  0  0  0  0  0  0  0  0  0  0  0
   10.1117   38.2604   32.6660 H   0  0  0  0  0  0  0  0  0  0  0  0
   13.6767   37.4556   31.2267 H   0  0  0  0  0  0  0  0  0  0  0  0
    8.8962   38.6952   30.8872 H   0  0  0  0  0  0  0  0  0  0  0  0
   11.2792   36.3072   32.4922 H   0  0  0  0  0  0  0  0  0  0  0  0
   11.8829   36.9598   29.7588 H   0  0  0  0  0  0  0  0  0  0  0  0
   12.3300   38.3539   34.7446 H   0  0  0  0  0  0  0  0  0  0  0  0
   16.7561   34.1785   32.4621 H   0  0  0  0  0  0  0  0  0  0  0  0
   16.6347   34.5302   37.1416 H   0  0  0  0  0  0  0  0  0  0  0  0
   15.3531   35.7360   37.5140 H   0  0  0  0  0  0  0  0  0  0  0  0
  1  2  2  0
  1  3  1  0
  3  4  1  0
  4  5  1  0
  6  1  1  0
  7  6  1  0
  6  8  1  0
  8  9  1  0
  9 10  2  0
 11  9  1  0
 10 12  1  0
 13 11  2  0
 12 14  2  0
 14 13  1  0
 14 15  1  0
 15 16  1  0
 16 17  1  0
 16 18  1  0
 18 19  2  0
 20 18  1  0
 19 21  1  0
 22 20  2  0
 20 23  1  0
 21 24  1  0
 21 25  2  0
 25 22  1  0
 23 26  1  0
 23 27  2  0
 24 28  1  0
 25 29  1  0
 28 29  1  0
  4 30  2  0
  4 31  1  0
 32 31  1  0
 32 33  1  0
 33 34  1  0
 33 35  1  0
 34 36  1  0
 35 37  1  0
 35 38  1  0
 38 36  1  0
 36 39  1  0
 38 40  1  0
 41 39  1  0
 42 39  1  0
 43 41  2  0
 41 44  1  0
 45 42  2  0
 46 43  1  0
 44 47  2  0
 44 45  1  0
 48 46  2  0
 48 47  1  0
 47 49  1  0
  6 50  1  1
  7 51  1  0
  7 52  1  0
  8 53  1  0
  8 54  1  0
 10 55  1  0
 11 56  1  0
 12 57  1  0
 13 58  1  0
 16 59  1  6
 17 60  1  0
 17 61  1  0
 17 62  1  0
 19 63  1  0
 22 64  1  0
 28 65  1  0
 28 66  1  0
 32 67  1  0
 32 68  1  0
 33 69  1  0
 35 70  1  0
 36 71  1  0
 37 72  1  0
 38 73  1  0
 40 74  1  0
 42 75  1  0
 46 76  1  0
 49 77  1  0
 49 78  1  0
M  CHG  3   5  -1  23   1  26  -1
M  END
>  <EmbedRMS>  (102) 
0.0819969458639

$$$$

     RDKit          3D

 78 83  0  0  0  0  0  0  0  0999 V2000
   10.2838   43.7627   33.8277 C   0  0  0  0  0  0  0  0  0  0  0  0
   11.4103   43.5864   34.3766 O   0  0  0  0  0  0  0  0  0  0  0  0
    9.3630   42.7236   33.7355 O   0  0  0  0  0  0  0  0  0  0  0  0
    9.8894   41.2249   34.2944 P   0  0  0  0  0  0  0  0  0  0  0  0
   10.3728   41.4546   35.8838 O   0  0  0  0  0  0  0  0  0  0  0  0
    9.9548   45.0700   33.2065 C   0  0  1  0  0  0  0  0  0  0  0  0
   11.0198   46.0482   33.4568 N   0  0  0  0  0  0  0  0  0  0  0  0
    9.7500   44.8509   31.6925 C   0  0  0  0  0  0  0  0  0  0  0  0
    8.7942   45.8418   31.0871 C   0  0  0  0  0  0  0  0  0  0  0  0
    7.4075   45.6006   31.0993 C   0  0  0  0  0  0  0  0  0  0  0  0
    9.2833   46.9888   30.4445 C   0  0  0  0  0  0  0  0  0  0  0  0
    6.5280   46.5014   30.4832 C   0  0  0  0  0  0  0  0  0  0  0  0
    8.4039   47.8894   29.8319 C   0  0  0  0  0  0  0  0  0  0  0  0
    7.0144   47.6530   29.8496 C   0  0  0  0  0  0  0  0  0  0  0  0
    6.0880   48.5271   29.2575 O   0  0  0  0  0  0  0  0  0  0  0  0
    6.4045   49.7907   28.6668 C   0  0  1  0  0  0  0  0  0  0  0  0
    5.1645   50.3219   27.9497 C   0  0  0  0  0  0  0  0  0  0  0  0
    6.8537   50.7785   29.7303 C   0  0  0  0  0  0  0  0  0  0  0  0
    6.1255   50.8435   30.9437 C   0  0  0  0  0  0  0  0  0  0  0  0
    8.0186   51.5984   29.5665 C   0  0  0  0  0  0  0  0  0  0  0  0
    6.5897   51.6773   31.9522 C   0  0  0  0  0  0  0  0  0  0  0  0
    8.4521   52.4169   30.6349 C   0  0  0  0  0  0  0  0  0  0  0  0
    8.7525   51.6250   28.3325 N   0  0  0  0  0  0  0  0  0  0  0  0
    6.0539   51.8867   33.2083 O   0  0  0  0  0  0  0  0  0  0  0  0
    7.7066   52.4267   31.8063 C   0  0  0  0  0  0  0  0  0  0  0  0
    8.0887   51.7829   27.1380 O   0  0  0  0  0  0  0  0  0  0  0  0
    9.9963   51.7306   28.3488 O   0  0  0  0  0  0  0  0  0  0  0  0
    6.8892   52.8297   33.8937 C   0  0  0  0  0  0  0  0  0  0  0  0
    7.9322   53.1488   32.9624 O   0  0  0  0  0  0  0  0  0  0  0  0
    8.8113   40.1834   34.2130 O   0  0  0  0  0  0  0  0  0  0  0  0
   11.2399   40.7932   33.3693 O   0  0  0  0  0  0  0  0  0  0  0  0
   10.9143   40.6896   31.9973 C   0  0  0  0  0  0  0  0  0  0  0  0
   11.5260   39.3884   31.4375 C   0  0  0  0  0  0  0  0  0  0  0  0
   12.7504   39.0887   32.0815 O   0  0  0  0  0  0  0  0  0  0  0  0
   10.6115   38.1909   31.6460 C   0  0  0  0  0  0  0  0  0  0  0  0
   12.9357   37.6812   32.0303 C   0  0  0  0  0  0  0  0  0  0  0  0
    9.6145   38.0858   30.6533 O   0  0  0  0  0  0  0  0  0  0  0  0
   11.5769   37.0148   31.7012 C   0  0  0  0  0  0  0  0  0  0  0  0
   13.4849   37.2112   33.3247 N   0  0  0  0  0  0  0  0  0  0  0  0
   11.6193   36.3260   30.4724 O   0  0  0  0  0  0  0  0  0  0  0  0
   14.4802   36.3313   33.5730 C   0  0  0  0  0  0  0  0  0  0  0  0
   13.1141   37.6268   34.5697 C   0  0  0  0  0  0  0  0  0  0  0  0
   15.2074   35.6151   32.6741 N   0  0  0  0  0  0  0  0  0  0  0  0
   14.6761   36.2301   34.9184 C   0  0  0  0  0  0  0  0  0  0  0  0
   13.8220   37.0445   35.5789 N   0  0  0  0  0  0  0  0  0  0  0  0
   16.1642   34.7600   33.1547 C   0  0  0  0  0  0  0  0  0  0  0  0
   15.6529   35.3503   35.4132 C   0  0  0  0  0  0  0  0  0  0  0  0
   16.3797   34.6314   34.5042 N   0  0  0  0  0  0  0  0  0  0  0  0
   15.9004   35.1930   36.8090 N   0  0  0  0  0  0  0  0  0  0  0  0
    9.0098   45.4350   33.6672 H   0  0  0  0  0  0  0  0  0  0  0  0
   11.1134   46.1994   34.4881 H   0  0  0  0  0  0  0  0  0  0  0  0
   11.9348   45.6933   33.0924 H   0  0  0  0  0  0  0  0  0  0  0  0
    9.3507   43.8344   31.4764 H   0  0  0  0  0  0  0  0  0  0  0  0
   10.7303   44.8922   31.1676 H   0  0  0  0  0  0  0  0  0  0  0  0
    7.0109   44.7154   31.5810 H   0  0  0  0  0  0  0  0  0  0  0  0
   10.3477   47.1870   30.4147 H   0  0  0  0  0  0  0  0  0  0  0  0
    5.4635   46.3050   30.5018 H   0  0  0  0  0  0  0  0  0  0  0  0
    8.8180   48.7600   29.3446 H   0  0  0  0  0  0  0  0  0  0  0  0
    7.1888   49.6259   27.8998 H   0  0  0  0  0  0  0  0  0  0  0  0
    4.8618   49.6129   27.1502 H   0  0  0  0  0  0  0  0  0  0  0  0
    4.3186   50.4345   28.6610 H   0  0  0  0  0  0  0  0  0  0  0  0
    5.3789   51.3073   27.4841 H   0  0  0  0  0  0  0  0  0  0  0  0
    5.2383   50.2440   31.1041 H   0  0  0  0  0  0  0  0  0  0  0  0
    9.3299   53.0438   30.5446 H   0  0  0  0  0  0  0  0  0  0  0  0
    6.3100   53.7421   34.1477 H   0  0  0  0  0  0  0  0  0  0  0  0
    7.3193   52.3686   34.8075 H   0  0  0  0  0  0  0  0  0  0  0  0
   11.3782   41.5525   31.4732 H   0  0  0  0  0  0  0  0  0  0  0  0
    9.8233   40.7192   31.7644 H   0  0  0  0  0  0  0  0  0  0  0  0
   11.7282   39.5312   30.3515 H   0  0  0  0  0  0  0  0  0  0  0  0
   10.1127   38.2733   32.6376 H   0  0  0  0  0  0  0  0  0  0  0  0
   13.6692   37.4565   31.2241 H   0  0  0  0  0  0  0  0  0  0  0  0
   10.0533   38.1116   29.7635 H   0  0  0  0  0  0  0  0  0  0  0  0
   11.2607   36.3147   32.5101 H   0  0  0  0  0  0  0  0  0  0  0  0
   12.1496   35.5022   30.6324 H   0  0  0  0  0  0  0  0  0  0  0  0
   12.3301   38.3524   34.7455 H   0  0  0  0  0  0  0  0  0  0  0  0
   16.7562   34.1780   32.4619 H   0  0  0  0  0  0  0  0  0  0  0  0
   16.6351   34.5298   37.1415 H   0  0  0  0  0  0  0  0  0  0  0  0
   15.3536   35.7357   37.5140 H   0  0  0  0  0  0  0  0  0  0  0  0
  1  2  2  0
  1  3  1  0
  3  4  1  0
  4  5  1  0
  6  1  1  0
  7  6  1  0
  6  8  1  0
  8  9  1  0
  9 10  2  0
 11  9  1  0
 10 12  1  0
 13 11  2  0
 12 14  2  0
 14 13  1  0
 14 15  1  0
 15 16  1  0
 16 17  1  0
 16 18  1  0
 18 19  2  0
 20 18  1  0
 19 21  1  0
 22 20  2  0
 20 23  1  0
 21 24  1  0
 21 25  2  0
 25 22  1  0
 23 26  1  0
 23 27  2  0
 24 28  1  0
 25 29  1  0
 28 29  1  0
  4 30  2  0
  4 31  1  0
 32 31  1  0
 32 33  1  0
 33 34  1  0
 33 35  1  0
 34 36  1  0
 35 37  1  0
 35 38  1  0
 38 36  1  0
 36 39  1  0
 38 40  1  0
 41 39  1  0
 42 39  1  0
 43 41  2  0
 41 44  1  0
 45 42  2  0
 46 43  1  0
 44 47  2  0
 44 45  1  0
 48 46  2  0
 48 47  1  0
 47 49  1  0
  6 50  1  1
  7 51  1  0
  7 52  1  0
  8 53  1  0
  8 54  1  0
 10 55  1  0
 11 56  1  0
 12 57  1  0
 13 58  1  0
 16 59  1  6
 17 60  1  0
 17 61  1  0
 17 62  1  0
 19 63  1  0
 22 64  1  0
 28 65  1  0
 28 66  1  0
 32 67  1  0
 32 68  1  0
 33 69  1  0
 35 70  1  0
 36 71  1  0
 37 72  1  0
 38 73  1  0
 40 74  1  0
 42 75  1  0
 46 76  1  0
 49 77  1  0
 49 78  1  0
M  CHG  3   5  -1  23   1  26  -1
M  END
>  <EmbedRMS>  (103) 
0.082525626619

$$$$

     RDKit          3D

 78 83  0  0  0  0  0  0  0  0999 V2000
   10.2838   43.7626   33.8277 C   0  0  0  0  0  0  0  0  0  0  0  0
   11.4103   43.5863   34.3767 O   0  0  0  0  0  0  0  0  0  0  0  0
    9.3630   42.7236   33.7355 O   0  0  0  0  0  0  0  0  0  0  0  0
    9.8894   41.2249   34.2944 P   0  0  0  0  0  0  0  0  0  0  0  0
   10.3728   41.4546   35.8838 O   0  0  0  0  0  0  0  0  0  0  0  0
    9.9548   45.0699   33.2064 C   0  0  1  0  0  0  0  0  0  0  0  0
   11.0198   46.0480   33.4568 N   0  0  0  0  0  0  0  0  0  0  0  0
    9.7501   44.8506   31.6923 C   0  0  0  0  0  0  0  0  0  0  0  0
    8.7942   45.8414   31.0867 C   0  0  0  0  0  0  0  0  0  0  0  0
    7.4077   45.6011   31.1003 C   0  0  0  0  0  0  0  0  0  0  0  0
    9.2830   46.9889   30.4451 C   0  0  0  0  0  0  0  0  0  0  0  0
    6.5284   46.5024   30.4850 C   0  0  0  0  0  0  0  0  0  0  0  0
    8.4037   47.8905   29.8332 C   0  0  0  0  0  0  0  0  0  0  0  0
    7.0140   47.6516   29.8457 C   0  0  0  0  0  0  0  0  0  0  0  0
    6.0818   48.5190   29.2519 O   0  0  0  0  0  0  0  0  0  0  0  0
    6.3874   49.6686   28.4580 C   0  0  1  0  0  0  0  0  0  0  0  0
    6.8881   49.2432   27.0711 C   0  0  0  0  0  0  0  0  0  0  0  0
    5.1360   50.5187   28.3306 C   0  0  0  0  0  0  0  0  0  0  0  0
    3.9755   49.9354   27.7630 C   0  0  0  0  0  0  0  0  0  0  0  0
    5.1017   51.8970   28.7266 C   0  0  0  0  0  0  0  0  0  0  0  0
    2.8559   50.7343   27.5707 C   0  0  0  0  0  0  0  0  0  0  0  0
    3.9390   52.6653   28.4907 C   0  0  0  0  0  0  0  0  0  0  0  0
    6.2122   52.5170   29.3897 N   0  0  0  0  0  0  0  0  0  0  0  0
    1.6334   50.3842   27.0305 O   0  0  0  0  0  0  0  0  0  0  0  0
    2.8405   52.0428   27.9134 C   0  0  0  0  0  0  0  0  0  0  0  0
    6.6991   51.9741   30.5564 O   0  0  0  0  0  0  0  0  0  0  0  0
    6.5580   53.6736   29.0723 O   0  0  0  0  0  0  0  0  0  0  0  0
    0.7976   51.5497   27.0352 C   0  0  0  0  0  0  0  0  0  0  0  0
    1.6074   52.5859   27.6076 O   0  0  0  0  0  0  0  0  0  0  0  0
    8.8113   40.1833   34.2130 O   0  0  0  0  0  0  0  0  0  0  0  0
   11.2399   40.7932   33.3693 O   0  0  0  0  0  0  0  0  0  0  0  0
   10.9143   40.6896   31.9973 C   0  0  0  0  0  0  0  0  0  0  0  0
   11.5261   39.3884   31.4375 C   0  0  0  0  0  0  0  0  0  0  0  0
   12.7505   39.0887   32.0815 O   0  0  0  0  0  0  0  0  0  0  0  0
   10.6115   38.1909   31.6460 C   0  0  0  0  0  0  0  0  0  0  0  0
   12.9357   37.6812   32.0303 C   0  0  0  0  0  0  0  0  0  0  0  0
    9.6146   38.0858   30.6533 O   0  0  0  0  0  0  0  0  0  0  0  0
   11.5769   37.0148   31.7012 C   0  0  0  0  0  0  0  0  0  0  0  0
   13.4849   37.2112   33.3247 N   0  0  0  0  0  0  0  0  0  0  0  0
   11.6193   36.3260   30.4724 O   0  0  0  0  0  0  0  0  0  0  0  0
   14.4802   36.3313   33.5730 C   0  0  0  0  0  0  0  0  0  0  0  0
   13.1141   37.6268   34.5697 C   0  0  0  0  0  0  0  0  0  0  0  0
   15.2075   35.6151   32.6741 N   0  0  0  0  0  0  0  0  0  0  0  0
   14.6761   36.2300   34.9184 C   0  0  0  0  0  0  0  0  0  0  0  0
   13.8220   37.0445   35.5789 N   0  0  0  0  0  0  0  0  0  0  0  0
   16.1642   34.7600   33.1547 C   0  0  0  0  0  0  0  0  0  0  0  0
   15.6529   35.3503   35.4132 C   0  0  0  0  0  0  0  0  0  0  0  0
   16.3798   34.6314   34.5042 N   0  0  0  0  0  0  0  0  0  0  0  0
   15.9004   35.1930   36.8090 N   0  0  0  0  0  0  0  0  0  0  0  0
    9.0099   45.4349   33.6670 H   0  0  0  0  0  0  0  0  0  0  0  0
   11.1134   46.1992   34.4881 H   0  0  0  0  0  0  0  0  0  0  0  0
   11.9348   45.6932   33.0924 H   0  0  0  0  0  0  0  0  0  0  0  0
    9.3509   43.8341   31.4763 H   0  0  0  0  0  0  0  0  0  0  0  0
   10.7304   44.8920   31.1675 H   0  0  0  0  0  0  0  0  0  0  0  0
    7.0109   44.7163   31.5828 H   0  0  0  0  0  0  0  0  0  0  0  0
   10.3473   47.1884   30.4182 H   0  0  0  0  0  0  0  0  0  0  0  0
    5.4640   46.3053   30.5038 H   0  0  0  0  0  0  0  0  0  0  0  0
    8.8216   48.7659   29.3586 H   0  0  0  0  0  0  0  0  0  0  0  0
    7.1968   50.2477   28.9388 H   0  0  0  0  0  0  0  0  0  0  0  0
    6.1603   48.5668   26.5758 H   0  0  0  0  0  0  0  0  0  0  0  0
    7.8544   48.7054   27.1545 H   0  0  0  0  0  0  0  0  0  0  0  0
    7.0454   50.1379   26.4314 H   0  0  0  0  0  0  0  0  0  0  0  0
    3.9503   48.8940   27.4688 H   0  0  0  0  0  0  0  0  0  0  0  0
    3.8864   53.7084   28.7754 H   0  0  0  0  0  0  0  0  0  0  0  0
   -0.1013   51.3752   27.6629 H   0  0  0  0  0  0  0  0  0  0  0  0
    0.5079   51.8188   25.9978 H   0  0  0  0  0  0  0  0  0  0  0  0
   11.3782   41.5525   31.4733 H   0  0  0  0  0  0  0  0  0  0  0  0
    9.8234   40.7192   31.7644 H   0  0  0  0  0  0  0  0  0  0  0  0
   11.7283   39.5312   30.3515 H   0  0  0  0  0  0  0  0  0  0  0  0
   10.1127   38.2733   32.6376 H   0  0  0  0  0  0  0  0  0  0  0  0
   13.6693   37.4565   31.2242 H   0  0  0  0  0  0  0  0  0  0  0  0
   10.0533   38.1117   29.7635 H   0  0  0  0  0  0  0  0  0  0  0  0
   11.2607   36.3147   32.5101 H   0  0  0  0  0  0  0  0  0  0  0  0
   12.1496   35.5022   30.6324 H   0  0  0  0  0  0  0  0  0  0  0  0
   12.3301   38.3524   34.7455 H   0  0  0  0  0  0  0  0  0  0  0  0
   16.7563   34.1781   32.4619 H   0  0  0  0  0  0  0  0  0  0  0  0
   15.3536   35.7357   37.5139 H   0  0  0  0  0  0  0  0  0  0  0  0
   16.6351   34.5298   37.1416 H   0  0  0  0  0  0  0  0  0  0  0  0
  1  2  2  0
  1  3  1  0
  3  4  1  0
  4  5  1  0
  6  1  1  0
  7  6  1  0
  6  8  1  0
  8  9  1  0
  9 10  2  0
 11  9  1  0
 10 12  1  0
 13 11  2  0
 12 14  2  0
 14 13  1  0
 14 15  1  0
 15 16  1  0
 16 17  1  0
 16 18  1  0
 18 19  2  0
 20 18  1  0
 19 21  1  0
 22 20  2  0
 20 23  1  0
 21 24  1  0
 21 25  2  0
 25 22  1  0
 23 26  1  0
 23 27  2  0
 24 28  1  0
 25 29  1  0
 28 29  1  0
  4 30  2  0
  4 31  1  0
 32 31  1  0
 32 33  1  0
 33 34  1  0
 33 35  1  0
 34 36  1  0
 35 37  1  0
 35 38  1  0
 38 36  1  0
 36 39  1  0
 38 40  1  0
 41 39  1  0
 42 39  1  0
 43 41  2  0
 41 44  1  0
 45 42  2  0
 46 43  1  0
 44 47  2  0
 44 45  1  0
 48 46  2  0
 48 47  1  0
 47 49  1  0
  6 50  1  1
  7 51  1  0
  7 52  1  0
  8 53  1  0
  8 54  1  0
 10 55  1  0
 11 56  1  0
 12 57  1  0
 13 58  1  0
 16 59  1  1
 17 60  1  0
 17 61  1  0
 17 62  1  0
 19 63  1  0
 22 64  1  0
 28 65  1  0
 28 66  1  0
 32 67  1  0
 32 68  1  0
 33 69  1  0
 35 70  1  0
 36 71  1  0
 37 72  1  0
 38 73  1  0
 40 74  1  0
 42 75  1  0
 46 76  1  0
 49 77  1  0
 49 78  1  0
M  CHG  3   5  -1  23   1  26  -1
M  END
>  <EmbedRMS>  (104) 
0.0825245120475

$$$$

     RDKit          3D

 78 83  0  0  0  0  0  0  0  0999 V2000
   10.2840   43.7625   33.8276 C   0  0  0  0  0  0  0  0  0  0  0  0
   11.4104   43.5863   34.3768 O   0  0  0  0  0  0  0  0  0  0  0  0
    9.3634   42.7234   33.7351 O   0  0  0  0  0  0  0  0  0  0  0  0
    9.8899   41.2247   34.2940 P   0  0  0  0  0  0  0  0  0  0  0  0
   10.3723   41.4544   35.8837 O   0  0  0  0  0  0  0  0  0  0  0  0
    9.9550   45.0699   33.2065 C   0  0  1  0  0  0  0  0  0  0  0  0
   11.0199   46.0481   33.4572 N   0  0  0  0  0  0  0  0  0  0  0  0
    9.7506   44.8512   31.6925 C   0  0  0  0  0  0  0  0  0  0  0  0
    8.7944   45.8421   31.0874 C   0  0  0  0  0  0  0  0  0  0  0  0
    7.4079   45.6005   31.1000 C   0  0  0  0  0  0  0  0  0  0  0  0
    9.2827   46.9888   30.4444 C   0  0  0  0  0  0  0  0  0  0  0  0
    6.5255   46.4992   30.4841 C   0  0  0  0  0  0  0  0  0  0  0  0
    8.4010   47.8871   29.8323 C   0  0  0  0  0  0  0  0  0  0  0  0
    7.0188   47.6571   29.8473 C   0  0  0  0  0  0  0  0  0  0  0  0
    6.1881   48.5951   29.2119 O   0  0  0  0  0  0  0  0  0  0  0  0
    4.7603   48.6214   29.2527 C   0  0  1  0  0  0  0  0  0  0  0  0
    4.2508   49.0446   30.6375 C   0  0  0  0  0  0  0  0  0  0  0  0
    4.2343   49.5459   28.1650 C   0  0  0  0  0  0  0  0  0  0  0  0
    3.3948   48.9845   27.1697 C   0  0  0  0  0  0  0  0  0  0  0  0
    4.5106   50.9580   28.1261 C   0  0  0  0  0  0  0  0  0  0  0  0
    2.8530   49.8210   26.2031 C   0  0  0  0  0  0  0  0  0  0  0  0
    3.9157   51.7597   27.1263 C   0  0  0  0  0  0  0  0  0  0  0  0
    5.3627   51.5994   29.0861 N   0  0  0  0  0  0  0  0  0  0  0  0
    2.0148   49.4921   25.1551 O   0  0  0  0  0  0  0  0  0  0  0  0
    3.0997   51.1500   26.1842 C   0  0  0  0  0  0  0  0  0  0  0  0
    5.0004   52.8217   29.6032 O   0  0  0  0  0  0  0  0  0  0  0  0
    6.5304   51.1972   29.2594 O   0  0  0  0  0  0  0  0  0  0  0  0
    1.7180   50.6945   24.4320 C   0  0  0  0  0  0  0  0  0  0  0  0
    2.4309   51.7293   25.1230 O   0  0  0  0  0  0  0  0  0  0  0  0
    8.8118   40.1831   34.2120 O   0  0  0  0  0  0  0  0  0  0  0  0
   11.2415   40.7932   33.3699 O   0  0  0  0  0  0  0  0  0  0  0  0
   10.9186   40.6909   31.9972 C   0  0  0  0  0  0  0  0  0  0  0  0
   11.5172   39.3814   31.4407 C   0  0  0  0  0  0  0  0  0  0  0  0
   12.7493   39.0855   32.0727 O   0  0  0  0  0  0  0  0  0  0  0  0
   10.6023   38.1907   31.6665 C   0  0  0  0  0  0  0  0  0  0  0  0
   12.9319   37.6781   32.0281 C   0  0  0  0  0  0  0  0  0  0  0  0
    9.6392   38.0797   30.6451 O   0  0  0  0  0  0  0  0  0  0  0  0
   11.5715   37.0165   31.7056 C   0  0  0  0  0  0  0  0  0  0  0  0
   13.4847   37.2121   33.3235 N   0  0  0  0  0  0  0  0  0  0  0  0
   11.6187   36.3383   30.4694 O   0  0  0  0  0  0  0  0  0  0  0  0
   14.4801   36.3321   33.5724 C   0  0  0  0  0  0  0  0  0  0  0  0
   13.1137   37.6276   34.5687 C   0  0  0  0  0  0  0  0  0  0  0  0
   15.2073   35.6153   32.6738 N   0  0  0  0  0  0  0  0  0  0  0  0
   14.6759   36.2308   34.9179 C   0  0  0  0  0  0  0  0  0  0  0  0
   13.8216   37.0452   35.5781 N   0  0  0  0  0  0  0  0  0  0  0  0
   16.1640   34.7602   33.1546 C   0  0  0  0  0  0  0  0  0  0  0  0
   15.6526   35.3508   35.4129 C   0  0  0  0  0  0  0  0  0  0  0  0
   16.3794   34.6317   34.5041 N   0  0  0  0  0  0  0  0  0  0  0  0
   15.8999   35.1935   36.8088 N   0  0  0  0  0  0  0  0  0  0  0  0
    9.0100   45.4347   33.6672 H   0  0  0  0  0  0  0  0  0  0  0  0
   11.9350   45.6933   33.0930 H   0  0  0  0  0  0  0  0  0  0  0  0
   11.1133   46.1992   34.4885 H   0  0  0  0  0  0  0  0  0  0  0  0
    9.3517   43.8346   31.4760 H   0  0  0  0  0  0  0  0  0  0  0  0
   10.7309   44.8931   31.1677 H   0  0  0  0  0  0  0  0  0  0  0  0
    7.0133   44.7134   31.5802 H   0  0  0  0  0  0  0  0  0  0  0  0
   10.3468   47.1887   30.4141 H   0  0  0  0  0  0  0  0  0  0  0  0
    5.4698   46.2733   30.5067 H   0  0  0  0  0  0  0  0  0  0  0  0
    8.7944   48.7687   29.3421 H   0  0  0  0  0  0  0  0  0  0  0  0
    4.3817   47.5949   29.0567 H   0  0  0  0  0  0  0  0  0  0  0  0
    4.4868   48.2662   31.3912 H   0  0  0  0  0  0  0  0  0  0  0  0
    3.1478   49.1758   30.6153 H   0  0  0  0  0  0  0  0  0  0  0  0
    4.7212   49.9905   30.9717 H   0  0  0  0  0  0  0  0  0  0  0  0
    3.1573   47.9284   27.1536 H   0  0  0  0  0  0  0  0  0  0  0  0
    4.0996   52.8253   27.0768 H   0  0  0  0  0  0  0  0  0  0  0  0
    0.6270   50.8984   24.4570 H   0  0  0  0  0  0  0  0  0  0  0  0
    2.0801   50.6128   23.3857 H   0  0  0  0  0  0  0  0  0  0  0  0
   11.3971   41.5459   31.4735 H   0  0  0  0  0  0  0  0  0  0  0  0
    9.8300   40.7410   31.7611 H   0  0  0  0  0  0  0  0  0  0  0  0
   11.6974   39.5067   30.3480 H   0  0  0  0  0  0  0  0  0  0  0  0
   10.1076   38.2646   32.6645 H   0  0  0  0  0  0  0  0  0  0  0  0
   13.6621   37.4467   31.2208 H   0  0  0  0  0  0  0  0  0  0  0  0
    8.8975   38.6943   30.8831 H   0  0  0  0  0  0  0  0  0  0  0  0
   11.2806   36.3073   32.5170 H   0  0  0  0  0  0  0  0  0  0  0  0
   10.8492   35.7110   30.4585 H   0  0  0  0  0  0  0  0  0  0  0  0
   12.3290   38.3524   34.7444 H   0  0  0  0  0  0  0  0  0  0  0  0
   16.7559   34.1780   32.4619 H   0  0  0  0  0  0  0  0  0  0  0  0
   16.6344   34.5301   37.1414 H   0  0  0  0  0  0  0  0  0  0  0  0
   15.3531   35.7362   37.5137 H   0  0  0  0  0  0  0  0  0  0  0  0
  1  2  2  0
  1  3  1  0
  3  4  1  0
  4  5  1  0
  6  1  1  0
  7  6  1  0
  6  8  1  0
  8  9  1  0
  9 10  2  0
 11  9  1  0
 10 12  1  0
 13 11  2  0
 12 14  2  0
 14 13  1  0
 14 15  1  0
 15 16  1  0
 16 17  1  0
 16 18  1  0
 18 19  2  0
 20 18  1  0
 19 21  1  0
 22 20  2  0
 20 23  1  0
 21 24  1  0
 21 25  2  0
 25 22  1  0
 23 26  1  0
 23 27  2  0
 24 28  1  0
 25 29  1  0
 28 29  1  0
  4 30  2  0
  4 31  1  0
 32 31  1  0
 32 33  1  0
 33 34  1  0
 33 35  1  0
 34 36  1  0
 35 37  1  0
 35 38  1  0
 38 36  1  0
 36 39  1  0
 38 40  1  0
 41 39  1  0
 42 39  1  0
 43 41  2  0
 41 44  1  0
 45 42  2  0
 46 43  1  0
 44 47  2  0
 44 45  1  0
 48 46  2  0
 48 47  1  0
 47 49  1  0
  6 50  1  1
  7 51  1  0
  7 52  1  0
  8 53  1  0
  8 54  1  0
 10 55  1  0
 11 56  1  0
 12 57  1  0
 13 58  1  0
 16 59  1  6
 17 60  1  0
 17 61  1  0
 17 62  1  0
 19 63  1  0
 22 64  1  0
 28 65  1  0
 28 66  1  0
 32 67  1  0
 32 68  1  0
 33 69  1  0
 35 70  1  0
 36 71  1  0
 37 72  1  0
 38 73  1  0
 40 74  1  0
 42 75  1  0
 46 76  1  0
 49 77  1  0
 49 78  1  0
M  CHG  3   5  -1  23   1  26  -1
M  END
>  <EmbedRMS>  (105) 
0.0838003569682

$$$$

     RDKit          3D

 78 83  0  0  0  0  0  0  0  0999 V2000
   10.2805   43.7663   33.8250 C   0  0  0  0  0  0  0  0  0  0  0  0
   11.4111   43.5918   34.3667 O   0  0  0  0  0  0  0  0  0  0  0  0
    9.3621   42.7248   33.7343 O   0  0  0  0  0  0  0  0  0  0  0  0
    9.8903   41.2264   34.2936 P   0  0  0  0  0  0  0  0  0  0  0  0
   10.3732   41.4564   35.8831 O   0  0  0  0  0  0  0  0  0  0  0  0
    9.9460   45.0736   33.2113 C   0  0  1  0  0  0  0  0  0  0  0  0
   11.0267   46.0292   33.4710 N   0  0  0  0  0  0  0  0  0  0  0  0
    9.7540   44.8543   31.6951 C   0  0  0  0  0  0  0  0  0  0  0  0
    8.7957   45.8415   31.0853 C   0  0  0  0  0  0  0  0  0  0  0  0
    7.4091   45.6001   31.1009 C   0  0  0  0  0  0  0  0  0  0  0  0
    9.2824   46.9875   30.4395 C   0  0  0  0  0  0  0  0  0  0  0  0
    6.5257   46.4984   30.4854 C   0  0  0  0  0  0  0  0  0  0  0  0
    8.3998   47.8863   29.8301 C   0  0  0  0  0  0  0  0  0  0  0  0
    7.0178   47.6562   29.8474 C   0  0  0  0  0  0  0  0  0  0  0  0
    6.1859   48.5937   29.2128 O   0  0  0  0  0  0  0  0  0  0  0  0
    4.7583   48.6177   29.2532 C   0  0  1  0  0  0  0  0  0  0  0  0
    4.2503   49.0440   30.6374 C   0  0  0  0  0  0  0  0  0  0  0  0
    4.2324   49.5402   28.1646 C   0  0  0  0  0  0  0  0  0  0  0  0
    3.3892   48.9813   27.1714 C   0  0  0  0  0  0  0  0  0  0  0  0
    4.5157   50.9493   28.1236 C   0  0  0  0  0  0  0  0  0  0  0  0
    2.8524   49.8190   26.2027 C   0  0  0  0  0  0  0  0  0  0  0  0
    3.9279   51.7533   27.1209 C   0  0  0  0  0  0  0  0  0  0  0  0
    5.3738   51.5807   29.0837 N   0  0  0  0  0  0  0  0  0  0  0  0
    2.0121   49.4929   25.1555 O   0  0  0  0  0  0  0  0  0  0  0  0
    3.1079   51.1465   26.1802 C   0  0  0  0  0  0  0  0  0  0  0  0
    6.6849   51.1849   29.2019 O   0  0  0  0  0  0  0  0  0  0  0  0
    5.0188   52.6512   29.6186 O   0  0  0  0  0  0  0  0  0  0  0  0
    1.7234   50.6953   24.4291 C   0  0  0  0  0  0  0  0  0  0  0  0
    2.4430   51.7273   25.1174 O   0  0  0  0  0  0  0  0  0  0  0  0
    8.8128   40.1841   34.2125 O   0  0  0  0  0  0  0  0  0  0  0  0
   11.2416   40.7945   33.3692 O   0  0  0  0  0  0  0  0  0  0  0  0
   10.9177   40.6904   31.9968 C   0  0  0  0  0  0  0  0  0  0  0  0
   11.5180   39.3813   31.4408 C   0  0  0  0  0  0  0  0  0  0  0  0
   12.7497   39.0870   32.0746 O   0  0  0  0  0  0  0  0  0  0  0  0
   10.6045   38.1891   31.6655 C   0  0  0  0  0  0  0  0  0  0  0  0
   12.9344   37.6801   32.0290 C   0  0  0  0  0  0  0  0  0  0  0  0
    9.6418   38.0758   30.6441 O   0  0  0  0  0  0  0  0  0  0  0  0
   11.5741   37.0170   31.7045 C   0  0  0  0  0  0  0  0  0  0  0  0
   13.4851   37.2125   33.3241 N   0  0  0  0  0  0  0  0  0  0  0  0
   11.6079   36.3407   30.4680 O   0  0  0  0  0  0  0  0  0  0  0  0
   14.4801   36.3321   33.5727 C   0  0  0  0  0  0  0  0  0  0  0  0
   13.1140   37.6277   34.5693 C   0  0  0  0  0  0  0  0  0  0  0  0
   15.2073   35.6155   32.6739 N   0  0  0  0  0  0  0  0  0  0  0  0
   14.6758   36.2306   34.9182 C   0  0  0  0  0  0  0  0  0  0  0  0
   13.8217   37.0451   35.5785 N   0  0  0  0  0  0  0  0  0  0  0  0
   16.1639   34.7602   33.1546 C   0  0  0  0  0  0  0  0  0  0  0  0
   15.6526   35.3506   35.4130 C   0  0  0  0  0  0  0  0  0  0  0  0
   16.3794   34.6316   34.5041 N   0  0  0  0  0  0  0  0  0  0  0  0
   15.9001   35.1933   36.8089 N   0  0  0  0  0  0  0  0  0  0  0  0
    8.9996   45.4380   33.6724 H   0  0  0  0  0  0  0  0  0  0  0  0
   11.0503   46.2276   34.4984 H   0  0  0  0  0  0  0  0  0  0  0  0
   10.7764   46.9369   33.0161 H   0  0  0  0  0  0  0  0  0  0  0  0
    9.3645   43.8355   31.4712 H   0  0  0  0  0  0  0  0  0  0  0  0
   10.7411   44.9080   31.1837 H   0  0  0  0  0  0  0  0  0  0  0  0
    7.0155   44.7139   31.5834 H   0  0  0  0  0  0  0  0  0  0  0  0
   10.3463   47.1871   30.4046 H   0  0  0  0  0  0  0  0  0  0  0  0
    5.4701   46.2726   30.5102 H   0  0  0  0  0  0  0  0  0  0  0  0
    8.7925   48.7675   29.3386 H   0  0  0  0  0  0  0  0  0  0  0  0
    4.3801   47.5908   29.0584 H   0  0  0  0  0  0  0  0  0  0  0  0
    4.7299   49.9851   30.9725 H   0  0  0  0  0  0  0  0  0  0  0  0
    3.1485   49.1852   30.6143 H   0  0  0  0  0  0  0  0  0  0  0  0
    4.4786   48.2628   31.3906 H   0  0  0  0  0  0  0  0  0  0  0  0
    3.1459   47.9264   27.1580 H   0  0  0  0  0  0  0  0  0  0  0  0
    4.1192   52.8176   27.0702 H   0  0  0  0  0  0  0  0  0  0  0  0
    2.0849   50.6084   23.3831 H   0  0  0  0  0  0  0  0  0  0  0  0
    0.6337   50.9065   24.4535 H   0  0  0  0  0  0  0  0  0  0  0  0
    9.8288   40.7385   31.7615 H   0  0  0  0  0  0  0  0  0  0  0  0
   11.3944   41.5458   31.4719 H   0  0  0  0  0  0  0  0  0  0  0  0
   11.6994   39.5068   30.3484 H   0  0  0  0  0  0  0  0  0  0  0  0
   10.1090   38.2634   32.6632 H   0  0  0  0  0  0  0  0  0  0  0  0
   13.6662   37.4515   31.2224 H   0  0  0  0  0  0  0  0  0  0  0  0
    8.9008   38.6923   30.8794 H   0  0  0  0  0  0  0  0  0  0  0  0
   11.2650   36.3083   32.5087 H   0  0  0  0  0  0  0  0  0  0  0  0
   12.1372   35.5141   30.6163 H   0  0  0  0  0  0  0  0  0  0  0  0
   12.3297   38.3530   34.7450 H   0  0  0  0  0  0  0  0  0  0  0  0
   16.7558   34.1781   32.4618 H   0  0  0  0  0  0  0  0  0  0  0  0
   16.6346   34.5300   37.1414 H   0  0  0  0  0  0  0  0  0  0  0  0
   15.3533   35.7360   37.5138 H   0  0  0  0  0  0  0  0  0  0  0  0
  1  2  2  0
  1  3  1  0
  3  4  1  0
  4  5  1  0
  6  1  1  0
  7  6  1  0
  6  8  1  0
  8  9  1  0
  9 10  2  0
 11  9  1  0
 10 12  1  0
 13 11  2  0
 12 14  2  0
 14 13  1  0
 14 15  1  0
 15 16  1  0
 16 17  1  0
 16 18  1  0
 18 19  2  0
 20 18  1  0
 19 21  1  0
 22 20  2  0
 20 23  1  0
 21 24  1  0
 21 25  2  0
 25 22  1  0
 23 26  1  0
 23 27  2  0
 24 28  1  0
 25 29  1  0
 28 29  1  0
  4 30  2  0
  4 31  1  0
 32 31  1  0
 32 33  1  0
 33 34  1  0
 33 35  1  0
 34 36  1  0
 35 37  1  0
 35 38  1  0
 38 36  1  0
 36 39  1  0
 38 40  1  0
 41 39  1  0
 42 39  1  0
 43 41  2  0
 41 44  1  0
 45 42  2  0
 46 43  1  0
 44 47  2  0
 44 45  1  0
 48 46  2  0
 48 47  1  0
 47 49  1  0
  6 50  1  1
  7 51  1  0
  7 52  1  0
  8 53  1  0
  8 54  1  0
 10 55  1  0
 11 56  1  0
 12 57  1  0
 13 58  1  0
 16 59  1  6
 17 60  1  0
 17 61  1  0
 17 62  1  0
 19 63  1  0
 22 64  1  0
 28 65  1  0
 28 66  1  0
 32 67  1  0
 32 68  1  0
 33 69  1  0
 35 70  1  0
 36 71  1  0
 37 72  1  0
 38 73  1  0
 40 74  1  0
 42 75  1  0
 46 76  1  0
 49 77  1  0
 49 78  1  0
M  CHG  3   5  -1  23   1  26  -1
M  END
>  <EmbedRMS>  (106) 
0.0826254590466

$$$$

     RDKit          3D

 78 83  0  0  0  0  0  0  0  0999 V2000
   10.2804   43.7665   33.8250 C   0  0  0  0  0  0  0  0  0  0  0  0
   11.4111   43.5919   34.3667 O   0  0  0  0  0  0  0  0  0  0  0  0
    9.3619   42.7249   33.7345 O   0  0  0  0  0  0  0  0  0  0  0  0
    9.8900   41.2266   34.2940 P   0  0  0  0  0  0  0  0  0  0  0  0
   10.3734   41.4566   35.8833 O   0  0  0  0  0  0  0  0  0  0  0  0
    9.9458   45.0736   33.2113 C   0  0  1  0  0  0  0  0  0  0  0  0
   11.0265   46.0293   33.4706 N   0  0  0  0  0  0  0  0  0  0  0  0
    9.7534   44.8539   31.6951 C   0  0  0  0  0  0  0  0  0  0  0  0
    8.7955   45.8411   31.0849 C   0  0  0  0  0  0  0  0  0  0  0  0
    7.4087   45.6002   31.1001 C   0  0  0  0  0  0  0  0  0  0  0  0
    9.2831   46.9873   30.4394 C   0  0  0  0  0  0  0  0  0  0  0  0
    6.5282   46.5007   30.4846 C   0  0  0  0  0  0  0  0  0  0  0  0
    8.4028   47.8884   29.8295 C   0  0  0  0  0  0  0  0  0  0  0  0
    7.0134   47.6524   29.8501 C   0  0  0  0  0  0  0  0  0  0  0  0
    6.0859   48.5268   29.2602 O   0  0  0  0  0  0  0  0  0  0  0  0
    6.4022   49.7880   28.6641 C   0  0  1  0  0  0  0  0  0  0  0  0
    5.1594   50.3200   27.9526 C   0  0  0  0  0  0  0  0  0  0  0  0
    6.8599   50.7780   29.7219 C   0  0  0  0  0  0  0  0  0  0  0  0
    6.1399   50.8476   30.9399 C   0  0  0  0  0  0  0  0  0  0  0  0
    8.0250   51.5955   29.5481 C   0  0  0  0  0  0  0  0  0  0  0  0
    6.6124   51.6833   31.9430 C   0  0  0  0  0  0  0  0  0  0  0  0
    8.4671   52.4161   30.6113 C   0  0  0  0  0  0  0  0  0  0  0  0
    8.7510   51.6174   28.3092 N   0  0  0  0  0  0  0  0  0  0  0  0
    6.0855   51.8969   33.2022 O   0  0  0  0  0  0  0  0  0  0  0  0
    7.7296   52.4303   31.7877 C   0  0  0  0  0  0  0  0  0  0  0  0
    8.0796   51.7726   27.1186 O   0  0  0  0  0  0  0  0  0  0  0  0
    9.9950   51.7209   28.3170 O   0  0  0  0  0  0  0  0  0  0  0  0
    6.9272   52.8401   33.8796 C   0  0  0  0  0  0  0  0  0  0  0  0
    7.9643   53.1549   32.9404 O   0  0  0  0  0  0  0  0  0  0  0  0
    8.8124   40.1844   34.2133 O   0  0  0  0  0  0  0  0  0  0  0  0
   11.2405   40.7942   33.3692 O   0  0  0  0  0  0  0  0  0  0  0  0
   10.9150   40.6905   31.9972 C   0  0  0  0  0  0  0  0  0  0  0  0
   11.5252   39.3886   31.4375 C   0  0  0  0  0  0  0  0  0  0  0  0
   12.7499   39.0874   32.0799 O   0  0  0  0  0  0  0  0  0  0  0  0
   10.6092   38.1926   31.6470 C   0  0  0  0  0  0  0  0  0  0  0  0
   12.9332   37.6793   32.0294 C   0  0  0  0  0  0  0  0  0  0  0  0
    9.6122   38.0894   30.6542 O   0  0  0  0  0  0  0  0  0  0  0  0
   11.5743   37.0145   31.7024 C   0  0  0  0  0  0  0  0  0  0  0  0
   13.4844   37.2108   33.3241 N   0  0  0  0  0  0  0  0  0  0  0  0
   11.6298   36.3239   30.4740 O   0  0  0  0  0  0  0  0  0  0  0  0
   14.4802   36.3313   33.5727 C   0  0  0  0  0  0  0  0  0  0  0  0
   13.1139   37.6266   34.5693 C   0  0  0  0  0  0  0  0  0  0  0  0
   15.2075   35.6149   32.6739 N   0  0  0  0  0  0  0  0  0  0  0  0
   14.6761   36.2303   34.9181 C   0  0  0  0  0  0  0  0  0  0  0  0
   13.8220   37.0447   35.5785 N   0  0  0  0  0  0  0  0  0  0  0  0
   16.1643   34.7600   33.1547 C   0  0  0  0  0  0  0  0  0  0  0  0
   15.6529   35.3505   35.4130 C   0  0  0  0  0  0  0  0  0  0  0  0
   16.3798   34.6315   34.5042 N   0  0  0  0  0  0  0  0  0  0  0  0
   15.9003   35.1932   36.8090 N   0  0  0  0  0  0  0  0  0  0  0  0
    8.9995   45.4382   33.6724 H   0  0  0  0  0  0  0  0  0  0  0  0
   11.0503   46.2279   34.4979 H   0  0  0  0  0  0  0  0  0  0  0  0
   10.7761   46.9369   33.0156 H   0  0  0  0  0  0  0  0  0  0  0  0
    9.3634   43.8352   31.4716 H   0  0  0  0  0  0  0  0  0  0  0  0
   10.7405   44.9069   31.1836 H   0  0  0  0  0  0  0  0  0  0  0  0
    7.0130   44.7158   31.5841 H   0  0  0  0  0  0  0  0  0  0  0  0
   10.3474   47.1850   30.4048 H   0  0  0  0  0  0  0  0  0  0  0  0
    5.4637   46.3045   30.5055 H   0  0  0  0  0  0  0  0  0  0  0  0
    8.8162   48.7584   29.3406 H   0  0  0  0  0  0  0  0  0  0  0  0
    7.1819   49.6189   27.8933 H   0  0  0  0  0  0  0  0  0  0  0  0
    4.3178   50.4368   28.6685 H   0  0  0  0  0  0  0  0  0  0  0  0
    4.8503   49.6093   27.1570 H   0  0  0  0  0  0  0  0  0  0  0  0
    5.3733   51.3035   27.4827 H   0  0  0  0  0  0  0  0  0  0  0  0
    5.2528   50.2502   31.1079 H   0  0  0  0  0  0  0  0  0  0  0  0
    9.3455   53.0411   30.5134 H   0  0  0  0  0  0  0  0  0  0  0  0
    6.3514   53.7542   34.1352 H   0  0  0  0  0  0  0  0  0  0  0  0
    7.3627   52.3805   34.7915 H   0  0  0  0  0  0  0  0  0  0  0  0
    9.8242   40.7215   31.7641 H   0  0  0  0  0  0  0  0  0  0  0  0
   11.3800   41.5528   31.4730 H   0  0  0  0  0  0  0  0  0  0  0  0
   11.7266   39.5310   30.3513 H   0  0  0  0  0  0  0  0  0  0  0  0
   10.1110   38.2747   32.6387 H   0  0  0  0  0  0  0  0  0  0  0  0
   13.6652   37.4520   31.2226 H   0  0  0  0  0  0  0  0  0  0  0  0
   10.0511   38.1143   29.7645 H   0  0  0  0  0  0  0  0  0  0  0  0
   11.2762   36.3141   32.5189 H   0  0  0  0  0  0  0  0  0  0  0  0
   10.8593   35.6978   30.4640 H   0  0  0  0  0  0  0  0  0  0  0  0
   12.3295   38.3518   34.7450 H   0  0  0  0  0  0  0  0  0  0  0  0
   16.7564   34.1780   32.4620 H   0  0  0  0  0  0  0  0  0  0  0  0
   15.3534   35.7359   37.5138 H   0  0  0  0  0  0  0  0  0  0  0  0
   16.6349   34.5300   37.1416 H   0  0  0  0  0  0  0  0  0  0  0  0
  1  2  2  0
  1  3  1  0
  3  4  1  0
  4  5  1  0
  6  1  1  0
  7  6  1  0
  6  8  1  0
  8  9  1  0
  9 10  2  0
 11  9  1  0
 10 12  1  0
 13 11  2  0
 12 14  2  0
 14 13  1  0
 14 15  1  0
 15 16  1  0
 16 17  1  0
 16 18  1  0
 18 19  2  0
 20 18  1  0
 19 21  1  0
 22 20  2  0
 20 23  1  0
 21 24  1  0
 21 25  2  0
 25 22  1  0
 23 26  1  0
 23 27  2  0
 24 28  1  0
 25 29  1  0
 28 29  1  0
  4 30  2  0
  4 31  1  0
 32 31  1  0
 32 33  1  0
 33 34  1  0
 33 35  1  0
 34 36  1  0
 35 37  1  0
 35 38  1  0
 38 36  1  0
 36 39  1  0
 38 40  1  0
 41 39  1  0
 42 39  1  0
 43 41  2  0
 41 44  1  0
 45 42  2  0
 46 43  1  0
 44 47  2  0
 44 45  1  0
 48 46  2  0
 48 47  1  0
 47 49  1  0
  6 50  1  1
  7 51  1  0
  7 52  1  0
  8 53  1  0
  8 54  1  0
 10 55  1  0
 11 56  1  0
 12 57  1  0
 13 58  1  0
 16 59  1  6
 17 60  1  0
 17 61  1  0
 17 62  1  0
 19 63  1  0
 22 64  1  0
 28 65  1  0
 28 66  1  0
 32 67  1  0
 32 68  1  0
 33 69  1  0
 35 70  1  0
 36 71  1  0
 37 72  1  0
 38 73  1  0
 40 74  1  0
 42 75  1  0
 46 76  1  0
 49 77  1  0
 49 78  1  0
M  CHG  3   5  -1  23   1  26  -1
M  END
>  <EmbedRMS>  (107) 
0.0816483112551

$$$$

     RDKit          3D

 78 83  0  0  0  0  0  0  0  0999 V2000
   10.2840   43.7625   33.8276 C   0  0  0  0  0  0  0  0  0  0  0  0
   11.4104   43.5863   34.3768 O   0  0  0  0  0  0  0  0  0  0  0  0
    9.3633   42.7234   33.7353 O   0  0  0  0  0  0  0  0  0  0  0  0
    9.8898   41.2246   34.2940 P   0  0  0  0  0  0  0  0  0  0  0  0
   10.3725   41.4544   35.8837 O   0  0  0  0  0  0  0  0  0  0  0  0
    9.9549   45.0698   33.2065 C   0  0  1  0  0  0  0  0  0  0  0  0
   11.0198   46.0480   33.4568 N   0  0  0  0  0  0  0  0  0  0  0  0
    9.7501   44.8507   31.6925 C   0  0  0  0  0  0  0  0  0  0  0  0
    8.7942   45.8416   31.0873 C   0  0  0  0  0  0  0  0  0  0  0  0
    7.4080   45.6011   31.1002 C   0  0  0  0  0  0  0  0  0  0  0  0
    9.2826   46.9884   30.4451 C   0  0  0  0  0  0  0  0  0  0  0  0
    6.5293   46.5020   30.4839 C   0  0  0  0  0  0  0  0  0  0  0  0
    8.4034   47.8894   29.8327 C   0  0  0  0  0  0  0  0  0  0  0  0
    7.0134   47.6532   29.8465 C   0  0  0  0  0  0  0  0  0  0  0  0
    6.0736   48.5086   29.2420 O   0  0  0  0  0  0  0  0  0  0  0  0
    6.3242   49.7446   28.5592 C   0  0  1  0  0  0  0  0  0  0  0  0
    6.7216   50.8333   29.5687 C   0  0  0  0  0  0  0  0  0  0  0  0
    7.2562   49.5491   27.3619 C   0  0  0  0  0  0  0  0  0  0  0  0
    8.3900   50.3870   27.1758 C   0  0  0  0  0  0  0  0  0  0  0  0
    7.0153   48.4936   26.4143 C   0  0  0  0  0  0  0  0  0  0  0  0
    9.2445   50.1275   26.1130 C   0  0  0  0  0  0  0  0  0  0  0  0
    7.9319   48.2711   25.3621 C   0  0  0  0  0  0  0  0  0  0  0  0
    5.8652   47.6358   26.5077 N   0  0  0  0  0  0  0  0  0  0  0  0
   10.3997   50.7976   25.7582 O   0  0  0  0  0  0  0  0  0  0  0  0
    9.0283   49.1121   25.2482 C   0  0  0  0  0  0  0  0  0  0  0  0
    5.9628   46.3167   26.1286 O   0  0  0  0  0  0  0  0  0  0  0  0
    4.7351   48.1123   26.7379 O   0  0  0  0  0  0  0  0  0  0  0  0
   10.9419   50.1592   24.5943 C   0  0  0  0  0  0  0  0  0  0  0  0
   10.0347   49.0879   24.3019 O   0  0  0  0  0  0  0  0  0  0  0  0
    8.8118   40.1831   34.2121 O   0  0  0  0  0  0  0  0  0  0  0  0
   11.2413   40.7934   33.3696 O   0  0  0  0  0  0  0  0  0  0  0  0
   10.9179   40.6902   31.9971 C   0  0  0  0  0  0  0  0  0  0  0  0
   11.5181   39.3813   31.4408 C   0  0  0  0  0  0  0  0  0  0  0  0
   12.7498   39.0870   32.0745 O   0  0  0  0  0  0  0  0  0  0  0  0
   10.6045   38.1891   31.6655 C   0  0  0  0  0  0  0  0  0  0  0  0
   12.9344   37.6801   32.0290 C   0  0  0  0  0  0  0  0  0  0  0  0
    9.6418   38.0758   30.6440 O   0  0  0  0  0  0  0  0  0  0  0  0
   11.5741   37.0169   31.7045 C   0  0  0  0  0  0  0  0  0  0  0  0
   13.4851   37.2125   33.3241 N   0  0  0  0  0  0  0  0  0  0  0  0
   11.6079   36.3407   30.4679 O   0  0  0  0  0  0  0  0  0  0  0  0
   14.4801   36.3321   33.5727 C   0  0  0  0  0  0  0  0  0  0  0  0
   13.1140   37.6277   34.5692 C   0  0  0  0  0  0  0  0  0  0  0  0
   15.2073   35.6155   32.6739 N   0  0  0  0  0  0  0  0  0  0  0  0
   14.6758   36.2306   34.9182 C   0  0  0  0  0  0  0  0  0  0  0  0
   13.8217   37.0451   35.5784 N   0  0  0  0  0  0  0  0  0  0  0  0
   16.1639   34.7602   33.1546 C   0  0  0  0  0  0  0  0  0  0  0  0
   15.6526   35.3506   35.4130 C   0  0  0  0  0  0  0  0  0  0  0  0
   16.3794   34.6316   34.5041 N   0  0  0  0  0  0  0  0  0  0  0  0
   15.9001   35.1933   36.8089 N   0  0  0  0  0  0  0  0  0  0  0  0
    9.0099   45.4347   33.6672 H   0  0  0  0  0  0  0  0  0  0  0  0
   11.1135   46.1992   34.4881 H   0  0  0  0  0  0  0  0  0  0  0  0
   11.9348   45.6932   33.0923 H   0  0  0  0  0  0  0  0  0  0  0  0
   10.7304   44.8921   31.1675 H   0  0  0  0  0  0  0  0  0  0  0  0
    9.3509   43.8342   31.4763 H   0  0  0  0  0  0  0  0  0  0  0  0
    7.0111   44.7158   31.5816 H   0  0  0  0  0  0  0  0  0  0  0  0
   10.3471   47.1865   30.4153 H   0  0  0  0  0  0  0  0  0  0  0  0
    5.4653   46.3024   30.4996 H   0  0  0  0  0  0  0  0  0  0  0  0
    8.8258   48.7548   29.3504 H   0  0  0  0  0  0  0  0  0  0  0  0
    5.3521   50.0836   28.1432 H   0  0  0  0  0  0  0  0  0  0  0  0
    7.7182   50.6421   30.0135 H   0  0  0  0  0  0  0  0  0  0  0  0
    6.7224   51.8305   29.0793 H   0  0  0  0  0  0  0  0  0  0  0  0
    5.9772   50.8625   30.3926 H   0  0  0  0  0  0  0  0  0  0  0  0
    8.6266   51.2058   27.8392 H   0  0  0  0  0  0  0  0  0  0  0  0
    7.7812   47.4780   24.6411 H   0  0  0  0  0  0  0  0  0  0  0  0
   10.9772   50.8739   23.7455 H   0  0  0  0  0  0  0  0  0  0  0  0
   11.9530   49.7563   24.8131 H   0  0  0  0  0  0  0  0  0  0  0  0
   11.3949   41.5458   31.4729 H   0  0  0  0  0  0  0  0  0  0  0  0
    9.8290   40.7386   31.7615 H   0  0  0  0  0  0  0  0  0  0  0  0
   11.6994   39.5070   30.3483 H   0  0  0  0  0  0  0  0  0  0  0  0
   10.1090   38.2634   32.6632 H   0  0  0  0  0  0  0  0  0  0  0  0
   13.6662   37.4514   31.2224 H   0  0  0  0  0  0  0  0  0  0  0  0
    8.9009   38.6925   30.8793 H   0  0  0  0  0  0  0  0  0  0  0  0
   11.2650   36.3082   32.5086 H   0  0  0  0  0  0  0  0  0  0  0  0
   12.1372   35.5140   30.6163 H   0  0  0  0  0  0  0  0  0  0  0  0
   12.3297   38.3530   34.7449 H   0  0  0  0  0  0  0  0  0  0  0  0
   16.7558   34.1781   32.4619 H   0  0  0  0  0  0  0  0  0  0  0  0
   16.6346   34.5300   37.1414 H   0  0  0  0  0  0  0  0  0  0  0  0
   15.3533   35.7360   37.5138 H   0  0  0  0  0  0  0  0  0  0  0  0
  1  2  2  0
  1  3  1  0
  3  4  1  0
  4  5  1  0
  6  1  1  0
  7  6  1  0
  6  8  1  0
  8  9  1  0
  9 10  2  0
 11  9  1  0
 10 12  1  0
 13 11  2  0
 12 14  2  0
 14 13  1  0
 14 15  1  0
 15 16  1  0
 16 17  1  0
 16 18  1  0
 18 19  2  0
 20 18  1  0
 19 21  1  0
 22 20  2  0
 20 23  1  0
 21 24  1  0
 21 25  2  0
 25 22  1  0
 23 26  1  0
 23 27  2  0
 24 28  1  0
 25 29  1  0
 28 29  1  0
  4 30  2  0
  4 31  1  0
 32 31  1  0
 32 33  1  0
 33 34  1  0
 33 35  1  0
 34 36  1  0
 35 37  1  0
 35 38  1  0
 38 36  1  0
 36 39  1  0
 38 40  1  0
 41 39  1  0
 42 39  1  0
 43 41  2  0
 41 44  1  0
 45 42  2  0
 46 43  1  0
 44 47  2  0
 44 45  1  0
 48 46  2  0
 48 47  1  0
 47 49  1  0
  6 50  1  1
  7 51  1  0
  7 52  1  0
  8 53  1  0
  8 54  1  0
 10 55  1  0
 11 56  1  0
 12 57  1  0
 13 58  1  0
 16 59  1  6
 17 60  1  0
 17 61  1  0
 17 62  1  0
 19 63  1  0
 22 64  1  0
 28 65  1  0
 28 66  1  0
 32 67  1  0
 32 68  1  0
 33 69  1  0
 35 70  1  0
 36 71  1  0
 37 72  1  0
 38 73  1  0
 40 74  1  0
 42 75  1  0
 46 76  1  0
 49 77  1  0
 49 78  1  0
M  CHG  3   5  -1  23   1  26  -1
M  END
>  <EmbedRMS>  (108) 
0.0837085953385

$$$$

     RDKit          3D

 78 83  0  0  0  0  0  0  0  0999 V2000
   10.2835   43.7661   33.8258 C   0  0  0  0  0  0  0  0  0  0  0  0
   11.4103   43.5929   34.3753 O   0  0  0  0  0  0  0  0  0  0  0  0
    9.3637   42.7255   33.7350 O   0  0  0  0  0  0  0  0  0  0  0  0
    9.8902   41.2267   34.2942 P   0  0  0  0  0  0  0  0  0  0  0  0
   10.3736   41.4560   35.8836 O   0  0  0  0  0  0  0  0  0  0  0  0
    9.9548   45.0695   33.2039 C   0  0  1  0  0  0  0  0  0  0  0  0
   11.0275   46.0321   33.4757 N   0  0  0  0  0  0  0  0  0  0  0  0
    9.7464   44.8482   31.6881 C   0  0  0  0  0  0  0  0  0  0  0  0
    8.7922   45.8415   31.0858 C   0  0  0  0  0  0  0  0  0  0  0  0
    7.4059   45.6014   31.0985 C   0  0  0  0  0  0  0  0  0  0  0  0
    9.2820   46.9869   30.4417 C   0  0  0  0  0  0  0  0  0  0  0  0
    6.5277   46.5022   30.4816 C   0  0  0  0  0  0  0  0  0  0  0  0
    8.4031   47.8884   29.8302 C   0  0  0  0  0  0  0  0  0  0  0  0
    7.0128   47.6560   29.8499 C   0  0  0  0  0  0  0  0  0  0  0  0
    6.0768   48.5198   29.2476 O   0  0  0  0  0  0  0  0  0  0  0  0
    6.2878   49.8716   28.8061 C   0  0  1  0  0  0  0  0  0  0  0  0
    6.8983   50.7213   29.9397 C   0  0  0  0  0  0  0  0  0  0  0  0
    7.0624   49.9648   27.4884 C   0  0  0  0  0  0  0  0  0  0  0  0
    7.4971   48.7828   26.8302 C   0  0  0  0  0  0  0  0  0  0  0  0
    7.3550   51.2349   26.8794 C   0  0  0  0  0  0  0  0  0  0  0  0
    8.2662   48.9009   25.6805 C   0  0  0  0  0  0  0  0  0  0  0  0
    8.1587   51.2920   25.7190 C   0  0  0  0  0  0  0  0  0  0  0  0
    6.8207   52.4630   27.3940 N   0  0  0  0  0  0  0  0  0  0  0  0
    8.8094   47.8947   24.9048 O   0  0  0  0  0  0  0  0  0  0  0  0
    8.5921   50.1020   25.1546 C   0  0  0  0  0  0  0  0  0  0  0  0
    7.5904   53.6031   27.3748 O   0  0  0  0  0  0  0  0  0  0  0  0
    5.5978   52.5659   27.6210 O   0  0  0  0  0  0  0  0  0  0  0  0
    9.5252   48.5072   23.8237 C   0  0  0  0  0  0  0  0  0  0  0  0
    9.3596   49.9179   24.0206 O   0  0  0  0  0  0  0  0  0  0  0  0
    8.8121   40.1850   34.2131 O   0  0  0  0  0  0  0  0  0  0  0  0
   11.2404   40.7941   33.3690 O   0  0  0  0  0  0  0  0  0  0  0  0
   10.9143   40.6898   31.9972 C   0  0  0  0  0  0  0  0  0  0  0  0
   11.5261   39.3885   31.4376 C   0  0  0  0  0  0  0  0  0  0  0  0
   12.7504   39.0888   32.0816 O   0  0  0  0  0  0  0  0  0  0  0  0
   10.6115   38.1910   31.6460 C   0  0  0  0  0  0  0  0  0  0  0  0
   12.9357   37.6812   32.0303 C   0  0  0  0  0  0  0  0  0  0  0  0
    9.6146   38.0858   30.6533 O   0  0  0  0  0  0  0  0  0  0  0  0
   11.5769   37.0148   31.7012 C   0  0  0  0  0  0  0  0  0  0  0  0
   13.4849   37.2112   33.3247 N   0  0  0  0  0  0  0  0  0  0  0  0
   11.6193   36.3261   30.4724 O   0  0  0  0  0  0  0  0  0  0  0  0
   14.4802   36.3313   33.5730 C   0  0  0  0  0  0  0  0  0  0  0  0
   13.1141   37.6268   34.5698 C   0  0  0  0  0  0  0  0  0  0  0  0
   15.2075   35.6151   32.6741 N   0  0  0  0  0  0  0  0  0  0  0  0
   14.6761   36.2300   34.9184 C   0  0  0  0  0  0  0  0  0  0  0  0
   13.8220   37.0445   35.5789 N   0  0  0  0  0  0  0  0  0  0  0  0
   16.1642   34.7600   33.1547 C   0  0  0  0  0  0  0  0  0  0  0  0
   15.6529   35.3503   35.4131 C   0  0  0  0  0  0  0  0  0  0  0  0
   16.3797   34.6314   34.5042 N   0  0  0  0  0  0  0  0  0  0  0  0
   15.9004   35.1930   36.8090 N   0  0  0  0  0  0  0  0  0  0  0  0
    9.0123   45.4317   33.6720 H   0  0  0  0  0  0  0  0  0  0  0  0
   11.8908   45.7656   32.9471 H   0  0  0  0  0  0  0  0  0  0  0  0
   10.7262   46.9686   33.1211 H   0  0  0  0  0  0  0  0  0  0  0  0
    9.3409   43.8332   31.4766 H   0  0  0  0  0  0  0  0  0  0  0  0
   10.7227   44.8815   31.1559 H   0  0  0  0  0  0  0  0  0  0  0  0
    7.0086   44.7160   31.5793 H   0  0  0  0  0  0  0  0  0  0  0  0
   10.3472   47.1790   30.4026 H   0  0  0  0  0  0  0  0  0  0  0  0
    5.4635   46.3040   30.4977 H   0  0  0  0  0  0  0  0  0  0  0  0
    8.8230   48.7391   29.3171 H   0  0  0  0  0  0  0  0  0  0  0  0
    5.2738   50.2767   28.6075 H   0  0  0  0  0  0  0  0  0  0  0  0
    8.0052   50.7515   29.8837 H   0  0  0  0  0  0  0  0  0  0  0  0
    6.5273   51.7649   29.8964 H   0  0  0  0  0  0  0  0  0  0  0  0
    6.5996   50.3147   30.9293 H   0  0  0  0  0  0  0  0  0  0  0  0
    7.2561   47.7940   27.1913 H   0  0  0  0  0  0  0  0  0  0  0  0
    8.4043   52.2359   25.2495 H   0  0  0  0  0  0  0  0  0  0  0  0
   10.6009   48.2370   23.8733 H   0  0  0  0  0  0  0  0  0  0  0  0
    9.0863   48.2019   22.8507 H   0  0  0  0  0  0  0  0  0  0  0  0
    9.8233   40.7191   31.7647 H   0  0  0  0  0  0  0  0  0  0  0  0
   11.3779   41.5526   31.4727 H   0  0  0  0  0  0  0  0  0  0  0  0
   11.7283   39.5312   30.3515 H   0  0  0  0  0  0  0  0  0  0  0  0
   10.1127   38.2734   32.6376 H   0  0  0  0  0  0  0  0  0  0  0  0
   13.6692   37.4566   31.2242 H   0  0  0  0  0  0  0  0  0  0  0  0
   10.0533   38.1118   29.7635 H   0  0  0  0  0  0  0  0  0  0  0  0
   11.2607   36.3148   32.5102 H   0  0  0  0  0  0  0  0  0  0  0  0
   12.1496   35.5023   30.6324 H   0  0  0  0  0  0  0  0  0  0  0  0
   12.3301   38.3524   34.7455 H   0  0  0  0  0  0  0  0  0  0  0  0
   16.7562   34.1780   32.4619 H   0  0  0  0  0  0  0  0  0  0  0  0
   16.6351   34.5298   37.1416 H   0  0  0  0  0  0  0  0  0  0  0  0
   15.3536   35.7357   37.5139 H   0  0  0  0  0  0  0  0  0  0  0  0
  1  2  2  0
  1  3  1  0
  3  4  1  0
  4  5  1  0
  6  1  1  0
  7  6  1  0
  6  8  1  0
  8  9  1  0
  9 10  2  0
 11  9  1  0
 10 12  1  0
 13 11  2  0
 12 14  2  0
 14 13  1  0
 14 15  1  0
 15 16  1  0
 16 17  1  0
 16 18  1  0
 18 19  2  0
 20 18  1  0
 19 21  1  0
 22 20  2  0
 20 23  1  0
 21 24  1  0
 21 25  2  0
 25 22  1  0
 23 26  1  0
 23 27  2  0
 24 28  1  0
 25 29  1  0
 28 29  1  0
  4 30  2  0
  4 31  1  0
 32 31  1  0
 32 33  1  0
 33 34  1  0
 33 35  1  0
 34 36  1  0
 35 37  1  0
 35 38  1  0
 38 36  1  0
 36 39  1  0
 38 40  1  0
 41 39  1  0
 42 39  1  0
 43 41  2  0
 41 44  1  0
 45 42  2  0
 46 43  1  0
 44 47  2  0
 44 45  1  0
 48 46  2  0
 48 47  1  0
 47 49  1  0
  6 50  1  1
  7 51  1  0
  7 52  1  0
  8 53  1  0
  8 54  1  0
 10 55  1  0
 11 56  1  0
 12 57  1  0
 13 58  1  0
 16 59  1  6
 17 60  1  0
 17 61  1  0
 17 62  1  0
 19 63  1  0
 22 64  1  0
 28 65  1  0
 28 66  1  0
 32 67  1  0
 32 68  1  0
 33 69  1  0
 35 70  1  0
 36 71  1  0
 37 72  1  0
 38 73  1  0
 40 74  1  0
 42 75  1  0
 46 76  1  0
 49 77  1  0
 49 78  1  0
M  CHG  3   5  -1  23   1  26  -1
M  END
>  <EmbedRMS>  (109) 
0.0816013466927

$$$$

     RDKit          3D

 78 83  0  0  0  0  0  0  0  0999 V2000
   10.2838   43.7626   33.8275 C   0  0  0  0  0  0  0  0  0  0  0  0
   11.4103   43.5865   34.3767 O   0  0  0  0  0  0  0  0  0  0  0  0
    9.3633   42.7234   33.7351 O   0  0  0  0  0  0  0  0  0  0  0  0
    9.8899   41.2247   34.2940 P   0  0  0  0  0  0  0  0  0  0  0  0
   10.3723   41.4545   35.8837 O   0  0  0  0  0  0  0  0  0  0  0  0
    9.9548   45.0699   33.2061 C   0  0  1  0  0  0  0  0  0  0  0  0
   11.0196   46.0482   33.4570 N   0  0  0  0  0  0  0  0  0  0  0  0
    9.7510   44.8507   31.6919 C   0  0  0  0  0  0  0  0  0  0  0  0
    8.7949   45.8409   31.0855 C   0  0  0  0  0  0  0  0  0  0  0  0
    7.4083   45.6009   31.1011 C   0  0  0  0  0  0  0  0  0  0  0  0
    9.2826   46.9891   30.4450 C   0  0  0  0  0  0  0  0  0  0  0  0
    6.5263   46.5006   30.4870 C   0  0  0  0  0  0  0  0  0  0  0  0
    8.4003   47.8888   29.8358 C   0  0  0  0  0  0  0  0  0  0  0  0
    7.0186   47.6544   29.8424 C   0  0  0  0  0  0  0  0  0  0  0  0
    6.1866   48.6021   29.2140 O   0  0  0  0  0  0  0  0  0  0  0  0
    4.8057   48.4493   28.8447 C   0  0  1  0  0  0  0  0  0  0  0  0
    4.6110   47.1738   27.9991 C   0  0  0  0  0  0  0  0  0  0  0  0
    3.8460   48.5457   30.0342 C   0  0  0  0  0  0  0  0  0  0  0  0
    4.3513   48.7667   31.3438 C   0  0  0  0  0  0  0  0  0  0  0  0
    2.4225   48.4315   29.8598 C   0  0  0  0  0  0  0  0  0  0  0  0
    3.4650   48.7678   32.4122 C   0  0  0  0  0  0  0  0  0  0  0  0
    1.5724   48.4212   30.9880 C   0  0  0  0  0  0  0  0  0  0  0  0
    1.8216   48.3647   28.5586 N   0  0  0  0  0  0  0  0  0  0  0  0
    3.7411   48.9360   33.7556 O   0  0  0  0  0  0  0  0  0  0  0  0
    2.1361   48.5916   32.2433 C   0  0  0  0  0  0  0  0  0  0  0  0
    0.7278   47.5560   28.3528 O   0  0  0  0  0  0  0  0  0  0  0  0
    2.1173   49.2102   27.6896 O   0  0  0  0  0  0  0  0  0  0  0  0
    2.5031   48.8564   34.4750 C   0  0  0  0  0  0  0  0  0  0  0  0
    1.5034   48.6371   33.4706 O   0  0  0  0  0  0  0  0  0  0  0  0
    8.8119   40.1831   34.2121 O   0  0  0  0  0  0  0  0  0  0  0  0
   11.2415   40.7932   33.3699 O   0  0  0  0  0  0  0  0  0  0  0  0
   10.9186   40.6909   31.9972 C   0  0  0  0  0  0  0  0  0  0  0  0
   11.5172   39.3814   31.4407 C   0  0  0  0  0  0  0  0  0  0  0  0
   12.7493   39.0855   32.0728 O   0  0  0  0  0  0  0  0  0  0  0  0
   10.6023   38.1907   31.6665 C   0  0  0  0  0  0  0  0  0  0  0  0
   12.9319   37.6781   32.0281 C   0  0  0  0  0  0  0  0  0  0  0  0
    9.6392   38.0797   30.6452 O   0  0  0  0  0  0  0  0  0  0  0  0
   11.5715   37.0165   31.7056 C   0  0  0  0  0  0  0  0  0  0  0  0
   13.4846   37.2121   33.3235 N   0  0  0  0  0  0  0  0  0  0  0  0
   11.6187   36.3383   30.4694 O   0  0  0  0  0  0  0  0  0  0  0  0
   14.4801   36.3321   33.5724 C   0  0  0  0  0  0  0  0  0  0  0  0
   13.1137   37.6275   34.5687 C   0  0  0  0  0  0  0  0  0  0  0  0
   15.2073   35.6153   32.6738 N   0  0  0  0  0  0  0  0  0  0  0  0
   14.6759   36.2308   34.9179 C   0  0  0  0  0  0  0  0  0  0  0  0
   13.8216   37.0452   35.5781 N   0  0  0  0  0  0  0  0  0  0  0  0
   16.1639   34.7601   33.1546 C   0  0  0  0  0  0  0  0  0  0  0  0
   15.6526   35.3508   35.4129 C   0  0  0  0  0  0  0  0  0  0  0  0
   16.3794   34.6317   34.5041 N   0  0  0  0  0  0  0  0  0  0  0  0
   15.8999   35.1934   36.8088 N   0  0  0  0  0  0  0  0  0  0  0  0
    9.0096   45.4348   33.6663 H   0  0  0  0  0  0  0  0  0  0  0  0
   11.9348   45.6935   33.0930 H   0  0  0  0  0  0  0  0  0  0  0  0
   11.1127   46.1994   34.4883 H   0  0  0  0  0  0  0  0  0  0  0  0
    9.3524   43.8340   31.4756 H   0  0  0  0  0  0  0  0  0  0  0  0
   10.7315   44.8928   31.1675 H   0  0  0  0  0  0  0  0  0  0  0  0
    7.0126   44.7202   31.5919 H   0  0  0  0  0  0  0  0  0  0  0  0
   10.3464   47.1903   30.4165 H   0  0  0  0  0  0  0  0  0  0  0  0
    5.4686   46.3005   30.5516 H   0  0  0  0  0  0  0  0  0  0  0  0
    8.7936   48.7723   29.3490 H   0  0  0  0  0  0  0  0  0  0  0  0
    4.5811   49.3130   28.1849 H   0  0  0  0  0  0  0  0  0  0  0  0
    5.5459   46.9276   27.4524 H   0  0  0  0  0  0  0  0  0  0  0  0
    3.8220   47.3219   27.2348 H   0  0  0  0  0  0  0  0  0  0  0  0
    4.3208   46.3043   28.6229 H   0  0  0  0  0  0  0  0  0  0  0  0
    5.4001   48.9303   31.5425 H   0  0  0  0  0  0  0  0  0  0  0  0
    0.4994   48.3229   30.8842 H   0  0  0  0  0  0  0  0  0  0  0  0
    2.5259   48.0037   35.1856 H   0  0  0  0  0  0  0  0  0  0  0  0
    2.3072   49.8098   35.0090 H   0  0  0  0  0  0  0  0  0  0  0  0
   11.3972   41.5459   31.4735 H   0  0  0  0  0  0  0  0  0  0  0  0
    9.8300   40.7410   31.7610 H   0  0  0  0  0  0  0  0  0  0  0  0
   11.6974   39.5067   30.3480 H   0  0  0  0  0  0  0  0  0  0  0  0
   10.1077   38.2647   32.6645 H   0  0  0  0  0  0  0  0  0  0  0  0
   13.6621   37.4467   31.2209 H   0  0  0  0  0  0  0  0  0  0  0  0
    8.8975   38.6943   30.8831 H   0  0  0  0  0  0  0  0  0  0  0  0
   11.2806   36.3073   32.5170 H   0  0  0  0  0  0  0  0  0  0  0  0
   10.8493   35.7110   30.4585 H   0  0  0  0  0  0  0  0  0  0  0  0
   12.3290   38.3524   34.7444 H   0  0  0  0  0  0  0  0  0  0  0  0
   16.7559   34.1780   32.4619 H   0  0  0  0  0  0  0  0  0  0  0  0
   16.6344   34.5301   37.1414 H   0  0  0  0  0  0  0  0  0  0  0  0
   15.3532   35.7362   37.5137 H   0  0  0  0  0  0  0  0  0  0  0  0
  1  2  2  0
  1  3  1  0
  3  4  1  0
  4  5  1  0
  6  1  1  0
  7  6  1  0
  6  8  1  0
  8  9  1  0
  9 10  2  0
 11  9  1  0
 10 12  1  0
 13 11  2  0
 12 14  2  0
 14 13  1  0
 14 15  1  0
 15 16  1  0
 16 17  1  0
 16 18  1  0
 18 19  2  0
 20 18  1  0
 19 21  1  0
 22 20  2  0
 20 23  1  0
 21 24  1  0
 21 25  2  0
 25 22  1  0
 23 26  1  0
 23 27  2  0
 24 28  1  0
 25 29  1  0
 28 29  1  0
  4 30  2  0
  4 31  1  0
 32 31  1  0
 32 33  1  0
 33 34  1  0
 33 35  1  0
 34 36  1  0
 35 37  1  0
 35 38  1  0
 38 36  1  0
 36 39  1  0
 38 40  1  0
 41 39  1  0
 42 39  1  0
 43 41  2  0
 41 44  1  0
 45 42  2  0
 46 43  1  0
 44 47  2  0
 44 45  1  0
 48 46  2  0
 48 47  1  0
 47 49  1  0
  6 50  1  1
  7 51  1  0
  7 52  1  0
  8 53  1  0
  8 54  1  0
 10 55  1  0
 11 56  1  0
 12 57  1  0
 13 58  1  0
 16 59  1  6
 17 60  1  0
 17 61  1  0
 17 62  1  0
 19 63  1  0
 22 64  1  0
 28 65  1  0
 28 66  1  0
 32 67  1  0
 32 68  1  0
 33 69  1  0
 35 70  1  0
 36 71  1  0
 37 72  1  0
 38 73  1  0
 40 74  1  0
 42 75  1  0
 46 76  1  0
 49 77  1  0
 49 78  1  0
M  CHG  3   5  -1  23   1  26  -1
M  END
>  <EmbedRMS>  (110) 
0.0838458882198

$$$$

     RDKit          3D

 78 83  0  0  0  0  0  0  0  0999 V2000
   10.2804   43.7664   33.8250 C   0  0  0  0  0  0  0  0  0  0  0  0
   11.4111   43.5920   34.3667 O   0  0  0  0  0  0  0  0  0  0  0  0
    9.3621   42.7247   33.7343 O   0  0  0  0  0  0  0  0  0  0  0  0
    9.8904   41.2264   34.2937 P   0  0  0  0  0  0  0  0  0  0  0  0
   10.3732   41.4565   35.8832 O   0  0  0  0  0  0  0  0  0  0  0  0
    9.9457   45.0736   33.2112 C   0  0  1  0  0  0  0  0  0  0  0  0
   11.0264   46.0293   33.4706 N   0  0  0  0  0  0  0  0  0  0  0  0
    9.7534   44.8538   31.6950 C   0  0  0  0  0  0  0  0  0  0  0  0
    8.7955   45.8410   31.0847 C   0  0  0  0  0  0  0  0  0  0  0  0
    7.4087   45.6002   31.1002 C   0  0  0  0  0  0  0  0  0  0  0  0
    9.2831   46.9874   30.4395 C   0  0  0  0  0  0  0  0  0  0  0  0
    6.5283   46.5007   30.4848 C   0  0  0  0  0  0  0  0  0  0  0  0
    8.4028   47.8887   29.8298 C   0  0  0  0  0  0  0  0  0  0  0  0
    7.0136   47.6520   29.8499 C   0  0  0  0  0  0  0  0  0  0  0  0
    6.0851   48.5290   29.2648 O   0  0  0  0  0  0  0  0  0  0  0  0
    6.4052   49.7745   28.6409 C   0  0  1  0  0  0  0  0  0  0  0  0
    5.1850   50.3094   27.8923 C   0  0  0  0  0  0  0  0  0  0  0  0
    6.9168   50.8069   29.6355 C   0  0  0  0  0  0  0  0  0  0  0  0
    7.8642   51.7459   29.1603 C   0  0  0  0  0  0  0  0  0  0  0  0
    6.5285   50.8449   31.0201 C   0  0  0  0  0  0  0  0  0  0  0  0
    8.4079   52.6567   30.0556 C   0  0  0  0  0  0  0  0  0  0  0  0
    7.1295   51.7870   31.8865 C   0  0  0  0  0  0  0  0  0  0  0  0
    5.5493   49.9466   31.5648 N   0  0  0  0  0  0  0  0  0  0  0  0
    9.3437   53.6442   29.8145 O   0  0  0  0  0  0  0  0  0  0  0  0
    8.0592   52.6738   31.3617 C   0  0  0  0  0  0  0  0  0  0  0  0
    4.3238   49.8033   30.9587 O   0  0  0  0  0  0  0  0  0  0  0  0
    5.7203   49.4543   32.6992 O   0  0  0  0  0  0  0  0  0  0  0  0
    9.5970   54.3247   31.0512 C   0  0  0  0  0  0  0  0  0  0  0  0
    8.7561   53.6734   32.0130 O   0  0  0  0  0  0  0  0  0  0  0  0
    8.8129   40.1841   34.2125 O   0  0  0  0  0  0  0  0  0  0  0  0
   11.2419   40.7944   33.3695 O   0  0  0  0  0  0  0  0  0  0  0  0
   10.9185   40.6911   31.9970 C   0  0  0  0  0  0  0  0  0  0  0  0
   11.5172   39.3814   31.4407 C   0  0  0  0  0  0  0  0  0  0  0  0
   12.7492   39.0856   32.0729 O   0  0  0  0  0  0  0  0  0  0  0  0
   10.6023   38.1908   31.6665 C   0  0  0  0  0  0  0  0  0  0  0  0
   12.9319   37.6781   32.0281 C   0  0  0  0  0  0  0  0  0  0  0  0
    9.6392   38.0797   30.6452 O   0  0  0  0  0  0  0  0  0  0  0  0
   11.5715   37.0165   31.7056 C   0  0  0  0  0  0  0  0  0  0  0  0
   13.4847   37.2121   33.3235 N   0  0  0  0  0  0  0  0  0  0  0  0
   11.6187   36.3384   30.4695 O   0  0  0  0  0  0  0  0  0  0  0  0
   14.4801   36.3321   33.5724 C   0  0  0  0  0  0  0  0  0  0  0  0
   13.1137   37.6276   34.5687 C   0  0  0  0  0  0  0  0  0  0  0  0
   15.2073   35.6153   32.6738 N   0  0  0  0  0  0  0  0  0  0  0  0
   14.6759   36.2308   34.9179 C   0  0  0  0  0  0  0  0  0  0  0  0
   13.8216   37.0452   35.5781 N   0  0  0  0  0  0  0  0  0  0  0  0
   16.1639   34.7601   33.1546 C   0  0  0  0  0  0  0  0  0  0  0  0
   15.6526   35.3508   35.4129 C   0  0  0  0  0  0  0  0  0  0  0  0
   16.3794   34.6317   34.5041 N   0  0  0  0  0  0  0  0  0  0  0  0
   15.8999   35.1935   36.8088 N   0  0  0  0  0  0  0  0  0  0  0  0
    8.9993   45.4381   33.6723 H   0  0  0  0  0  0  0  0  0  0  0  0
   11.0502   46.2278   34.4980 H   0  0  0  0  0  0  0  0  0  0  0  0
   10.7759   46.9370   33.0157 H   0  0  0  0  0  0  0  0  0  0  0  0
    9.3635   43.8352   31.4716 H   0  0  0  0  0  0  0  0  0  0  0  0
   10.7406   44.9069   31.1836 H   0  0  0  0  0  0  0  0  0  0  0  0
    7.0129   44.7162   31.5848 H   0  0  0  0  0  0  0  0  0  0  0  0
   10.3473   47.1858   30.4061 H   0  0  0  0  0  0  0  0  0  0  0  0
    5.4635   46.3059   30.5075 H   0  0  0  0  0  0  0  0  0  0  0  0
    8.8156   48.7623   29.3460 H   0  0  0  0  0  0  0  0  0  0  0  0
    7.1844   49.5783   27.8703 H   0  0  0  0  0  0  0  0  0  0  0  0
    4.3667   50.5776   28.5897 H   0  0  0  0  0  0  0  0  0  0  0  0
    4.8113   49.5387   27.1852 H   0  0  0  0  0  0  0  0  0  0  0  0
    5.4625   51.2134   27.3091 H   0  0  0  0  0  0  0  0  0  0  0  0
    8.1797   51.7556   28.1244 H   0  0  0  0  0  0  0  0  0  0  0  0
    6.8644   51.8368   32.9348 H   0  0  0  0  0  0  0  0  0  0  0  0
    9.3203   55.3963   30.9636 H   0  0  0  0  0  0  0  0  0  0  0  0
   10.6638   54.2151   31.3384 H   0  0  0  0  0  0  0  0  0  0  0  0
    9.8298   40.7409   31.7611 H   0  0  0  0  0  0  0  0  0  0  0  0
   11.3966   41.5459   31.4726 H   0  0  0  0  0  0  0  0  0  0  0  0
   11.6975   39.5066   30.3481 H   0  0  0  0  0  0  0  0  0  0  0  0
   10.1076   38.2647   32.6646 H   0  0  0  0  0  0  0  0  0  0  0  0
   13.6621   37.4468   31.2209 H   0  0  0  0  0  0  0  0  0  0  0  0
    8.8974   38.6942   30.8832 H   0  0  0  0  0  0  0  0  0  0  0  0
   11.2806   36.3073   32.5171 H   0  0  0  0  0  0  0  0  0  0  0  0
   10.8492   35.7110   30.4586 H   0  0  0  0  0  0  0  0  0  0  0  0
   12.3291   38.3524   34.7444 H   0  0  0  0  0  0  0  0  0  0  0  0
   16.7559   34.1780   32.4619 H   0  0  0  0  0  0  0  0  0  0  0  0
   16.6344   34.5302   37.1414 H   0  0  0  0  0  0  0  0  0  0  0  0
   15.3531   35.7363   37.5137 H   0  0  0  0  0  0  0  0  0  0  0  0
  1  2  2  0
  1  3  1  0
  3  4  1  0
  4  5  1  0
  6  1  1  0
  7  6  1  0
  6  8  1  0
  8  9  1  0
  9 10  2  0
 11  9  1  0
 10 12  1  0
 13 11  2  0
 12 14  2  0
 14 13  1  0
 14 15  1  0
 15 16  1  0
 16 17  1  0
 16 18  1  0
 18 19  2  0
 20 18  1  0
 19 21  1  0
 22 20  2  0
 20 23  1  0
 21 24  1  0
 21 25  2  0
 25 22  1  0
 23 26  1  0
 23 27  2  0
 24 28  1  0
 25 29  1  0
 28 29  1  0
  4 30  2  0
  4 31  1  0
 32 31  1  0
 32 33  1  0
 33 34  1  0
 33 35  1  0
 34 36  1  0
 35 37  1  0
 35 38  1  0
 38 36  1  0
 36 39  1  0
 38 40  1  0
 41 39  1  0
 42 39  1  0
 43 41  2  0
 41 44  1  0
 45 42  2  0
 46 43  1  0
 44 47  2  0
 44 45  1  0
 48 46  2  0
 48 47  1  0
 47 49  1  0
  6 50  1  1
  7 51  1  0
  7 52  1  0
  8 53  1  0
  8 54  1  0
 10 55  1  0
 11 56  1  0
 12 57  1  0
 13 58  1  0
 16 59  1  6
 17 60  1  0
 17 61  1  0
 17 62  1  0
 19 63  1  0
 22 64  1  0
 28 65  1  0
 28 66  1  0
 32 67  1  0
 32 68  1  0
 33 69  1  0
 35 70  1  0
 36 71  1  0
 37 72  1  0
 38 73  1  0
 40 74  1  0
 42 75  1  0
 46 76  1  0
 49 77  1  0
 49 78  1  0
M  CHG  3   5  -1  23   1  26  -1
M  END
>  <EmbedRMS>  (111) 
0.082782397504

$$$$

     RDKit          3D

 78 83  0  0  0  0  0  0  0  0999 V2000
   10.2834   43.7662   33.8258 C   0  0  0  0  0  0  0  0  0  0  0  0
   11.4102   43.5930   34.3752 O   0  0  0  0  0  0  0  0  0  0  0  0
    9.3635   42.7257   33.7353 O   0  0  0  0  0  0  0  0  0  0  0  0
    9.8902   41.2269   34.2942 P   0  0  0  0  0  0  0  0  0  0  0  0
   10.3739   41.4559   35.8835 O   0  0  0  0  0  0  0  0  0  0  0  0
    9.9546   45.0695   33.2035 C   0  0  1  0  0  0  0  0  0  0  0  0
   11.0274   46.0321   33.4756 N   0  0  0  0  0  0  0  0  0  0  0  0
    9.7467   44.8479   31.6876 C   0  0  0  0  0  0  0  0  0  0  0  0
    8.7924   45.8405   31.0841 C   0  0  0  0  0  0  0  0  0  0  0  0
    7.4058   45.6016   31.0993 C   0  0  0  0  0  0  0  0  0  0  0  0
    9.2821   46.9877   30.4426 C   0  0  0  0  0  0  0  0  0  0  0  0
    6.5271   46.5035   30.4848 C   0  0  0  0  0  0  0  0  0  0  0  0
    8.4032   47.8906   29.8324 C   0  0  0  0  0  0  0  0  0  0  0  0
    7.0134   47.6525   29.8457 C   0  0  0  0  0  0  0  0  0  0  0  0
    6.0821   48.5211   29.2523 O   0  0  0  0  0  0  0  0  0  0  0  0
    6.3898   49.6745   28.4630 C   0  0  1  0  0  0  0  0  0  0  0  0
    6.8870   49.2484   27.0769 C   0  0  0  0  0  0  0  0  0  0  0  0
    5.1416   50.5247   28.3201 C   0  0  0  0  0  0  0  0  0  0  0  0
    3.9153   49.8812   28.0191 C   0  0  0  0  0  0  0  0  0  0  0  0
    5.1565   51.9455   28.5193 C   0  0  0  0  0  0  0  0  0  0  0  0
    2.7589   50.6479   27.9635 C   0  0  0  0  0  0  0  0  0  0  0  0
    3.9437   52.6710   28.4663 C   0  0  0  0  0  0  0  0  0  0  0  0
    6.3805   52.6625   28.7447 N   0  0  0  0  0  0  0  0  0  0  0  0
    1.4668   50.2355   27.7006 O   0  0  0  0  0  0  0  0  0  0  0  0
    2.7717   51.9826   28.1829 C   0  0  0  0  0  0  0  0  0  0  0  0
    7.4646   52.4514   27.9244 O   0  0  0  0  0  0  0  0  0  0  0  0
    6.3983   53.6351   29.5272 O   0  0  0  0  0  0  0  0  0  0  0  0
    0.6145   51.3875   27.7584 C   0  0  0  0  0  0  0  0  0  0  0  0
    1.4883   52.4815   28.0687 O   0  0  0  0  0  0  0  0  0  0  0  0
    8.8121   40.1851   34.2131 O   0  0  0  0  0  0  0  0  0  0  0  0
   11.2402   40.7952   33.3681 O   0  0  0  0  0  0  0  0  0  0  0  0
   10.9125   40.6877   31.9968 C   0  0  0  0  0  0  0  0  0  0  0  0
   11.5169   39.3811   31.4420 C   0  0  0  0  0  0  0  0  0  0  0  0
   12.7500   39.0881   32.0759 O   0  0  0  0  0  0  0  0  0  0  0  0
   10.6043   38.1893   31.6659 C   0  0  0  0  0  0  0  0  0  0  0  0
   12.9395   37.6814   32.0280 C   0  0  0  0  0  0  0  0  0  0  0  0
    9.6353   38.0951   30.6499 O   0  0  0  0  0  0  0  0  0  0  0  0
   11.5804   37.0191   31.6934 C   0  0  0  0  0  0  0  0  0  0  0  0
   13.4851   37.2119   33.3244 N   0  0  0  0  0  0  0  0  0  0  0  0
   11.6118   36.3189   30.4673 O   0  0  0  0  0  0  0  0  0  0  0  0
   14.4801   36.3316   33.5732 C   0  0  0  0  0  0  0  0  0  0  0  0
   13.1139   37.6277   34.5692 C   0  0  0  0  0  0  0  0  0  0  0  0
   15.2076   35.6154   32.6744 N   0  0  0  0  0  0  0  0  0  0  0  0
   14.6756   36.2303   34.9186 C   0  0  0  0  0  0  0  0  0  0  0  0
   13.8215   37.0451   35.5786 N   0  0  0  0  0  0  0  0  0  0  0  0
   16.1642   34.7602   33.1551 C   0  0  0  0  0  0  0  0  0  0  0  0
   15.6526   35.3505   35.4134 C   0  0  0  0  0  0  0  0  0  0  0  0
   16.3795   34.6316   34.5045 N   0  0  0  0  0  0  0  0  0  0  0  0
   15.9000   35.1933   36.8093 N   0  0  0  0  0  0  0  0  0  0  0  0
    9.0121   45.4318   33.6713 H   0  0  0  0  0  0  0  0  0  0  0  0
   11.8906   45.7658   32.9469 H   0  0  0  0  0  0  0  0  0  0  0  0
   10.7260   46.9688   33.1213 H   0  0  0  0  0  0  0  0  0  0  0  0
   10.7231   44.8813   31.1557 H   0  0  0  0  0  0  0  0  0  0  0  0
    9.3417   43.8327   31.4763 H   0  0  0  0  0  0  0  0  0  0  0  0
    7.0085   44.7171   31.5819 H   0  0  0  0  0  0  0  0  0  0  0  0
   10.3466   47.1853   30.4134 H   0  0  0  0  0  0  0  0  0  0  0  0
    5.4625   46.3074   30.5040 H   0  0  0  0  0  0  0  0  0  0  0  0
    8.8208   48.7658   29.3568 H   0  0  0  0  0  0  0  0  0  0  0  0
    7.1793   50.2547   28.9798 H   0  0  0  0  0  0  0  0  0  0  0  0
    7.8310   48.6726   27.1603 H   0  0  0  0  0  0  0  0  0  0  0  0
    6.1316   48.6091   26.5723 H   0  0  0  0  0  0  0  0  0  0  0  0
    7.0810   50.1416   26.4460 H   0  0  0  0  0  0  0  0  0  0  0  0
    3.8625   48.8128   27.8516 H   0  0  0  0  0  0  0  0  0  0  0  0
    3.9211   53.7430   28.6148 H   0  0  0  0  0  0  0  0  0  0  0  0
    0.1265   51.5538   26.7752 H   0  0  0  0  0  0  0  0  0  0  0  0
   -0.1443   51.2640   28.5593 H   0  0  0  0  0  0  0  0  0  0  0  0
   11.3807   41.5456   31.4685 H   0  0  0  0  0  0  0  0  0  0  0  0
    9.8215   40.7221   31.7647 H   0  0  0  0  0  0  0  0  0  0  0  0
   11.6986   39.5089   30.3499 H   0  0  0  0  0  0  0  0  0  0  0  0
   10.1109   38.2737   32.6630 H   0  0  0  0  0  0  0  0  0  0  0  0
   13.6783   37.4562   31.2271 H   0  0  0  0  0  0  0  0  0  0  0  0
    9.0020   37.3860   30.9348 H   0  0  0  0  0  0  0  0  0  0  0  0
   11.2808   36.3053   32.4921 H   0  0  0  0  0  0  0  0  0  0  0  0
   11.8819   36.9600   29.7584 H   0  0  0  0  0  0  0  0  0  0  0  0
   12.3303   38.3538   34.7445 H   0  0  0  0  0  0  0  0  0  0  0  0
   16.7563   34.1783   32.4624 H   0  0  0  0  0  0  0  0  0  0  0  0
   16.6347   34.5301   37.1418 H   0  0  0  0  0  0  0  0  0  0  0  0
   15.3532   35.7359   37.5142 H   0  0  0  0  0  0  0  0  0  0  0  0
  1  2  2  0
  1  3  1  0
  3  4  1  0
  4  5  1  0
  6  1  1  0
  7  6  1  0
  6  8  1  0
  8  9  1  0
  9 10  2  0
 11  9  1  0
 10 12  1  0
 13 11  2  0
 12 14  2  0
 14 13  1  0
 14 15  1  0
 15 16  1  0
 16 17  1  0
 16 18  1  0
 18 19  2  0
 20 18  1  0
 19 21  1  0
 22 20  2  0
 20 23  1  0
 21 24  1  0
 21 25  2  0
 25 22  1  0
 23 26  1  0
 23 27  2  0
 24 28  1  0
 25 29  1  0
 28 29  1  0
  4 30  2  0
  4 31  1  0
 32 31  1  0
 32 33  1  0
 33 34  1  0
 33 35  1  0
 34 36  1  0
 35 37  1  0
 35 38  1  0
 38 36  1  0
 36 39  1  0
 38 40  1  0
 41 39  1  0
 42 39  1  0
 43 41  2  0
 41 44  1  0
 45 42  2  0
 46 43  1  0
 44 47  2  0
 44 45  1  0
 48 46  2  0
 48 47  1  0
 47 49  1  0
  6 50  1  1
  7 51  1  0
  7 52  1  0
  8 53  1  0
  8 54  1  0
 10 55  1  0
 11 56  1  0
 12 57  1  0
 13 58  1  0
 16 59  1  1
 17 60  1  0
 17 61  1  0
 17 62  1  0
 19 63  1  0
 22 64  1  0
 28 65  1  0
 28 66  1  0
 32 67  1  0
 32 68  1  0
 33 69  1  0
 35 70  1  0
 36 71  1  0
 37 72  1  0
 38 73  1  0
 40 74  1  0
 42 75  1  0
 46 76  1  0
 49 77  1  0
 49 78  1  0
M  CHG  3   5  -1  23   1  26  -1
M  END
>  <EmbedRMS>  (112) 
0.0815664870855

$$$$

     RDKit          3D

 78 83  0  0  0  0  0  0  0  0999 V2000
   10.2835   43.7662   33.8255 C   0  0  0  0  0  0  0  0  0  0  0  0
   11.4102   43.5930   34.3752 O   0  0  0  0  0  0  0  0  0  0  0  0
    9.3637   42.7255   33.7347 O   0  0  0  0  0  0  0  0  0  0  0  0
    9.8906   41.2266   34.2933 P   0  0  0  0  0  0  0  0  0  0  0  0
   10.3743   41.4557   35.8827 O   0  0  0  0  0  0  0  0  0  0  0  0
    9.9547   45.0695   33.2034 C   0  0  1  0  0  0  0  0  0  0  0  0
   11.0274   46.0322   33.4759 N   0  0  0  0  0  0  0  0  0  0  0  0
    9.7471   44.8484   31.6874 C   0  0  0  0  0  0  0  0  0  0  0  0
    8.7925   45.8409   31.0843 C   0  0  0  0  0  0  0  0  0  0  0  0
    7.4057   45.6012   31.0998 C   0  0  0  0  0  0  0  0  0  0  0  0
    9.2816   46.9883   30.4425 C   0  0  0  0  0  0  0  0  0  0  0  0
    6.5244   46.5013   30.4857 C   0  0  0  0  0  0  0  0  0  0  0  0
    8.4004   47.8886   29.8329 C   0  0  0  0  0  0  0  0  0  0  0  0
    7.0191   47.6554   29.8442 C   0  0  0  0  0  0  0  0  0  0  0  0
    6.1834   48.5854   29.2037 O   0  0  0  0  0  0  0  0  0  0  0  0
    4.7671   48.4597   29.0578 C   0  0  1  0  0  0  0  0  0  0  0  0
    4.1789   49.7742   28.5459 C   0  0  0  0  0  0  0  0  0  0  0  0
    4.3810   47.3078   28.1410 C   0  0  0  0  0  0  0  0  0  0  0  0
    3.1797   46.6198   28.4389 C   0  0  0  0  0  0  0  0  0  0  0  0
    5.1875   46.8605   27.0361 C   0  0  0  0  0  0  0  0  0  0  0  0
    2.8345   45.5168   27.6701 C   0  0  0  0  0  0  0  0  0  0  0  0
    4.7909   45.7205   26.3010 C   0  0  0  0  0  0  0  0  0  0  0  0
    6.4025   47.5235   26.6536 N   0  0  0  0  0  0  0  0  0  0  0  0
    1.7257   44.7009   27.7878 O   0  0  0  0  0  0  0  0  0  0  0  0
    3.6080   45.0837   26.6493 C   0  0  0  0  0  0  0  0  0  0  0  0
    7.4821   46.7798   26.2359 O   0  0  0  0  0  0  0  0  0  0  0  0
    6.4216   48.7588   26.4823 O   0  0  0  0  0  0  0  0  0  0  0  0
    1.8104   43.6907   26.7735 C   0  0  0  0  0  0  0  0  0  0  0  0
    3.0275   43.9723   26.0690 O   0  0  0  0  0  0  0  0  0  0  0  0
    8.8122   40.1851   34.2127 O   0  0  0  0  0  0  0  0  0  0  0  0
   11.2406   40.7945   33.3670 O   0  0  0  0  0  0  0  0  0  0  0  0
   10.9134   40.6866   31.9954 C   0  0  0  0  0  0  0  0  0  0  0  0
   11.5166   39.3787   31.4404 C   0  0  0  0  0  0  0  0  0  0  0  0
   12.7486   39.0849   32.0734 O   0  0  0  0  0  0  0  0  0  0  0  0
   10.6039   38.1884   31.6669 C   0  0  0  0  0  0  0  0  0  0  0  0
   12.9329   37.6776   32.0284 C   0  0  0  0  0  0  0  0  0  0  0  0
    9.6373   38.0938   30.6485 O   0  0  0  0  0  0  0  0  0  0  0  0
   11.5737   37.0141   31.7055 C   0  0  0  0  0  0  0  0  0  0  0  0
   13.4853   37.2120   33.3238 N   0  0  0  0  0  0  0  0  0  0  0  0
   11.6210   36.3379   30.4683 O   0  0  0  0  0  0  0  0  0  0  0  0
   14.4804   36.3319   33.5726 C   0  0  0  0  0  0  0  0  0  0  0  0
   13.1141   37.6275   34.5689 C   0  0  0  0  0  0  0  0  0  0  0  0
   15.2075   35.6152   32.6740 N   0  0  0  0  0  0  0  0  0  0  0  0
   14.6761   36.2306   34.9181 C   0  0  0  0  0  0  0  0  0  0  0  0
   13.8218   37.0451   35.5783 N   0  0  0  0  0  0  0  0  0  0  0  0
   16.1642   34.7600   33.1548 C   0  0  0  0  0  0  0  0  0  0  0  0
   15.6528   35.3507   35.4131 C   0  0  0  0  0  0  0  0  0  0  0  0
   16.3796   34.6315   34.5043 N   0  0  0  0  0  0  0  0  0  0  0  0
   15.9001   35.1933   36.8090 N   0  0  0  0  0  0  0  0  0  0  0  0
    9.0121   45.4317   33.6711 H   0  0  0  0  0  0  0  0  0  0  0  0
   10.7261   46.9688   33.1214 H   0  0  0  0  0  0  0  0  0  0  0  0
   11.8908   45.7659   32.9475 H   0  0  0  0  0  0  0  0  0  0  0  0
   10.7235   44.8825   31.1556 H   0  0  0  0  0  0  0  0  0  0  0  0
    9.3425   43.8331   31.4756 H   0  0  0  0  0  0  0  0  0  0  0  0
    7.0101   44.7161   31.5827 H   0  0  0  0  0  0  0  0  0  0  0  0
   10.3459   47.1865   30.4103 H   0  0  0  0  0  0  0  0  0  0  0  0
    5.4657   46.2866   30.5167 H   0  0  0  0  0  0  0  0  0  0  0  0
    8.7937   48.7688   29.3403 H   0  0  0  0  0  0  0  0  0  0  0  0
    4.3336   48.2963   30.0702 H   0  0  0  0  0  0  0  0  0  0  0  0
    3.0694   49.7156   28.5346 H   0  0  0  0  0  0  0  0  0  0  0  0
    4.4780   50.6056   29.2188 H   0  0  0  0  0  0  0  0  0  0  0  0
    4.5304   50.0047   27.5206 H   0  0  0  0  0  0  0  0  0  0  0  0
    2.5406   46.9268   29.2573 H   0  0  0  0  0  0  0  0  0  0  0  0
    5.3796   45.3538   25.4699 H   0  0  0  0  0  0  0  0  0  0  0  0
    1.8607   42.6835   27.2377 H   0  0  0  0  0  0  0  0  0  0  0  0
    0.9430   43.7646   26.0845 H   0  0  0  0  0  0  0  0  0  0  0  0
    9.8225   40.7225   31.7631 H   0  0  0  0  0  0  0  0  0  0  0  0
   11.3828   41.5438   31.4669 H   0  0  0  0  0  0  0  0  0  0  0  0
   11.6978   39.5037   30.3478 H   0  0  0  0  0  0  0  0  0  0  0  0
   10.1084   38.2787   32.6627 H   0  0  0  0  0  0  0  0  0  0  0  0
   13.6638   37.4472   31.2214 H   0  0  0  0  0  0  0  0  0  0  0  0
    8.9762   37.4191   30.9532 H   0  0  0  0  0  0  0  0  0  0  0  0
   11.2821   36.3054   32.5172 H   0  0  0  0  0  0  0  0  0  0  0  0
   10.8657   35.6936   30.4652 H   0  0  0  0  0  0  0  0  0  0  0  0
   12.3293   38.3523   34.7444 H   0  0  0  0  0  0  0  0  0  0  0  0
   16.7561   34.1778   32.4621 H   0  0  0  0  0  0  0  0  0  0  0  0
   15.3533   35.7361   37.5138 H   0  0  0  0  0  0  0  0  0  0  0  0
   16.6345   34.5300   37.1416 H   0  0  0  0  0  0  0  0  0  0  0  0
  1  2  2  0
  1  3  1  0
  3  4  1  0
  4  5  1  0
  6  1  1  0
  7  6  1  0
  6  8  1  0
  8  9  1  0
  9 10  2  0
 11  9  1  0
 10 12  1  0
 13 11  2  0
 12 14  2  0
 14 13  1  0
 14 15  1  0
 15 16  1  0
 16 17  1  0
 16 18  1  0
 18 19  2  0
 20 18  1  0
 19 21  1  0
 22 20  2  0
 20 23  1  0
 21 24  1  0
 21 25  2  0
 25 22  1  0
 23 26  1  0
 23 27  2  0
 24 28  1  0
 25 29  1  0
 28 29  1  0
  4 30  2  0
  4 31  1  0
 32 31  1  0
 32 33  1  0
 33 34  1  0
 33 35  1  0
 34 36  1  0
 35 37  1  0
 35 38  1  0
 38 36  1  0
 36 39  1  0
 38 40  1  0
 41 39  1  0
 42 39  1  0
 43 41  2  0
 41 44  1  0
 45 42  2  0
 46 43  1  0
 44 47  2  0
 44 45  1  0
 48 46  2  0
 48 47  1  0
 47 49  1  0
  6 50  1  1
  7 51  1  0
  7 52  1  0
  8 53  1  0
  8 54  1  0
 10 55  1  0
 11 56  1  0
 12 57  1  0
 13 58  1  0
 16 59  1  1
 17 60  1  0
 17 61  1  0
 17 62  1  0
 19 63  1  0
 22 64  1  0
 28 65  1  0
 28 66  1  0
 32 67  1  0
 32 68  1  0
 33 69  1  0
 35 70  1  0
 36 71  1  0
 37 72  1  0
 38 73  1  0
 40 74  1  0
 42 75  1  0
 46 76  1  0
 49 77  1  0
 49 78  1  0
M  CHG  3   5  -1  23   1  26  -1
M  END
>  <EmbedRMS>  (113) 
0.0825571102915

$$$$

     RDKit          3D

 78 83  0  0  0  0  0  0  0  0999 V2000
   10.2834   43.7665   33.8256 C   0  0  0  0  0  0  0  0  0  0  0  0
   11.4102   43.5933   34.3750 O   0  0  0  0  0  0  0  0  0  0  0  0
    9.3637   42.7257   33.7349 O   0  0  0  0  0  0  0  0  0  0  0  0
    9.8902   41.2269   34.2942 P   0  0  0  0  0  0  0  0  0  0  0  0
   10.3736   41.4561   35.8836 O   0  0  0  0  0  0  0  0  0  0  0  0
    9.9543   45.0699   33.2036 C   0  0  1  0  0  0  0  0  0  0  0  0
   11.0268   46.0329   33.4758 N   0  0  0  0  0  0  0  0  0  0  0  0
    9.7463   44.8487   31.6877 C   0  0  0  0  0  0  0  0  0  0  0  0
    8.7919   45.8414   31.0845 C   0  0  0  0  0  0  0  0  0  0  0  0
    7.4040   45.6000   31.0971 C   0  0  0  0  0  0  0  0  0  0  0  0
    9.2827   46.9882   30.4403 C   0  0  0  0  0  0  0  0  0  0  0  0
    6.5246   46.5012   30.4810 C   0  0  0  0  0  0  0  0  0  0  0  0
    8.4019   47.8877   29.8287 C   0  0  0  0  0  0  0  0  0  0  0  0
    7.0202   47.6544   29.8573 C   0  0  0  0  0  0  0  0  0  0  0  0
    6.1445   48.5617   29.2539 O   0  0  0  0  0  0  0  0  0  0  0  0
    5.5716   49.6811   29.9382 C   0  0  1  0  0  0  0  0  0  0  0  0
    4.5198   49.2277   30.9608 C   0  0  0  0  0  0  0  0  0  0  0  0
    6.6512   50.5805   30.5325 C   0  0  0  0  0  0  0  0  0  0  0  0
    7.2115   50.2693   31.7993 C   0  0  0  0  0  0  0  0  0  0  0  0
    7.1247   51.7391   29.8300 C   0  0  0  0  0  0  0  0  0  0  0  0
    8.1605   51.1278   32.3368 C   0  0  0  0  0  0  0  0  0  0  0  0
    8.0776   52.5880   30.4388 C   0  0  0  0  0  0  0  0  0  0  0  0
    6.6862   52.0400   28.4955 N   0  0  0  0  0  0  0  0  0  0  0  0
    8.8256   51.0245   33.5434 O   0  0  0  0  0  0  0  0  0  0  0  0
    8.5694   52.2419   31.6894 C   0  0  0  0  0  0  0  0  0  0  0  0
    6.6663   51.0526   27.5375 O   0  0  0  0  0  0  0  0  0  0  0  0
    6.5386   53.2273   28.1395 O   0  0  0  0  0  0  0  0  0  0  0  0
    9.7080   52.1488   33.6596 C   0  0  0  0  0  0  0  0  0  0  0  0
    9.5129   52.9006   32.4541 O   0  0  0  0  0  0  0  0  0  0  0  0
    8.8121   40.1852   34.2131 O   0  0  0  0  0  0  0  0  0  0  0  0
   11.2404   40.7942   33.3690 O   0  0  0  0  0  0  0  0  0  0  0  0
   10.9144   40.6898   31.9972 C   0  0  0  0  0  0  0  0  0  0  0  0
   11.5261   39.3885   31.4376 C   0  0  0  0  0  0  0  0  0  0  0  0
   12.7504   39.0888   32.0816 O   0  0  0  0  0  0  0  0  0  0  0  0
   10.6115   38.1910   31.6460 C   0  0  0  0  0  0  0  0  0  0  0  0
   12.9357   37.6812   32.0303 C   0  0  0  0  0  0  0  0  0  0  0  0
    9.6145   38.0859   30.6534 O   0  0  0  0  0  0  0  0  0  0  0  0
   11.5769   37.0148   31.7012 C   0  0  0  0  0  0  0  0  0  0  0  0
   13.4849   37.2112   33.3247 N   0  0  0  0  0  0  0  0  0  0  0  0
   11.6193   36.3261   30.4724 O   0  0  0  0  0  0  0  0  0  0  0  0
   14.4802   36.3313   33.5730 C   0  0  0  0  0  0  0  0  0  0  0  0
   13.1141   37.6269   34.5697 C   0  0  0  0  0  0  0  0  0  0  0  0
   15.2074   35.6150   32.6741 N   0  0  0  0  0  0  0  0  0  0  0  0
   14.6761   36.2301   34.9184 C   0  0  0  0  0  0  0  0  0  0  0  0
   13.8221   37.0445   35.5788 N   0  0  0  0  0  0  0  0  0  0  0  0
   16.1642   34.7599   33.1547 C   0  0  0  0  0  0  0  0  0  0  0  0
   15.6529   35.3503   35.4132 C   0  0  0  0  0  0  0  0  0  0  0  0
   16.3797   34.6314   34.5042 N   0  0  0  0  0  0  0  0  0  0  0  0
   15.9003   35.1930   36.8091 N   0  0  0  0  0  0  0  0  0  0  0  0
    9.0116   45.4320   33.6714 H   0  0  0  0  0  0  0  0  0  0  0  0
   11.8898   45.7675   32.9464 H   0  0  0  0  0  0  0  0  0  0  0  0
   10.7245   46.9697   33.1225 H   0  0  0  0  0  0  0  0  0  0  0  0
   10.7227   44.8825   31.1558 H   0  0  0  0  0  0  0  0  0  0  0  0
    9.3414   43.8335   31.4761 H   0  0  0  0  0  0  0  0  0  0  0  0
    7.0073   44.7136   31.5765 H   0  0  0  0  0  0  0  0  0  0  0  0
   10.3470   47.1860   30.4080 H   0  0  0  0  0  0  0  0  0  0  0  0
    5.4603   46.3049   30.4921 H   0  0  0  0  0  0  0  0  0  0  0  0
    8.7917   48.7704   29.3378 H   0  0  0  0  0  0  0  0  0  0  0  0
    4.9949   50.2619   29.1893 H   0  0  0  0  0  0  0  0  0  0  0  0
    4.0975   50.1085   31.4901 H   0  0  0  0  0  0  0  0  0  0  0  0
    4.9438   48.5269   31.7073 H   0  0  0  0  0  0  0  0  0  0  0  0
    3.6928   48.7047   30.4354 H   0  0  0  0  0  0  0  0  0  0  0  0
    6.9271   49.3862   32.3533 H   0  0  0  0  0  0  0  0  0  0  0  0
    8.4502   53.4705   29.9349 H   0  0  0  0  0  0  0  0  0  0  0  0
    9.4336   52.7628   34.5429 H   0  0  0  0  0  0  0  0  0  0  0  0
   10.7611   51.8046   33.7304 H   0  0  0  0  0  0  0  0  0  0  0  0
    9.8233   40.7191   31.7646 H   0  0  0  0  0  0  0  0  0  0  0  0
   11.3779   41.5526   31.4725 H   0  0  0  0  0  0  0  0  0  0  0  0
   11.7284   39.5311   30.3515 H   0  0  0  0  0  0  0  0  0  0  0  0
   10.1126   38.2733   32.6376 H   0  0  0  0  0  0  0  0  0  0  0  0
   13.6692   37.4566   31.2241 H   0  0  0  0  0  0  0  0  0  0  0  0
   10.0533   38.1119   29.7636 H   0  0  0  0  0  0  0  0  0  0  0  0
   11.2607   36.3148   32.5101 H   0  0  0  0  0  0  0  0  0  0  0  0
   12.1496   35.5023   30.6324 H   0  0  0  0  0  0  0  0  0  0  0  0
   12.3302   38.3525   34.7455 H   0  0  0  0  0  0  0  0  0  0  0  0
   16.7562   34.1779   32.4620 H   0  0  0  0  0  0  0  0  0  0  0  0
   16.6350   34.5299   37.1415 H   0  0  0  0  0  0  0  0  0  0  0  0
   15.3535   35.7357   37.5140 H   0  0  0  0  0  0  0  0  0  0  0  0
  1  2  2  0
  1  3  1  0
  3  4  1  0
  4  5  1  0
  6  1  1  0
  7  6  1  0
  6  8  1  0
  8  9  1  0
  9 10  2  0
 11  9  1  0
 10 12  1  0
 13 11  2  0
 12 14  2  0
 14 13  1  0
 14 15  1  0
 15 16  1  0
 16 17  1  0
 16 18  1  0
 18 19  2  0
 20 18  1  0
 19 21  1  0
 22 20  2  0
 20 23  1  0
 21 24  1  0
 21 25  2  0
 25 22  1  0
 23 26  1  0
 23 27  2  0
 24 28  1  0
 25 29  1  0
 28 29  1  0
  4 30  2  0
  4 31  1  0
 32 31  1  0
 32 33  1  0
 33 34  1  0
 33 35  1  0
 34 36  1  0
 35 37  1  0
 35 38  1  0
 38 36  1  0
 36 39  1  0
 38 40  1  0
 41 39  1  0
 42 39  1  0
 43 41  2  0
 41 44  1  0
 45 42  2  0
 46 43  1  0
 44 47  2  0
 44 45  1  0
 48 46  2  0
 48 47  1  0
 47 49  1  0
  6 50  1  1
  7 51  1  0
  7 52  1  0
  8 53  1  0
  8 54  1  0
 10 55  1  0
 11 56  1  0
 12 57  1  0
 13 58  1  0
 16 59  1  6
 17 60  1  0
 17 61  1  0
 17 62  1  0
 19 63  1  0
 22 64  1  0
 28 65  1  0
 28 66  1  0
 32 67  1  0
 32 68  1  0
 33 69  1  0
 35 70  1  0
 36 71  1  0
 37 72  1  0
 38 73  1  0
 40 74  1  0
 42 75  1  0
 46 76  1  0
 49 77  1  0
 49 78  1  0
M  CHG  3   5  -1  23   1  26  -1
M  END
>  <EmbedRMS>  (114) 
0.0817289938777

$$$$

     RDKit          3D

 78 83  0  0  0  0  0  0  0  0999 V2000
   10.2833   43.7662   33.8252 C   0  0  0  0  0  0  0  0  0  0  0  0
   11.4100   43.5931   34.3750 O   0  0  0  0  0  0  0  0  0  0  0  0
    9.3637   42.7255   33.7346 O   0  0  0  0  0  0  0  0  0  0  0  0
    9.8906   41.2266   34.2932 P   0  0  0  0  0  0  0  0  0  0  0  0
   10.3742   41.4558   35.8827 O   0  0  0  0  0  0  0  0  0  0  0  0
    9.9545   45.0695   33.2030 C   0  0  1  0  0  0  0  0  0  0  0  0
   11.0272   46.0322   33.4753 N   0  0  0  0  0  0  0  0  0  0  0  0
    9.7465   44.8484   31.6869 C   0  0  0  0  0  0  0  0  0  0  0  0
    8.7920   45.8410   31.0838 C   0  0  0  0  0  0  0  0  0  0  0  0
    7.4039   45.6017   31.1008 C   0  0  0  0  0  0  0  0  0  0  0  0
    9.2822   46.9901   30.4427 C   0  0  0  0  0  0  0  0  0  0  0  0
    6.5245   46.5041   30.4872 C   0  0  0  0  0  0  0  0  0  0  0  0
    8.4009   47.8919   29.8341 C   0  0  0  0  0  0  0  0  0  0  0  0
    7.0216   47.6465   29.8432 C   0  0  0  0  0  0  0  0  0  0  0  0
    6.1436   48.5524   29.2429 O   0  0  0  0  0  0  0  0  0  0  0  0
    5.6597   48.4283   27.9017 C   0  0  1  0  0  0  0  0  0  0  0  0
    6.7404   48.8014   26.8812 C   0  0  0  0  0  0  0  0  0  0  0  0
    4.9699   47.0843   27.6701 C   0  0  0  0  0  0  0  0  0  0  0  0
    3.5800   47.0210   27.9424 C   0  0  0  0  0  0  0  0  0  0  0  0
    5.6522   45.8772   27.2896 C   0  0  0  0  0  0  0  0  0  0  0  0
    2.9281   45.8006   27.8225 C   0  0  0  0  0  0  0  0  0  0  0  0
    4.9384   44.6644   27.1866 C   0  0  0  0  0  0  0  0  0  0  0  0
    7.0482   45.8558   26.9898 N   0  0  0  0  0  0  0  0  0  0  0  0
    1.5936   45.5149   28.0384 O   0  0  0  0  0  0  0  0  0  0  0  0
    3.5788   44.6720   27.4614 C   0  0  0  0  0  0  0  0  0  0  0  0
    7.4461   46.0366   25.6858 O   0  0  0  0  0  0  0  0  0  0  0  0
    7.8339   45.3037   27.7861 O   0  0  0  0  0  0  0  0  0  0  0  0
    1.3957   44.1157   27.7941 C   0  0  0  0  0  0  0  0  0  0  0  0
    2.6890   43.6156   27.4282 O   0  0  0  0  0  0  0  0  0  0  0  0
    8.8122   40.1851   34.2127 O   0  0  0  0  0  0  0  0  0  0  0  0
   11.2406   40.7945   33.3670 O   0  0  0  0  0  0  0  0  0  0  0  0
   10.9134   40.6867   31.9954 C   0  0  0  0  0  0  0  0  0  0  0  0
   11.5166   39.3787   31.4404 C   0  0  0  0  0  0  0  0  0  0  0  0
   12.7485   39.0849   32.0734 O   0  0  0  0  0  0  0  0  0  0  0  0
   10.6039   38.1884   31.6669 C   0  0  0  0  0  0  0  0  0  0  0  0
   12.9329   37.6776   32.0284 C   0  0  0  0  0  0  0  0  0  0  0  0
    9.6373   38.0939   30.6484 O   0  0  0  0  0  0  0  0  0  0  0  0
   11.5737   37.0141   31.7055 C   0  0  0  0  0  0  0  0  0  0  0  0
   13.4853   37.2120   33.3238 N   0  0  0  0  0  0  0  0  0  0  0  0
   11.6210   36.3379   30.4683 O   0  0  0  0  0  0  0  0  0  0  0  0
   14.4804   36.3319   33.5726 C   0  0  0  0  0  0  0  0  0  0  0  0
   13.1141   37.6275   34.5689 C   0  0  0  0  0  0  0  0  0  0  0  0
   15.2076   35.6152   32.6740 N   0  0  0  0  0  0  0  0  0  0  0  0
   14.6761   36.2306   34.9181 C   0  0  0  0  0  0  0  0  0  0  0  0
   13.8218   37.0451   35.5783 N   0  0  0  0  0  0  0  0  0  0  0  0
   16.1642   34.7600   33.1548 C   0  0  0  0  0  0  0  0  0  0  0  0
   15.6527   35.3506   35.4131 C   0  0  0  0  0  0  0  0  0  0  0  0
   16.3795   34.6315   34.5043 N   0  0  0  0  0  0  0  0  0  0  0  0
   15.9000   35.1933   36.8090 N   0  0  0  0  0  0  0  0  0  0  0  0
    9.0119   45.4317   33.6708 H   0  0  0  0  0  0  0  0  0  0  0  0
   10.7258   46.9688   33.1212 H   0  0  0  0  0  0  0  0  0  0  0  0
   11.8904   45.7660   32.9465 H   0  0  0  0  0  0  0  0  0  0  0  0
   10.7227   44.8823   31.1547 H   0  0  0  0  0  0  0  0  0  0  0  0
    9.3414   43.8333   31.4752 H   0  0  0  0  0  0  0  0  0  0  0  0
    7.0069   44.7179   31.5846 H   0  0  0  0  0  0  0  0  0  0  0  0
   10.3462   47.1896   30.4135 H   0  0  0  0  0  0  0  0  0  0  0  0
    5.4591   46.3137   30.5095 H   0  0  0  0  0  0  0  0  0  0  0  0
    8.7901   48.7788   29.3509 H   0  0  0  0  0  0  0  0  0  0  0  0
    4.8860   49.2188   27.7817 H   0  0  0  0  0  0  0  0  0  0  0  0
    6.3925   48.5791   25.8500 H   0  0  0  0  0  0  0  0  0  0  0  0
    7.6937   48.2752   27.0818 H   0  0  0  0  0  0  0  0  0  0  0  0
    6.9508   49.8901   26.9483 H   0  0  0  0  0  0  0  0  0  0  0  0
    3.0231   47.8952   28.2556 H   0  0  0  0  0  0  0  0  0  0  0  0
    5.4339   43.7460   26.8987 H   0  0  0  0  0  0  0  0  0  0  0  0
    1.0369   43.6119   28.7161 H   0  0  0  0  0  0  0  0  0  0  0  0
    0.6781   43.9691   26.9599 H   0  0  0  0  0  0  0  0  0  0  0  0
    9.8225   40.7225   31.7630 H   0  0  0  0  0  0  0  0  0  0  0  0
   11.3827   41.5439   31.4668 H   0  0  0  0  0  0  0  0  0  0  0  0
   11.6978   39.5037   30.3478 H   0  0  0  0  0  0  0  0  0  0  0  0
   10.1084   38.2787   32.6626 H   0  0  0  0  0  0  0  0  0  0  0  0
   13.6638   37.4472   31.2214 H   0  0  0  0  0  0  0  0  0  0  0  0
    8.9762   37.4192   30.9532 H   0  0  0  0  0  0  0  0  0  0  0  0
   11.2821   36.3054   32.5172 H   0  0  0  0  0  0  0  0  0  0  0  0
   10.8657   35.6936   30.4652 H   0  0  0  0  0  0  0  0  0  0  0  0
   12.3294   38.3523   34.7444 H   0  0  0  0  0  0  0  0  0  0  0  0
   16.7561   34.1778   32.4621 H   0  0  0  0  0  0  0  0  0  0  0  0
   15.3533   35.7361   37.5138 H   0  0  0  0  0  0  0  0  0  0  0  0
   16.6345   34.5300   37.1416 H   0  0  0  0  0  0  0  0  0  0  0  0
  1  2  2  0
  1  3  1  0
  3  4  1  0
  4  5  1  0
  6  1  1  0
  7  6  1  0
  6  8  1  0
  8  9  1  0
  9 10  2  0
 11  9  1  0
 10 12  1  0
 13 11  2  0
 12 14  2  0
 14 13  1  0
 14 15  1  0
 15 16  1  0
 16 17  1  0
 16 18  1  0
 18 19  2  0
 20 18  1  0
 19 21  1  0
 22 20  2  0
 20 23  1  0
 21 24  1  0
 21 25  2  0
 25 22  1  0
 23 26  1  0
 23 27  2  0
 24 28  1  0
 25 29  1  0
 28 29  1  0
  4 30  2  0
  4 31  1  0
 32 31  1  0
 32 33  1  0
 33 34  1  0
 33 35  1  0
 34 36  1  0
 35 37  1  0
 35 38  1  0
 38 36  1  0
 36 39  1  0
 38 40  1  0
 41 39  1  0
 42 39  1  0
 43 41  2  0
 41 44  1  0
 45 42  2  0
 46 43  1  0
 44 47  2  0
 44 45  1  0
 48 46  2  0
 48 47  1  0
 47 49  1  0
  6 50  1  1
  7 51  1  0
  7 52  1  0
  8 53  1  0
  8 54  1  0
 10 55  1  0
 11 56  1  0
 12 57  1  0
 13 58  1  0
 16 59  1  1
 17 60  1  0
 17 61  1  0
 17 62  1  0
 19 63  1  0
 22 64  1  0
 28 65  1  0
 28 66  1  0
 32 67  1  0
 32 68  1  0
 33 69  1  0
 35 70  1  0
 36 71  1  0
 37 72  1  0
 38 73  1  0
 40 74  1  0
 42 75  1  0
 46 76  1  0
 49 77  1  0
 49 78  1  0
M  CHG  3   5  -1  23   1  26  -1
M  END
>  <EmbedRMS>  (115) 
0.0826764270077

$$$$

     RDKit          3D

 78 83  0  0  0  0  0  0  0  0999 V2000
   10.2804   43.7664   33.8250 C   0  0  0  0  0  0  0  0  0  0  0  0
   11.4111   43.5920   34.3667 O   0  0  0  0  0  0  0  0  0  0  0  0
    9.3622   42.7247   33.7343 O   0  0  0  0  0  0  0  0  0  0  0  0
    9.8904   41.2264   34.2936 P   0  0  0  0  0  0  0  0  0  0  0  0
   10.3732   41.4565   35.8832 O   0  0  0  0  0  0  0  0  0  0  0  0
    9.9457   45.0736   33.2112 C   0  0  1  0  0  0  0  0  0  0  0  0
   11.0264   46.0293   33.4706 N   0  0  0  0  0  0  0  0  0  0  0  0
    9.7535   44.8538   31.6950 C   0  0  0  0  0  0  0  0  0  0  0  0
    8.7955   45.8410   31.0847 C   0  0  0  0  0  0  0  0  0  0  0  0
    7.4087   45.6001   31.1001 C   0  0  0  0  0  0  0  0  0  0  0  0
    9.2831   46.9874   30.4394 C   0  0  0  0  0  0  0  0  0  0  0  0
    6.5283   46.5006   30.4848 C   0  0  0  0  0  0  0  0  0  0  0  0
    8.4027   47.8887   29.8298 C   0  0  0  0  0  0  0  0  0  0  0  0
    7.0135   47.6521   29.8501 C   0  0  0  0  0  0  0  0  0  0  0  0
    6.0850   48.5290   29.2651 O   0  0  0  0  0  0  0  0  0  0  0  0
    6.4034   49.7810   28.6532 C   0  0  1  0  0  0  0  0  0  0  0  0
    5.1811   50.3230   27.9130 C   0  0  0  0  0  0  0  0  0  0  0  0
    6.9159   50.8017   29.6593 C   0  0  0  0  0  0  0  0  0  0  0  0
    7.8875   51.7258   29.2039 C   0  0  0  0  0  0  0  0  0  0  0  0
    6.5056   50.8409   31.0382 C   0  0  0  0  0  0  0  0  0  0  0  0
    8.4332   52.6219   30.1127 C   0  0  0  0  0  0  0  0  0  0  0  0
    7.1106   51.7660   31.9187 C   0  0  0  0  0  0  0  0  0  0  0  0
    5.5052   49.9573   31.5676 N   0  0  0  0  0  0  0  0  0  0  0  0
    9.3906   53.5932   29.8918 O   0  0  0  0  0  0  0  0  0  0  0  0
    8.0644   52.6384   31.4134 C   0  0  0  0  0  0  0  0  0  0  0  0
    5.6545   49.4393   32.8334 O   0  0  0  0  0  0  0  0  0  0  0  0
    4.4059   49.8301   30.9922 O   0  0  0  0  0  0  0  0  0  0  0  0
    9.6370   54.2623   31.1362 C   0  0  0  0  0  0  0  0  0  0  0  0
    8.7693   53.6213   32.0811 O   0  0  0  0  0  0  0  0  0  0  0  0
    8.8129   40.1841   34.2124 O   0  0  0  0  0  0  0  0  0  0  0  0
   11.2419   40.7944   33.3695 O   0  0  0  0  0  0  0  0  0  0  0  0
   10.9186   40.6911   31.9969 C   0  0  0  0  0  0  0  0  0  0  0  0
   11.5172   39.3814   31.4407 C   0  0  0  0  0  0  0  0  0  0  0  0
   12.7492   39.0856   32.0729 O   0  0  0  0  0  0  0  0  0  0  0  0
   10.6023   38.1908   31.6665 C   0  0  0  0  0  0  0  0  0  0  0  0
   12.9319   37.6781   32.0281 C   0  0  0  0  0  0  0  0  0  0  0  0
    9.6392   38.0797   30.6452 O   0  0  0  0  0  0  0  0  0  0  0  0
   11.5715   37.0165   31.7056 C   0  0  0  0  0  0  0  0  0  0  0  0
   13.4846   37.2121   33.3235 N   0  0  0  0  0  0  0  0  0  0  0  0
   11.6187   36.3384   30.4695 O   0  0  0  0  0  0  0  0  0  0  0  0
   14.4801   36.3321   33.5724 C   0  0  0  0  0  0  0  0  0  0  0  0
   13.1137   37.6275   34.5688 C   0  0  0  0  0  0  0  0  0  0  0  0
   15.2073   35.6153   32.6738 N   0  0  0  0  0  0  0  0  0  0  0  0
   14.6759   36.2308   34.9179 C   0  0  0  0  0  0  0  0  0  0  0  0
   13.8216   37.0452   35.5781 N   0  0  0  0  0  0  0  0  0  0  0  0
   16.1640   34.7602   33.1546 C   0  0  0  0  0  0  0  0  0  0  0  0
   15.6526   35.3508   35.4129 C   0  0  0  0  0  0  0  0  0  0  0  0
   16.3794   34.6317   34.5041 N   0  0  0  0  0  0  0  0  0  0  0  0
   15.8999   35.1934   36.8088 N   0  0  0  0  0  0  0  0  0  0  0  0
    8.9994   45.4381   33.6723 H   0  0  0  0  0  0  0  0  0  0  0  0
   11.0501   46.2279   34.4980 H   0  0  0  0  0  0  0  0  0  0  0  0
   10.7759   46.9370   33.0157 H   0  0  0  0  0  0  0  0  0  0  0  0
    9.3635   43.8352   31.4716 H   0  0  0  0  0  0  0  0  0  0  0  0
   10.7406   44.9069   31.1836 H   0  0  0  0  0  0  0  0  0  0  0  0
    7.0130   44.7161   31.5847 H   0  0  0  0  0  0  0  0  0  0  0  0
   10.3473   47.1856   30.4057 H   0  0  0  0  0  0  0  0  0  0  0  0
    5.4636   46.3057   30.5075 H   0  0  0  0  0  0  0  0  0  0  0  0
    8.8155   48.7617   29.3449 H   0  0  0  0  0  0  0  0  0  0  0  0
    7.1806   49.5933   27.8785 H   0  0  0  0  0  0  0  0  0  0  0  0
    5.4545   51.2394   27.3472 H   0  0  0  0  0  0  0  0  0  0  0  0
    4.8130   49.5635   27.1911 H   0  0  0  0  0  0  0  0  0  0  0  0
    4.3597   50.5728   28.6136 H   0  0  0  0  0  0  0  0  0  0  0  0
    8.2200   51.7347   28.1734 H   0  0  0  0  0  0  0  0  0  0  0  0
    6.8304   51.8150   32.9631 H   0  0  0  0  0  0  0  0  0  0  0  0
   10.6970   54.1315   31.4393 H   0  0  0  0  0  0  0  0  0  0  0  0
    9.3814   55.3392   31.0504 H   0  0  0  0  0  0  0  0  0  0  0  0
   11.3967   41.5459   31.4725 H   0  0  0  0  0  0  0  0  0  0  0  0
    9.8298   40.7409   31.7611 H   0  0  0  0  0  0  0  0  0  0  0  0
   11.6975   39.5066   30.3481 H   0  0  0  0  0  0  0  0  0  0  0  0
   10.1077   38.2647   32.6645 H   0  0  0  0  0  0  0  0  0  0  0  0
   13.6621   37.4468   31.2209 H   0  0  0  0  0  0  0  0  0  0  0  0
    8.8974   38.6943   30.8832 H   0  0  0  0  0  0  0  0  0  0  0  0
   11.2806   36.3073   32.5170 H   0  0  0  0  0  0  0  0  0  0  0  0
   10.8493   35.7110   30.4586 H   0  0  0  0  0  0  0  0  0  0  0  0
   12.3290   38.3524   34.7444 H   0  0  0  0  0  0  0  0  0  0  0  0
   16.7559   34.1780   32.4619 H   0  0  0  0  0  0  0  0  0  0  0  0
   15.3531   35.7362   37.5137 H   0  0  0  0  0  0  0  0  0  0  0  0
   16.6344   34.5301   37.1414 H   0  0  0  0  0  0  0  0  0  0  0  0
  1  2  2  0
  1  3  1  0
  3  4  1  0
  4  5  1  0
  6  1  1  0
  7  6  1  0
  6  8  1  0
  8  9  1  0
  9 10  2  0
 11  9  1  0
 10 12  1  0
 13 11  2  0
 12 14  2  0
 14 13  1  0
 14 15  1  0
 15 16  1  0
 16 17  1  0
 16 18  1  0
 18 19  2  0
 20 18  1  0
 19 21  1  0
 22 20  2  0
 20 23  1  0
 21 24  1  0
 21 25  2  0
 25 22  1  0
 23 26  1  0
 23 27  2  0
 24 28  1  0
 25 29  1  0
 28 29  1  0
  4 30  2  0
  4 31  1  0
 32 31  1  0
 32 33  1  0
 33 34  1  0
 33 35  1  0
 34 36  1  0
 35 37  1  0
 35 38  1  0
 38 36  1  0
 36 39  1  0
 38 40  1  0
 41 39  1  0
 42 39  1  0
 43 41  2  0
 41 44  1  0
 45 42  2  0
 46 43  1  0
 44 47  2  0
 44 45  1  0
 48 46  2  0
 48 47  1  0
 47 49  1  0
  6 50  1  1
  7 51  1  0
  7 52  1  0
  8 53  1  0
  8 54  1  0
 10 55  1  0
 11 56  1  0
 12 57  1  0
 13 58  1  0
 16 59  1  6
 17 60  1  0
 17 61  1  0
 17 62  1  0
 19 63  1  0
 22 64  1  0
 28 65  1  0
 28 66  1  0
 32 67  1  0
 32 68  1  0
 33 69  1  0
 35 70  1  0
 36 71  1  0
 37 72  1  0
 38 73  1  0
 40 74  1  0
 42 75  1  0
 46 76  1  0
 49 77  1  0
 49 78  1  0
M  CHG  3   5  -1  23   1  26  -1
M  END
>  <EmbedRMS>  (116) 
0.0827831283533

$$$$

     RDKit          3D

 78 83  0  0  0  0  0  0  0  0999 V2000
   10.2834   43.7662   33.8257 C   0  0  0  0  0  0  0  0  0  0  0  0
   11.4102   43.5931   34.3752 O   0  0  0  0  0  0  0  0  0  0  0  0
    9.3638   42.7255   33.7351 O   0  0  0  0  0  0  0  0  0  0  0  0
    9.8904   41.2268   34.2946 P   0  0  0  0  0  0  0  0  0  0  0  0
   10.3729   41.4561   35.8842 O   0  0  0  0  0  0  0  0  0  0  0  0
    9.9545   45.0695   33.2036 C   0  0  1  0  0  0  0  0  0  0  0  0
   11.0271   46.0323   33.4756 N   0  0  0  0  0  0  0  0  0  0  0  0
    9.7465   44.8480   31.6877 C   0  0  0  0  0  0  0  0  0  0  0  0
    8.7923   45.8407   31.0843 C   0  0  0  0  0  0  0  0  0  0  0  0
    7.4056   45.6012   31.0985 C   0  0  0  0  0  0  0  0  0  0  0  0
    9.2824   46.9874   30.4420 C   0  0  0  0  0  0  0  0  0  0  0  0
    6.5268   46.5028   30.4834 C   0  0  0  0  0  0  0  0  0  0  0  0
    8.4035   47.8895   29.8311 C   0  0  0  0  0  0  0  0  0  0  0  0
    7.0139   47.6538   29.8493 C   0  0  0  0  0  0  0  0  0  0  0  0
    6.0869   48.5316   29.2631 O   0  0  0  0  0  0  0  0  0  0  0  0
    6.4090   49.7763   28.6387 C   0  0  1  0  0  0  0  0  0  0  0  0
    5.1900   50.3118   27.8883 C   0  0  0  0  0  0  0  0  0  0  0  0
    6.9205   50.8089   29.6330 C   0  0  0  0  0  0  0  0  0  0  0  0
    7.8694   51.7466   29.1582 C   0  0  0  0  0  0  0  0  0  0  0  0
    6.5306   50.8484   31.0172 C   0  0  0  0  0  0  0  0  0  0  0  0
    8.4131   52.6574   30.0535 C   0  0  0  0  0  0  0  0  0  0  0  0
    7.1316   51.7906   31.8835 C   0  0  0  0  0  0  0  0  0  0  0  0
    5.5499   49.9514   31.5615 N   0  0  0  0  0  0  0  0  0  0  0  0
    9.3502   53.6437   29.8127 O   0  0  0  0  0  0  0  0  0  0  0  0
    8.0629   52.6759   31.3592 C   0  0  0  0  0  0  0  0  0  0  0  0
    4.3250   49.8088   30.9541 O   0  0  0  0  0  0  0  0  0  0  0  0
    5.7190   49.4599   32.6965 O   0  0  0  0  0  0  0  0  0  0  0  0
    9.6029   54.3248   31.0492 C   0  0  0  0  0  0  0  0  0  0  0  0
    8.7601   53.6751   32.0105 O   0  0  0  0  0  0  0  0  0  0  0  0
    8.8125   40.1848   34.2126 O   0  0  0  0  0  0  0  0  0  0  0  0
   11.2416   40.7948   33.3707 O   0  0  0  0  0  0  0  0  0  0  0  0
   10.9179   40.6922   31.9984 C   0  0  0  0  0  0  0  0  0  0  0  0
   11.5175   39.3838   31.4423 C   0  0  0  0  0  0  0  0  0  0  0  0
   12.7508   39.0887   32.0752 O   0  0  0  0  0  0  0  0  0  0  0  0
   10.6028   38.1916   31.6658 C   0  0  0  0  0  0  0  0  0  0  0  0
   12.9385   37.6818   32.0278 C   0  0  0  0  0  0  0  0  0  0  0  0
    9.6372   38.0805   30.6470 O   0  0  0  0  0  0  0  0  0  0  0  0
   11.5780   37.0215   31.6935 C   0  0  0  0  0  0  0  0  0  0  0  0
   13.4844   37.2120   33.3242 N   0  0  0  0  0  0  0  0  0  0  0  0
   11.6095   36.3201   30.4679 O   0  0  0  0  0  0  0  0  0  0  0  0
   14.4797   36.3318   33.5730 C   0  0  0  0  0  0  0  0  0  0  0  0
   13.1135   37.6278   34.5691 C   0  0  0  0  0  0  0  0  0  0  0  0
   15.2073   35.6155   32.6743 N   0  0  0  0  0  0  0  0  0  0  0  0
   14.6754   36.2305   34.9184 C   0  0  0  0  0  0  0  0  0  0  0  0
   13.8213   37.0452   35.5785 N   0  0  0  0  0  0  0  0  0  0  0  0
   16.1640   34.7604   33.1549 C   0  0  0  0  0  0  0  0  0  0  0  0
   15.6524   35.3507   35.4132 C   0  0  0  0  0  0  0  0  0  0  0  0
   16.3794   34.6318   34.5044 N   0  0  0  0  0  0  0  0  0  0  0  0
   15.9000   35.1934   36.8091 N   0  0  0  0  0  0  0  0  0  0  0  0
    9.0119   45.4318   33.6714 H   0  0  0  0  0  0  0  0  0  0  0  0
   10.7255   46.9689   33.1215 H   0  0  0  0  0  0  0  0  0  0  0  0
   11.8903   45.7662   32.9468 H   0  0  0  0  0  0  0  0  0  0  0  0
   10.7229   44.8813   31.1558 H   0  0  0  0  0  0  0  0  0  0  0  0
    9.3414   43.8329   31.4764 H   0  0  0  0  0  0  0  0  0  0  0  0
    7.0082   44.7168   31.5811 H   0  0  0  0  0  0  0  0  0  0  0  0
   10.3470   47.1843   30.4112 H   0  0  0  0  0  0  0  0  0  0  0  0
    5.4619   46.3090   30.5047 H   0  0  0  0  0  0  0  0  0  0  0  0
    8.8176   48.7631   29.3483 H   0  0  0  0  0  0  0  0  0  0  0  0
    7.1888   49.5787   27.8690 H   0  0  0  0  0  0  0  0  0  0  0  0
    4.8161   49.5409   27.1817 H   0  0  0  0  0  0  0  0  0  0  0  0
    4.3714   50.5818   28.5847 H   0  0  0  0  0  0  0  0  0  0  0  0
    5.4691   51.2150   27.3044 H   0  0  0  0  0  0  0  0  0  0  0  0
    8.1861   51.7550   28.1226 H   0  0  0  0  0  0  0  0  0  0  0  0
    6.8652   51.8415   32.9315 H   0  0  0  0  0  0  0  0  0  0  0  0
    9.3275   55.3967   30.9605 H   0  0  0  0  0  0  0  0  0  0  0  0
   10.6692   54.2142   31.3377 H   0  0  0  0  0  0  0  0  0  0  0  0
   11.3952   41.5477   31.4744 H   0  0  0  0  0  0  0  0  0  0  0  0
    9.8291   40.7409   31.7627 H   0  0  0  0  0  0  0  0  0  0  0  0
   11.6981   39.5115   30.3500 H   0  0  0  0  0  0  0  0  0  0  0  0
   10.1117   38.2604   32.6660 H   0  0  0  0  0  0  0  0  0  0  0  0
   13.6767   37.4556   31.2267 H   0  0  0  0  0  0  0  0  0  0  0  0
    8.8961   38.6951   30.8871 H   0  0  0  0  0  0  0  0  0  0  0  0
   11.2792   36.3072   32.4923 H   0  0  0  0  0  0  0  0  0  0  0  0
   11.8828   36.9598   29.7589 H   0  0  0  0  0  0  0  0  0  0  0  0
   12.3300   38.3539   34.7446 H   0  0  0  0  0  0  0  0  0  0  0  0
   16.7561   34.1785   32.4621 H   0  0  0  0  0  0  0  0  0  0  0  0
   15.3531   35.7360   37.5140 H   0  0  0  0  0  0  0  0  0  0  0  0
   16.6347   34.5302   37.1416 H   0  0  0  0  0  0  0  0  0  0  0  0
  1  2  2  0
  1  3  1  0
  3  4  1  0
  4  5  1  0
  6  1  1  0
  7  6  1  0
  6  8  1  0
  8  9  1  0
  9 10  2  0
 11  9  1  0
 10 12  1  0
 13 11  2  0
 12 14  2  0
 14 13  1  0
 14 15  1  0
 15 16  1  0
 16 17  1  0
 16 18  1  0
 18 19  2  0
 20 18  1  0
 19 21  1  0
 22 20  2  0
 20 23  1  0
 21 24  1  0
 21 25  2  0
 25 22  1  0
 23 26  1  0
 23 27  2  0
 24 28  1  0
 25 29  1  0
 28 29  1  0
  4 30  2  0
  4 31  1  0
 32 31  1  0
 32 33  1  0
 33 34  1  0
 33 35  1  0
 34 36  1  0
 35 37  1  0
 35 38  1  0
 38 36  1  0
 36 39  1  0
 38 40  1  0
 41 39  1  0
 42 39  1  0
 43 41  2  0
 41 44  1  0
 45 42  2  0
 46 43  1  0
 44 47  2  0
 44 45  1  0
 48 46  2  0
 48 47  1  0
 47 49  1  0
  6 50  1  1
  7 51  1  0
  7 52  1  0
  8 53  1  0
  8 54  1  0
 10 55  1  0
 11 56  1  0
 12 57  1  0
 13 58  1  0
 16 59  1  6
 17 60  1  0
 17 61  1  0
 17 62  1  0
 19 63  1  0
 22 64  1  0
 28 65  1  0
 28 66  1  0
 32 67  1  0
 32 68  1  0
 33 69  1  0
 35 70  1  0
 36 71  1  0
 37 72  1  0
 38 73  1  0
 40 74  1  0
 42 75  1  0
 46 76  1  0
 49 77  1  0
 49 78  1  0
M  CHG  3   5  -1  23   1  26  -1
M  END
>  <EmbedRMS>  (117) 
0.0819885371477

$$$$

     RDKit          3D

 78 83  0  0  0  0  0  0  0  0999 V2000
   10.2804   43.7664   33.8250 C   0  0  0  0  0  0  0  0  0  0  0  0
   11.4111   43.5919   34.3667 O   0  0  0  0  0  0  0  0  0  0  0  0
    9.3619   42.7249   33.7345 O   0  0  0  0  0  0  0  0  0  0  0  0
    9.8900   41.2266   34.2940 P   0  0  0  0  0  0  0  0  0  0  0  0
   10.3734   41.4566   35.8833 O   0  0  0  0  0  0  0  0  0  0  0  0
    9.9459   45.0735   33.2111 C   0  0  1  0  0  0  0  0  0  0  0  0
   11.0266   46.0291   33.4705 N   0  0  0  0  0  0  0  0  0  0  0  0
    9.7536   44.8537   31.6948 C   0  0  0  0  0  0  0  0  0  0  0  0
    8.7956   45.8406   31.0844 C   0  0  0  0  0  0  0  0  0  0  0  0
    7.4090   45.6006   31.1011 C   0  0  0  0  0  0  0  0  0  0  0  0
    9.2827   46.9877   30.4402 C   0  0  0  0  0  0  0  0  0  0  0  0
    6.5286   46.5015   30.4865 C   0  0  0  0  0  0  0  0  0  0  0  0
    8.4024   47.8900   29.8313 C   0  0  0  0  0  0  0  0  0  0  0  0
    7.0131   47.6506   29.8458 C   0  0  0  0  0  0  0  0  0  0  0  0
    6.0795   48.5175   29.2536 O   0  0  0  0  0  0  0  0  0  0  0  0
    6.3802   49.6476   28.4335 C   0  0  1  0  0  0  0  0  0  0  0  0
    6.9026   49.2109   27.0578 C   0  0  0  0  0  0  0  0  0  0  0  0
    5.1452   50.5251   28.3013 C   0  0  0  0  0  0  0  0  0  0  0  0
    5.2266   51.8602   28.7714 C   0  0  0  0  0  0  0  0  0  0  0  0
    3.9243   50.0773   27.6880 C   0  0  0  0  0  0  0  0  0  0  0  0
    4.1285   52.6940   28.6071 C   0  0  0  0  0  0  0  0  0  0  0  0
    2.8454   50.9774   27.5357 C   0  0  0  0  0  0  0  0  0  0  0  0
    3.7627   48.7362   27.2057 N   0  0  0  0  0  0  0  0  0  0  0  0
    3.9913   54.0170   28.9813 O   0  0  0  0  0  0  0  0  0  0  0  0
    2.9896   52.2724   28.0129 C   0  0  0  0  0  0  0  0  0  0  0  0
    3.8767   47.6741   28.0708 O   0  0  0  0  0  0  0  0  0  0  0  0
    3.2641   48.5418   26.0780 O   0  0  0  0  0  0  0  0  0  0  0  0
    2.6799   54.4518   28.5967 C   0  0  0  0  0  0  0  0  0  0  0  0
    2.0741   53.3067   27.9816 O   0  0  0  0  0  0  0  0  0  0  0  0
    8.8124   40.1844   34.2133 O   0  0  0  0  0  0  0  0  0  0  0  0
   11.2405   40.7942   33.3692 O   0  0  0  0  0  0  0  0  0  0  0  0
   10.9150   40.6905   31.9972 C   0  0  0  0  0  0  0  0  0  0  0  0
   11.5252   39.3886   31.4375 C   0  0  0  0  0  0  0  0  0  0  0  0
   12.7499   39.0874   32.0799 O   0  0  0  0  0  0  0  0  0  0  0  0
   10.6092   38.1926   31.6470 C   0  0  0  0  0  0  0  0  0  0  0  0
   12.9332   37.6793   32.0294 C   0  0  0  0  0  0  0  0  0  0  0  0
    9.6122   38.0894   30.6542 O   0  0  0  0  0  0  0  0  0  0  0  0
   11.5743   37.0145   31.7024 C   0  0  0  0  0  0  0  0  0  0  0  0
   13.4844   37.2108   33.3241 N   0  0  0  0  0  0  0  0  0  0  0  0
   11.6297   36.3239   30.4740 O   0  0  0  0  0  0  0  0  0  0  0  0
   14.4802   36.3313   33.5727 C   0  0  0  0  0  0  0  0  0  0  0  0
   13.1139   37.6267   34.5693 C   0  0  0  0  0  0  0  0  0  0  0  0
   15.2075   35.6149   32.6739 N   0  0  0  0  0  0  0  0  0  0  0  0
   14.6761   36.2303   34.9182 C   0  0  0  0  0  0  0  0  0  0  0  0
   13.8220   37.0447   35.5785 N   0  0  0  0  0  0  0  0  0  0  0  0
   16.1643   34.7600   33.1547 C   0  0  0  0  0  0  0  0  0  0  0  0
   15.6529   35.3505   35.4130 C   0  0  0  0  0  0  0  0  0  0  0  0
   16.3798   34.6315   34.5042 N   0  0  0  0  0  0  0  0  0  0  0  0
   15.9003   35.1932   36.8090 N   0  0  0  0  0  0  0  0  0  0  0  0
    8.9995   45.4381   33.6721 H   0  0  0  0  0  0  0  0  0  0  0  0
   11.0504   46.2276   34.4979 H   0  0  0  0  0  0  0  0  0  0  0  0
   10.7763   46.9368   33.0157 H   0  0  0  0  0  0  0  0  0  0  0  0
   10.7408   44.9069   31.1834 H   0  0  0  0  0  0  0  0  0  0  0  0
    9.3638   43.8350   31.4714 H   0  0  0  0  0  0  0  0  0  0  0  0
    7.0132   44.7167   31.5859 H   0  0  0  0  0  0  0  0  0  0  0  0
   10.3468   47.1873   30.4094 H   0  0  0  0  0  0  0  0  0  0  0  0
    5.4642   46.3045   30.5072 H   0  0  0  0  0  0  0  0  0  0  0  0
    8.8189   48.7670   29.3587 H   0  0  0  0  0  0  0  0  0  0  0  0
    7.1825   50.2396   28.9248 H   0  0  0  0  0  0  0  0  0  0  0  0
    6.2259   48.4730   26.5833 H   0  0  0  0  0  0  0  0  0  0  0  0
    7.0055   50.0926   26.3897 H   0  0  0  0  0  0  0  0  0  0  0  0
    7.9009   48.7382   27.1553 H   0  0  0  0  0  0  0  0  0  0  0  0
    6.1228   52.2455   29.2411 H   0  0  0  0  0  0  0  0  0  0  0  0
    1.9171   50.6686   27.0721 H   0  0  0  0  0  0  0  0  0  0  0  0
    2.7503   55.2861   27.8677 H   0  0  0  0  0  0  0  0  0  0  0  0
    2.0990   54.7582   29.4918 H   0  0  0  0  0  0  0  0  0  0  0  0
   11.3800   41.5528   31.4730 H   0  0  0  0  0  0  0  0  0  0  0  0
    9.8242   40.7215   31.7641 H   0  0  0  0  0  0  0  0  0  0  0  0
   11.7266   39.5310   30.3513 H   0  0  0  0  0  0  0  0  0  0  0  0
   10.1110   38.2747   32.6387 H   0  0  0  0  0  0  0  0  0  0  0  0
   13.6652   37.4520   31.2226 H   0  0  0  0  0  0  0  0  0  0  0  0
   10.0511   38.1143   29.7645 H   0  0  0  0  0  0  0  0  0  0  0  0
   11.2762   36.3141   32.5189 H   0  0  0  0  0  0  0  0  0  0  0  0
   10.8593   35.6978   30.4640 H   0  0  0  0  0  0  0  0  0  0  0  0
   12.3295   38.3519   34.7450 H   0  0  0  0  0  0  0  0  0  0  0  0
   16.7564   34.1779   32.4620 H   0  0  0  0  0  0  0  0  0  0  0  0
   16.6349   34.5300   37.1415 H   0  0  0  0  0  0  0  0  0  0  0  0
   15.3534   35.7359   37.5138 H   0  0  0  0  0  0  0  0  0  0  0  0
  1  2  2  0
  1  3  1  0
  3  4  1  0
  4  5  1  0
  6  1  1  0
  7  6  1  0
  6  8  1  0
  8  9  1  0
  9 10  2  0
 11  9  1  0
 10 12  1  0
 13 11  2  0
 12 14  2  0
 14 13  1  0
 14 15  1  0
 15 16  1  0
 16 17  1  0
 16 18  1  0
 18 19  2  0
 20 18  1  0
 19 21  1  0
 22 20  2  0
 20 23  1  0
 21 24  1  0
 21 25  2  0
 25 22  1  0
 23 26  1  0
 23 27  2  0
 24 28  1  0
 25 29  1  0
 28 29  1  0
  4 30  2  0
  4 31  1  0
 32 31  1  0
 32 33  1  0
 33 34  1  0
 33 35  1  0
 34 36  1  0
 35 37  1  0
 35 38  1  0
 38 36  1  0
 36 39  1  0
 38 40  1  0
 41 39  1  0
 42 39  1  0
 43 41  2  0
 41 44  1  0
 45 42  2  0
 46 43  1  0
 44 47  2  0
 44 45  1  0
 48 46  2  0
 48 47  1  0
 47 49  1  0
  6 50  1  1
  7 51  1  0
  7 52  1  0
  8 53  1  0
  8 54  1  0
 10 55  1  0
 11 56  1  0
 12 57  1  0
 13 58  1  0
 16 59  1  1
 17 60  1  0
 17 61  1  0
 17 62  1  0
 19 63  1  0
 22 64  1  0
 28 65  1  0
 28 66  1  0
 32 67  1  0
 32 68  1  0
 33 69  1  0
 35 70  1  0
 36 71  1  0
 37 72  1  0
 38 73  1  0
 40 74  1  0
 42 75  1  0
 46 76  1  0
 49 77  1  0
 49 78  1  0
M  CHG  3   5  -1  23   1  26  -1
M  END
>  <EmbedRMS>  (118) 
0.0816429160056

$$$$

     RDKit          3D

 78 83  0  0  0  0  0  0  0  0999 V2000
   10.2837   43.7627   33.8277 C   0  0  0  0  0  0  0  0  0  0  0  0
   11.4103   43.5863   34.3767 O   0  0  0  0  0  0  0  0  0  0  0  0
    9.3628   42.7238   33.7358 O   0  0  0  0  0  0  0  0  0  0  0  0
    9.8891   41.2251   34.2949 P   0  0  0  0  0  0  0  0  0  0  0  0
   10.3724   41.4548   35.8843 O   0  0  0  0  0  0  0  0  0  0  0  0
    9.9548   45.0699   33.2064 C   0  0  1  0  0  0  0  0  0  0  0  0
   11.0198   46.0480   33.4567 N   0  0  0  0  0  0  0  0  0  0  0  0
    9.7501   44.8506   31.6923 C   0  0  0  0  0  0  0  0  0  0  0  0
    8.7943   45.8414   31.0867 C   0  0  0  0  0  0  0  0  0  0  0  0
    7.4077   45.6011   31.1003 C   0  0  0  0  0  0  0  0  0  0  0  0
    9.2830   46.9889   30.4451 C   0  0  0  0  0  0  0  0  0  0  0  0
    6.5284   46.5024   30.4851 C   0  0  0  0  0  0  0  0  0  0  0  0
    8.4037   47.8905   29.8332 C   0  0  0  0  0  0  0  0  0  0  0  0
    7.0140   47.6516   29.8456 C   0  0  0  0  0  0  0  0  0  0  0  0
    6.0818   48.5190   29.2518 O   0  0  0  0  0  0  0  0  0  0  0  0
    6.3872   49.6680   28.4570 C   0  0  1  0  0  0  0  0  0  0  0  0
    6.8884   49.2413   27.0707 C   0  0  0  0  0  0  0  0  0  0  0  0
    5.1348   50.5169   28.3272 C   0  0  0  0  0  0  0  0  0  0  0  0
    3.9742   49.9280   27.7656 C   0  0  0  0  0  0  0  0  0  0  0  0
    5.0984   51.8989   28.7132 C   0  0  0  0  0  0  0  0  0  0  0  0
    2.8533   50.7239   27.5685 C   0  0  0  0  0  0  0  0  0  0  0  0
    3.9355   52.6636   28.4712 C   0  0  0  0  0  0  0  0  0  0  0  0
    6.2080   52.5325   29.3644 N   0  0  0  0  0  0  0  0  0  0  0  0
    1.6307   50.3682   27.0324 O   0  0  0  0  0  0  0  0  0  0  0  0
    2.8369   52.0352   27.9005 C   0  0  0  0  0  0  0  0  0  0  0  0
    6.5625   53.8133   29.0088 O   0  0  0  0  0  0  0  0  0  0  0  0
    6.6604   52.0552   30.4254 O   0  0  0  0  0  0  0  0  0  0  0  0
    0.7937   51.5328   27.0285 C   0  0  0  0  0  0  0  0  0  0  0  0
    1.6030   52.5744   27.5915 O   0  0  0  0  0  0  0  0  0  0  0  0
    8.8113   40.1833   34.2132 O   0  0  0  0  0  0  0  0  0  0  0  0
   11.2398   40.7938   33.3702 O   0  0  0  0  0  0  0  0  0  0  0  0
   10.9144   40.6912   31.9983 C   0  0  0  0  0  0  0  0  0  0  0  0
   11.5270   39.3911   31.4385 C   0  0  0  0  0  0  0  0  0  0  0  0
   12.7520   39.0911   32.0836 O   0  0  0  0  0  0  0  0  0  0  0  0
   10.6114   38.1931   31.6451 C   0  0  0  0  0  0  0  0  0  0  0  0
   12.9413   37.6837   32.0297 C   0  0  0  0  0  0  0  0  0  0  0  0
    9.6064   38.0877   30.6598 O   0  0  0  0  0  0  0  0  0  0  0  0
   11.5822   37.0197   31.6876 C   0  0  0  0  0  0  0  0  0  0  0  0
   13.4840   37.2104   33.3254 N   0  0  0  0  0  0  0  0  0  0  0  0
   11.6179   36.3071   30.4690 O   0  0  0  0  0  0  0  0  0  0  0  0
   14.4797   36.3309   33.5738 C   0  0  0  0  0  0  0  0  0  0  0  0
   13.1137   37.6269   34.5702 C   0  0  0  0  0  0  0  0  0  0  0  0
   15.2074   35.6152   32.6747 N   0  0  0  0  0  0  0  0  0  0  0  0
   14.6756   36.2298   34.9190 C   0  0  0  0  0  0  0  0  0  0  0  0
   13.8217   37.0446   35.5793 N   0  0  0  0  0  0  0  0  0  0  0  0
   16.1643   34.7603   33.1551 C   0  0  0  0  0  0  0  0  0  0  0  0
   15.6528   35.3503   35.4136 C   0  0  0  0  0  0  0  0  0  0  0  0
   16.3798   34.6316   34.5046 N   0  0  0  0  0  0  0  0  0  0  0  0
   15.9004   35.1930   36.8094 N   0  0  0  0  0  0  0  0  0  0  0  0
    9.0099   45.4350   33.6670 H   0  0  0  0  0  0  0  0  0  0  0  0
   11.1135   46.1993   34.4880 H   0  0  0  0  0  0  0  0  0  0  0  0
   11.9348   45.6931   33.0923 H   0  0  0  0  0  0  0  0  0  0  0  0
    9.3509   43.8341   31.4764 H   0  0  0  0  0  0  0  0  0  0  0  0
   10.7304   44.8920   31.1675 H   0  0  0  0  0  0  0  0  0  0  0  0
    7.0109   44.7164   31.5829 H   0  0  0  0  0  0  0  0  0  0  0  0
   10.3473   47.1884   30.4183 H   0  0  0  0  0  0  0  0  0  0  0  0
    5.4640   46.3053   30.5039 H   0  0  0  0  0  0  0  0  0  0  0  0
    8.8216   48.7659   29.3586 H   0  0  0  0  0  0  0  0  0  0  0  0
    7.1965   50.2469   28.9377 H   0  0  0  0  0  0  0  0  0  0  0  0
    7.0467   50.1354   26.4304 H   0  0  0  0  0  0  0  0  0  0  0  0
    7.8543   48.7029   27.1549 H   0  0  0  0  0  0  0  0  0  0  0  0
    6.1604   48.5651   26.5754 H   0  0  0  0  0  0  0  0  0  0  0  0
    3.9500   48.8845   27.4789 H   0  0  0  0  0  0  0  0  0  0  0  0
    3.8823   53.7091   28.7463 H   0  0  0  0  0  0  0  0  0  0  0  0
   -0.1044   51.3625   27.6585 H   0  0  0  0  0  0  0  0  0  0  0  0
    0.5026   51.7931   25.9892 H   0  0  0  0  0  0  0  0  0  0  0  0
   11.3779   41.5548   31.4750 H   0  0  0  0  0  0  0  0  0  0  0  0
    9.8235   40.7201   31.7651 H   0  0  0  0  0  0  0  0  0  0  0  0
   11.7311   39.5363   30.3532 H   0  0  0  0  0  0  0  0  0  0  0  0
   10.1203   38.2695   32.6409 H   0  0  0  0  0  0  0  0  0  0  0  0
   13.6850   37.4638   31.2321 H   0  0  0  0  0  0  0  0  0  0  0  0
   10.0251   38.1792   29.7654 H   0  0  0  0  0  0  0  0  0  0  0  0
   11.2757   36.3135   32.4907 H   0  0  0  0  0  0  0  0  0  0  0  0
   11.9839   36.9111   29.7708 H   0  0  0  0  0  0  0  0  0  0  0  0
   12.3307   38.3536   34.7457 H   0  0  0  0  0  0  0  0  0  0  0  0
   16.7566   34.1786   32.4623 H   0  0  0  0  0  0  0  0  0  0  0  0
   15.3535   35.7355   37.5144 H   0  0  0  0  0  0  0  0  0  0  0  0
   16.6353   34.5301   37.1419 H   0  0  0  0  0  0  0  0  0  0  0  0
  1  2  2  0
  1  3  1  0
  3  4  1  0
  4  5  1  0
  6  1  1  0
  7  6  1  0
  6  8  1  0
  8  9  1  0
  9 10  2  0
 11  9  1  0
 10 12  1  0
 13 11  2  0
 12 14  2  0
 14 13  1  0
 14 15  1  0
 15 16  1  0
 16 17  1  0
 16 18  1  0
 18 19  2  0
 20 18  1  0
 19 21  1  0
 22 20  2  0
 20 23  1  0
 21 24  1  0
 21 25  2  0
 25 22  1  0
 23 26  1  0
 23 27  2  0
 24 28  1  0
 25 29  1  0
 28 29  1  0
  4 30  2  0
  4 31  1  0
 32 31  1  0
 32 33  1  0
 33 34  1  0
 33 35  1  0
 34 36  1  0
 35 37  1  0
 35 38  1  0
 38 36  1  0
 36 39  1  0
 38 40  1  0
 41 39  1  0
 42 39  1  0
 43 41  2  0
 41 44  1  0
 45 42  2  0
 46 43  1  0
 44 47  2  0
 44 45  1  0
 48 46  2  0
 48 47  1  0
 47 49  1  0
  6 50  1  1
  7 51  1  0
  7 52  1  0
  8 53  1  0
  8 54  1  0
 10 55  1  0
 11 56  1  0
 12 57  1  0
 13 58  1  0
 16 59  1  1
 17 60  1  0
 17 61  1  0
 17 62  1  0
 19 63  1  0
 22 64  1  0
 28 65  1  0
 28 66  1  0
 32 67  1  0
 32 68  1  0
 33 69  1  0
 35 70  1  0
 36 71  1  0
 37 72  1  0
 38 73  1  0
 40 74  1  0
 42 75  1  0
 46 76  1  0
 49 77  1  0
 49 78  1  0
M  CHG  3   5  -1  23   1  26  -1
M  END
>  <EmbedRMS>  (119) 
0.0817374379996

$$$$

     RDKit          3D

 78 83  0  0  0  0  0  0  0  0999 V2000
   10.2834   43.7662   33.8257 C   0  0  0  0  0  0  0  0  0  0  0  0
   11.4101   43.5930   34.3752 O   0  0  0  0  0  0  0  0  0  0  0  0
    9.3636   42.7255   33.7349 O   0  0  0  0  0  0  0  0  0  0  0  0
    9.8905   41.2266   34.2934 P   0  0  0  0  0  0  0  0  0  0  0  0
   10.3744   41.4556   35.8827 O   0  0  0  0  0  0  0  0  0  0  0  0
    9.9546   45.0694   33.2035 C   0  0  1  0  0  0  0  0  0  0  0  0
   11.0273   46.0321   33.4756 N   0  0  0  0  0  0  0  0  0  0  0  0
    9.7467   44.8479   31.6876 C   0  0  0  0  0  0  0  0  0  0  0  0
    8.7924   45.8404   31.0841 C   0  0  0  0  0  0  0  0  0  0  0  0
    7.4058   45.6016   31.0993 C   0  0  0  0  0  0  0  0  0  0  0  0
    9.2820   46.9876   30.4426 C   0  0  0  0  0  0  0  0  0  0  0  0
    6.5271   46.5036   30.4848 C   0  0  0  0  0  0  0  0  0  0  0  0
    8.4033   47.8906   29.8324 C   0  0  0  0  0  0  0  0  0  0  0  0
    7.0134   47.6527   29.8456 C   0  0  0  0  0  0  0  0  0  0  0  0
    6.0816   48.5211   29.2527 O   0  0  0  0  0  0  0  0  0  0  0  0
    6.3877   49.6712   28.4598 C   0  0  1  0  0  0  0  0  0  0  0  0
    6.8876   49.2467   27.0723 C   0  0  0  0  0  0  0  0  0  0  0  0
    5.1368   50.5223   28.3336 C   0  0  0  0  0  0  0  0  0  0  0  0
    3.9759   49.9407   27.7649 C   0  0  0  0  0  0  0  0  0  0  0  0
    5.1032   51.8999   28.7319 C   0  0  0  0  0  0  0  0  0  0  0  0
    2.8569   50.7405   27.5738 C   0  0  0  0  0  0  0  0  0  0  0  0
    3.9411   52.6693   28.4971 C   0  0  0  0  0  0  0  0  0  0  0  0
    6.2140   52.5181   29.3964 N   0  0  0  0  0  0  0  0  0  0  0  0
    1.6342   50.3921   27.0328 O   0  0  0  0  0  0  0  0  0  0  0  0
    2.8422   52.0485   27.9185 C   0  0  0  0  0  0  0  0  0  0  0  0
    6.7005   51.9726   30.5620 O   0  0  0  0  0  0  0  0  0  0  0  0
    6.5603   53.6752   29.0814 O   0  0  0  0  0  0  0  0  0  0  0  0
    0.7993   51.5582   27.0392 C   0  0  0  0  0  0  0  0  0  0  0  0
    1.6096   52.5929   27.6133 O   0  0  0  0  0  0  0  0  0  0  0  0
    8.8122   40.1850   34.2128 O   0  0  0  0  0  0  0  0  0  0  0  0
   11.2403   40.7946   33.3668 O   0  0  0  0  0  0  0  0  0  0  0  0
   10.9126   40.6859   31.9954 C   0  0  0  0  0  0  0  0  0  0  0  0
   11.5175   39.3787   31.4405 C   0  0  0  0  0  0  0  0  0  0  0  0
   12.7490   39.0864   32.0752 O   0  0  0  0  0  0  0  0  0  0  0  0
   10.6061   38.1868   31.6656 C   0  0  0  0  0  0  0  0  0  0  0  0
   12.9356   37.6796   32.0292 C   0  0  0  0  0  0  0  0  0  0  0  0
    9.6399   38.0903   30.6471 O   0  0  0  0  0  0  0  0  0  0  0  0
   11.5765   37.0145   31.7044 C   0  0  0  0  0  0  0  0  0  0  0  0
   13.4858   37.2125   33.3244 N   0  0  0  0  0  0  0  0  0  0  0  0
   11.6101   36.3397   30.4673 O   0  0  0  0  0  0  0  0  0  0  0  0
   14.4805   36.3319   33.5729 C   0  0  0  0  0  0  0  0  0  0  0  0
   13.1143   37.6276   34.5694 C   0  0  0  0  0  0  0  0  0  0  0  0
   15.2076   35.6153   32.6741 N   0  0  0  0  0  0  0  0  0  0  0  0
   14.6760   36.2304   34.9184 C   0  0  0  0  0  0  0  0  0  0  0  0
   13.8219   37.0449   35.5786 N   0  0  0  0  0  0  0  0  0  0  0  0
   16.1641   34.7600   33.1548 C   0  0  0  0  0  0  0  0  0  0  0  0
   15.6528   35.3505   35.4132 C   0  0  0  0  0  0  0  0  0  0  0  0
   16.3795   34.6314   34.5043 N   0  0  0  0  0  0  0  0  0  0  0  0
   15.9002   35.1931   36.8091 N   0  0  0  0  0  0  0  0  0  0  0  0
    9.0120   45.4317   33.6713 H   0  0  0  0  0  0  0  0  0  0  0  0
   10.7259   46.9687   33.1213 H   0  0  0  0  0  0  0  0  0  0  0  0
   11.8906   45.7658   32.9469 H   0  0  0  0  0  0  0  0  0  0  0  0
   10.7231   44.8813   31.1556 H   0  0  0  0  0  0  0  0  0  0  0  0
    9.3416   43.8327   31.4762 H   0  0  0  0  0  0  0  0  0  0  0  0
    7.0085   44.7172   31.5820 H   0  0  0  0  0  0  0  0  0  0  0  0
   10.3466   47.1853   30.4137 H   0  0  0  0  0  0  0  0  0  0  0  0
    5.4625   46.3076   30.5042 H   0  0  0  0  0  0  0  0  0  0  0  0
    8.8216   48.7658   29.3579 H   0  0  0  0  0  0  0  0  0  0  0  0
    7.1976   50.2494   28.9408 H   0  0  0  0  0  0  0  0  0  0  0  0
    7.0452   50.1419   26.4332 H   0  0  0  0  0  0  0  0  0  0  0  0
    6.1594   48.5711   26.5767 H   0  0  0  0  0  0  0  0  0  0  0  0
    7.8538   48.7084   27.1548 H   0  0  0  0  0  0  0  0  0  0  0  0
    3.9501   48.8997   27.4692 H   0  0  0  0  0  0  0  0  0  0  0  0
    3.8891   53.7120   28.7834 H   0  0  0  0  0  0  0  0  0  0  0  0
   -0.0999   51.3832   27.6664 H   0  0  0  0  0  0  0  0  0  0  0  0
    0.5100   51.8291   26.0021 H   0  0  0  0  0  0  0  0  0  0  0  0
    9.8215   40.7200   31.7636 H   0  0  0  0  0  0  0  0  0  0  0  0
   11.3803   41.5437   31.4664 H   0  0  0  0  0  0  0  0  0  0  0  0
   11.6998   39.5041   30.3482 H   0  0  0  0  0  0  0  0  0  0  0  0
   10.1085   38.2767   32.6603 H   0  0  0  0  0  0  0  0  0  0  0  0
   13.6680   37.4520   31.2229 H   0  0  0  0  0  0  0  0  0  0  0  0
    9.0016   37.3868   30.9349 H   0  0  0  0  0  0  0  0  0  0  0  0
   11.2666   36.3062   32.5083 H   0  0  0  0  0  0  0  0  0  0  0  0
   12.1389   35.5126   30.6150 H   0  0  0  0  0  0  0  0  0  0  0  0
   12.3300   38.3529   34.7449 H   0  0  0  0  0  0  0  0  0  0  0  0
   16.7560   34.1779   32.4621 H   0  0  0  0  0  0  0  0  0  0  0  0
   16.6347   34.5298   37.1416 H   0  0  0  0  0  0  0  0  0  0  0  0
   15.3534   35.7359   37.5140 H   0  0  0  0  0  0  0  0  0  0  0  0
  1  2  2  0
  1  3  1  0
  3  4  1  0
  4  5  1  0
  6  1  1  0
  7  6  1  0
  6  8  1  0
  8  9  1  0
  9 10  2  0
 11  9  1  0
 10 12  1  0
 13 11  2  0
 12 14  2  0
 14 13  1  0
 14 15  1  0
 15 16  1  0
 16 17  1  0
 16 18  1  0
 18 19  2  0
 20 18  1  0
 19 21  1  0
 22 20  2  0
 20 23  1  0
 21 24  1  0
 21 25  2  0
 25 22  1  0
 23 26  1  0
 23 27  2  0
 24 28  1  0
 25 29  1  0
 28 29  1  0
  4 30  2  0
  4 31  1  0
 32 31  1  0
 32 33  1  0
 33 34  1  0
 33 35  1  0
 34 36  1  0
 35 37  1  0
 35 38  1  0
 38 36  1  0
 36 39  1  0
 38 40  1  0
 41 39  1  0
 42 39  1  0
 43 41  2  0
 41 44  1  0
 45 42  2  0
 46 43  1  0
 44 47  2  0
 44 45  1  0
 48 46  2  0
 48 47  1  0
 47 49  1  0
  6 50  1  1
  7 51  1  0
  7 52  1  0
  8 53  1  0
  8 54  1  0
 10 55  1  0
 11 56  1  0
 12 57  1  0
 13 58  1  0
 16 59  1  1
 17 60  1  0
 17 61  1  0
 17 62  1  0
 19 63  1  0
 22 64  1  0
 28 65  1  0
 28 66  1  0
 32 67  1  0
 32 68  1  0
 33 69  1  0
 35 70  1  0
 36 71  1  0
 37 72  1  0
 38 73  1  0
 40 74  1  0
 42 75  1  0
 46 76  1  0
 49 77  1  0
 49 78  1  0
M  CHG  3   5  -1  23   1  26  -1
M  END
>  <EmbedRMS>  (120) 
0.0823961250814

$$$$

     RDKit          3D

 78 83  0  0  0  0  0  0  0  0999 V2000
   10.2804   43.7665   33.8251 C   0  0  0  0  0  0  0  0  0  0  0  0
   11.4111   43.5918   34.3666 O   0  0  0  0  0  0  0  0  0  0  0  0
    9.3616   42.7252   33.7348 O   0  0  0  0  0  0  0  0  0  0  0  0
    9.8898   41.2268   34.2939 P   0  0  0  0  0  0  0  0  0  0  0  0
   10.3738   41.4565   35.8831 O   0  0  0  0  0  0  0  0  0  0  0  0
    9.9460   45.0737   33.2113 C   0  0  1  0  0  0  0  0  0  0  0  0
   11.0268   46.0292   33.4709 N   0  0  0  0  0  0  0  0  0  0  0  0
    9.7540   44.8543   31.6950 C   0  0  0  0  0  0  0  0  0  0  0  0
    8.7958   45.8414   31.0852 C   0  0  0  0  0  0  0  0  0  0  0  0
    7.4092   45.6000   31.1007 C   0  0  0  0  0  0  0  0  0  0  0  0
    9.2824   46.9875   30.4394 C   0  0  0  0  0  0  0  0  0  0  0  0
    6.5257   46.4983   30.4854 C   0  0  0  0  0  0  0  0  0  0  0  0
    8.3997   47.8864   29.8302 C   0  0  0  0  0  0  0  0  0  0  0  0
    7.0177   47.6564   29.8479 C   0  0  0  0  0  0  0  0  0  0  0  0
    6.1856   48.5946   29.2146 O   0  0  0  0  0  0  0  0  0  0  0  0
    4.7580   48.6216   29.2597 C   0  0  1  0  0  0  0  0  0  0  0  0
    4.2529   49.0444   30.6464 C   0  0  0  0  0  0  0  0  0  0  0  0
    4.2290   49.5470   28.1743 C   0  0  0  0  0  0  0  0  0  0  0  0
    3.3861   48.9867   27.1813 C   0  0  0  0  0  0  0  0  0  0  0  0
    4.5057   50.9590   28.1354 C   0  0  0  0  0  0  0  0  0  0  0  0
    2.8414   49.8240   26.2171 C   0  0  0  0  0  0  0  0  0  0  0  0
    3.9078   51.7616   27.1381 C   0  0  0  0  0  0  0  0  0  0  0  0
    5.3611   51.5995   29.0931 N   0  0  0  0  0  0  0  0  0  0  0  0
    1.9996   49.4962   25.1717 O   0  0  0  0  0  0  0  0  0  0  0  0
    3.0884   51.1529   26.1984 C   0  0  0  0  0  0  0  0  0  0  0  0
    5.0010   52.8215   29.6122 O   0  0  0  0  0  0  0  0  0  0  0  0
    6.5293   51.1966   29.2625 O   0  0  0  0  0  0  0  0  0  0  0  0
    1.7007   50.6992   24.4505 C   0  0  0  0  0  0  0  0  0  0  0  0
    2.4163   51.7333   25.1399 O   0  0  0  0  0  0  0  0  0  0  0  0
    8.8122   40.1845   34.2134 O   0  0  0  0  0  0  0  0  0  0  0  0
   11.2400   40.7954   33.3680 O   0  0  0  0  0  0  0  0  0  0  0  0
   10.9124   40.6877   31.9967 C   0  0  0  0  0  0  0  0  0  0  0  0
   11.5169   39.3811   31.4420 C   0  0  0  0  0  0  0  0  0  0  0  0
   12.7500   39.0881   32.0760 O   0  0  0  0  0  0  0  0  0  0  0  0
   10.6043   38.1893   31.6659 C   0  0  0  0  0  0  0  0  0  0  0  0
   12.9395   37.6814   32.0280 C   0  0  0  0  0  0  0  0  0  0  0  0
    9.6353   38.0951   30.6499 O   0  0  0  0  0  0  0  0  0  0  0  0
   11.5804   37.0191   31.6934 C   0  0  0  0  0  0  0  0  0  0  0  0
   13.4851   37.2119   33.3244 N   0  0  0  0  0  0  0  0  0  0  0  0
   11.6118   36.3189   30.4673 O   0  0  0  0  0  0  0  0  0  0  0  0
   14.4801   36.3316   33.5732 C   0  0  0  0  0  0  0  0  0  0  0  0
   13.1139   37.6277   34.5692 C   0  0  0  0  0  0  0  0  0  0  0  0
   15.2076   35.6154   32.6744 N   0  0  0  0  0  0  0  0  0  0  0  0
   14.6756   36.2303   34.9186 C   0  0  0  0  0  0  0  0  0  0  0  0
   13.8215   37.0451   35.5786 N   0  0  0  0  0  0  0  0  0  0  0  0
   16.1642   34.7602   33.1551 C   0  0  0  0  0  0  0  0  0  0  0  0
   15.6526   35.3505   35.4134 C   0  0  0  0  0  0  0  0  0  0  0  0
   16.3796   34.6316   34.5045 N   0  0  0  0  0  0  0  0  0  0  0  0
   15.9001   35.1933   36.8093 N   0  0  0  0  0  0  0  0  0  0  0  0
    8.9996   45.4383   33.6723 H   0  0  0  0  0  0  0  0  0  0  0  0
   11.0503   46.2277   34.4983 H   0  0  0  0  0  0  0  0  0  0  0  0
   10.7766   46.9369   33.0160 H   0  0  0  0  0  0  0  0  0  0  0  0
    9.3646   43.8355   31.4712 H   0  0  0  0  0  0  0  0  0  0  0  0
   10.7412   44.9080   31.1837 H   0  0  0  0  0  0  0  0  0  0  0  0
    7.0156   44.7137   31.5831 H   0  0  0  0  0  0  0  0  0  0  0  0
   10.3463   47.1871   30.4045 H   0  0  0  0  0  0  0  0  0  0  0  0
    5.4701   46.2724   30.5101 H   0  0  0  0  0  0  0  0  0  0  0  0
    8.7923   48.7678   29.3389 H   0  0  0  0  0  0  0  0  0  0  0  0
    4.3782   47.5954   29.0643 H   0  0  0  0  0  0  0  0  0  0  0  0
    3.1500   49.1767   30.6276 H   0  0  0  0  0  0  0  0  0  0  0  0
    4.7252   49.9895   30.9799 H   0  0  0  0  0  0  0  0  0  0  0  0
    4.4904   48.2652   31.3988 H   0  0  0  0  0  0  0  0  0  0  0  0
    3.1481   47.9306   27.1652 H   0  0  0  0  0  0  0  0  0  0  0  0
    4.0919   52.8272   27.0888 H   0  0  0  0  0  0  0  0  0  0  0  0
    2.0592   50.6182   23.4029 H   0  0  0  0  0  0  0  0  0  0  0  0
    0.6098   50.9034   24.4793 H   0  0  0  0  0  0  0  0  0  0  0  0
    9.8215   40.7221   31.7644 H   0  0  0  0  0  0  0  0  0  0  0  0
   11.3807   41.5456   31.4683 H   0  0  0  0  0  0  0  0  0  0  0  0
   11.6986   39.5088   30.3499 H   0  0  0  0  0  0  0  0  0  0  0  0
   10.1109   38.2737   32.6630 H   0  0  0  0  0  0  0  0  0  0  0  0
   13.6783   37.4562   31.2271 H   0  0  0  0  0  0  0  0  0  0  0  0
    9.0020   37.3860   30.9348 H   0  0  0  0  0  0  0  0  0  0  0  0
   11.2808   36.3052   32.4921 H   0  0  0  0  0  0  0  0  0  0  0  0
   11.8819   36.9599   29.7584 H   0  0  0  0  0  0  0  0  0  0  0  0
   12.3303   38.3538   34.7446 H   0  0  0  0  0  0  0  0  0  0  0  0
   16.7563   34.1783   32.4624 H   0  0  0  0  0  0  0  0  0  0  0  0
   15.3532   35.7359   37.5142 H   0  0  0  0  0  0  0  0  0  0  0  0
   16.6348   34.5301   37.1418 H   0  0  0  0  0  0  0  0  0  0  0  0
  1  2  2  0
  1  3  1  0
  3  4  1  0
  4  5  1  0
  6  1  1  0
  7  6  1  0
  6  8  1  0
  8  9  1  0
  9 10  2  0
 11  9  1  0
 10 12  1  0
 13 11  2  0
 12 14  2  0
 14 13  1  0
 14 15  1  0
 15 16  1  0
 16 17  1  0
 16 18  1  0
 18 19  2  0
 20 18  1  0
 19 21  1  0
 22 20  2  0
 20 23  1  0
 21 24  1  0
 21 25  2  0
 25 22  1  0
 23 26  1  0
 23 27  2  0
 24 28  1  0
 25 29  1  0
 28 29  1  0
  4 30  2  0
  4 31  1  0
 32 31  1  0
 32 33  1  0
 33 34  1  0
 33 35  1  0
 34 36  1  0
 35 37  1  0
 35 38  1  0
 38 36  1  0
 36 39  1  0
 38 40  1  0
 41 39  1  0
 42 39  1  0
 43 41  2  0
 41 44  1  0
 45 42  2  0
 46 43  1  0
 44 47  2  0
 44 45  1  0
 48 46  2  0
 48 47  1  0
 47 49  1  0
  6 50  1  1
  7 51  1  0
  7 52  1  0
  8 53  1  0
  8 54  1  0
 10 55  1  0
 11 56  1  0
 12 57  1  0
 13 58  1  0
 16 59  1  6
 17 60  1  0
 17 61  1  0
 17 62  1  0
 19 63  1  0
 22 64  1  0
 28 65  1  0
 28 66  1  0
 32 67  1  0
 32 68  1  0
 33 69  1  0
 35 70  1  0
 36 71  1  0
 37 72  1  0
 38 73  1  0
 40 74  1  0
 42 75  1  0
 46 76  1  0
 49 77  1  0
 49 78  1  0
M  CHG  3   5  -1  23   1  26  -1
M  END
>  <EmbedRMS>  (121) 
0.0813622945179

$$$$

     RDKit          3D

 78 83  0  0  0  0  0  0  0  0999 V2000
   10.2835   43.7662   33.8255 C   0  0  0  0  0  0  0  0  0  0  0  0
   11.4102   43.5930   34.3752 O   0  0  0  0  0  0  0  0  0  0  0  0
    9.3637   42.7255   33.7348 O   0  0  0  0  0  0  0  0  0  0  0  0
    9.8903   41.2267   34.2942 P   0  0  0  0  0  0  0  0  0  0  0  0
   10.3735   41.4561   35.8836 O   0  0  0  0  0  0  0  0  0  0  0  0
    9.9548   45.0695   33.2034 C   0  0  1  0  0  0  0  0  0  0  0  0
   11.0274   46.0322   33.4758 N   0  0  0  0  0  0  0  0  0  0  0  0
    9.7472   44.8483   31.6873 C   0  0  0  0  0  0  0  0  0  0  0  0
    8.7927   45.8406   31.0839 C   0  0  0  0  0  0  0  0  0  0  0  0
    7.4060   45.6014   31.0999 C   0  0  0  0  0  0  0  0  0  0  0  0
    9.2817   46.9883   30.4427 C   0  0  0  0  0  0  0  0  0  0  0  0
    6.5245   46.5018   30.4862 C   0  0  0  0  0  0  0  0  0  0  0  0
    8.4002   47.8887   29.8336 C   0  0  0  0  0  0  0  0  0  0  0  0
    7.0186   47.6549   29.8431 C   0  0  0  0  0  0  0  0  0  0  0  0
    6.1843   48.5888   29.2070 O   0  0  0  0  0  0  0  0  0  0  0  0
    4.7797   48.4417   28.9952 C   0  0  1  0  0  0  0  0  0  0  0  0
    4.1902   49.7751   28.5340 C   0  0  0  0  0  0  0  0  0  0  0  0
    4.4790   47.3339   27.9942 C   0  0  0  0  0  0  0  0  0  0  0  0
    3.6086   46.2931   28.4031 C   0  0  0  0  0  0  0  0  0  0  0  0
    4.9848   47.3294   26.6481 C   0  0  0  0  0  0  0  0  0  0  0  0
    3.2775   45.3019   27.4890 C   0  0  0  0  0  0  0  0  0  0  0  0
    4.5985   46.3026   25.7584 C   0  0  0  0  0  0  0  0  0  0  0  0
    5.8547   48.3574   26.1553 N   0  0  0  0  0  0  0  0  0  0  0  0
    2.4584   44.2044   27.6716 O   0  0  0  0  0  0  0  0  0  0  0  0
    3.7503   45.3072   26.2224 C   0  0  0  0  0  0  0  0  0  0  0  0
    5.6135   48.9096   24.9187 O   0  0  0  0  0  0  0  0  0  0  0  0
    6.9626   48.5524   26.6935 O   0  0  0  0  0  0  0  0  0  0  0  0
    2.4173   43.4733   26.4385 C   0  0  0  0  0  0  0  0  0  0  0  0
    3.2554   44.2126   25.5398 O   0  0  0  0  0  0  0  0  0  0  0  0
    8.8121   40.1850   34.2130 O   0  0  0  0  0  0  0  0  0  0  0  0
   11.2407   40.7939   33.3693 O   0  0  0  0  0  0  0  0  0  0  0  0
   10.9151   40.6905   31.9974 C   0  0  0  0  0  0  0  0  0  0  0  0
   11.5252   39.3886   31.4375 C   0  0  0  0  0  0  0  0  0  0  0  0
   12.7500   39.0874   32.0799 O   0  0  0  0  0  0  0  0  0  0  0  0
   10.6092   38.1926   31.6470 C   0  0  0  0  0  0  0  0  0  0  0  0
   12.9332   37.6793   32.0294 C   0  0  0  0  0  0  0  0  0  0  0  0
    9.6122   38.0895   30.6542 O   0  0  0  0  0  0  0  0  0  0  0  0
   11.5743   37.0145   31.7024 C   0  0  0  0  0  0  0  0  0  0  0  0
   13.4844   37.2107   33.3241 N   0  0  0  0  0  0  0  0  0  0  0  0
   11.6297   36.3239   30.4740 O   0  0  0  0  0  0  0  0  0  0  0  0
   14.4802   36.3313   33.5726 C   0  0  0  0  0  0  0  0  0  0  0  0
   13.1138   37.6266   34.5692 C   0  0  0  0  0  0  0  0  0  0  0  0
   15.2075   35.6149   32.6739 N   0  0  0  0  0  0  0  0  0  0  0  0
   14.6761   36.2303   34.9181 C   0  0  0  0  0  0  0  0  0  0  0  0
   13.8220   37.0447   35.5785 N   0  0  0  0  0  0  0  0  0  0  0  0
   16.1643   34.7600   33.1547 C   0  0  0  0  0  0  0  0  0  0  0  0
   15.6529   35.3505   35.4130 C   0  0  0  0  0  0  0  0  0  0  0  0
   16.3797   34.6315   34.5042 N   0  0  0  0  0  0  0  0  0  0  0  0
   15.9002   35.1932   36.8090 N   0  0  0  0  0  0  0  0  0  0  0  0
    9.0120   45.4317   33.6710 H   0  0  0  0  0  0  0  0  0  0  0  0
   10.7261   46.9688   33.1214 H   0  0  0  0  0  0  0  0  0  0  0  0
   11.8908   45.7659   32.9475 H   0  0  0  0  0  0  0  0  0  0  0  0
    9.3427   43.8330   31.4756 H   0  0  0  0  0  0  0  0  0  0  0  0
   10.7237   44.8823   31.1556 H   0  0  0  0  0  0  0  0  0  0  0  0
    7.0101   44.7178   31.5853 H   0  0  0  0  0  0  0  0  0  0  0  0
   10.3459   47.1870   30.4112 H   0  0  0  0  0  0  0  0  0  0  0  0
    5.4668   46.2920   30.5281 H   0  0  0  0  0  0  0  0  0  0  0  0
    8.7935   48.7701   29.3431 H   0  0  0  0  0  0  0  0  0  0  0  0
    4.3002   48.2214   29.9750 H   0  0  0  0  0  0  0  0  0  0  0  0
    4.3283   50.5378   29.3295 H   0  0  0  0  0  0  0  0  0  0  0  0
    4.6889   50.1431   27.6148 H   0  0  0  0  0  0  0  0  0  0  0  0
    3.1018   49.6663   28.3384 H   0  0  0  0  0  0  0  0  0  0  0  0
    3.1908   46.2602   29.4013 H   0  0  0  0  0  0  0  0  0  0  0  0
    4.9601   46.2777   24.7384 H   0  0  0  0  0  0  0  0  0  0  0  0
    2.8217   42.4498   26.5851 H   0  0  0  0  0  0  0  0  0  0  0  0
    1.3783   43.4348   26.0493 H   0  0  0  0  0  0  0  0  0  0  0  0
    9.8243   40.7216   31.7643 H   0  0  0  0  0  0  0  0  0  0  0  0
   11.3802   41.5529   31.4733 H   0  0  0  0  0  0  0  0  0  0  0  0
   11.7266   39.5311   30.3513 H   0  0  0  0  0  0  0  0  0  0  0  0
   10.1110   38.2747   32.6387 H   0  0  0  0  0  0  0  0  0  0  0  0
   13.6652   37.4519   31.2226 H   0  0  0  0  0  0  0  0  0  0  0  0
   10.0511   38.1143   29.7645 H   0  0  0  0  0  0  0  0  0  0  0  0
   11.2762   36.3142   32.5189 H   0  0  0  0  0  0  0  0  0  0  0  0
   10.8592   35.6978   30.4640 H   0  0  0  0  0  0  0  0  0  0  0  0
   12.3295   38.3518   34.7449 H   0  0  0  0  0  0  0  0  0  0  0  0
   16.7564   34.1779   32.4620 H   0  0  0  0  0  0  0  0  0  0  0  0
   16.6348   34.5300   37.1416 H   0  0  0  0  0  0  0  0  0  0  0  0
   15.3534   35.7359   37.5138 H   0  0  0  0  0  0  0  0  0  0  0  0
  1  2  2  0
  1  3  1  0
  3  4  1  0
  4  5  1  0
  6  1  1  0
  7  6  1  0
  6  8  1  0
  8  9  1  0
  9 10  2  0
 11  9  1  0
 10 12  1  0
 13 11  2  0
 12 14  2  0
 14 13  1  0
 14 15  1  0
 15 16  1  0
 16 17  1  0
 16 18  1  0
 18 19  2  0
 20 18  1  0
 19 21  1  0
 22 20  2  0
 20 23  1  0
 21 24  1  0
 21 25  2  0
 25 22  1  0
 23 26  1  0
 23 27  2  0
 24 28  1  0
 25 29  1  0
 28 29  1  0
  4 30  2  0
  4 31  1  0
 32 31  1  0
 32 33  1  0
 33 34  1  0
 33 35  1  0
 34 36  1  0
 35 37  1  0
 35 38  1  0
 38 36  1  0
 36 39  1  0
 38 40  1  0
 41 39  1  0
 42 39  1  0
 43 41  2  0
 41 44  1  0
 45 42  2  0
 46 43  1  0
 44 47  2  0
 44 45  1  0
 48 46  2  0
 48 47  1  0
 47 49  1  0
  6 50  1  1
  7 51  1  0
  7 52  1  0
  8 53  1  0
  8 54  1  0
 10 55  1  0
 11 56  1  0
 12 57  1  0
 13 58  1  0
 16 59  1  1
 17 60  1  0
 17 61  1  0
 17 62  1  0
 19 63  1  0
 22 64  1  0
 28 65  1  0
 28 66  1  0
 32 67  1  0
 32 68  1  0
 33 69  1  0
 35 70  1  0
 36 71  1  0
 37 72  1  0
 38 73  1  0
 40 74  1  0
 42 75  1  0
 46 76  1  0
 49 77  1  0
 49 78  1  0
M  CHG  3   5  -1  23   1  26  -1
M  END
>  <EmbedRMS>  (122) 
0.0818216730194

$$$$

     RDKit          3D

 78 83  0  0  0  0  0  0  0  0999 V2000
   10.2838   43.7627   33.8277 C   0  0  0  0  0  0  0  0  0  0  0  0
   11.4103   43.5863   34.3766 O   0  0  0  0  0  0  0  0  0  0  0  0
    9.3628   42.7238   33.7358 O   0  0  0  0  0  0  0  0  0  0  0  0
    9.8891   41.2251   34.2949 P   0  0  0  0  0  0  0  0  0  0  0  0
   10.3724   41.4548   35.8843 O   0  0  0  0  0  0  0  0  0  0  0  0
    9.9548   45.0699   33.2063 C   0  0  1  0  0  0  0  0  0  0  0  0
   11.0198   46.0481   33.4568 N   0  0  0  0  0  0  0  0  0  0  0  0
    9.7502   44.8506   31.6923 C   0  0  0  0  0  0  0  0  0  0  0  0
    8.7943   45.8414   31.0867 C   0  0  0  0  0  0  0  0  0  0  0  0
    7.4077   45.6010   31.1002 C   0  0  0  0  0  0  0  0  0  0  0  0
    9.2830   46.9889   30.4451 C   0  0  0  0  0  0  0  0  0  0  0  0
    6.5283   46.5022   30.4849 C   0  0  0  0  0  0  0  0  0  0  0  0
    8.4037   47.8906   29.8332 C   0  0  0  0  0  0  0  0  0  0  0  0
    7.0140   47.6515   29.8458 C   0  0  0  0  0  0  0  0  0  0  0  0
    6.0823   48.5193   29.2518 O   0  0  0  0  0  0  0  0  0  0  0  0
    6.3896   49.6744   28.4647 C   0  0  1  0  0  0  0  0  0  0  0  0
    6.8884   49.2510   27.0783 C   0  0  0  0  0  0  0  0  0  0  0  0
    5.1407   50.5235   28.3222 C   0  0  0  0  0  0  0  0  0  0  0  0
    3.9154   49.8794   28.0184 C   0  0  0  0  0  0  0  0  0  0  0  0
    5.1539   51.9440   28.5246 C   0  0  0  0  0  0  0  0  0  0  0  0
    2.7583   50.6450   27.9632 C   0  0  0  0  0  0  0  0  0  0  0  0
    3.9404   52.6682   28.4719 C   0  0  0  0  0  0  0  0  0  0  0  0
    6.3769   52.6617   28.7531 N   0  0  0  0  0  0  0  0  0  0  0  0
    1.4669   50.2319   27.6978 O   0  0  0  0  0  0  0  0  0  0  0  0
    2.7694   51.9793   28.1857 C   0  0  0  0  0  0  0  0  0  0  0  0
    7.4620   52.4538   27.9334 O   0  0  0  0  0  0  0  0  0  0  0  0
    6.3929   53.6323   29.5380 O   0  0  0  0  0  0  0  0  0  0  0  0
    0.6134   51.3829   27.7571 C   0  0  0  0  0  0  0  0  0  0  0  0
    1.4857   52.4771   28.0710 O   0  0  0  0  0  0  0  0  0  0  0  0
    8.8112   40.1834   34.2132 O   0  0  0  0  0  0  0  0  0  0  0  0
   11.2398   40.7938   33.3702 O   0  0  0  0  0  0  0  0  0  0  0  0
   10.9144   40.6912   31.9983 C   0  0  0  0  0  0  0  0  0  0  0  0
   11.5270   39.3911   31.4385 C   0  0  0  0  0  0  0  0  0  0  0  0
   12.7520   39.0910   32.0835 O   0  0  0  0  0  0  0  0  0  0  0  0
   10.6114   38.1931   31.6451 C   0  0  0  0  0  0  0  0  0  0  0  0
   12.9413   37.6837   32.0297 C   0  0  0  0  0  0  0  0  0  0  0  0
    9.6064   38.0877   30.6599 O   0  0  0  0  0  0  0  0  0  0  0  0
   11.5822   37.0197   31.6876 C   0  0  0  0  0  0  0  0  0  0  0  0
   13.4840   37.2104   33.3254 N   0  0  0  0  0  0  0  0  0  0  0  0
   11.6179   36.3071   30.4690 O   0  0  0  0  0  0  0  0  0  0  0  0
   14.4797   36.3309   33.5738 C   0  0  0  0  0  0  0  0  0  0  0  0
   13.1136   37.6269   34.5702 C   0  0  0  0  0  0  0  0  0  0  0  0
   15.2074   35.6152   32.6747 N   0  0  0  0  0  0  0  0  0  0  0  0
   14.6756   36.2298   34.9190 C   0  0  0  0  0  0  0  0  0  0  0  0
   13.8217   37.0445   35.5793 N   0  0  0  0  0  0  0  0  0  0  0  0
   16.1643   34.7603   33.1551 C   0  0  0  0  0  0  0  0  0  0  0  0
   15.6528   35.3503   35.4136 C   0  0  0  0  0  0  0  0  0  0  0  0
   16.3798   34.6316   34.5046 N   0  0  0  0  0  0  0  0  0  0  0  0
   15.9004   35.1930   36.8094 N   0  0  0  0  0  0  0  0  0  0  0  0
    9.0099   45.4350   33.6670 H   0  0  0  0  0  0  0  0  0  0  0  0
   11.1135   46.1993   34.4880 H   0  0  0  0  0  0  0  0  0  0  0  0
   11.9348   45.6932   33.0923 H   0  0  0  0  0  0  0  0  0  0  0  0
    9.3510   43.8341   31.4763 H   0  0  0  0  0  0  0  0  0  0  0  0
   10.7305   44.8920   31.1675 H   0  0  0  0  0  0  0  0  0  0  0  0
    7.0110   44.7162   31.5827 H   0  0  0  0  0  0  0  0  0  0  0  0
   10.3473   47.1884   30.4181 H   0  0  0  0  0  0  0  0  0  0  0  0
    5.4639   46.3051   30.5035 H   0  0  0  0  0  0  0  0  0  0  0  0
    8.8208   48.7661   29.3578 H   0  0  0  0  0  0  0  0  0  0  0  0
    7.1782   50.2544   28.9831 H   0  0  0  0  0  0  0  0  0  0  0  0
    7.8327   48.6757   27.1615 H   0  0  0  0  0  0  0  0  0  0  0  0
    6.1339   48.6122   26.5718 H   0  0  0  0  0  0  0  0  0  0  0  0
    7.0825   50.1455   26.4493 H   0  0  0  0  0  0  0  0  0  0  0  0
    3.8640   48.8113   27.8485 H   0  0  0  0  0  0  0  0  0  0  0  0
    3.9165   53.7398   28.6229 H   0  0  0  0  0  0  0  0  0  0  0  0
   -0.1463   51.2569   28.5568 H   0  0  0  0  0  0  0  0  0  0  0  0
    0.1264   51.5510   26.7737 H   0  0  0  0  0  0  0  0  0  0  0  0
   11.3780   41.5548   31.4751 H   0  0  0  0  0  0  0  0  0  0  0  0
    9.8235   40.7202   31.7651 H   0  0  0  0  0  0  0  0  0  0  0  0
   11.7311   39.5363   30.3531 H   0  0  0  0  0  0  0  0  0  0  0  0
   10.1203   38.2695   32.6410 H   0  0  0  0  0  0  0  0  0  0  0  0
   13.6850   37.4638   31.2321 H   0  0  0  0  0  0  0  0  0  0  0  0
   10.0251   38.1792   29.7654 H   0  0  0  0  0  0  0  0  0  0  0  0
   11.2757   36.3135   32.4907 H   0  0  0  0  0  0  0  0  0  0  0  0
   11.9839   36.9110   29.7708 H   0  0  0  0  0  0  0  0  0  0  0  0
   12.3307   38.3537   34.7457 H   0  0  0  0  0  0  0  0  0  0  0  0
   16.7566   34.1786   32.4623 H   0  0  0  0  0  0  0  0  0  0  0  0
   16.6353   34.5301   37.1419 H   0  0  0  0  0  0  0  0  0  0  0  0
   15.3535   35.7355   37.5144 H   0  0  0  0  0  0  0  0  0  0  0  0
  1  2  2  0
  1  3  1  0
  3  4  1  0
  4  5  1  0
  6  1  1  0
  7  6  1  0
  6  8  1  0
  8  9  1  0
  9 10  2  0
 11  9  1  0
 10 12  1  0
 13 11  2  0
 12 14  2  0
 14 13  1  0
 14 15  1  0
 15 16  1  0
 16 17  1  0
 16 18  1  0
 18 19  2  0
 20 18  1  0
 19 21  1  0
 22 20  2  0
 20 23  1  0
 21 24  1  0
 21 25  2  0
 25 22  1  0
 23 26  1  0
 23 27  2  0
 24 28  1  0
 25 29  1  0
 28 29  1  0
  4 30  2  0
  4 31  1  0
 32 31  1  0
 32 33  1  0
 33 34  1  0
 33 35  1  0
 34 36  1  0
 35 37  1  0
 35 38  1  0
 38 36  1  0
 36 39  1  0
 38 40  1  0
 41 39  1  0
 42 39  1  0
 43 41  2  0
 41 44  1  0
 45 42  2  0
 46 43  1  0
 44 47  2  0
 44 45  1  0
 48 46  2  0
 48 47  1  0
 47 49  1  0
  6 50  1  1
  7 51  1  0
  7 52  1  0
  8 53  1  0
  8 54  1  0
 10 55  1  0
 11 56  1  0
 12 57  1  0
 13 58  1  0
 16 59  1  1
 17 60  1  0
 17 61  1  0
 17 62  1  0
 19 63  1  0
 22 64  1  0
 28 65  1  0
 28 66  1  0
 32 67  1  0
 32 68  1  0
 33 69  1  0
 35 70  1  0
 36 71  1  0
 37 72  1  0
 38 73  1  0
 40 74  1  0
 42 75  1  0
 46 76  1  0
 49 77  1  0
 49 78  1  0
M  CHG  3   5  -1  23   1  26  -1
M  END
>  <EmbedRMS>  (123) 
0.0817443971065

$$$$

     RDKit          3D

 78 83  0  0  0  0  0  0  0  0999 V2000
   10.2834   43.7662   33.8258 C   0  0  0  0  0  0  0  0  0  0  0  0
   11.4102   43.5930   34.3753 O   0  0  0  0  0  0  0  0  0  0  0  0
    9.3635   42.7257   33.7353 O   0  0  0  0  0  0  0  0  0  0  0  0
    9.8902   41.2268   34.2942 P   0  0  0  0  0  0  0  0  0  0  0  0
   10.3739   41.4559   35.8835 O   0  0  0  0  0  0  0  0  0  0  0  0
    9.9547   45.0695   33.2036 C   0  0  1  0  0  0  0  0  0  0  0  0
   11.0274   46.0321   33.4756 N   0  0  0  0  0  0  0  0  0  0  0  0
    9.7466   44.8479   31.6878 C   0  0  0  0  0  0  0  0  0  0  0  0
    8.7923   45.8406   31.0847 C   0  0  0  0  0  0  0  0  0  0  0  0
    7.4061   45.6016   31.0992 C   0  0  0  0  0  0  0  0  0  0  0  0
    9.2816   46.9871   30.4426 C   0  0  0  0  0  0  0  0  0  0  0  0
    6.5280   46.5033   30.4837 C   0  0  0  0  0  0  0  0  0  0  0  0
    8.4029   47.8895   29.8318 C   0  0  0  0  0  0  0  0  0  0  0  0
    7.0128   47.6544   29.8465 C   0  0  0  0  0  0  0  0  0  0  0  0
    6.0733   48.5109   29.2432 O   0  0  0  0  0  0  0  0  0  0  0  0
    6.3244   49.7473   28.5613 C   0  0  1  0  0  0  0  0  0  0  0  0
    6.7239   50.8348   29.5714 C   0  0  0  0  0  0  0  0  0  0  0  0
    7.2550   49.5519   27.3629 C   0  0  0  0  0  0  0  0  0  0  0  0
    8.3895   50.3888   27.1764 C   0  0  0  0  0  0  0  0  0  0  0  0
    7.0120   48.4975   26.4146 C   0  0  0  0  0  0  0  0  0  0  0  0
    9.2426   50.1294   26.1124 C   0  0  0  0  0  0  0  0  0  0  0  0
    7.9272   48.2749   25.3613 C   0  0  0  0  0  0  0  0  0  0  0  0
    5.8610   47.6408   26.5084 N   0  0  0  0  0  0  0  0  0  0  0  0
   10.3980   50.7986   25.7570 O   0  0  0  0  0  0  0  0  0  0  0  0
    9.0244   49.1150   25.2470 C   0  0  0  0  0  0  0  0  0  0  0  0
    5.9568   46.3220   26.1279 O   0  0  0  0  0  0  0  0  0  0  0  0
    4.7317   48.1183   26.7402 O   0  0  0  0  0  0  0  0  0  0  0  0
   10.9383   50.1607   24.5919 C   0  0  0  0  0  0  0  0  0  0  0  0
   10.0298   49.0905   24.2995 O   0  0  0  0  0  0  0  0  0  0  0  0
    8.8121   40.1851   34.2131 O   0  0  0  0  0  0  0  0  0  0  0  0
   11.2402   40.7952   33.3681 O   0  0  0  0  0  0  0  0  0  0  0  0
   10.9125   40.6877   31.9968 C   0  0  0  0  0  0  0  0  0  0  0  0
   11.5169   39.3811   31.4420 C   0  0  0  0  0  0  0  0  0  0  0  0
   12.7500   39.0881   32.0759 O   0  0  0  0  0  0  0  0  0  0  0  0
   10.6043   38.1893   31.6659 C   0  0  0  0  0  0  0  0  0  0  0  0
   12.9395   37.6814   32.0280 C   0  0  0  0  0  0  0  0  0  0  0  0
    9.6353   38.0951   30.6499 O   0  0  0  0  0  0  0  0  0  0  0  0
   11.5804   37.0191   31.6934 C   0  0  0  0  0  0  0  0  0  0  0  0
   13.4851   37.2119   33.3244 N   0  0  0  0  0  0  0  0  0  0  0  0
   11.6118   36.3189   30.4673 O   0  0  0  0  0  0  0  0  0  0  0  0
   14.4801   36.3316   33.5732 C   0  0  0  0  0  0  0  0  0  0  0  0
   13.1139   37.6277   34.5692 C   0  0  0  0  0  0  0  0  0  0  0  0
   15.2076   35.6154   32.6744 N   0  0  0  0  0  0  0  0  0  0  0  0
   14.6756   36.2303   34.9186 C   0  0  0  0  0  0  0  0  0  0  0  0
   13.8215   37.0451   35.5786 N   0  0  0  0  0  0  0  0  0  0  0  0
   16.1642   34.7602   33.1551 C   0  0  0  0  0  0  0  0  0  0  0  0
   15.6526   35.3505   35.4134 C   0  0  0  0  0  0  0  0  0  0  0  0
   16.3796   34.6316   34.5045 N   0  0  0  0  0  0  0  0  0  0  0  0
   15.9000   35.1933   36.8093 N   0  0  0  0  0  0  0  0  0  0  0  0
    9.0121   45.4318   33.6715 H   0  0  0  0  0  0  0  0  0  0  0  0
   11.8907   45.7657   32.9470 H   0  0  0  0  0  0  0  0  0  0  0  0
   10.7261   46.9687   33.1211 H   0  0  0  0  0  0  0  0  0  0  0  0
   10.7230   44.8813   31.1557 H   0  0  0  0  0  0  0  0  0  0  0  0
    9.3415   43.8328   31.4764 H   0  0  0  0  0  0  0  0  0  0  0  0
    7.0086   44.7167   31.5807 H   0  0  0  0  0  0  0  0  0  0  0  0
   10.3464   47.1833   30.4106 H   0  0  0  0  0  0  0  0  0  0  0  0
    5.4638   46.3048   30.5002 H   0  0  0  0  0  0  0  0  0  0  0  0
    8.8258   48.7545   29.3495 H   0  0  0  0  0  0  0  0  0  0  0  0
    5.3522   50.0876   28.1466 H   0  0  0  0  0  0  0  0  0  0  0  0
    5.9804   50.8640   30.3960 H   0  0  0  0  0  0  0  0  0  0  0  0
    6.7251   51.8324   29.0828 H   0  0  0  0  0  0  0  0  0  0  0  0
    7.7208   50.6423   30.0150 H   0  0  0  0  0  0  0  0  0  0  0  0
    8.6276   51.2067   27.8402 H   0  0  0  0  0  0  0  0  0  0  0  0
    7.7750   47.4827   24.6397 H   0  0  0  0  0  0  0  0  0  0  0  0
   11.9492   49.7565   24.8092 H   0  0  0  0  0  0  0  0  0  0  0  0
   10.9735   50.8761   23.7437 H   0  0  0  0  0  0  0  0  0  0  0  0
   11.3808   41.5456   31.4685 H   0  0  0  0  0  0  0  0  0  0  0  0
    9.8215   40.7222   31.7647 H   0  0  0  0  0  0  0  0  0  0  0  0
   11.6986   39.5089   30.3499 H   0  0  0  0  0  0  0  0  0  0  0  0
   10.1109   38.2737   32.6630 H   0  0  0  0  0  0  0  0  0  0  0  0
   13.6783   37.4562   31.2271 H   0  0  0  0  0  0  0  0  0  0  0  0
    9.0020   37.3860   30.9348 H   0  0  0  0  0  0  0  0  0  0  0  0
   11.2807   36.3053   32.4921 H   0  0  0  0  0  0  0  0  0  0  0  0
   11.8818   36.9600   29.7584 H   0  0  0  0  0  0  0  0  0  0  0  0
   12.3303   38.3538   34.7445 H   0  0  0  0  0  0  0  0  0  0  0  0
   16.7564   34.1783   32.4624 H   0  0  0  0  0  0  0  0  0  0  0  0
   16.6348   34.5302   37.1418 H   0  0  0  0  0  0  0  0  0  0  0  0
   15.3532   35.7359   37.5142 H   0  0  0  0  0  0  0  0  0  0  0  0
  1  2  2  0
  1  3  1  0
  3  4  1  0
  4  5  1  0
  6  1  1  0
  7  6  1  0
  6  8  1  0
  8  9  1  0
  9 10  2  0
 11  9  1  0
 10 12  1  0
 13 11  2  0
 12 14  2  0
 14 13  1  0
 14 15  1  0
 15 16  1  0
 16 17  1  0
 16 18  1  0
 18 19  2  0
 20 18  1  0
 19 21  1  0
 22 20  2  0
 20 23  1  0
 21 24  1  0
 21 25  2  0
 25 22  1  0
 23 26  1  0
 23 27  2  0
 24 28  1  0
 25 29  1  0
 28 29  1  0
  4 30  2  0
  4 31  1  0
 32 31  1  0
 32 33  1  0
 33 34  1  0
 33 35  1  0
 34 36  1  0
 35 37  1  0
 35 38  1  0
 38 36  1  0
 36 39  1  0
 38 40  1  0
 41 39  1  0
 42 39  1  0
 43 41  2  0
 41 44  1  0
 45 42  2  0
 46 43  1  0
 44 47  2  0
 44 45  1  0
 48 46  2  0
 48 47  1  0
 47 49  1  0
  6 50  1  1
  7 51  1  0
  7 52  1  0
  8 53  1  0
  8 54  1  0
 10 55  1  0
 11 56  1  0
 12 57  1  0
 13 58  1  0
 16 59  1  6
 17 60  1  0
 17 61  1  0
 17 62  1  0
 19 63  1  0
 22 64  1  0
 28 65  1  0
 28 66  1  0
 32 67  1  0
 32 68  1  0
 33 69  1  0
 35 70  1  0
 36 71  1  0
 37 72  1  0
 38 73  1  0
 40 74  1  0
 42 75  1  0
 46 76  1  0
 49 77  1  0
 49 78  1  0
M  CHG  3   5  -1  23   1  26  -1
M  END
>  <EmbedRMS>  (124) 
0.0815539955434

$$$$

     RDKit          3D

 78 83  0  0  0  0  0  0  0  0999 V2000
   10.2835   43.7662   33.8257 C   0  0  0  0  0  0  0  0  0  0  0  0
   11.4102   43.5931   34.3753 O   0  0  0  0  0  0  0  0  0  0  0  0
    9.3639   42.7253   33.7348 O   0  0  0  0  0  0  0  0  0  0  0  0
    9.8907   41.2265   34.2938 P   0  0  0  0  0  0  0  0  0  0  0  0
   10.3733   41.4558   35.8835 O   0  0  0  0  0  0  0  0  0  0  0  0
    9.9546   45.0695   33.2036 C   0  0  1  0  0  0  0  0  0  0  0  0
   11.0272   46.0323   33.4756 N   0  0  0  0  0  0  0  0  0  0  0  0
    9.7465   44.8480   31.6878 C   0  0  0  0  0  0  0  0  0  0  0  0
    8.7923   45.8408   31.0845 C   0  0  0  0  0  0  0  0  0  0  0  0
    7.4056   45.6012   31.0983 C   0  0  0  0  0  0  0  0  0  0  0  0
    9.2824   46.9874   30.4420 C   0  0  0  0  0  0  0  0  0  0  0  0
    6.5267   46.5028   30.4831 C   0  0  0  0  0  0  0  0  0  0  0  0
    8.4035   47.8893   29.8310 C   0  0  0  0  0  0  0  0  0  0  0  0
    7.0138   47.6542   29.8496 C   0  0  0  0  0  0  0  0  0  0  0  0
    6.0879   48.5298   29.2589 O   0  0  0  0  0  0  0  0  0  0  0  0
    6.4067   49.7905   28.6633 C   0  0  1  0  0  0  0  0  0  0  0  0
    5.1657   50.3254   27.9512 C   0  0  0  0  0  0  0  0  0  0  0  0
    6.8658   50.7803   29.7212 C   0  0  0  0  0  0  0  0  0  0  0  0
    6.1549   50.8396   30.9451 C   0  0  0  0  0  0  0  0  0  0  0  0
    8.0225   51.6100   29.5412 C   0  0  0  0  0  0  0  0  0  0  0  0
    6.6294   51.6742   31.9482 C   0  0  0  0  0  0  0  0  0  0  0  0
    8.4675   52.4272   30.6047 C   0  0  0  0  0  0  0  0  0  0  0  0
    8.7419   51.6474   28.2989 N   0  0  0  0  0  0  0  0  0  0  0  0
    6.1112   51.8780   33.2126 O   0  0  0  0  0  0  0  0  0  0  0  0
    7.7397   52.4300   31.7873 C   0  0  0  0  0  0  0  0  0  0  0  0
   10.1084   51.8076   28.3056 O   0  0  0  0  0  0  0  0  0  0  0  0
    8.1268   51.7722   27.2202 O   0  0  0  0  0  0  0  0  0  0  0  0
    6.9515   52.8241   33.8876 C   0  0  0  0  0  0  0  0  0  0  0  0
    7.9787   53.1508   32.9415 O   0  0  0  0  0  0  0  0  0  0  0  0
    8.8126   40.1848   34.2122 O   0  0  0  0  0  0  0  0  0  0  0  0
   11.2418   40.7943   33.3694 O   0  0  0  0  0  0  0  0  0  0  0  0
   10.9179   40.6904   31.9970 C   0  0  0  0  0  0  0  0  0  0  0  0
   11.5181   39.3814   31.4408 C   0  0  0  0  0  0  0  0  0  0  0  0
   12.7497   39.0870   32.0745 O   0  0  0  0  0  0  0  0  0  0  0  0
   10.6045   38.1891   31.6655 C   0  0  0  0  0  0  0  0  0  0  0  0
   12.9344   37.6801   32.0290 C   0  0  0  0  0  0  0  0  0  0  0  0
    9.6418   38.0758   30.6441 O   0  0  0  0  0  0  0  0  0  0  0  0
   11.5741   37.0170   31.7045 C   0  0  0  0  0  0  0  0  0  0  0  0
   13.4851   37.2125   33.3241 N   0  0  0  0  0  0  0  0  0  0  0  0
   11.6079   36.3407   30.4680 O   0  0  0  0  0  0  0  0  0  0  0  0
   14.4801   36.3321   33.5727 C   0  0  0  0  0  0  0  0  0  0  0  0
   13.1140   37.6277   34.5693 C   0  0  0  0  0  0  0  0  0  0  0  0
   15.2073   35.6155   32.6739 N   0  0  0  0  0  0  0  0  0  0  0  0
   14.6758   36.2306   34.9182 C   0  0  0  0  0  0  0  0  0  0  0  0
   13.8217   37.0451   35.5785 N   0  0  0  0  0  0  0  0  0  0  0  0
   16.1639   34.7602   33.1546 C   0  0  0  0  0  0  0  0  0  0  0  0
   15.6526   35.3506   35.4130 C   0  0  0  0  0  0  0  0  0  0  0  0
   16.3794   34.6316   34.5041 N   0  0  0  0  0  0  0  0  0  0  0  0
   15.9001   35.1933   36.8089 N   0  0  0  0  0  0  0  0  0  0  0  0
    9.0120   45.4317   33.6715 H   0  0  0  0  0  0  0  0  0  0  0  0
   10.7256   46.9689   33.1214 H   0  0  0  0  0  0  0  0  0  0  0  0
   11.8904   45.7661   32.9467 H   0  0  0  0  0  0  0  0  0  0  0  0
   10.7228   44.8812   31.1557 H   0  0  0  0  0  0  0  0  0  0  0  0
    9.3413   43.8329   31.4764 H   0  0  0  0  0  0  0  0  0  0  0  0
    7.0083   44.7163   31.5802 H   0  0  0  0  0  0  0  0  0  0  0  0
   10.3471   47.1837   30.4100 H   0  0  0  0  0  0  0  0  0  0  0  0
    5.4620   46.3076   30.5026 H   0  0  0  0  0  0  0  0  0  0  0  0
    8.8182   48.7598   29.3438 H   0  0  0  0  0  0  0  0  0  0  0  0
    7.1863   49.6191   27.8929 H   0  0  0  0  0  0  0  0  0  0  0  0
    4.3256   50.4486   28.6678 H   0  0  0  0  0  0  0  0  0  0  0  0
    5.3840   51.3061   27.4775 H   0  0  0  0  0  0  0  0  0  0  0  0
    4.8525   49.6133   27.1585 H   0  0  0  0  0  0  0  0  0  0  0  0
    5.2733   50.2353   31.1176 H   0  0  0  0  0  0  0  0  0  0  0  0
    9.3399   53.0597   30.5029 H   0  0  0  0  0  0  0  0  0  0  0  0
    7.3977   52.3634   34.7937 H   0  0  0  0  0  0  0  0  0  0  0  0
    6.3712   53.7328   34.1522 H   0  0  0  0  0  0  0  0  0  0  0  0
   11.3945   41.5458   31.4722 H   0  0  0  0  0  0  0  0  0  0  0  0
    9.8289   40.7385   31.7618 H   0  0  0  0  0  0  0  0  0  0  0  0
   11.6994   39.5069   30.3484 H   0  0  0  0  0  0  0  0  0  0  0  0
   10.1090   38.2634   32.6632 H   0  0  0  0  0  0  0  0  0  0  0  0
   13.6662   37.4515   31.2224 H   0  0  0  0  0  0  0  0  0  0  0  0
    8.9009   38.6925   30.8793 H   0  0  0  0  0  0  0  0  0  0  0  0
   11.2650   36.3083   32.5087 H   0  0  0  0  0  0  0  0  0  0  0  0
   12.1372   35.5140   30.6163 H   0  0  0  0  0  0  0  0  0  0  0  0
   12.3297   38.3530   34.7450 H   0  0  0  0  0  0  0  0  0  0  0  0
   16.7558   34.1781   32.4619 H   0  0  0  0  0  0  0  0  0  0  0  0
   15.3533   35.7360   37.5138 H   0  0  0  0  0  0  0  0  0  0  0  0
   16.6346   34.5300   37.1414 H   0  0  0  0  0  0  0  0  0  0  0  0
  1  2  2  0
  1  3  1  0
  3  4  1  0
  4  5  1  0
  6  1  1  0
  7  6  1  0
  6  8  1  0
  8  9  1  0
  9 10  2  0
 11  9  1  0
 10 12  1  0
 13 11  2  0
 12 14  2  0
 14 13  1  0
 14 15  1  0
 15 16  1  0
 16 17  1  0
 16 18  1  0
 18 19  2  0
 20 18  1  0
 19 21  1  0
 22 20  2  0
 20 23  1  0
 21 24  1  0
 21 25  2  0
 25 22  1  0
 23 26  1  0
 23 27  2  0
 24 28  1  0
 25 29  1  0
 28 29  1  0
  4 30  2  0
  4 31  1  0
 32 31  1  0
 32 33  1  0
 33 34  1  0
 33 35  1  0
 34 36  1  0
 35 37  1  0
 35 38  1  0
 38 36  1  0
 36 39  1  0
 38 40  1  0
 41 39  1  0
 42 39  1  0
 43 41  2  0
 41 44  1  0
 45 42  2  0
 46 43  1  0
 44 47  2  0
 44 45  1  0
 48 46  2  0
 48 47  1  0
 47 49  1  0
  6 50  1  1
  7 51  1  0
  7 52  1  0
  8 53  1  0
  8 54  1  0
 10 55  1  0
 11 56  1  0
 12 57  1  0
 13 58  1  0
 16 59  1  6
 17 60  1  0
 17 61  1  0
 17 62  1  0
 19 63  1  0
 22 64  1  0
 28 65  1  0
 28 66  1  0
 32 67  1  0
 32 68  1  0
 33 69  1  0
 35 70  1  0
 36 71  1  0
 37 72  1  0
 38 73  1  0
 40 74  1  0
 42 75  1  0
 46 76  1  0
 49 77  1  0
 49 78  1  0
M  CHG  3   5  -1  23   1  26  -1
M  END
>  <EmbedRMS>  (125) 
0.082833986866

$$$$

     RDKit          3D

 78 83  0  0  0  0  0  0  0  0999 V2000
   10.2805   43.7664   33.8250 C   0  0  0  0  0  0  0  0  0  0  0  0
   11.4112   43.5920   34.3667 O   0  0  0  0  0  0  0  0  0  0  0  0
    9.3622   42.7248   33.7343 O   0  0  0  0  0  0  0  0  0  0  0  0
    9.8906   41.2264   34.2935 P   0  0  0  0  0  0  0  0  0  0  0  0
   10.3732   41.4565   35.8831 O   0  0  0  0  0  0  0  0  0  0  0  0
    9.9458   45.0734   33.2113 C   0  0  1  0  0  0  0  0  0  0  0  0
   11.0264   46.0292   33.4708 N   0  0  0  0  0  0  0  0  0  0  0  0
    9.7537   44.8539   31.6949 C   0  0  0  0  0  0  0  0  0  0  0  0
    8.7956   45.8411   31.0850 C   0  0  0  0  0  0  0  0  0  0  0  0
    7.4094   45.6006   31.1008 C   0  0  0  0  0  0  0  0  0  0  0  0
    9.2823   46.9870   30.4394 C   0  0  0  0  0  0  0  0  0  0  0  0
    6.5293   46.5012   30.4857 C   0  0  0  0  0  0  0  0  0  0  0  0
    8.4018   47.8885   29.8298 C   0  0  0  0  0  0  0  0  0  0  0  0
    7.0118   47.6531   29.8483 C   0  0  0  0  0  0  0  0  0  0  0  0
    6.0701   48.5108   29.2500 O   0  0  0  0  0  0  0  0  0  0  0  0
    6.3187   49.7489   28.5709 C   0  0  1  0  0  0  0  0  0  0  0  0
    6.7259   50.8329   29.5816 C   0  0  0  0  0  0  0  0  0  0  0  0
    7.2412   49.5563   27.3663 C   0  0  0  0  0  0  0  0  0  0  0  0
    8.3673   50.4012   27.1669 C   0  0  0  0  0  0  0  0  0  0  0  0
    6.9969   48.4982   26.4243 C   0  0  0  0  0  0  0  0  0  0  0  0
    9.2098   50.1477   26.0930 C   0  0  0  0  0  0  0  0  0  0  0  0
    7.9009   48.2820   25.3591 C   0  0  0  0  0  0  0  0  0  0  0  0
    5.8523   47.6357   26.5377 N   0  0  0  0  0  0  0  0  0  0  0  0
   10.3546   50.8267   25.7224 O   0  0  0  0  0  0  0  0  0  0  0  0
    8.9895   49.1309   25.2308 C   0  0  0  0  0  0  0  0  0  0  0  0
    4.6030   48.1612   26.7718 O   0  0  0  0  0  0  0  0  0  0  0  0
    5.9502   46.4273   26.2411 O   0  0  0  0  0  0  0  0  0  0  0  0
   10.8852   50.1932   24.5505 C   0  0  0  0  0  0  0  0  0  0  0  0
    9.9829   49.1146   24.2707 O   0  0  0  0  0  0  0  0  0  0  0  0
    8.8131   40.1842   34.2122 O   0  0  0  0  0  0  0  0  0  0  0  0
   11.2420   40.7944   33.3694 O   0  0  0  0  0  0  0  0  0  0  0  0
   10.9186   40.6910   31.9968 C   0  0  0  0  0  0  0  0  0  0  0  0
   11.5173   39.3814   31.4406 C   0  0  0  0  0  0  0  0  0  0  0  0
   12.7493   39.0855   32.0728 O   0  0  0  0  0  0  0  0  0  0  0  0
   10.6025   38.1907   31.6665 C   0  0  0  0  0  0  0  0  0  0  0  0
   12.9320   37.6781   32.0281 C   0  0  0  0  0  0  0  0  0  0  0  0
    9.6393   38.0795   30.6454 O   0  0  0  0  0  0  0  0  0  0  0  0
   11.5717   37.0165   31.7055 C   0  0  0  0  0  0  0  0  0  0  0  0
   13.4847   37.2121   33.3236 N   0  0  0  0  0  0  0  0  0  0  0  0
   11.6188   36.3385   30.4693 O   0  0  0  0  0  0  0  0  0  0  0  0
   14.4801   36.3321   33.5724 C   0  0  0  0  0  0  0  0  0  0  0  0
   13.1136   37.6273   34.5688 C   0  0  0  0  0  0  0  0  0  0  0  0
   15.2073   35.6153   32.6738 N   0  0  0  0  0  0  0  0  0  0  0  0
   14.6759   36.2308   34.9180 C   0  0  0  0  0  0  0  0  0  0  0  0
   13.8215   37.0450   35.5781 N   0  0  0  0  0  0  0  0  0  0  0  0
   16.1639   34.7601   33.1547 C   0  0  0  0  0  0  0  0  0  0  0  0
   15.6525   35.3507   35.4130 C   0  0  0  0  0  0  0  0  0  0  0  0
   16.3793   34.6315   34.5042 N   0  0  0  0  0  0  0  0  0  0  0  0
   15.8998   35.1934   36.8090 N   0  0  0  0  0  0  0  0  0  0  0  0
    8.9994   45.4376   33.6724 H   0  0  0  0  0  0  0  0  0  0  0  0
   11.0497   46.2281   34.4981 H   0  0  0  0  0  0  0  0  0  0  0  0
   10.7762   46.9367   33.0154 H   0  0  0  0  0  0  0  0  0  0  0  0
   10.7409   44.9074   31.1837 H   0  0  0  0  0  0  0  0  0  0  0  0
    9.3640   43.8352   31.4711 H   0  0  0  0  0  0  0  0  0  0  0  0
    7.0135   44.7163   31.5846 H   0  0  0  0  0  0  0  0  0  0  0  0
   10.3467   47.1844   30.4038 H   0  0  0  0  0  0  0  0  0  0  0  0
    5.4652   46.3023   30.5048 H   0  0  0  0  0  0  0  0  0  0  0  0
    8.8229   48.7526   29.3441 H   0  0  0  0  0  0  0  0  0  0  0  0
    5.3447   50.0920   28.1634 H   0  0  0  0  0  0  0  0  0  0  0  0
    7.7279   50.6411   30.0137 H   0  0  0  0  0  0  0  0  0  0  0  0
    6.7200   51.8325   29.0975 H   0  0  0  0  0  0  0  0  0  0  0  0
    5.9911   50.8568   30.4139 H   0  0  0  0  0  0  0  0  0  0  0  0
    8.6056   51.2223   27.8267 H   0  0  0  0  0  0  0  0  0  0  0  0
    7.7458   47.4876   24.6405 H   0  0  0  0  0  0  0  0  0  0  0  0
   11.9027   49.7986   24.7542 H   0  0  0  0  0  0  0  0  0  0  0  0
   10.9021   50.9084   23.7017 H   0  0  0  0  0  0  0  0  0  0  0  0
   11.3969   41.5458   31.4726 H   0  0  0  0  0  0  0  0  0  0  0  0
    9.8299   40.7406   31.7609 H   0  0  0  0  0  0  0  0  0  0  0  0
   11.6976   39.5065   30.3479 H   0  0  0  0  0  0  0  0  0  0  0  0
   10.1079   38.2649   32.6646 H   0  0  0  0  0  0  0  0  0  0  0  0
   13.6624   37.4467   31.2210 H   0  0  0  0  0  0  0  0  0  0  0  0
    8.8979   38.6944   30.8834 H   0  0  0  0  0  0  0  0  0  0  0  0
   11.2808   36.3073   32.5169 H   0  0  0  0  0  0  0  0  0  0  0  0
   10.8495   35.7110   30.4584 H   0  0  0  0  0  0  0  0  0  0  0  0
   12.3289   38.3521   34.7445 H   0  0  0  0  0  0  0  0  0  0  0  0
   16.7563   34.1783   32.4620 H   0  0  0  0  0  0  0  0  0  0  0  0
   15.3531   35.7363   37.5139 H   0  0  0  0  0  0  0  0  0  0  0  0
   16.6344   34.5301   37.1415 H   0  0  0  0  0  0  0  0  0  0  0  0
  1  2  2  0
  1  3  1  0
  3  4  1  0
  4  5  1  0
  6  1  1  0
  7  6  1  0
  6  8  1  0
  8  9  1  0
  9 10  2  0
 11  9  1  0
 10 12  1  0
 13 11  2  0
 12 14  2  0
 14 13  1  0
 14 15  1  0
 15 16  1  0
 16 17  1  0
 16 18  1  0
 18 19  2  0
 20 18  1  0
 19 21  1  0
 22 20  2  0
 20 23  1  0
 21 24  1  0
 21 25  2  0
 25 22  1  0
 23 26  1  0
 23 27  2  0
 24 28  1  0
 25 29  1  0
 28 29  1  0
  4 30  2  0
  4 31  1  0
 32 31  1  0
 32 33  1  0
 33 34  1  0
 33 35  1  0
 34 36  1  0
 35 37  1  0
 35 38  1  0
 38 36  1  0
 36 39  1  0
 38 40  1  0
 41 39  1  0
 42 39  1  0
 43 41  2  0
 41 44  1  0
 45 42  2  0
 46 43  1  0
 44 47  2  0
 44 45  1  0
 48 46  2  0
 48 47  1  0
 47 49  1  0
  6 50  1  1
  7 51  1  0
  7 52  1  0
  8 53  1  0
  8 54  1  0
 10 55  1  0
 11 56  1  0
 12 57  1  0
 13 58  1  0
 16 59  1  6
 17 60  1  0
 17 61  1  0
 17 62  1  0
 19 63  1  0
 22 64  1  0
 28 65  1  0
 28 66  1  0
 32 67  1  0
 32 68  1  0
 33 69  1  0
 35 70  1  0
 36 71  1  0
 37 72  1  0
 38 73  1  0
 40 74  1  0
 42 75  1  0
 46 76  1  0
 49 77  1  0
 49 78  1  0
M  CHG  3   5  -1  23   1  26  -1
M  END
>  <EmbedRMS>  (126) 
0.0827773473996

$$$$

     RDKit          3D

 78 83  0  0  0  0  0  0  0  0999 V2000
   10.2804   43.7664   33.8250 C   0  0  0  0  0  0  0  0  0  0  0  0
   11.4111   43.5919   34.3667 O   0  0  0  0  0  0  0  0  0  0  0  0
    9.3619   42.7249   33.7346 O   0  0  0  0  0  0  0  0  0  0  0  0
    9.8900   41.2267   34.2944 P   0  0  0  0  0  0  0  0  0  0  0  0
   10.3728   41.4567   35.8838 O   0  0  0  0  0  0  0  0  0  0  0  0
    9.9460   45.0736   33.2112 C   0  0  1  0  0  0  0  0  0  0  0  0
   11.0267   46.0292   33.4709 N   0  0  0  0  0  0  0  0  0  0  0  0
    9.7541   44.8542   31.6948 C   0  0  0  0  0  0  0  0  0  0  0  0
    8.7957   45.8412   31.0848 C   0  0  0  0  0  0  0  0  0  0  0  0
    7.4090   45.6001   31.1014 C   0  0  0  0  0  0  0  0  0  0  0  0
    9.2823   46.9883   30.4401 C   0  0  0  0  0  0  0  0  0  0  0  0
    6.5261   46.4991   30.4869 C   0  0  0  0  0  0  0  0  0  0  0  0
    8.3995   47.8876   29.8314 C   0  0  0  0  0  0  0  0  0  0  0  0
    7.0183   47.6535   29.8449 C   0  0  0  0  0  0  0  0  0  0  0  0
    6.1803   48.5843   29.2094 O   0  0  0  0  0  0  0  0  0  0  0  0
    4.7593   48.4718   29.0851 C   0  0  1  0  0  0  0  0  0  0  0  0
    4.2103   49.7840   28.5304 C   0  0  0  0  0  0  0  0  0  0  0  0
    4.3782   47.3283   28.1590 C   0  0  0  0  0  0  0  0  0  0  0  0
    5.1779   47.0789   27.0158 C   0  0  0  0  0  0  0  0  0  0  0  0
    3.1815   46.5641   28.3544 C   0  0  0  0  0  0  0  0  0  0  0  0
    4.7818   46.0829   26.1329 C   0  0  0  0  0  0  0  0  0  0  0  0
    2.8205   45.5730   27.4145 C   0  0  0  0  0  0  0  0  0  0  0  0
    2.3190   46.7941   29.4764 N   0  0  0  0  0  0  0  0  0  0  0  0
    5.4039   45.6677   24.9712 O   0  0  0  0  0  0  0  0  0  0  0  0
    3.6529   45.3619   26.3235 C   0  0  0  0  0  0  0  0  0  0  0  0
    2.7898   46.5973   30.7535 O   0  0  0  0  0  0  0  0  0  0  0  0
    1.0881   46.8978   29.2977 O   0  0  0  0  0  0  0  0  0  0  0  0
    4.6147   44.6161   24.3984 C   0  0  0  0  0  0  0  0  0  0  0  0
    3.5058   44.4533   25.2932 O   0  0  0  0  0  0  0  0  0  0  0  0
    8.8127   40.1842   34.2128 O   0  0  0  0  0  0  0  0  0  0  0  0
   11.2414   40.7950   33.3705 O   0  0  0  0  0  0  0  0  0  0  0  0
   10.9178   40.6922   31.9983 C   0  0  0  0  0  0  0  0  0  0  0  0
   11.5175   39.3837   31.4423 C   0  0  0  0  0  0  0  0  0  0  0  0
   12.7507   39.0887   32.0753 O   0  0  0  0  0  0  0  0  0  0  0  0
   10.6027   38.1916   31.6658 C   0  0  0  0  0  0  0  0  0  0  0  0
   12.9384   37.6819   32.0278 C   0  0  0  0  0  0  0  0  0  0  0  0
    9.6371   38.0806   30.6470 O   0  0  0  0  0  0  0  0  0  0  0  0
   11.5780   37.0215   31.6935 C   0  0  0  0  0  0  0  0  0  0  0  0
   13.4844   37.2119   33.3242 N   0  0  0  0  0  0  0  0  0  0  0  0
   11.6095   36.3201   30.4679 O   0  0  0  0  0  0  0  0  0  0  0  0
   14.4797   36.3318   33.5730 C   0  0  0  0  0  0  0  0  0  0  0  0
   13.1136   37.6278   34.5691 C   0  0  0  0  0  0  0  0  0  0  0  0
   15.2073   35.6155   32.6742 N   0  0  0  0  0  0  0  0  0  0  0  0
   14.6754   36.2305   34.9184 C   0  0  0  0  0  0  0  0  0  0  0  0
   13.8213   37.0452   35.5785 N   0  0  0  0  0  0  0  0  0  0  0  0
   16.1640   34.7604   33.1549 C   0  0  0  0  0  0  0  0  0  0  0  0
   15.6524   35.3507   35.4132 C   0  0  0  0  0  0  0  0  0  0  0  0
   16.3794   34.6318   34.5043 N   0  0  0  0  0  0  0  0  0  0  0  0
   15.8999   35.1934   36.8091 N   0  0  0  0  0  0  0  0  0  0  0  0
    8.9996   45.4381   33.6721 H   0  0  0  0  0  0  0  0  0  0  0  0
   11.0502   46.2277   34.4983 H   0  0  0  0  0  0  0  0  0  0  0  0
   10.7765   46.9369   33.0159 H   0  0  0  0  0  0  0  0  0  0  0  0
    9.3646   43.8354   31.4710 H   0  0  0  0  0  0  0  0  0  0  0  0
   10.7412   44.9080   31.1835 H   0  0  0  0  0  0  0  0  0  0  0  0
    7.0148   44.7154   31.5862 H   0  0  0  0  0  0  0  0  0  0  0  0
   10.3462   47.1882   30.4057 H   0  0  0  0  0  0  0  0  0  0  0  0
    5.4687   46.2838   30.5180 H   0  0  0  0  0  0  0  0  0  0  0  0
    8.7914   48.7687   29.3392 H   0  0  0  0  0  0  0  0  0  0  0  0
    4.3318   48.3423   30.0983 H   0  0  0  0  0  0  0  0  0  0  0  0
    4.6394   49.9931   27.5268 H   0  0  0  0  0  0  0  0  0  0  0  0
    3.1031   49.7340   28.4495 H   0  0  0  0  0  0  0  0  0  0  0  0
    4.4762   50.6202   29.2113 H   0  0  0  0  0  0  0  0  0  0  0  0
    6.0743   47.6511   26.8138 H   0  0  0  0  0  0  0  0  0  0  0  0
    1.9220   44.9821   27.5381 H   0  0  0  0  0  0  0  0  0  0  0  0
    5.2055   43.6776   24.3458 H   0  0  0  0  0  0  0  0  0  0  0  0
    4.2539   44.9119   23.3910 H   0  0  0  0  0  0  0  0  0  0  0  0
    9.8290   40.7408   31.7624 H   0  0  0  0  0  0  0  0  0  0  0  0
   11.3950   41.5477   31.4742 H   0  0  0  0  0  0  0  0  0  0  0  0
   11.6982   39.5114   30.3500 H   0  0  0  0  0  0  0  0  0  0  0  0
   10.1117   38.2604   32.6660 H   0  0  0  0  0  0  0  0  0  0  0  0
   13.6767   37.4556   31.2267 H   0  0  0  0  0  0  0  0  0  0  0  0
    8.8960   38.6950   30.8872 H   0  0  0  0  0  0  0  0  0  0  0  0
   11.2791   36.3073   32.4923 H   0  0  0  0  0  0  0  0  0  0  0  0
   11.8828   36.9598   29.7588 H   0  0  0  0  0  0  0  0  0  0  0  0
   12.3300   38.3539   34.7446 H   0  0  0  0  0  0  0  0  0  0  0  0
   16.7561   34.1785   32.4621 H   0  0  0  0  0  0  0  0  0  0  0  0
   16.6347   34.5303   37.1416 H   0  0  0  0  0  0  0  0  0  0  0  0
   15.3531   35.7360   37.5140 H   0  0  0  0  0  0  0  0  0  0  0  0
  1  2  2  0
  1  3  1  0
  3  4  1  0
  4  5  1  0
  6  1  1  0
  7  6  1  0
  6  8  1  0
  8  9  1  0
  9 10  2  0
 11  9  1  0
 10 12  1  0
 13 11  2  0
 12 14  2  0
 14 13  1  0
 14 15  1  0
 15 16  1  0
 16 17  1  0
 16 18  1  0
 18 19  2  0
 20 18  1  0
 19 21  1  0
 22 20  2  0
 20 23  1  0
 21 24  1  0
 21 25  2  0
 25 22  1  0
 23 26  1  0
 23 27  2  0
 24 28  1  0
 25 29  1  0
 28 29  1  0
  4 30  2  0
  4 31  1  0
 32 31  1  0
 32 33  1  0
 33 34  1  0
 33 35  1  0
 34 36  1  0
 35 37  1  0
 35 38  1  0
 38 36  1  0
 36 39  1  0
 38 40  1  0
 41 39  1  0
 42 39  1  0
 43 41  2  0
 41 44  1  0
 45 42  2  0
 46 43  1  0
 44 47  2  0
 44 45  1  0
 48 46  2  0
 48 47  1  0
 47 49  1  0
  6 50  1  1
  7 51  1  0
  7 52  1  0
  8 53  1  0
  8 54  1  0
 10 55  1  0
 11 56  1  0
 12 57  1  0
 13 58  1  0
 16 59  1  1
 17 60  1  0
 17 61  1  0
 17 62  1  0
 19 63  1  0
 22 64  1  0
 28 65  1  0
 28 66  1  0
 32 67  1  0
 32 68  1  0
 33 69  1  0
 35 70  1  0
 36 71  1  0
 37 72  1  0
 38 73  1  0
 40 74  1  0
 42 75  1  0
 46 76  1  0
 49 77  1  0
 49 78  1  0
M  CHG  3   5  -1  23   1  26  -1
M  END
>  <EmbedRMS>  (127) 
0.0817939590329

$$$$

     RDKit          3D

 78 83  0  0  0  0  0  0  0  0999 V2000
   10.2836   43.7660   33.8256 C   0  0  0  0  0  0  0  0  0  0  0  0
   11.4103   43.5930   34.3754 O   0  0  0  0  0  0  0  0  0  0  0  0
    9.3641   42.7252   33.7347 O   0  0  0  0  0  0  0  0  0  0  0  0
    9.8908   41.2264   34.2939 P   0  0  0  0  0  0  0  0  0  0  0  0
   10.3733   41.4558   35.8835 O   0  0  0  0  0  0  0  0  0  0  0  0
    9.9547   45.0693   33.2036 C   0  0  1  0  0  0  0  0  0  0  0  0
   11.0274   46.0321   33.4756 N   0  0  0  0  0  0  0  0  0  0  0  0
    9.7466   44.8479   31.6877 C   0  0  0  0  0  0  0  0  0  0  0  0
    8.7923   45.8406   31.0848 C   0  0  0  0  0  0  0  0  0  0  0  0
    7.4061   45.6016   31.0991 C   0  0  0  0  0  0  0  0  0  0  0  0
    9.2816   46.9871   30.4427 C   0  0  0  0  0  0  0  0  0  0  0  0
    6.5280   46.5032   30.4835 C   0  0  0  0  0  0  0  0  0  0  0  0
    8.4030   47.8896   29.8320 C   0  0  0  0  0  0  0  0  0  0  0  0
    7.0128   47.6544   29.8466 C   0  0  0  0  0  0  0  0  0  0  0  0
    6.0735   48.5112   29.2433 O   0  0  0  0  0  0  0  0  0  0  0  0
    6.3248   49.7515   28.5687 C   0  0  1  0  0  0  0  0  0  0  0  0
    6.7221   50.8332   29.5859 C   0  0  0  0  0  0  0  0  0  0  0  0
    7.2580   49.5641   27.3712 C   0  0  0  0  0  0  0  0  0  0  0  0
    8.3836   50.4126   27.1835 C   0  0  0  0  0  0  0  0  0  0  0  0
    7.0263   48.5059   26.4257 C   0  0  0  0  0  0  0  0  0  0  0  0
    9.2389   50.1613   26.1194 C   0  0  0  0  0  0  0  0  0  0  0  0
    7.9429   48.2924   25.3706 C   0  0  0  0  0  0  0  0  0  0  0  0
    5.8823   47.6406   26.5258 N   0  0  0  0  0  0  0  0  0  0  0  0
   10.3870   50.8425   25.7628 O   0  0  0  0  0  0  0  0  0  0  0  0
    9.0311   49.1440   25.2549 C   0  0  0  0  0  0  0  0  0  0  0  0
    4.6306   48.1624   26.7547 O   0  0  0  0  0  0  0  0  0  0  0  0
    5.9837   46.4344   26.2200 O   0  0  0  0  0  0  0  0  0  0  0  0
   10.9334   50.2094   24.5979 C   0  0  0  0  0  0  0  0  0  0  0  0
   10.0361   49.1294   24.3069 O   0  0  0  0  0  0  0  0  0  0  0  0
    8.8127   40.1847   34.2122 O   0  0  0  0  0  0  0  0  0  0  0  0
   11.2421   40.7941   33.3697 O   0  0  0  0  0  0  0  0  0  0  0  0
   10.9187   40.6911   31.9971 C   0  0  0  0  0  0  0  0  0  0  0  0
   11.5172   39.3815   31.4407 C   0  0  0  0  0  0  0  0  0  0  0  0
   12.7493   39.0855   32.0728 O   0  0  0  0  0  0  0  0  0  0  0  0
   10.6023   38.1908   31.6665 C   0  0  0  0  0  0  0  0  0  0  0  0
   12.9319   37.6781   32.0281 C   0  0  0  0  0  0  0  0  0  0  0  0
    9.6392   38.0798   30.6452 O   0  0  0  0  0  0  0  0  0  0  0  0
   11.5715   37.0165   31.7056 C   0  0  0  0  0  0  0  0  0  0  0  0
   13.4846   37.2121   33.3235 N   0  0  0  0  0  0  0  0  0  0  0  0
   11.6187   36.3383   30.4695 O   0  0  0  0  0  0  0  0  0  0  0  0
   14.4801   36.3321   33.5724 C   0  0  0  0  0  0  0  0  0  0  0  0
   13.1137   37.6276   34.5688 C   0  0  0  0  0  0  0  0  0  0  0  0
   15.2073   35.6153   32.6738 N   0  0  0  0  0  0  0  0  0  0  0  0
   14.6759   36.2308   34.9179 C   0  0  0  0  0  0  0  0  0  0  0  0
   13.8217   37.0452   35.5781 N   0  0  0  0  0  0  0  0  0  0  0  0
   16.1640   34.7602   33.1546 C   0  0  0  0  0  0  0  0  0  0  0  0
   15.6526   35.3508   35.4129 C   0  0  0  0  0  0  0  0  0  0  0  0
   16.3794   34.6317   34.5041 N   0  0  0  0  0  0  0  0  0  0  0  0
   15.9000   35.1935   36.8088 N   0  0  0  0  0  0  0  0  0  0  0  0
    9.0121   45.4315   33.6715 H   0  0  0  0  0  0  0  0  0  0  0  0
   10.7259   46.9686   33.1211 H   0  0  0  0  0  0  0  0  0  0  0  0
   11.8906   45.7658   32.9469 H   0  0  0  0  0  0  0  0  0  0  0  0
    9.3415   43.8327   31.4763 H   0  0  0  0  0  0  0  0  0  0  0  0
   10.7230   44.8814   31.1557 H   0  0  0  0  0  0  0  0  0  0  0  0
    7.0086   44.7165   31.5804 H   0  0  0  0  0  0  0  0  0  0  0  0
   10.3464   47.1833   30.4108 H   0  0  0  0  0  0  0  0  0  0  0  0
    5.4638   46.3046   30.4998 H   0  0  0  0  0  0  0  0  0  0  0  0
    8.8259   48.7547   29.3496 H   0  0  0  0  0  0  0  0  0  0  0  0
    5.3535   50.0937   28.1542 H   0  0  0  0  0  0  0  0  0  0  0  0
    6.7174   51.8346   29.1051 H   0  0  0  0  0  0  0  0  0  0  0  0
    7.7214   50.6418   30.0248 H   0  0  0  0  0  0  0  0  0  0  0  0
    5.9810   50.8528   30.4128 H   0  0  0  0  0  0  0  0  0  0  0  0
    8.6128   51.2341   27.8462 H   0  0  0  0  0  0  0  0  0  0  0  0
    7.7984   47.4975   24.6503 H   0  0  0  0  0  0  0  0  0  0  0  0
   10.9605   50.9244   23.7491 H   0  0  0  0  0  0  0  0  0  0  0  0
   11.9486   49.8161   24.8150 H   0  0  0  0  0  0  0  0  0  0  0  0
   11.3968   41.5460   31.4728 H   0  0  0  0  0  0  0  0  0  0  0  0
    9.8299   40.7410   31.7613 H   0  0  0  0  0  0  0  0  0  0  0  0
   11.6974   39.5067   30.3481 H   0  0  0  0  0  0  0  0  0  0  0  0
   10.1077   38.2648   32.6645 H   0  0  0  0  0  0  0  0  0  0  0  0
   13.6621   37.4467   31.2209 H   0  0  0  0  0  0  0  0  0  0  0  0
    8.8975   38.6944   30.8830 H   0  0  0  0  0  0  0  0  0  0  0  0
   11.2806   36.3073   32.5171 H   0  0  0  0  0  0  0  0  0  0  0  0
   10.8492   35.7110   30.4586 H   0  0  0  0  0  0  0  0  0  0  0  0
   12.3290   38.3524   34.7444 H   0  0  0  0  0  0  0  0  0  0  0  0
   16.7559   34.1780   32.4619 H   0  0  0  0  0  0  0  0  0  0  0  0
   15.3532   35.7363   37.5137 H   0  0  0  0  0  0  0  0  0  0  0  0
   16.6345   34.5301   37.1414 H   0  0  0  0  0  0  0  0  0  0  0  0
  1  2  2  0
  1  3  1  0
  3  4  1  0
  4  5  1  0
  6  1  1  0
  7  6  1  0
  6  8  1  0
  8  9  1  0
  9 10  2  0
 11  9  1  0
 10 12  1  0
 13 11  2  0
 12 14  2  0
 14 13  1  0
 14 15  1  0
 15 16  1  0
 16 17  1  0
 16 18  1  0
 18 19  2  0
 20 18  1  0
 19 21  1  0
 22 20  2  0
 20 23  1  0
 21 24  1  0
 21 25  2  0
 25 22  1  0
 23 26  1  0
 23 27  2  0
 24 28  1  0
 25 29  1  0
 28 29  1  0
  4 30  2  0
  4 31  1  0
 32 31  1  0
 32 33  1  0
 33 34  1  0
 33 35  1  0
 34 36  1  0
 35 37  1  0
 35 38  1  0
 38 36  1  0
 36 39  1  0
 38 40  1  0
 41 39  1  0
 42 39  1  0
 43 41  2  0
 41 44  1  0
 45 42  2  0
 46 43  1  0
 44 47  2  0
 44 45  1  0
 48 46  2  0
 48 47  1  0
 47 49  1  0
  6 50  1  1
  7 51  1  0
  7 52  1  0
  8 53  1  0
  8 54  1  0
 10 55  1  0
 11 56  1  0
 12 57  1  0
 13 58  1  0
 16 59  1  6
 17 60  1  0
 17 61  1  0
 17 62  1  0
 19 63  1  0
 22 64  1  0
 28 65  1  0
 28 66  1  0
 32 67  1  0
 32 68  1  0
 33 69  1  0
 35 70  1  0
 36 71  1  0
 37 72  1  0
 38 73  1  0
 40 74  1  0
 42 75  1  0
 46 76  1  0
 49 77  1  0
 49 78  1  0
M  CHG  3   5  -1  23   1  26  -1
M  END
>  <EmbedRMS>  (128) 
0.082932116724

$$$$

     RDKit          3D

 78 83  0  0  0  0  0  0  0  0999 V2000
   10.2800   43.7677   33.8243 C   0  0  0  0  0  0  0  0  0  0  0  0
   11.4103   43.5934   34.3666 O   0  0  0  0  0  0  0  0  0  0  0  0
    9.3609   42.7266   33.7353 O   0  0  0  0  0  0  0  0  0  0  0  0
    9.8899   41.2282   34.2941 P   0  0  0  0  0  0  0  0  0  0  0  0
   10.3733   41.4578   35.8834 O   0  0  0  0  0  0  0  0  0  0  0  0
    9.9468   45.0748   33.2098 C   0  0  1  0  0  0  0  0  0  0  0  0
   11.0276   46.0303   33.4703 N   0  0  0  0  0  0  0  0  0  0  0  0
    9.7565   44.8551   31.6936 C   0  0  0  0  0  0  0  0  0  0  0  0
    8.7974   45.8406   31.0822 C   0  0  0  0  0  0  0  0  0  0  0  0
    7.4113   45.5969   31.0993 C   0  0  0  0  0  0  0  0  0  0  0  0
    9.2818   46.9884   30.4364 C   0  0  0  0  0  0  0  0  0  0  0  0
    6.5261   46.4965   30.4901 C   0  0  0  0  0  0  0  0  0  0  0  0
    8.3962   47.8877   29.8307 C   0  0  0  0  0  0  0  0  0  0  0  0
    7.0142   47.6561   29.8537 C   0  0  0  0  0  0  0  0  0  0  0  0
    6.1703   48.6041   29.2521 O   0  0  0  0  0  0  0  0  0  0  0  0
    4.7493   48.5056   29.1554 C   0  0  1  0  0  0  0  0  0  0  0  0
    4.1645   49.8736   28.8025 C   0  0  0  0  0  0  0  0  0  0  0  0
    4.3336   47.4570   28.1352 C   0  0  0  0  0  0  0  0  0  0  0  0
    3.4356   46.4429   28.5499 C   0  0  0  0  0  0  0  0  0  0  0  0
    4.7572   47.4926   26.7632 C   0  0  0  0  0  0  0  0  0  0  0  0
    2.9865   45.5250   27.6087 C   0  0  0  0  0  0  0  0  0  0  0  0
    4.2549   46.5418   25.8471 C   0  0  0  0  0  0  0  0  0  0  0  0
    5.6633   48.4890   26.2766 N   0  0  0  0  0  0  0  0  0  0  0  0
    2.1154   44.4679   27.7870 O   0  0  0  0  0  0  0  0  0  0  0  0
    3.3754   45.5751   26.3137 C   0  0  0  0  0  0  0  0  0  0  0  0
    5.3454   49.1872   25.1336 O   0  0  0  0  0  0  0  0  0  0  0  0
    6.8428   48.5088   26.6842 O   0  0  0  0  0  0  0  0  0  0  0  0
    1.9448   43.8153   26.5204 C   0  0  0  0  0  0  0  0  0  0  0  0
    2.7686   44.5537   25.6082 O   0  0  0  0  0  0  0  0  0  0  0  0
    8.8129   40.1856   34.2128 O   0  0  0  0  0  0  0  0  0  0  0  0
   11.2409   40.7954   33.3698 O   0  0  0  0  0  0  0  0  0  0  0  0
   10.9166   40.6913   31.9977 C   0  0  0  0  0  0  0  0  0  0  0  0
   11.5178   39.3835   31.4424 C   0  0  0  0  0  0  0  0  0  0  0  0
   12.7515   39.0884   32.0751 O   0  0  0  0  0  0  0  0  0  0  0  0
   10.6031   38.1915   31.6654 C   0  0  0  0  0  0  0  0  0  0  0  0
   12.9387   37.6813   32.0283 C   0  0  0  0  0  0  0  0  0  0  0  0
    9.6386   38.0808   30.6457 O   0  0  0  0  0  0  0  0  0  0  0  0
   11.5783   37.0216   31.6923 C   0  0  0  0  0  0  0  0  0  0  0  0
   13.4839   37.2109   33.3250 N   0  0  0  0  0  0  0  0  0  0  0  0
   11.6107   36.3221   30.4657 O   0  0  0  0  0  0  0  0  0  0  0  0
   14.4791   36.3305   33.5739 C   0  0  0  0  0  0  0  0  0  0  0  0
   13.1136   37.6275   34.5698 C   0  0  0  0  0  0  0  0  0  0  0  0
   15.2071   35.6146   32.6752 N   0  0  0  0  0  0  0  0  0  0  0  0
   14.6747   36.2290   34.9191 C   0  0  0  0  0  0  0  0  0  0  0  0
   13.8211   37.0445   35.5791 N   0  0  0  0  0  0  0  0  0  0  0  0
   16.1649   34.7603   33.1554 C   0  0  0  0  0  0  0  0  0  0  0  0
   15.6521   35.3495   35.4137 C   0  0  0  0  0  0  0  0  0  0  0  0
   16.3801   34.6310   34.5049 N   0  0  0  0  0  0  0  0  0  0  0  0
   15.8990   35.1926   36.8097 N   0  0  0  0  0  0  0  0  0  0  0  0
    9.0003   45.4400   33.6689 H   0  0  0  0  0  0  0  0  0  0  0  0
   10.7782   46.9375   33.0138 H   0  0  0  0  0  0  0  0  0  0  0  0
   11.0503   46.2299   34.4976 H   0  0  0  0  0  0  0  0  0  0  0  0
    9.3694   43.8358   31.4692 H   0  0  0  0  0  0  0  0  0  0  0  0
   10.7445   44.9107   31.1850 H   0  0  0  0  0  0  0  0  0  0  0  0
    7.0191   44.7107   31.5836 H   0  0  0  0  0  0  0  0  0  0  0  0
   10.3456   47.1910   30.4022 H   0  0  0  0  0  0  0  0  0  0  0  0
    5.4694   46.2802   30.5325 H   0  0  0  0  0  0  0  0  0  0  0  0
    8.7851   48.7721   29.3425 H   0  0  0  0  0  0  0  0  0  0  0  0
    4.3445   48.2549   30.1612 H   0  0  0  0  0  0  0  0  0  0  0  0
    4.4578   50.6157   29.5773 H   0  0  0  0  0  0  0  0  0  0  0  0
    3.0544   49.8175   28.7712 H   0  0  0  0  0  0  0  0  0  0  0  0
    4.5348   50.2348   27.8201 H   0  0  0  0  0  0  0  0  0  0  0  0
    3.0830   46.3786   29.5720 H   0  0  0  0  0  0  0  0  0  0  0  0
    4.5527   46.5512   24.8060 H   0  0  0  0  0  0  0  0  0  0  0  0
    0.8806   43.8663   26.2050 H   0  0  0  0  0  0  0  0  0  0  0  0
    2.2901   42.7612   26.5798 H   0  0  0  0  0  0  0  0  0  0  0  0
   11.3935   41.5458   31.4716 H   0  0  0  0  0  0  0  0  0  0  0  0
    9.8270   40.7383   31.7628 H   0  0  0  0  0  0  0  0  0  0  0  0
   11.6979   39.5130   30.3505 H   0  0  0  0  0  0  0  0  0  0  0  0
   10.1107   38.2597   32.6651 H   0  0  0  0  0  0  0  0  0  0  0  0
   13.6772   37.4537   31.2280 H   0  0  0  0  0  0  0  0  0  0  0  0
    8.8971   38.6942   30.8867 H   0  0  0  0  0  0  0  0  0  0  0  0
   11.2776   36.3057   32.4881 H   0  0  0  0  0  0  0  0  0  0  0  0
   11.8823   36.9636   29.7577 H   0  0  0  0  0  0  0  0  0  0  0  0
   12.3320   38.3559   34.7449 H   0  0  0  0  0  0  0  0  0  0  0  0
   16.7590   34.1817   32.4617 H   0  0  0  0  0  0  0  0  0  0  0  0
   15.3530   35.7363   37.5144 H   0  0  0  0  0  0  0  0  0  0  0  0
   16.6340   34.5303   37.1425 H   0  0  0  0  0  0  0  0  0  0  0  0
  1  2  2  0
  1  3  1  0
  3  4  1  0
  4  5  1  0
  6  1  1  0
  7  6  1  0
  6  8  1  0
  8  9  1  0
  9 10  2  0
 11  9  1  0
 10 12  1  0
 13 11  2  0
 12 14  2  0
 14 13  1  0
 14 15  1  0
 15 16  1  0
 16 17  1  0
 16 18  1  0
 18 19  2  0
 20 18  1  0
 19 21  1  0
 22 20  2  0
 20 23  1  0
 21 24  1  0
 21 25  2  0
 25 22  1  0
 23 26  1  0
 23 27  2  0
 24 28  1  0
 25 29  1  0
 28 29  1  0
  4 30  2  0
  4 31  1  0
 32 31  1  0
 32 33  1  0
 33 34  1  0
 33 35  1  0
 34 36  1  0
 35 37  1  0
 35 38  1  0
 38 36  1  0
 36 39  1  0
 38 40  1  0
 41 39  1  0
 42 39  1  0
 43 41  2  0
 41 44  1  0
 45 42  2  0
 46 43  1  0
 44 47  2  0
 44 45  1  0
 48 46  2  0
 48 47  1  0
 47 49  1  0
  6 50  1  1
  7 51  1  0
  7 52  1  0
  8 53  1  0
  8 54  1  0
 10 55  1  0
 11 56  1  0
 12 57  1  0
 13 58  1  0
 16 59  1  1
 17 60  1  0
 17 61  1  0
 17 62  1  0
 19 63  1  0
 22 64  1  0
 28 65  1  0
 28 66  1  0
 32 67  1  0
 32 68  1  0
 33 69  1  0
 35 70  1  0
 36 71  1  0
 37 72  1  0
 38 73  1  0
 40 74  1  0
 42 75  1  0
 46 76  1  0
 49 77  1  0
 49 78  1  0
M  CHG  3   5  -1  23   1  26  -1
M  END
>  <EmbedRMS>  (129) 
0.0818461878691

$$$$

     RDKit          3D

 78 83  0  0  0  0  0  0  0  0999 V2000
   10.2835   43.7656   33.8254 C   0  0  0  0  0  0  0  0  0  0  0  0
   11.4103   43.5924   34.3751 O   0  0  0  0  0  0  0  0  0  0  0  0
    9.3635   42.7252   33.7354 O   0  0  0  0  0  0  0  0  0  0  0  0
    9.8906   41.2267   34.2940 P   0  0  0  0  0  0  0  0  0  0  0  0
   10.3737   41.4560   35.8835 O   0  0  0  0  0  0  0  0  0  0  0  0
    9.9549   45.0683   33.2021 C   0  0  1  0  0  0  0  0  0  0  0  0
   11.0265   46.0315   33.4757 N   0  0  0  0  0  0  0  0  0  0  0  0
    9.7473   44.8469   31.6858 C   0  0  0  0  0  0  0  0  0  0  0  0
    8.7929   45.8399   31.0819 C   0  0  0  0  0  0  0  0  0  0  0  0
    7.4063   45.5989   31.0925 C   0  0  0  0  0  0  0  0  0  0  0  0
    9.2826   46.9870   30.4395 C   0  0  0  0  0  0  0  0  0  0  0  0
    6.5265   46.5008   30.4788 C   0  0  0  0  0  0  0  0  0  0  0  0
    8.4022   47.8916   29.8347 C   0  0  0  0  0  0  0  0  0  0  0  0
    7.0126   47.6611   29.8617 C   0  0  0  0  0  0  0  0  0  0  0  0
    6.0845   48.5662   29.3203 O   0  0  0  0  0  0  0  0  0  0  0  0
    6.3839   49.9029   28.9032 C   0  0  1  0  0  0  0  0  0  0  0  0
    5.1264   50.5228   28.2978 C   0  0  0  0  0  0  0  0  0  0  0  0
    6.8584   50.7498   30.0781 C   0  0  0  0  0  0  0  0  0  0  0  0
    6.2830   50.5287   31.3547 C   0  0  0  0  0  0  0  0  0  0  0  0
    7.8023   51.8181   29.9155 C   0  0  0  0  0  0  0  0  0  0  0  0
    6.6791   51.3363   32.4122 C   0  0  0  0  0  0  0  0  0  0  0  0
    8.1483   52.6248   31.0226 C   0  0  0  0  0  0  0  0  0  0  0  0
    8.3900   52.1180   28.6442 N   0  0  0  0  0  0  0  0  0  0  0  0
    6.2705   51.2853   33.7309 O   0  0  0  0  0  0  0  0  0  0  0  0
    7.5722   52.3403   32.2533 C   0  0  0  0  0  0  0  0  0  0  0  0
    8.4786   53.4291   28.2337 O   0  0  0  0  0  0  0  0  0  0  0  0
    9.0654   51.2549   28.0496 O   0  0  0  0  0  0  0  0  0  0  0  0
    6.9582   52.3215   34.4462 C   0  0  0  0  0  0  0  0  0  0  0  0
    7.7756   52.9736   33.4641 O   0  0  0  0  0  0  0  0  0  0  0  0
    8.8125   40.1850   34.2123 O   0  0  0  0  0  0  0  0  0  0  0  0
   11.2406   40.7958   33.3675 O   0  0  0  0  0  0  0  0  0  0  0  0
   10.9127   40.6889   31.9962 C   0  0  0  0  0  0  0  0  0  0  0  0
   11.5166   39.3816   31.4420 C   0  0  0  0  0  0  0  0  0  0  0  0
   12.7499   39.0880   32.0758 O   0  0  0  0  0  0  0  0  0  0  0  0
   10.6045   38.1898   31.6663 C   0  0  0  0  0  0  0  0  0  0  0  0
   12.9393   37.6812   32.0279 C   0  0  0  0  0  0  0  0  0  0  0  0
    9.6352   38.0941   30.6509 O   0  0  0  0  0  0  0  0  0  0  0  0
   11.5800   37.0196   31.6939 C   0  0  0  0  0  0  0  0  0  0  0  0
   13.4852   37.2114   33.3243 N   0  0  0  0  0  0  0  0  0  0  0  0
   11.6098   36.3183   30.4683 O   0  0  0  0  0  0  0  0  0  0  0  0
   14.4804   36.3313   33.5732 C   0  0  0  0  0  0  0  0  0  0  0  0
   13.1144   37.6274   34.5693 C   0  0  0  0  0  0  0  0  0  0  0  0
   15.2084   35.6152   32.6746 N   0  0  0  0  0  0  0  0  0  0  0  0
   14.6757   36.2301   34.9186 C   0  0  0  0  0  0  0  0  0  0  0  0
   13.8219   37.0450   35.5787 N   0  0  0  0  0  0  0  0  0  0  0  0
   16.1645   34.7594   33.1558 C   0  0  0  0  0  0  0  0  0  0  0  0
   15.6528   35.3512   35.4138 C   0  0  0  0  0  0  0  0  0  0  0  0
   16.3797   34.6315   34.5053 N   0  0  0  0  0  0  0  0  0  0  0  0
   15.8994   35.1950   36.8100 N   0  0  0  0  0  0  0  0  0  0  0  0
    9.0115   45.4310   33.6675 H   0  0  0  0  0  0  0  0  0  0  0  0
   10.7251   46.9669   33.1191 H   0  0  0  0  0  0  0  0  0  0  0  0
   11.8903   45.7660   32.9481 H   0  0  0  0  0  0  0  0  0  0  0  0
   10.7235   44.8835   31.1538 H   0  0  0  0  0  0  0  0  0  0  0  0
    9.3438   43.8303   31.4747 H   0  0  0  0  0  0  0  0  0  0  0  0
    7.0100   44.7134   31.5721 H   0  0  0  0  0  0  0  0  0  0  0  0
   10.3471   47.1855   30.4078 H   0  0  0  0  0  0  0  0  0  0  0  0
    5.4610   46.3091   30.5043 H   0  0  0  0  0  0  0  0  0  0  0  0
    8.8127   48.7696   29.3583 H   0  0  0  0  0  0  0  0  0  0  0  0
    7.1414   49.8503   28.0971 H   0  0  0  0  0  0  0  0  0  0  0  0
    4.7833   49.9135   27.4340 H   0  0  0  0  0  0  0  0  0  0  0  0
    5.3400   51.5533   27.9396 H   0  0  0  0  0  0  0  0  0  0  0  0
    4.3118   50.5632   29.0535 H   0  0  0  0  0  0  0  0  0  0  0  0
    5.5452   49.7546   31.5182 H   0  0  0  0  0  0  0  0  0  0  0  0
    8.8555   53.4390   30.9276 H   0  0  0  0  0  0  0  0  0  0  0  0
    7.5944   51.8815   35.2419 H   0  0  0  0  0  0  0  0  0  0  0  0
    6.2320   53.0409   34.8759 H   0  0  0  0  0  0  0  0  0  0  0  0
    9.8213   40.7226   31.7647 H   0  0  0  0  0  0  0  0  0  0  0  0
   11.3809   41.5479   31.4677 H   0  0  0  0  0  0  0  0  0  0  0  0
   11.6965   39.5096   30.3498 H   0  0  0  0  0  0  0  0  0  0  0  0
   10.1126   38.2744   32.6640 H   0  0  0  0  0  0  0  0  0  0  0  0
   13.6781   37.4566   31.2269 H   0  0  0  0  0  0  0  0  0  0  0  0
    9.0027   37.3851   30.9377 H   0  0  0  0  0  0  0  0  0  0  0  0
   11.2804   36.3071   32.4933 H   0  0  0  0  0  0  0  0  0  0  0  0
   11.8814   36.9577   29.7582 H   0  0  0  0  0  0  0  0  0  0  0  0
   12.3311   38.3531   34.7452 H   0  0  0  0  0  0  0  0  0  0  0  0
   16.7577   34.1779   32.4635 H   0  0  0  0  0  0  0  0  0  0  0  0
   15.3525   35.7381   37.5147 H   0  0  0  0  0  0  0  0  0  0  0  0
   16.6333   34.5321   37.1439 H   0  0  0  0  0  0  0  0  0  0  0  0
  1  2  2  0
  1  3  1  0
  3  4  1  0
  4  5  1  0
  6  1  1  0
  7  6  1  0
  6  8  1  0
  8  9  1  0
  9 10  2  0
 11  9  1  0
 10 12  1  0
 13 11  2  0
 12 14  2  0
 14 13  1  0
 14 15  1  0
 15 16  1  0
 16 17  1  0
 16 18  1  0
 18 19  2  0
 20 18  1  0
 19 21  1  0
 22 20  2  0
 20 23  1  0
 21 24  1  0
 21 25  2  0
 25 22  1  0
 23 26  1  0
 23 27  2  0
 24 28  1  0
 25 29  1  0
 28 29  1  0
  4 30  2  0
  4 31  1  0
 32 31  1  0
 32 33  1  0
 33 34  1  0
 33 35  1  0
 34 36  1  0
 35 37  1  0
 35 38  1  0
 38 36  1  0
 36 39  1  0
 38 40  1  0
 41 39  1  0
 42 39  1  0
 43 41  2  0
 41 44  1  0
 45 42  2  0
 46 43  1  0
 44 47  2  0
 44 45  1  0
 48 46  2  0
 48 47  1  0
 47 49  1  0
  6 50  1  1
  7 51  1  0
  7 52  1  0
  8 53  1  0
  8 54  1  0
 10 55  1  0
 11 56  1  0
 12 57  1  0
 13 58  1  0
 16 59  1  6
 17 60  1  0
 17 61  1  0
 17 62  1  0
 19 63  1  0
 22 64  1  0
 28 65  1  0
 28 66  1  0
 32 67  1  0
 32 68  1  0
 33 69  1  0
 35 70  1  0
 36 71  1  0
 37 72  1  0
 38 73  1  0
 40 74  1  0
 42 75  1  0
 46 76  1  0
 49 77  1  0
 49 78  1  0
M  CHG  3   5  -1  23   1  26  -1
M  END
>  <EmbedRMS>  (130) 
0.0815707895738

$$$$

     RDKit          3D

 78 83  0  0  0  0  0  0  0  0999 V2000
   10.2832   43.7666   33.8256 C   0  0  0  0  0  0  0  0  0  0  0  0
   11.4101   43.5936   34.3751 O   0  0  0  0  0  0  0  0  0  0  0  0
    9.3639   42.7255   33.7347 O   0  0  0  0  0  0  0  0  0  0  0  0
    9.8908   41.2267   34.2938 P   0  0  0  0  0  0  0  0  0  0  0  0
   10.3733   41.4560   35.8835 O   0  0  0  0  0  0  0  0  0  0  0  0
    9.9539   45.0699   33.2035 C   0  0  1  0  0  0  0  0  0  0  0  0
   11.0260   46.0332   33.4758 N   0  0  0  0  0  0  0  0  0  0  0  0
    9.7464   44.8484   31.6876 C   0  0  0  0  0  0  0  0  0  0  0  0
    8.7922   45.8408   31.0839 C   0  0  0  0  0  0  0  0  0  0  0  0
    7.4042   45.5997   31.0969 C   0  0  0  0  0  0  0  0  0  0  0  0
    9.2832   46.9875   30.4394 C   0  0  0  0  0  0  0  0  0  0  0  0
    6.5247   46.5012   30.4813 C   0  0  0  0  0  0  0  0  0  0  0  0
    8.4023   47.8878   29.8290 C   0  0  0  0  0  0  0  0  0  0  0  0
    7.0203   47.6549   29.8588 C   0  0  0  0  0  0  0  0  0  0  0  0
    6.1440   48.5540   29.2462 O   0  0  0  0  0  0  0  0  0  0  0  0
    5.6090   49.7138   29.8923 C   0  0  1  0  0  0  0  0  0  0  0  0
    4.5117   49.3392   30.8941 C   0  0  0  0  0  0  0  0  0  0  0  0
    6.7132   50.6213   30.4341 C   0  0  0  0  0  0  0  0  0  0  0  0
    7.2057   51.6240   29.5612 C   0  0  0  0  0  0  0  0  0  0  0  0
    7.3398   50.4587   31.7184 C   0  0  0  0  0  0  0  0  0  0  0  0
    8.2670   52.4157   29.9799 C   0  0  0  0  0  0  0  0  0  0  0  0
    8.4181   51.2903   32.0886 C   0  0  0  0  0  0  0  0  0  0  0  0
    6.8976   49.4823   32.6622 N   0  0  0  0  0  0  0  0  0  0  0  0
    8.8976   53.4381   29.2971 O   0  0  0  0  0  0  0  0  0  0  0  0
    8.8483   52.2552   31.1898 C   0  0  0  0  0  0  0  0  0  0  0  0
    5.9343   49.8389   33.5766 O   0  0  0  0  0  0  0  0  0  0  0  0
    7.6302   48.5045   32.9145 O   0  0  0  0  0  0  0  0  0  0  0  0
    9.9408   53.9526   30.1359 C   0  0  0  0  0  0  0  0  0  0  0  0
    9.8744   53.1688   31.3350 O   0  0  0  0  0  0  0  0  0  0  0  0
    8.8128   40.1849   34.2122 O   0  0  0  0  0  0  0  0  0  0  0  0
   11.2421   40.7943   33.3696 O   0  0  0  0  0  0  0  0  0  0  0  0
   10.9187   40.6911   31.9971 C   0  0  0  0  0  0  0  0  0  0  0  0
   11.5172   39.3815   31.4408 C   0  0  0  0  0  0  0  0  0  0  0  0
   12.7493   39.0856   32.0728 O   0  0  0  0  0  0  0  0  0  0  0  0
   10.6023   38.1908   31.6665 C   0  0  0  0  0  0  0  0  0  0  0  0
   12.9319   37.6781   32.0281 C   0  0  0  0  0  0  0  0  0  0  0  0
    9.6392   38.0798   30.6452 O   0  0  0  0  0  0  0  0  0  0  0  0
   11.5715   37.0166   31.7056 C   0  0  0  0  0  0  0  0  0  0  0  0
   13.4847   37.2121   33.3235 N   0  0  0  0  0  0  0  0  0  0  0  0
   11.6187   36.3384   30.4695 O   0  0  0  0  0  0  0  0  0  0  0  0
   14.4801   36.3321   33.5724 C   0  0  0  0  0  0  0  0  0  0  0  0
   13.1137   37.6275   34.5688 C   0  0  0  0  0  0  0  0  0  0  0  0
   15.2073   35.6153   32.6738 N   0  0  0  0  0  0  0  0  0  0  0  0
   14.6759   36.2308   34.9179 C   0  0  0  0  0  0  0  0  0  0  0  0
   13.8216   37.0452   35.5781 N   0  0  0  0  0  0  0  0  0  0  0  0
   16.1640   34.7602   33.1546 C   0  0  0  0  0  0  0  0  0  0  0  0
   15.6526   35.3508   35.4129 C   0  0  0  0  0  0  0  0  0  0  0  0
   16.3794   34.6317   34.5041 N   0  0  0  0  0  0  0  0  0  0  0  0
   15.8999   35.1935   36.8088 N   0  0  0  0  0  0  0  0  0  0  0  0
    9.0109   45.4320   33.6709 H   0  0  0  0  0  0  0  0  0  0  0  0
   10.7232   46.9699   33.1227 H   0  0  0  0  0  0  0  0  0  0  0  0
   11.8891   45.7683   32.9462 H   0  0  0  0  0  0  0  0  0  0  0  0
   10.7229   44.8820   31.1559 H   0  0  0  0  0  0  0  0  0  0  0  0
    9.3415   43.8332   31.4761 H   0  0  0  0  0  0  0  0  0  0  0  0
    7.0074   44.7134   31.5763 H   0  0  0  0  0  0  0  0  0  0  0  0
   10.3475   47.1846   30.4063 H   0  0  0  0  0  0  0  0  0  0  0  0
    5.4604   46.3048   30.4916 H   0  0  0  0  0  0  0  0  0  0  0  0
    8.7931   48.7685   29.3354 H   0  0  0  0  0  0  0  0  0  0  0  0
    5.0736   50.2839   29.1010 H   0  0  0  0  0  0  0  0  0  0  0  0
    3.6257   48.9561   30.3444 H   0  0  0  0  0  0  0  0  0  0  0  0
    4.1983   50.2314   31.4767 H   0  0  0  0  0  0  0  0  0  0  0  0
    4.8394   48.5341   31.5798 H   0  0  0  0  0  0  0  0  0  0  0  0
    6.7859   51.7730   28.5742 H   0  0  0  0  0  0  0  0  0  0  0  0
    8.9011   51.1850   33.0517 H   0  0  0  0  0  0  0  0  0  0  0  0
    9.7555   55.0226   30.3667 H   0  0  0  0  0  0  0  0  0  0  0  0
   10.9282   53.8202   29.6458 H   0  0  0  0  0  0  0  0  0  0  0  0
    9.8299   40.7410   31.7613 H   0  0  0  0  0  0  0  0  0  0  0  0
   11.3968   41.5460   31.4728 H   0  0  0  0  0  0  0  0  0  0  0  0
   11.6975   39.5067   30.3481 H   0  0  0  0  0  0  0  0  0  0  0  0
   10.1076   38.2648   32.6645 H   0  0  0  0  0  0  0  0  0  0  0  0
   13.6621   37.4468   31.2209 H   0  0  0  0  0  0  0  0  0  0  0  0
    8.8975   38.6944   30.8831 H   0  0  0  0  0  0  0  0  0  0  0  0
   11.2806   36.3073   32.5170 H   0  0  0  0  0  0  0  0  0  0  0  0
   10.8492   35.7110   30.4586 H   0  0  0  0  0  0  0  0  0  0  0  0
   12.3290   38.3524   34.7444 H   0  0  0  0  0  0  0  0  0  0  0  0
   16.7559   34.1780   32.4619 H   0  0  0  0  0  0  0  0  0  0  0  0
   15.3532   35.7362   37.5137 H   0  0  0  0  0  0  0  0  0  0  0  0
   16.6344   34.5301   37.1414 H   0  0  0  0  0  0  0  0  0  0  0  0
  1  2  2  0
  1  3  1  0
  3  4  1  0
  4  5  1  0
  6  1  1  0
  7  6  1  0
  6  8  1  0
  8  9  1  0
  9 10  2  0
 11  9  1  0
 10 12  1  0
 13 11  2  0
 12 14  2  0
 14 13  1  0
 14 15  1  0
 15 16  1  0
 16 17  1  0
 16 18  1  0
 18 19  2  0
 20 18  1  0
 19 21  1  0
 22 20  2  0
 20 23  1  0
 21 24  1  0
 21 25  2  0
 25 22  1  0
 23 26  1  0
 23 27  2  0
 24 28  1  0
 25 29  1  0
 28 29  1  0
  4 30  2  0
  4 31  1  0
 32 31  1  0
 32 33  1  0
 33 34  1  0
 33 35  1  0
 34 36  1  0
 35 37  1  0
 35 38  1  0
 38 36  1  0
 36 39  1  0
 38 40  1  0
 41 39  1  0
 42 39  1  0
 43 41  2  0
 41 44  1  0
 45 42  2  0
 46 43  1  0
 44 47  2  0
 44 45  1  0
 48 46  2  0
 48 47  1  0
 47 49  1  0
  6 50  1  1
  7 51  1  0
  7 52  1  0
  8 53  1  0
  8 54  1  0
 10 55  1  0
 11 56  1  0
 12 57  1  0
 13 58  1  0
 16 59  1  6
 17 60  1  0
 17 61  1  0
 17 62  1  0
 19 63  1  0
 22 64  1  0
 28 65  1  0
 28 66  1  0
 32 67  1  0
 32 68  1  0
 33 69  1  0
 35 70  1  0
 36 71  1  0
 37 72  1  0
 38 73  1  0
 40 74  1  0
 42 75  1  0
 46 76  1  0
 49 77  1  0
 49 78  1  0
M  CHG  3   5  -1  23   1  26  -1
M  END
>  <EmbedRMS>  (131) 
0.0830845038009

$$$$

     RDKit          3D

 78 83  0  0  0  0  0  0  0  0999 V2000
   10.2835   43.7661   33.8252 C   0  0  0  0  0  0  0  0  0  0  0  0
   11.4101   43.5931   34.3751 O   0  0  0  0  0  0  0  0  0  0  0  0
    9.3640   42.7253   33.7344 O   0  0  0  0  0  0  0  0  0  0  0  0
    9.8907   41.2265   34.2938 P   0  0  0  0  0  0  0  0  0  0  0  0
   10.3732   41.4560   35.8835 O   0  0  0  0  0  0  0  0  0  0  0  0
    9.9545   45.0694   33.2030 C   0  0  1  0  0  0  0  0  0  0  0  0
   11.0272   46.0321   33.4753 N   0  0  0  0  0  0  0  0  0  0  0  0
    9.7464   44.8483   31.6869 C   0  0  0  0  0  0  0  0  0  0  0  0
    8.7920   45.8410   31.0838 C   0  0  0  0  0  0  0  0  0  0  0  0
    7.4039   45.6017   31.1008 C   0  0  0  0  0  0  0  0  0  0  0  0
    9.2822   46.9901   30.4428 C   0  0  0  0  0  0  0  0  0  0  0  0
    6.5245   46.5041   30.4871 C   0  0  0  0  0  0  0  0  0  0  0  0
    8.4009   47.8919   29.8341 C   0  0  0  0  0  0  0  0  0  0  0  0
    7.0217   47.6465   29.8431 C   0  0  0  0  0  0  0  0  0  0  0  0
    6.1437   48.5523   29.2429 O   0  0  0  0  0  0  0  0  0  0  0  0
    5.6613   48.4294   27.9010 C   0  0  1  0  0  0  0  0  0  0  0  0
    6.7430   48.8037   26.8819 C   0  0  0  0  0  0  0  0  0  0  0  0
    4.9722   47.0855   27.6674 C   0  0  0  0  0  0  0  0  0  0  0  0
    3.5818   47.0218   27.9372 C   0  0  0  0  0  0  0  0  0  0  0  0
    5.6553   45.8787   27.2874 C   0  0  0  0  0  0  0  0  0  0  0  0
    2.9303   45.8014   27.8154 C   0  0  0  0  0  0  0  0  0  0  0  0
    4.9419   44.6659   27.1825 C   0  0  0  0  0  0  0  0  0  0  0  0
    7.0518   45.8577   26.9898 N   0  0  0  0  0  0  0  0  0  0  0  0
    1.5955   45.5154   28.0287 O   0  0  0  0  0  0  0  0  0  0  0  0
    3.5817   44.6731   27.4548 C   0  0  0  0  0  0  0  0  0  0  0  0
    7.4517   46.0403   25.6867 O   0  0  0  0  0  0  0  0  0  0  0  0
    7.8361   45.3040   27.7864 O   0  0  0  0  0  0  0  0  0  0  0  0
    1.3982   44.1163   27.7832 C   0  0  0  0  0  0  0  0  0  0  0  0
    2.6922   43.6165   27.4193 O   0  0  0  0  0  0  0  0  0  0  0  0
    8.8127   40.1848   34.2122 O   0  0  0  0  0  0  0  0  0  0  0  0
   11.2420   40.7941   33.3696 O   0  0  0  0  0  0  0  0  0  0  0  0
   10.9187   40.6911   31.9971 C   0  0  0  0  0  0  0  0  0  0  0  0
   11.5172   39.3815   31.4407 C   0  0  0  0  0  0  0  0  0  0  0  0
   12.7492   39.0856   32.0728 O   0  0  0  0  0  0  0  0  0  0  0  0
   10.6023   38.1908   31.6665 C   0  0  0  0  0  0  0  0  0  0  0  0
   12.9319   37.6781   32.0281 C   0  0  0  0  0  0  0  0  0  0  0  0
    9.6392   38.0798   30.6452 O   0  0  0  0  0  0  0  0  0  0  0  0
   11.5715   37.0166   31.7056 C   0  0  0  0  0  0  0  0  0  0  0  0
   13.4846   37.2121   33.3235 N   0  0  0  0  0  0  0  0  0  0  0  0
   11.6186   36.3384   30.4695 O   0  0  0  0  0  0  0  0  0  0  0  0
   14.4801   36.3321   33.5724 C   0  0  0  0  0  0  0  0  0  0  0  0
   13.1137   37.6276   34.5688 C   0  0  0  0  0  0  0  0  0  0  0  0
   15.2073   35.6153   32.6738 N   0  0  0  0  0  0  0  0  0  0  0  0
   14.6759   36.2308   34.9179 C   0  0  0  0  0  0  0  0  0  0  0  0
   13.8216   37.0452   35.5781 N   0  0  0  0  0  0  0  0  0  0  0  0
   16.1640   34.7602   33.1546 C   0  0  0  0  0  0  0  0  0  0  0  0
   15.6526   35.3508   35.4129 C   0  0  0  0  0  0  0  0  0  0  0  0
   16.3794   34.6317   34.5041 N   0  0  0  0  0  0  0  0  0  0  0  0
   15.8999   35.1935   36.8088 N   0  0  0  0  0  0  0  0  0  0  0  0
    9.0119   45.4316   33.6709 H   0  0  0  0  0  0  0  0  0  0  0  0
   11.8904   45.7660   32.9464 H   0  0  0  0  0  0  0  0  0  0  0  0
   10.7257   46.9688   33.1212 H   0  0  0  0  0  0  0  0  0  0  0  0
    9.3413   43.8333   31.4753 H   0  0  0  0  0  0  0  0  0  0  0  0
   10.7226   44.8822   31.1547 H   0  0  0  0  0  0  0  0  0  0  0  0
    7.0068   44.7178   31.5844 H   0  0  0  0  0  0  0  0  0  0  0  0
   10.3463   47.1896   30.4137 H   0  0  0  0  0  0  0  0  0  0  0  0
    5.4591   46.3137   30.5091 H   0  0  0  0  0  0  0  0  0  0  0  0
    8.7902   48.7789   29.3511 H   0  0  0  0  0  0  0  0  0  0  0  0
    4.8876   49.2199   27.7809 H   0  0  0  0  0  0  0  0  0  0  0  0
    6.9532   49.8923   26.9504 H   0  0  0  0  0  0  0  0  0  0  0  0
    7.6963   48.2775   27.0829 H   0  0  0  0  0  0  0  0  0  0  0  0
    6.3963   48.5825   25.8502 H   0  0  0  0  0  0  0  0  0  0  0  0
    3.0242   47.8957   28.2499 H   0  0  0  0  0  0  0  0  0  0  0  0
    5.4380   43.7477   26.8949 H   0  0  0  0  0  0  0  0  0  0  0  0
    1.0378   43.6118   28.7042 H   0  0  0  0  0  0  0  0  0  0  0  0
    0.6821   43.9701   26.9475 H   0  0  0  0  0  0  0  0  0  0  0  0
    9.8299   40.7410   31.7612 H   0  0  0  0  0  0  0  0  0  0  0  0
   11.3968   41.5460   31.4728 H   0  0  0  0  0  0  0  0  0  0  0  0
   11.6975   39.5067   30.3481 H   0  0  0  0  0  0  0  0  0  0  0  0
   10.1076   38.2648   32.6645 H   0  0  0  0  0  0  0  0  0  0  0  0
   13.6621   37.4467   31.2209 H   0  0  0  0  0  0  0  0  0  0  0  0
    8.8975   38.6945   30.8830 H   0  0  0  0  0  0  0  0  0  0  0  0
   11.2806   36.3074   32.5170 H   0  0  0  0  0  0  0  0  0  0  0  0
   10.8492   35.7111   30.4586 H   0  0  0  0  0  0  0  0  0  0  0  0
   12.3290   38.3524   34.7444 H   0  0  0  0  0  0  0  0  0  0  0  0
   16.7559   34.1780   32.4619 H   0  0  0  0  0  0  0  0  0  0  0  0
   16.6344   34.5301   37.1414 H   0  0  0  0  0  0  0  0  0  0  0  0
   15.3532   35.7363   37.5137 H   0  0  0  0  0  0  0  0  0  0  0  0
  1  2  2  0
  1  3  1  0
  3  4  1  0
  4  5  1  0
  6  1  1  0
  7  6  1  0
  6  8  1  0
  8  9  1  0
  9 10  2  0
 11  9  1  0
 10 12  1  0
 13 11  2  0
 12 14  2  0
 14 13  1  0
 14 15  1  0
 15 16  1  0
 16 17  1  0
 16 18  1  0
 18 19  2  0
 20 18  1  0
 19 21  1  0
 22 20  2  0
 20 23  1  0
 21 24  1  0
 21 25  2  0
 25 22  1  0
 23 26  1  0
 23 27  2  0
 24 28  1  0
 25 29  1  0
 28 29  1  0
  4 30  2  0
  4 31  1  0
 32 31  1  0
 32 33  1  0
 33 34  1  0
 33 35  1  0
 34 36  1  0
 35 37  1  0
 35 38  1  0
 38 36  1  0
 36 39  1  0
 38 40  1  0
 41 39  1  0
 42 39  1  0
 43 41  2  0
 41 44  1  0
 45 42  2  0
 46 43  1  0
 44 47  2  0
 44 45  1  0
 48 46  2  0
 48 47  1  0
 47 49  1  0
  6 50  1  1
  7 51  1  0
  7 52  1  0
  8 53  1  0
  8 54  1  0
 10 55  1  0
 11 56  1  0
 12 57  1  0
 13 58  1  0
 16 59  1  1
 17 60  1  0
 17 61  1  0
 17 62  1  0
 19 63  1  0
 22 64  1  0
 28 65  1  0
 28 66  1  0
 32 67  1  0
 32 68  1  0
 33 69  1  0
 35 70  1  0
 36 71  1  0
 37 72  1  0
 38 73  1  0
 40 74  1  0
 42 75  1  0
 46 76  1  0
 49 77  1  0
 49 78  1  0
M  CHG  3   5  -1  23   1  26  -1
M  END
>  <EmbedRMS>  (132) 
0.0830606421102

$$$$

     RDKit          3D

 78 83  0  0  0  0  0  0  0  0999 V2000
   10.2805   43.7664   33.8250 C   0  0  0  0  0  0  0  0  0  0  0  0
   11.4111   43.5918   34.3667 O   0  0  0  0  0  0  0  0  0  0  0  0
    9.3619   42.7249   33.7345 O   0  0  0  0  0  0  0  0  0  0  0  0
    9.8900   41.2266   34.2940 P   0  0  0  0  0  0  0  0  0  0  0  0
   10.3734   41.4567   35.8833 O   0  0  0  0  0  0  0  0  0  0  0  0
    9.9460   45.0736   33.2113 C   0  0  1  0  0  0  0  0  0  0  0  0
   11.0267   46.0292   33.4709 N   0  0  0  0  0  0  0  0  0  0  0  0
    9.7540   44.8542   31.6950 C   0  0  0  0  0  0  0  0  0  0  0  0
    8.7957   45.8414   31.0851 C   0  0  0  0  0  0  0  0  0  0  0  0
    7.4091   45.6001   31.1009 C   0  0  0  0  0  0  0  0  0  0  0  0
    9.2824   46.9876   30.4395 C   0  0  0  0  0  0  0  0  0  0  0  0
    6.5257   46.4984   30.4856 C   0  0  0  0  0  0  0  0  0  0  0  0
    8.3997   47.8866   29.8305 C   0  0  0  0  0  0  0  0  0  0  0  0
    7.0178   47.6561   29.8472 C   0  0  0  0  0  0  0  0  0  0  0  0
    6.1849   48.5931   29.2130 O   0  0  0  0  0  0  0  0  0  0  0  0
    4.7537   48.5898   29.2216 C   0  0  1  0  0  0  0  0  0  0  0  0
    4.2331   49.0399   30.5913 C   0  0  0  0  0  0  0  0  0  0  0  0
    4.2478   49.5343   28.1473 C   0  0  0  0  0  0  0  0  0  0  0  0
    4.8749   50.7975   28.0071 C   0  0  0  0  0  0  0  0  0  0  0  0
    3.1851   49.1768   27.2504 C   0  0  0  0  0  0  0  0  0  0  0  0
    4.4643   51.6322   26.9762 C   0  0  0  0  0  0  0  0  0  0  0  0
    2.8235   50.0611   26.2089 C   0  0  0  0  0  0  0  0  0  0  0  0
    2.4537   47.9487   27.3914 N   0  0  0  0  0  0  0  0  0  0  0  0
    4.9372   52.8882   26.6480 O   0  0  0  0  0  0  0  0  0  0  0  0
    3.4863   51.2773   26.1118 C   0  0  0  0  0  0  0  0  0  0  0  0
    2.0053   47.2887   26.2706 O   0  0  0  0  0  0  0  0  0  0  0  0
    2.0158   47.6032   28.5079 O   0  0  0  0  0  0  0  0  0  0  0  0
    4.2071   53.3505   25.5034 C   0  0  0  0  0  0  0  0  0  0  0  0
    3.2909   52.2914   25.1940 O   0  0  0  0  0  0  0  0  0  0  0  0
    8.8123   40.1844   34.2133 O   0  0  0  0  0  0  0  0  0  0  0  0
   11.2405   40.7942   33.3692 O   0  0  0  0  0  0  0  0  0  0  0  0
   10.9150   40.6905   31.9972 C   0  0  0  0  0  0  0  0  0  0  0  0
   11.5252   39.3886   31.4375 C   0  0  0  0  0  0  0  0  0  0  0  0
   12.7499   39.0874   32.0799 O   0  0  0  0  0  0  0  0  0  0  0  0
   10.6092   38.1926   31.6470 C   0  0  0  0  0  0  0  0  0  0  0  0
   12.9332   37.6793   32.0294 C   0  0  0  0  0  0  0  0  0  0  0  0
    9.6122   38.0894   30.6542 O   0  0  0  0  0  0  0  0  0  0  0  0
   11.5743   37.0145   31.7024 C   0  0  0  0  0  0  0  0  0  0  0  0
   13.4844   37.2108   33.3241 N   0  0  0  0  0  0  0  0  0  0  0  0
   11.6297   36.3239   30.4740 O   0  0  0  0  0  0  0  0  0  0  0  0
   14.4802   36.3313   33.5727 C   0  0  0  0  0  0  0  0  0  0  0  0
   13.1139   37.6266   34.5692 C   0  0  0  0  0  0  0  0  0  0  0  0
   15.2075   35.6149   32.6739 N   0  0  0  0  0  0  0  0  0  0  0  0
   14.6761   36.2303   34.9181 C   0  0  0  0  0  0  0  0  0  0  0  0
   13.8220   37.0447   35.5785 N   0  0  0  0  0  0  0  0  0  0  0  0
   16.1643   34.7600   33.1547 C   0  0  0  0  0  0  0  0  0  0  0  0
   15.6529   35.3505   35.4130 C   0  0  0  0  0  0  0  0  0  0  0  0
   16.3798   34.6315   34.5042 N   0  0  0  0  0  0  0  0  0  0  0  0
   15.9003   35.1932   36.8090 N   0  0  0  0  0  0  0  0  0  0  0  0
    8.9996   45.4381   33.6723 H   0  0  0  0  0  0  0  0  0  0  0  0
   11.0503   46.2277   34.4983 H   0  0  0  0  0  0  0  0  0  0  0  0
   10.7765   46.9369   33.0160 H   0  0  0  0  0  0  0  0  0  0  0  0
   10.7412   44.9080   31.1837 H   0  0  0  0  0  0  0  0  0  0  0  0
    9.3646   43.8355   31.4711 H   0  0  0  0  0  0  0  0  0  0  0  0
    7.0154   44.7143   31.5843 H   0  0  0  0  0  0  0  0  0  0  0  0
   10.3463   47.1872   30.4047 H   0  0  0  0  0  0  0  0  0  0  0  0
    5.4694   46.2751   30.5137 H   0  0  0  0  0  0  0  0  0  0  0  0
    8.7923   48.7679   29.3390 H   0  0  0  0  0  0  0  0  0  0  0  0
    4.4035   47.5607   29.0088 H   0  0  0  0  0  0  0  0  0  0  0  0
    3.1231   49.0787   30.5874 H   0  0  0  0  0  0  0  0  0  0  0  0
    4.5512   48.3313   31.3827 H   0  0  0  0  0  0  0  0  0  0  0  0
    4.6273   50.0470   30.8450 H   0  0  0  0  0  0  0  0  0  0  0  0
    5.6706   51.1118   28.6707 H   0  0  0  0  0  0  0  0  0  0  0  0
    2.0298   49.8191   25.5139 H   0  0  0  0  0  0  0  0  0  0  0  0
    4.8974   53.5213   24.6508 H   0  0  0  0  0  0  0  0  0  0  0  0
    3.6504   54.2783   25.7520 H   0  0  0  0  0  0  0  0  0  0  0  0
   11.3800   41.5528   31.4730 H   0  0  0  0  0  0  0  0  0  0  0  0
    9.8242   40.7215   31.7641 H   0  0  0  0  0  0  0  0  0  0  0  0
   11.7266   39.5310   30.3513 H   0  0  0  0  0  0  0  0  0  0  0  0
   10.1110   38.2747   32.6387 H   0  0  0  0  0  0  0  0  0  0  0  0
   13.6652   37.4520   31.2226 H   0  0  0  0  0  0  0  0  0  0  0  0
   10.0511   38.1143   29.7645 H   0  0  0  0  0  0  0  0  0  0  0  0
   11.2762   36.3141   32.5189 H   0  0  0  0  0  0  0  0  0  0  0  0
   10.8593   35.6978   30.4640 H   0  0  0  0  0  0  0  0  0  0  0  0
   12.3295   38.3518   34.7449 H   0  0  0  0  0  0  0  0  0  0  0  0
   16.7564   34.1780   32.4620 H   0  0  0  0  0  0  0  0  0  0  0  0
   16.6349   34.5300   37.1415 H   0  0  0  0  0  0  0  0  0  0  0  0
   15.3534   35.7359   37.5138 H   0  0  0  0  0  0  0  0  0  0  0  0
  1  2  2  0
  1  3  1  0
  3  4  1  0
  4  5  1  0
  6  1  1  0
  7  6  1  0
  6  8  1  0
  8  9  1  0
  9 10  2  0
 11  9  1  0
 10 12  1  0
 13 11  2  0
 12 14  2  0
 14 13  1  0
 14 15  1  0
 15 16  1  0
 16 17  1  0
 16 18  1  0
 18 19  2  0
 20 18  1  0
 19 21  1  0
 22 20  2  0
 20 23  1  0
 21 24  1  0
 21 25  2  0
 25 22  1  0
 23 26  1  0
 23 27  2  0
 24 28  1  0
 25 29  1  0
 28 29  1  0
  4 30  2  0
  4 31  1  0
 32 31  1  0
 32 33  1  0
 33 34  1  0
 33 35  1  0
 34 36  1  0
 35 37  1  0
 35 38  1  0
 38 36  1  0
 36 39  1  0
 38 40  1  0
 41 39  1  0
 42 39  1  0
 43 41  2  0
 41 44  1  0
 45 42  2  0
 46 43  1  0
 44 47  2  0
 44 45  1  0
 48 46  2  0
 48 47  1  0
 47 49  1  0
  6 50  1  1
  7 51  1  0
  7 52  1  0
  8 53  1  0
  8 54  1  0
 10 55  1  0
 11 56  1  0
 12 57  1  0
 13 58  1  0
 16 59  1  6
 17 60  1  0
 17 61  1  0
 17 62  1  0
 19 63  1  0
 22 64  1  0
 28 65  1  0
 28 66  1  0
 32 67  1  0
 32 68  1  0
 33 69  1  0
 35 70  1  0
 36 71  1  0
 37 72  1  0
 38 73  1  0
 40 74  1  0
 42 75  1  0
 46 76  1  0
 49 77  1  0
 49 78  1  0
M  CHG  3   5  -1  23   1  26  -1
M  END
>  <EmbedRMS>  (133) 
0.0816146467886

$$$$

     RDKit          3D

 78 83  0  0  0  0  0  0  0  0999 V2000
   10.2804   43.7664   33.8248 C   0  0  0  0  0  0  0  0  0  0  0  0
   11.4111   43.5918   34.3666 O   0  0  0  0  0  0  0  0  0  0  0  0
    9.3619   42.7249   33.7344 O   0  0  0  0  0  0  0  0  0  0  0  0
    9.8899   41.2267   34.2940 P   0  0  0  0  0  0  0  0  0  0  0  0
   10.3734   41.4567   35.8833 O   0  0  0  0  0  0  0  0  0  0  0  0
    9.9460   45.0736   33.2111 C   0  0  1  0  0  0  0  0  0  0  0  0
   11.0267   46.0292   33.4708 N   0  0  0  0  0  0  0  0  0  0  0  0
    9.7540   44.8542   31.6947 C   0  0  0  0  0  0  0  0  0  0  0  0
    8.7957   45.8412   31.0847 C   0  0  0  0  0  0  0  0  0  0  0  0
    7.4089   45.6002   31.1015 C   0  0  0  0  0  0  0  0  0  0  0  0
    9.2823   46.9882   30.4400 C   0  0  0  0  0  0  0  0  0  0  0  0
    6.5258   46.4991   30.4872 C   0  0  0  0  0  0  0  0  0  0  0  0
    8.3996   47.8878   29.8316 C   0  0  0  0  0  0  0  0  0  0  0  0
    7.0186   47.6536   29.8448 C   0  0  0  0  0  0  0  0  0  0  0  0
    6.1814   48.5828   29.2053 O   0  0  0  0  0  0  0  0  0  0  0  0
    4.7648   48.4564   29.0621 C   0  0  1  0  0  0  0  0  0  0  0  0
    4.1750   49.7706   28.5514 C   0  0  0  0  0  0  0  0  0  0  0  0
    4.3776   47.3042   28.1461 C   0  0  0  0  0  0  0  0  0  0  0  0
    3.1771   46.6159   28.4463 C   0  0  0  0  0  0  0  0  0  0  0  0
    5.1821   46.8573   27.0397 C   0  0  0  0  0  0  0  0  0  0  0  0
    2.8308   45.5127   27.6781 C   0  0  0  0  0  0  0  0  0  0  0  0
    4.7846   45.7172   26.3054 C   0  0  0  0  0  0  0  0  0  0  0  0
    6.3961   47.5207   26.6549 N   0  0  0  0  0  0  0  0  0  0  0  0
    1.7225   44.6964   27.7979 O   0  0  0  0  0  0  0  0  0  0  0  0
    3.6025   45.0799   26.6558 C   0  0  0  0  0  0  0  0  0  0  0  0
    7.4752   46.7776   26.2353 O   0  0  0  0  0  0  0  0  0  0  0  0
    6.4143   48.7561   26.4835 O   0  0  0  0  0  0  0  0  0  0  0  0
    1.8056   43.6863   26.7833 C   0  0  0  0  0  0  0  0  0  0  0  0
    3.0213   43.9684   26.0766 O   0  0  0  0  0  0  0  0  0  0  0  0
    8.8123   40.1844   34.2133 O   0  0  0  0  0  0  0  0  0  0  0  0
   11.2405   40.7942   33.3691 O   0  0  0  0  0  0  0  0  0  0  0  0
   10.9150   40.6905   31.9972 C   0  0  0  0  0  0  0  0  0  0  0  0
   11.5252   39.3886   31.4375 C   0  0  0  0  0  0  0  0  0  0  0  0
   12.7499   39.0874   32.0799 O   0  0  0  0  0  0  0  0  0  0  0  0
   10.6092   38.1926   31.6470 C   0  0  0  0  0  0  0  0  0  0  0  0
   12.9332   37.6793   32.0294 C   0  0  0  0  0  0  0  0  0  0  0  0
    9.6121   38.0894   30.6542 O   0  0  0  0  0  0  0  0  0  0  0  0
   11.5743   37.0145   31.7024 C   0  0  0  0  0  0  0  0  0  0  0  0
   13.4844   37.2108   33.3241 N   0  0  0  0  0  0  0  0  0  0  0  0
   11.6297   36.3239   30.4740 O   0  0  0  0  0  0  0  0  0  0  0  0
   14.4802   36.3313   33.5727 C   0  0  0  0  0  0  0  0  0  0  0  0
   13.1138   37.6266   34.5692 C   0  0  0  0  0  0  0  0  0  0  0  0
   15.2075   35.6149   32.6739 N   0  0  0  0  0  0  0  0  0  0  0  0
   14.6761   36.2303   34.9181 C   0  0  0  0  0  0  0  0  0  0  0  0
   13.8220   37.0447   35.5785 N   0  0  0  0  0  0  0  0  0  0  0  0
   16.1643   34.7600   33.1547 C   0  0  0  0  0  0  0  0  0  0  0  0
   15.6529   35.3505   35.4130 C   0  0  0  0  0  0  0  0  0  0  0  0
   16.3798   34.6315   34.5042 N   0  0  0  0  0  0  0  0  0  0  0  0
   15.9003   35.1932   36.8090 N   0  0  0  0  0  0  0  0  0  0  0  0
    8.9996   45.4381   33.6721 H   0  0  0  0  0  0  0  0  0  0  0  0
   10.7765   46.9369   33.0158 H   0  0  0  0  0  0  0  0  0  0  0  0
   11.0502   46.2277   34.4982 H   0  0  0  0  0  0  0  0  0  0  0  0
    9.3645   43.8355   31.4709 H   0  0  0  0  0  0  0  0  0  0  0  0
   10.7411   44.9080   31.1834 H   0  0  0  0  0  0  0  0  0  0  0  0
    7.0148   44.7155   31.5865 H   0  0  0  0  0  0  0  0  0  0  0  0
   10.3462   47.1879   30.4053 H   0  0  0  0  0  0  0  0  0  0  0  0
    5.4674   46.2835   30.5196 H   0  0  0  0  0  0  0  0  0  0  0  0
    8.7916   48.7680   29.3379 H   0  0  0  0  0  0  0  0  0  0  0  0
    4.3334   48.2929   30.0754 H   0  0  0  0  0  0  0  0  0  0  0  0
    4.5244   50.0012   27.5253 H   0  0  0  0  0  0  0  0  0  0  0  0
    3.0655   49.7115   28.5423 H   0  0  0  0  0  0  0  0  0  0  0  0
    4.4750   50.6022   29.2236 H   0  0  0  0  0  0  0  0  0  0  0  0
    2.5393   46.9225   29.2659 H   0  0  0  0  0  0  0  0  0  0  0  0
    5.3718   45.3507   25.4732 H   0  0  0  0  0  0  0  0  0  0  0  0
    1.8571   42.6791   27.2474 H   0  0  0  0  0  0  0  0  0  0  0  0
    0.9369   43.7599   26.0960 H   0  0  0  0  0  0  0  0  0  0  0  0
    9.8241   40.7215   31.7640 H   0  0  0  0  0  0  0  0  0  0  0  0
   11.3801   41.5528   31.4730 H   0  0  0  0  0  0  0  0  0  0  0  0
   11.7266   39.5310   30.3512 H   0  0  0  0  0  0  0  0  0  0  0  0
   10.1110   38.2747   32.6387 H   0  0  0  0  0  0  0  0  0  0  0  0
   13.6652   37.4520   31.2226 H   0  0  0  0  0  0  0  0  0  0  0  0
   10.0511   38.1143   29.7645 H   0  0  0  0  0  0  0  0  0  0  0  0
   11.2762   36.3141   32.5189 H   0  0  0  0  0  0  0  0  0  0  0  0
   10.8593   35.6978   30.4640 H   0  0  0  0  0  0  0  0  0  0  0  0
   12.3294   38.3518   34.7449 H   0  0  0  0  0  0  0  0  0  0  0  0
   16.7564   34.1780   32.4620 H   0  0  0  0  0  0  0  0  0  0  0  0
   15.3534   35.7359   37.5138 H   0  0  0  0  0  0  0  0  0  0  0  0
   16.6349   34.5300   37.1415 H   0  0  0  0  0  0  0  0  0  0  0  0
  1  2  2  0
  1  3  1  0
  3  4  1  0
  4  5  1  0
  6  1  1  0
  7  6  1  0
  6  8  1  0
  8  9  1  0
  9 10  2  0
 11  9  1  0
 10 12  1  0
 13 11  2  0
 12 14  2  0
 14 13  1  0
 14 15  1  0
 15 16  1  0
 16 17  1  0
 16 18  1  0
 18 19  2  0
 20 18  1  0
 19 21  1  0
 22 20  2  0
 20 23  1  0
 21 24  1  0
 21 25  2  0
 25 22  1  0
 23 26  1  0
 23 27  2  0
 24 28  1  0
 25 29  1  0
 28 29  1  0
  4 30  2  0
  4 31  1  0
 32 31  1  0
 32 33  1  0
 33 34  1  0
 33 35  1  0
 34 36  1  0
 35 37  1  0
 35 38  1  0
 38 36  1  0
 36 39  1  0
 38 40  1  0
 41 39  1  0
 42 39  1  0
 43 41  2  0
 41 44  1  0
 45 42  2  0
 46 43  1  0
 44 47  2  0
 44 45  1  0
 48 46  2  0
 48 47  1  0
 47 49  1  0
  6 50  1  1
  7 51  1  0
  7 52  1  0
  8 53  1  0
  8 54  1  0
 10 55  1  0
 11 56  1  0
 12 57  1  0
 13 58  1  0
 16 59  1  1
 17 60  1  0
 17 61  1  0
 17 62  1  0
 19 63  1  0
 22 64  1  0
 28 65  1  0
 28 66  1  0
 32 67  1  0
 32 68  1  0
 33 69  1  0
 35 70  1  0
 36 71  1  0
 37 72  1  0
 38 73  1  0
 40 74  1  0
 42 75  1  0
 46 76  1  0
 49 77  1  0
 49 78  1  0
M  CHG  3   5  -1  23   1  26  -1
M  END
>  <EmbedRMS>  (134) 
0.0816393623809

$$$$

     RDKit          3D

 78 83  0  0  0  0  0  0  0  0999 V2000
   10.2805   43.7665   33.8250 C   0  0  0  0  0  0  0  0  0  0  0  0
   11.4112   43.5918   34.3665 O   0  0  0  0  0  0  0  0  0  0  0  0
    9.3619   42.7250   33.7344 O   0  0  0  0  0  0  0  0  0  0  0  0
    9.8899   41.2267   34.2939 P   0  0  0  0  0  0  0  0  0  0  0  0
   10.3735   41.4566   35.8832 O   0  0  0  0  0  0  0  0  0  0  0  0
    9.9459   45.0737   33.2113 C   0  0  1  0  0  0  0  0  0  0  0  0
   11.0267   46.0293   33.4707 N   0  0  0  0  0  0  0  0  0  0  0  0
    9.7536   44.8540   31.6951 C   0  0  0  0  0  0  0  0  0  0  0  0
    8.7955   45.8412   31.0851 C   0  0  0  0  0  0  0  0  0  0  0  0
    7.4089   45.6000   31.1001 C   0  0  0  0  0  0  0  0  0  0  0  0
    9.2828   46.9873   30.4394 C   0  0  0  0  0  0  0  0  0  0  0  0
    6.5286   46.5002   30.4843 C   0  0  0  0  0  0  0  0  0  0  0  0
    8.4023   47.8883   29.8294 C   0  0  0  0  0  0  0  0  0  0  0  0
    7.0133   47.6529   29.8507 C   0  0  0  0  0  0  0  0  0  0  0  0
    6.0835   48.5247   29.2605 O   0  0  0  0  0  0  0  0  0  0  0  0
    6.3803   49.8068   28.7059 C   0  0  1  0  0  0  0  0  0  0  0  0
    5.1716   50.3150   27.9191 C   0  0  0  0  0  0  0  0  0  0  0  0
    6.7893   50.8008   29.7849 C   0  0  0  0  0  0  0  0  0  0  0  0
    8.0377   51.4554   29.6403 C   0  0  0  0  0  0  0  0  0  0  0  0
    5.9473   51.1462   30.8983 C   0  0  0  0  0  0  0  0  0  0  0  0
    8.4057   52.4067   30.5821 C   0  0  0  0  0  0  0  0  0  0  0  0
    6.3691   52.1347   31.8149 C   0  0  0  0  0  0  0  0  0  0  0  0
    4.6636   50.5405   31.1023 N   0  0  0  0  0  0  0  0  0  0  0  0
    9.5645   53.1571   30.6373 O   0  0  0  0  0  0  0  0  0  0  0  0
    7.6062   52.7331   31.6224 C   0  0  0  0  0  0  0  0  0  0  0  0
    3.5875   51.3337   31.4267 O   0  0  0  0  0  0  0  0  0  0  0  0
    4.5712   49.3078   31.2668 O   0  0  0  0  0  0  0  0  0  0  0  0
    9.4858   54.0082   31.7888 C   0  0  0  0  0  0  0  0  0  0  0  0
    8.2190   53.7054   32.3890 O   0  0  0  0  0  0  0  0  0  0  0  0
    8.8123   40.1845   34.2133 O   0  0  0  0  0  0  0  0  0  0  0  0
   11.2404   40.7941   33.3691 O   0  0  0  0  0  0  0  0  0  0  0  0
   10.9150   40.6905   31.9971 C   0  0  0  0  0  0  0  0  0  0  0  0
   11.5252   39.3886   31.4375 C   0  0  0  0  0  0  0  0  0  0  0  0
   12.7499   39.0874   32.0800 O   0  0  0  0  0  0  0  0  0  0  0  0
   10.6092   38.1926   31.6469 C   0  0  0  0  0  0  0  0  0  0  0  0
   12.9332   37.6793   32.0294 C   0  0  0  0  0  0  0  0  0  0  0  0
    9.6121   38.0895   30.6542 O   0  0  0  0  0  0  0  0  0  0  0  0
   11.5743   37.0144   31.7024 C   0  0  0  0  0  0  0  0  0  0  0  0
   13.4844   37.2108   33.3241 N   0  0  0  0  0  0  0  0  0  0  0  0
   11.6297   36.3238   30.4741 O   0  0  0  0  0  0  0  0  0  0  0  0
   14.4802   36.3313   33.5727 C   0  0  0  0  0  0  0  0  0  0  0  0
   13.1138   37.6266   34.5692 C   0  0  0  0  0  0  0  0  0  0  0  0
   15.2075   35.6149   32.6739 N   0  0  0  0  0  0  0  0  0  0  0  0
   14.6761   36.2303   34.9182 C   0  0  0  0  0  0  0  0  0  0  0  0
   13.8220   37.0447   35.5785 N   0  0  0  0  0  0  0  0  0  0  0  0
   16.1643   34.7600   33.1547 C   0  0  0  0  0  0  0  0  0  0  0  0
   15.6529   35.3506   35.4131 C   0  0  0  0  0  0  0  0  0  0  0  0
   16.3798   34.6315   34.5042 N   0  0  0  0  0  0  0  0  0  0  0  0
   15.9002   35.1932   36.8090 N   0  0  0  0  0  0  0  0  0  0  0  0
    8.9996   45.4384   33.6724 H   0  0  0  0  0  0  0  0  0  0  0  0
   10.7764   46.9370   33.0156 H   0  0  0  0  0  0  0  0  0  0  0  0
   11.0502   46.2280   34.4981 H   0  0  0  0  0  0  0  0  0  0  0  0
    9.3638   43.8353   31.4715 H   0  0  0  0  0  0  0  0  0  0  0  0
   10.7408   44.9073   31.1837 H   0  0  0  0  0  0  0  0  0  0  0  0
    7.0133   44.7154   31.5838 H   0  0  0  0  0  0  0  0  0  0  0  0
   10.3471   47.1843   30.4034 H   0  0  0  0  0  0  0  0  0  0  0  0
    5.4642   46.3037   30.5050 H   0  0  0  0  0  0  0  0  0  0  0  0
    8.8167   48.7540   29.3359 H   0  0  0  0  0  0  0  0  0  0  0  0
    7.1970   49.6840   27.9601 H   0  0  0  0  0  0  0  0  0  0  0  0
    5.3805   51.3247   27.5052 H   0  0  0  0  0  0  0  0  0  0  0  0
    4.2648   50.3640   28.5549 H   0  0  0  0  0  0  0  0  0  0  0  0
    4.9623   49.6262   27.0733 H   0  0  0  0  0  0  0  0  0  0  0  0
    8.7002   51.2399   28.8116 H   0  0  0  0  0  0  0  0  0  0  0  0
    5.7529   52.4180   32.6586 H   0  0  0  0  0  0  0  0  0  0  0  0
    9.5190   55.0744   31.4813 H   0  0  0  0  0  0  0  0  0  0  0  0
   10.3099   53.7755   32.4954 H   0  0  0  0  0  0  0  0  0  0  0  0
    9.8242   40.7216   31.7639 H   0  0  0  0  0  0  0  0  0  0  0  0
   11.3801   41.5528   31.4730 H   0  0  0  0  0  0  0  0  0  0  0  0
   11.7267   39.5309   30.3512 H   0  0  0  0  0  0  0  0  0  0  0  0
   10.1110   38.2746   32.6386 H   0  0  0  0  0  0  0  0  0  0  0  0
   13.6652   37.4520   31.2226 H   0  0  0  0  0  0  0  0  0  0  0  0
   10.0511   38.1143   29.7644 H   0  0  0  0  0  0  0  0  0  0  0  0
   11.2762   36.3142   32.5190 H   0  0  0  0  0  0  0  0  0  0  0  0
   10.8593   35.6977   30.4640 H   0  0  0  0  0  0  0  0  0  0  0  0
   12.3295   38.3518   34.7449 H   0  0  0  0  0  0  0  0  0  0  0  0
   16.7564   34.1780   32.4621 H   0  0  0  0  0  0  0  0  0  0  0  0
   15.3533   35.7359   37.5139 H   0  0  0  0  0  0  0  0  0  0  0  0
   16.6348   34.5300   37.1417 H   0  0  0  0  0  0  0  0  0  0  0  0
  1  2  2  0
  1  3  1  0
  3  4  1  0
  4  5  1  0
  6  1  1  0
  7  6  1  0
  6  8  1  0
  8  9  1  0
  9 10  2  0
 11  9  1  0
 10 12  1  0
 13 11  2  0
 12 14  2  0
 14 13  1  0
 14 15  1  0
 15 16  1  0
 16 17  1  0
 16 18  1  0
 18 19  2  0
 20 18  1  0
 19 21  1  0
 22 20  2  0
 20 23  1  0
 21 24  1  0
 21 25  2  0
 25 22  1  0
 23 26  1  0
 23 27  2  0
 24 28  1  0
 25 29  1  0
 28 29  1  0
  4 30  2  0
  4 31  1  0
 32 31  1  0
 32 33  1  0
 33 34  1  0
 33 35  1  0
 34 36  1  0
 35 37  1  0
 35 38  1  0
 38 36  1  0
 36 39  1  0
 38 40  1  0
 41 39  1  0
 42 39  1  0
 43 41  2  0
 41 44  1  0
 45 42  2  0
 46 43  1  0
 44 47  2  0
 44 45  1  0
 48 46  2  0
 48 47  1  0
 47 49  1  0
  6 50  1  1
  7 51  1  0
  7 52  1  0
  8 53  1  0
  8 54  1  0
 10 55  1  0
 11 56  1  0
 12 57  1  0
 13 58  1  0
 16 59  1  6
 17 60  1  0
 17 61  1  0
 17 62  1  0
 19 63  1  0
 22 64  1  0
 28 65  1  0
 28 66  1  0
 32 67  1  0
 32 68  1  0
 33 69  1  0
 35 70  1  0
 36 71  1  0
 37 72  1  0
 38 73  1  0
 40 74  1  0
 42 75  1  0
 46 76  1  0
 49 77  1  0
 49 78  1  0
M  CHG  3   5  -1  23   1  26  -1
M  END
>  <EmbedRMS>  (135) 
0.0816369634256

$$$$

     RDKit          3D

 78 83  0  0  0  0  0  0  0  0999 V2000
   10.2836   43.7628   33.8273 C   0  0  0  0  0  0  0  0  0  0  0  0
   11.4101   43.5865   34.3764 O   0  0  0  0  0  0  0  0  0  0  0  0
    9.3627   42.7238   33.7355 O   0  0  0  0  0  0  0  0  0  0  0  0
    9.8890   41.2252   34.2948 P   0  0  0  0  0  0  0  0  0  0  0  0
   10.3724   41.4549   35.8842 O   0  0  0  0  0  0  0  0  0  0  0  0
    9.9547   45.0700   33.2058 C   0  0  1  0  0  0  0  0  0  0  0  0
   11.0196   46.0481   33.4564 N   0  0  0  0  0  0  0  0  0  0  0  0
    9.7501   44.8509   31.6916 C   0  0  0  0  0  0  0  0  0  0  0  0
    8.7940   45.8414   31.0857 C   0  0  0  0  0  0  0  0  0  0  0  0
    7.4061   45.6012   31.1014 C   0  0  0  0  0  0  0  0  0  0  0  0
    9.2831   46.9914   30.4459 C   0  0  0  0  0  0  0  0  0  0  0  0
    6.5262   46.5039   30.4885 C   0  0  0  0  0  0  0  0  0  0  0  0
    8.4017   47.8922   29.8357 C   0  0  0  0  0  0  0  0  0  0  0  0
    7.0211   47.6446   29.8416 C   0  0  0  0  0  0  0  0  0  0  0  0
    6.1289   48.5334   29.2329 O   0  0  0  0  0  0  0  0  0  0  0  0
    5.8895   48.6180   27.8211 C   0  0  1  0  0  0  0  0  0  0  0  0
    7.1294   49.0839   27.0487 C   0  0  0  0  0  0  0  0  0  0  0  0
    5.3212   47.3137   27.2686 C   0  0  0  0  0  0  0  0  0  0  0  0
    6.1430   46.1570   27.2360 C   0  0  0  0  0  0  0  0  0  0  0  0
    3.9546   47.2029   26.8409 C   0  0  0  0  0  0  0  0  0  0  0  0
    5.5840   44.9517   26.8341 C   0  0  0  0  0  0  0  0  0  0  0  0
    3.4372   45.9460   26.4564 C   0  0  0  0  0  0  0  0  0  0  0  0
    3.0885   48.3435   26.7720 N   0  0  0  0  0  0  0  0  0  0  0  0
    6.1887   43.7127   26.7447 O   0  0  0  0  0  0  0  0  0  0  0  0
    4.2871   44.8492   26.4664 C   0  0  0  0  0  0  0  0  0  0  0  0
    1.7908   48.2372   27.2159 O   0  0  0  0  0  0  0  0  0  0  0  0
    3.4030   49.3181   26.0583 O   0  0  0  0  0  0  0  0  0  0  0  0
    5.2056   42.7726   26.2906 C   0  0  0  0  0  0  0  0  0  0  0  0
    4.0058   43.5405   26.1245 O   0  0  0  0  0  0  0  0  0  0  0  0
    8.8112   40.1834   34.2132 O   0  0  0  0  0  0  0  0  0  0  0  0
   11.2397   40.7938   33.3702 O   0  0  0  0  0  0  0  0  0  0  0  0
   10.9144   40.6912   31.9983 C   0  0  0  0  0  0  0  0  0  0  0  0
   11.5269   39.3911   31.4385 C   0  0  0  0  0  0  0  0  0  0  0  0
   12.7520   39.0911   32.0835 O   0  0  0  0  0  0  0  0  0  0  0  0
   10.6113   38.1932   31.6451 C   0  0  0  0  0  0  0  0  0  0  0  0
   12.9413   37.6838   32.0297 C   0  0  0  0  0  0  0  0  0  0  0  0
    9.6064   38.0877   30.6599 O   0  0  0  0  0  0  0  0  0  0  0  0
   11.5822   37.0197   31.6876 C   0  0  0  0  0  0  0  0  0  0  0  0
   13.4840   37.2104   33.3254 N   0  0  0  0  0  0  0  0  0  0  0  0
   11.6179   36.3072   30.4690 O   0  0  0  0  0  0  0  0  0  0  0  0
   14.4797   36.3310   33.5738 C   0  0  0  0  0  0  0  0  0  0  0  0
   13.1136   37.6269   34.5702 C   0  0  0  0  0  0  0  0  0  0  0  0
   15.2074   35.6152   32.6747 N   0  0  0  0  0  0  0  0  0  0  0  0
   14.6756   36.2298   34.9190 C   0  0  0  0  0  0  0  0  0  0  0  0
   13.8217   37.0446   35.5793 N   0  0  0  0  0  0  0  0  0  0  0  0
   16.1643   34.7603   33.1551 C   0  0  0  0  0  0  0  0  0  0  0  0
   15.6528   35.3503   35.4136 C   0  0  0  0  0  0  0  0  0  0  0  0
   16.3798   34.6316   34.5046 N   0  0  0  0  0  0  0  0  0  0  0  0
   15.9004   35.1931   36.8094 N   0  0  0  0  0  0  0  0  0  0  0  0
    9.0097   45.4350   33.6663 H   0  0  0  0  0  0  0  0  0  0  0  0
   11.1132   46.1992   34.4877 H   0  0  0  0  0  0  0  0  0  0  0  0
   11.9347   45.6933   33.0920 H   0  0  0  0  0  0  0  0  0  0  0  0
    9.3510   43.8343   31.4755 H   0  0  0  0  0  0  0  0  0  0  0  0
   10.7303   44.8927   31.1667 H   0  0  0  0  0  0  0  0  0  0  0  0
    7.0095   44.7165   31.5840 H   0  0  0  0  0  0  0  0  0  0  0  0
   10.3466   47.1947   30.4228 H   0  0  0  0  0  0  0  0  0  0  0  0
    5.4613   46.3097   30.5030 H   0  0  0  0  0  0  0  0  0  0  0  0
    8.7942   48.7849   29.3676 H   0  0  0  0  0  0  0  0  0  0  0  0
    5.1502   49.4315   27.7055 H   0  0  0  0  0  0  0  0  0  0  0  0
    6.8659   49.2538   25.9830 H   0  0  0  0  0  0  0  0  0  0  0  0
    7.9473   48.3369   27.0920 H   0  0  0  0  0  0  0  0  0  0  0  0
    7.4988   50.0407   27.4747 H   0  0  0  0  0  0  0  0  0  0  0  0
    7.1816   46.1828   27.5350 H   0  0  0  0  0  0  0  0  0  0  0  0
    2.4090   45.8350   26.1365 H   0  0  0  0  0  0  0  0  0  0  0  0
    5.5156   42.3313   25.3202 H   0  0  0  0  0  0  0  0  0  0  0  0
    5.0511   41.9803   27.0528 H   0  0  0  0  0  0  0  0  0  0  0  0
    9.8235   40.7202   31.7651 H   0  0  0  0  0  0  0  0  0  0  0  0
   11.3779   41.5548   31.4750 H   0  0  0  0  0  0  0  0  0  0  0  0
   11.7311   39.5363   30.3531 H   0  0  0  0  0  0  0  0  0  0  0  0
   10.1202   38.2696   32.6409 H   0  0  0  0  0  0  0  0  0  0  0  0
   13.6850   37.4638   31.2321 H   0  0  0  0  0  0  0  0  0  0  0  0
   10.0250   38.1793   29.7654 H   0  0  0  0  0  0  0  0  0  0  0  0
   11.2757   36.3135   32.4907 H   0  0  0  0  0  0  0  0  0  0  0  0
   11.9838   36.9111   29.7708 H   0  0  0  0  0  0  0  0  0  0  0  0
   12.3307   38.3536   34.7457 H   0  0  0  0  0  0  0  0  0  0  0  0
   16.7566   34.1787   32.4623 H   0  0  0  0  0  0  0  0  0  0  0  0
   16.6353   34.5301   37.1419 H   0  0  0  0  0  0  0  0  0  0  0  0
   15.3535   35.7356   37.5144 H   0  0  0  0  0  0  0  0  0  0  0  0
  1  2  2  0
  1  3  1  0
  3  4  1  0
  4  5  1  0
  6  1  1  0
  7  6  1  0
  6  8  1  0
  8  9  1  0
  9 10  2  0
 11  9  1  0
 10 12  1  0
 13 11  2  0
 12 14  2  0
 14 13  1  0
 14 15  1  0
 15 16  1  0
 16 17  1  0
 16 18  1  0
 18 19  2  0
 20 18  1  0
 19 21  1  0
 22 20  2  0
 20 23  1  0
 21 24  1  0
 21 25  2  0
 25 22  1  0
 23 26  1  0
 23 27  2  0
 24 28  1  0
 25 29  1  0
 28 29  1  0
  4 30  2  0
  4 31  1  0
 32 31  1  0
 32 33  1  0
 33 34  1  0
 33 35  1  0
 34 36  1  0
 35 37  1  0
 35 38  1  0
 38 36  1  0
 36 39  1  0
 38 40  1  0
 41 39  1  0
 42 39  1  0
 43 41  2  0
 41 44  1  0
 45 42  2  0
 46 43  1  0
 44 47  2  0
 44 45  1  0
 48 46  2  0
 48 47  1  0
 47 49  1  0
  6 50  1  1
  7 51  1  0
  7 52  1  0
  8 53  1  0
  8 54  1  0
 10 55  1  0
 11 56  1  0
 12 57  1  0
 13 58  1  0
 16 59  1  1
 17 60  1  0
 17 61  1  0
 17 62  1  0
 19 63  1  0
 22 64  1  0
 28 65  1  0
 28 66  1  0
 32 67  1  0
 32 68  1  0
 33 69  1  0
 35 70  1  0
 36 71  1  0
 37 72  1  0
 38 73  1  0
 40 74  1  0
 42 75  1  0
 46 76  1  0
 49 77  1  0
 49 78  1  0
M  CHG  3   5  -1  23   1  26  -1
M  END
>  <EmbedRMS>  (136) 
0.0818742897395

$$$$

     RDKit          3D

 78 83  0  0  0  0  0  0  0  0999 V2000
   10.2804   43.7664   33.8250 C   0  0  0  0  0  0  0  0  0  0  0  0
   11.4111   43.5918   34.3667 O   0  0  0  0  0  0  0  0  0  0  0  0
    9.3618   42.7250   33.7345 O   0  0  0  0  0  0  0  0  0  0  0  0
    9.8898   41.2267   34.2940 P   0  0  0  0  0  0  0  0  0  0  0  0
   10.3735   41.4566   35.8832 O   0  0  0  0  0  0  0  0  0  0  0  0
    9.9460   45.0736   33.2112 C   0  0  1  0  0  0  0  0  0  0  0  0
   11.0267   46.0292   33.4709 N   0  0  0  0  0  0  0  0  0  0  0  0
    9.7540   44.8542   31.6950 C   0  0  0  0  0  0  0  0  0  0  0  0
    8.7958   45.8413   31.0850 C   0  0  0  0  0  0  0  0  0  0  0  0
    7.4092   45.6002   31.1011 C   0  0  0  0  0  0  0  0  0  0  0  0
    9.2824   46.9877   30.4397 C   0  0  0  0  0  0  0  0  0  0  0  0
    6.5257   46.4985   30.4859 C   0  0  0  0  0  0  0  0  0  0  0  0
    8.3997   47.8867   29.8308 C   0  0  0  0  0  0  0  0  0  0  0  0
    7.0179   47.6557   29.8464 C   0  0  0  0  0  0  0  0  0  0  0  0
    6.1863   48.5913   29.2081 O   0  0  0  0  0  0  0  0  0  0  0  0
    4.7563   48.5631   29.1713 C   0  0  1  0  0  0  0  0  0  0  0  0
    4.2089   49.0355   30.5274 C   0  0  0  0  0  0  0  0  0  0  0  0
    4.2913   49.3843   27.9692 C   0  0  0  0  0  0  0  0  0  0  0  0
    3.4119   50.4930   28.1225 C   0  0  0  0  0  0  0  0  0  0  0  0
    4.7766   49.0688   26.6507 C   0  0  0  0  0  0  0  0  0  0  0  0
    3.0709   51.2362   27.0005 C   0  0  0  0  0  0  0  0  0  0  0  0
    4.4039   49.8748   25.5515 C   0  0  0  0  0  0  0  0  0  0  0  0
    5.6600   47.9595   26.4095 N   0  0  0  0  0  0  0  0  0  0  0  0
    2.2455   52.3418   26.9230 O   0  0  0  0  0  0  0  0  0  0  0  0
    3.5477   50.9425   25.7712 C   0  0  0  0  0  0  0  0  0  0  0  0
    6.6359   48.0611   25.4449 O   0  0  0  0  0  0  0  0  0  0  0  0
    5.4288   46.8413   26.9125 O   0  0  0  0  0  0  0  0  0  0  0  0
    2.2029   52.7674   25.5543 C   0  0  0  0  0  0  0  0  0  0  0  0
    3.0486   51.8462   24.8528 O   0  0  0  0  0  0  0  0  0  0  0  0
    8.8122   40.1844   34.2133 O   0  0  0  0  0  0  0  0  0  0  0  0
   11.2402   40.7944   33.3689 O   0  0  0  0  0  0  0  0  0  0  0  0
   10.9142   40.6898   31.9971 C   0  0  0  0  0  0  0  0  0  0  0  0
   11.5260   39.3884   31.4376 C   0  0  0  0  0  0  0  0  0  0  0  0
   12.7504   39.0888   32.0816 O   0  0  0  0  0  0  0  0  0  0  0  0
   10.6114   38.1909   31.6460 C   0  0  0  0  0  0  0  0  0  0  0  0
   12.9357   37.6812   32.0303 C   0  0  0  0  0  0  0  0  0  0  0  0
    9.6145   38.0858   30.6534 O   0  0  0  0  0  0  0  0  0  0  0  0
   11.5769   37.0148   31.7012 C   0  0  0  0  0  0  0  0  0  0  0  0
   13.4849   37.2112   33.3247 N   0  0  0  0  0  0  0  0  0  0  0  0
   11.6193   36.3261   30.4724 O   0  0  0  0  0  0  0  0  0  0  0  0
   14.4802   36.3313   33.5730 C   0  0  0  0  0  0  0  0  0  0  0  0
   13.1141   37.6268   34.5698 C   0  0  0  0  0  0  0  0  0  0  0  0
   15.2075   35.6151   32.6740 N   0  0  0  0  0  0  0  0  0  0  0  0
   14.6761   36.2300   34.9184 C   0  0  0  0  0  0  0  0  0  0  0  0
   13.8220   37.0445   35.5789 N   0  0  0  0  0  0  0  0  0  0  0  0
   16.1642   34.7600   33.1547 C   0  0  0  0  0  0  0  0  0  0  0  0
   15.6529   35.3503   35.4131 C   0  0  0  0  0  0  0  0  0  0  0  0
   16.3798   34.6314   34.5042 N   0  0  0  0  0  0  0  0  0  0  0  0
   15.9004   35.1930   36.8090 N   0  0  0  0  0  0  0  0  0  0  0  0
    8.9996   45.4382   33.6723 H   0  0  0  0  0  0  0  0  0  0  0  0
   11.0503   46.2277   34.4983 H   0  0  0  0  0  0  0  0  0  0  0  0
   10.7765   46.9369   33.0160 H   0  0  0  0  0  0  0  0  0  0  0  0
    9.3645   43.8355   31.4711 H   0  0  0  0  0  0  0  0  0  0  0  0
   10.7412   44.9079   31.1836 H   0  0  0  0  0  0  0  0  0  0  0  0
    7.0154   44.7150   31.5853 H   0  0  0  0  0  0  0  0  0  0  0  0
   10.3463   47.1872   30.4048 H   0  0  0  0  0  0  0  0  0  0  0  0
    5.4694   46.2764   30.5175 H   0  0  0  0  0  0  0  0  0  0  0  0
    8.7924   48.7673   29.3382 H   0  0  0  0  0  0  0  0  0  0  0  0
    4.3918   47.5280   29.0120 H   0  0  0  0  0  0  0  0  0  0  0  0
    3.1000   48.9727   30.5415 H   0  0  0  0  0  0  0  0  0  0  0  0
    4.5894   48.3889   31.3444 H   0  0  0  0  0  0  0  0  0  0  0  0
    4.5353   50.0763   30.7380 H   0  0  0  0  0  0  0  0  0  0  0  0
    3.0025   50.7921   29.0758 H   0  0  0  0  0  0  0  0  0  0  0  0
    4.7593   49.6635   24.5512 H   0  0  0  0  0  0  0  0  0  0  0  0
    2.6000   53.7999   25.4605 H   0  0  0  0  0  0  0  0  0  0  0  0
    1.1648   52.7071   25.1654 H   0  0  0  0  0  0  0  0  0  0  0  0
    9.8232   40.7190   31.7645 H   0  0  0  0  0  0  0  0  0  0  0  0
   11.3777   41.5525   31.4724 H   0  0  0  0  0  0  0  0  0  0  0  0
   11.7283   39.5311   30.3515 H   0  0  0  0  0  0  0  0  0  0  0  0
   10.1127   38.2733   32.6377 H   0  0  0  0  0  0  0  0  0  0  0  0
   13.6692   37.4566   31.2242 H   0  0  0  0  0  0  0  0  0  0  0  0
   10.0533   38.1118   29.7636 H   0  0  0  0  0  0  0  0  0  0  0  0
   11.2607   36.3148   32.5102 H   0  0  0  0  0  0  0  0  0  0  0  0
   12.1496   35.5023   30.6324 H   0  0  0  0  0  0  0  0  0  0  0  0
   12.3301   38.3524   34.7455 H   0  0  0  0  0  0  0  0  0  0  0  0
   16.7562   34.1780   32.4619 H   0  0  0  0  0  0  0  0  0  0  0  0
   16.6351   34.5298   37.1415 H   0  0  0  0  0  0  0  0  0  0  0  0
   15.3536   35.7357   37.5139 H   0  0  0  0  0  0  0  0  0  0  0  0
  1  2  2  0
  1  3  1  0
  3  4  1  0
  4  5  1  0
  6  1  1  0
  7  6  1  0
  6  8  1  0
  8  9  1  0
  9 10  2  0
 11  9  1  0
 10 12  1  0
 13 11  2  0
 12 14  2  0
 14 13  1  0
 14 15  1  0
 15 16  1  0
 16 17  1  0
 16 18  1  0
 18 19  2  0
 20 18  1  0
 19 21  1  0
 22 20  2  0
 20 23  1  0
 21 24  1  0
 21 25  2  0
 25 22  1  0
 23 26  1  0
 23 27  2  0
 24 28  1  0
 25 29  1  0
 28 29  1  0
  4 30  2  0
  4 31  1  0
 32 31  1  0
 32 33  1  0
 33 34  1  0
 33 35  1  0
 34 36  1  0
 35 37  1  0
 35 38  1  0
 38 36  1  0
 36 39  1  0
 38 40  1  0
 41 39  1  0
 42 39  1  0
 43 41  2  0
 41 44  1  0
 45 42  2  0
 46 43  1  0
 44 47  2  0
 44 45  1  0
 48 46  2  0
 48 47  1  0
 47 49  1  0
  6 50  1  1
  7 51  1  0
  7 52  1  0
  8 53  1  0
  8 54  1  0
 10 55  1  0
 11 56  1  0
 12 57  1  0
 13 58  1  0
 16 59  1  6
 17 60  1  0
 17 61  1  0
 17 62  1  0
 19 63  1  0
 22 64  1  0
 28 65  1  0
 28 66  1  0
 32 67  1  0
 32 68  1  0
 33 69  1  0
 35 70  1  0
 36 71  1  0
 37 72  1  0
 38 73  1  0
 40 74  1  0
 42 75  1  0
 46 76  1  0
 49 77  1  0
 49 78  1  0
M  CHG  3   5  -1  23   1  26  -1
M  END
>  <EmbedRMS>  (137) 
0.0814209663712

$$$$

     RDKit          3D

 78 83  0  0  0  0  0  0  0  0999 V2000
   10.2838   43.7627   33.8277 C   0  0  0  0  0  0  0  0  0  0  0  0
   11.4103   43.5863   34.3767 O   0  0  0  0  0  0  0  0  0  0  0  0
    9.3630   42.7236   33.7355 O   0  0  0  0  0  0  0  0  0  0  0  0
    9.8894   41.2249   34.2944 P   0  0  0  0  0  0  0  0  0  0  0  0
   10.3728   41.4546   35.8838 O   0  0  0  0  0  0  0  0  0  0  0  0
    9.9548   45.0700   33.2065 C   0  0  1  0  0  0  0  0  0  0  0  0
   11.0198   46.0481   33.4569 N   0  0  0  0  0  0  0  0  0  0  0  0
    9.7501   44.8508   31.6925 C   0  0  0  0  0  0  0  0  0  0  0  0
    8.7942   45.8417   31.0870 C   0  0  0  0  0  0  0  0  0  0  0  0
    7.4074   45.6008   31.0996 C   0  0  0  0  0  0  0  0  0  0  0  0
    9.2832   46.9889   30.4446 C   0  0  0  0  0  0  0  0  0  0  0  0
    6.5281   46.5017   30.4837 C   0  0  0  0  0  0  0  0  0  0  0  0
    8.4036   47.8894   29.8321 C   0  0  0  0  0  0  0  0  0  0  0  0
    7.0147   47.6525   29.8486 C   0  0  0  0  0  0  0  0  0  0  0  0
    6.0885   48.5257   29.2551 O   0  0  0  0  0  0  0  0  0  0  0  0
    6.4085   49.7650   28.6155 C   0  0  1  0  0  0  0  0  0  0  0  0
    5.1579   50.2933   27.9170 C   0  0  0  0  0  0  0  0  0  0  0  0
    6.9013   50.7911   29.6228 C   0  0  0  0  0  0  0  0  0  0  0  0
    6.3055   50.8280   30.9082 C   0  0  0  0  0  0  0  0  0  0  0  0
    7.8760   51.7830   29.2760 C   0  0  0  0  0  0  0  0  0  0  0  0
    6.7060   51.8166   31.7975 C   0  0  0  0  0  0  0  0  0  0  0  0
    8.2337   52.7744   30.2169 C   0  0  0  0  0  0  0  0  0  0  0  0
    8.4888   51.8121   27.9802 N   0  0  0  0  0  0  0  0  0  0  0  0
    6.2711   52.0364   33.0903 O   0  0  0  0  0  0  0  0  0  0  0  0
    7.6290   52.7488   31.4665 C   0  0  0  0  0  0  0  0  0  0  0  0
    9.2536   50.7490   27.5605 O   0  0  0  0  0  0  0  0  0  0  0  0
    8.5635   52.8909   27.3568 O   0  0  0  0  0  0  0  0  0  0  0  0
    6.9694   53.1791   33.6036 C   0  0  0  0  0  0  0  0  0  0  0  0
    7.8256   53.6034   32.5342 O   0  0  0  0  0  0  0  0  0  0  0  0
    8.8113   40.1834   34.2130 O   0  0  0  0  0  0  0  0  0  0  0  0
   11.2399   40.7932   33.3693 O   0  0  0  0  0  0  0  0  0  0  0  0
   10.9143   40.6896   31.9973 C   0  0  0  0  0  0  0  0  0  0  0  0
   11.5261   39.3884   31.4375 C   0  0  0  0  0  0  0  0  0  0  0  0
   12.7504   39.0887   32.0815 O   0  0  0  0  0  0  0  0  0  0  0  0
   10.6115   38.1909   31.6460 C   0  0  0  0  0  0  0  0  0  0  0  0
   12.9357   37.6812   32.0303 C   0  0  0  0  0  0  0  0  0  0  0  0
    9.6146   38.0858   30.6533 O   0  0  0  0  0  0  0  0  0  0  0  0
   11.5769   37.0148   31.7012 C   0  0  0  0  0  0  0  0  0  0  0  0
   13.4849   37.2112   33.3247 N   0  0  0  0  0  0  0  0  0  0  0  0
   11.6193   36.3260   30.4724 O   0  0  0  0  0  0  0  0  0  0  0  0
   14.4802   36.3313   33.5730 C   0  0  0  0  0  0  0  0  0  0  0  0
   13.1141   37.6268   34.5697 C   0  0  0  0  0  0  0  0  0  0  0  0
   15.2075   35.6151   32.6741 N   0  0  0  0  0  0  0  0  0  0  0  0
   14.6761   36.2300   34.9184 C   0  0  0  0  0  0  0  0  0  0  0  0
   13.8220   37.0445   35.5789 N   0  0  0  0  0  0  0  0  0  0  0  0
   16.1642   34.7600   33.1547 C   0  0  0  0  0  0  0  0  0  0  0  0
   15.6529   35.3503   35.4131 C   0  0  0  0  0  0  0  0  0  0  0  0
   16.3797   34.6314   34.5042 N   0  0  0  0  0  0  0  0  0  0  0  0
   15.9004   35.1930   36.8090 N   0  0  0  0  0  0  0  0  0  0  0  0
    9.0098   45.4350   33.6671 H   0  0  0  0  0  0  0  0  0  0  0  0
   11.9348   45.6933   33.0925 H   0  0  0  0  0  0  0  0  0  0  0  0
   11.1134   46.1994   34.4881 H   0  0  0  0  0  0  0  0  0  0  0  0
    9.3508   43.8343   31.4764 H   0  0  0  0  0  0  0  0  0  0  0  0
   10.7304   44.8922   31.1676 H   0  0  0  0  0  0  0  0  0  0  0  0
    7.0108   44.7157   31.5816 H   0  0  0  0  0  0  0  0  0  0  0  0
   10.3475   47.1878   30.4159 H   0  0  0  0  0  0  0  0  0  0  0  0
    5.4635   46.3054   30.5023 H   0  0  0  0  0  0  0  0  0  0  0  0
    8.8160   48.7625   29.3494 H   0  0  0  0  0  0  0  0  0  0  0  0
    7.1612   49.5648   27.8285 H   0  0  0  0  0  0  0  0  0  0  0  0
    4.3460   50.4731   28.6541 H   0  0  0  0  0  0  0  0  0  0  0  0
    4.8023   49.5512   27.1711 H   0  0  0  0  0  0  0  0  0  0  0  0
    5.3856   51.2434   27.3875 H   0  0  0  0  0  0  0  0  0  0  0  0
    5.5448   50.1163   31.2025 H   0  0  0  0  0  0  0  0  0  0  0  0
    8.9666   53.5351   29.9805 H   0  0  0  0  0  0  0  0  0  0  0  0
    7.5752   52.8932   34.4890 H   0  0  0  0  0  0  0  0  0  0  0  0
    6.2503   53.9847   33.8614 H   0  0  0  0  0  0  0  0  0  0  0  0
    9.8234   40.7192   31.7644 H   0  0  0  0  0  0  0  0  0  0  0  0
   11.3782   41.5525   31.4733 H   0  0  0  0  0  0  0  0  0  0  0  0
   11.7283   39.5312   30.3515 H   0  0  0  0  0  0  0  0  0  0  0  0
   10.1127   38.2733   32.6376 H   0  0  0  0  0  0  0  0  0  0  0  0
   13.6693   37.4565   31.2242 H   0  0  0  0  0  0  0  0  0  0  0  0
   10.0533   38.1118   29.7635 H   0  0  0  0  0  0  0  0  0  0  0  0
   11.2607   36.3148   32.5101 H   0  0  0  0  0  0  0  0  0  0  0  0
   12.1496   35.5022   30.6323 H   0  0  0  0  0  0  0  0  0  0  0  0
   12.3301   38.3524   34.7455 H   0  0  0  0  0  0  0  0  0  0  0  0
   16.7563   34.1781   32.4619 H   0  0  0  0  0  0  0  0  0  0  0  0
   16.6350   34.5298   37.1416 H   0  0  0  0  0  0  0  0  0  0  0  0
   15.3535   35.7357   37.5139 H   0  0  0  0  0  0  0  0  0  0  0  0
  1  2  2  0
  1  3  1  0
  3  4  1  0
  4  5  1  0
  6  1  1  0
  7  6  1  0
  6  8  1  0
  8  9  1  0
  9 10  2  0
 11  9  1  0
 10 12  1  0
 13 11  2  0
 12 14  2  0
 14 13  1  0
 14 15  1  0
 15 16  1  0
 16 17  1  0
 16 18  1  0
 18 19  2  0
 20 18  1  0
 19 21  1  0
 22 20  2  0
 20 23  1  0
 21 24  1  0
 21 25  2  0
 25 22  1  0
 23 26  1  0
 23 27  2  0
 24 28  1  0
 25 29  1  0
 28 29  1  0
  4 30  2  0
  4 31  1  0
 32 31  1  0
 32 33  1  0
 33 34  1  0
 33 35  1  0
 34 36  1  0
 35 37  1  0
 35 38  1  0
 38 36  1  0
 36 39  1  0
 38 40  1  0
 41 39  1  0
 42 39  1  0
 43 41  2  0
 41 44  1  0
 45 42  2  0
 46 43  1  0
 44 47  2  0
 44 45  1  0
 48 46  2  0
 48 47  1  0
 47 49  1  0
  6 50  1  1
  7 51  1  0
  7 52  1  0
  8 53  1  0
  8 54  1  0
 10 55  1  0
 11 56  1  0
 12 57  1  0
 13 58  1  0
 16 59  1  6
 17 60  1  0
 17 61  1  0
 17 62  1  0
 19 63  1  0
 22 64  1  0
 28 65  1  0
 28 66  1  0
 32 67  1  0
 32 68  1  0
 33 69  1  0
 35 70  1  0
 36 71  1  0
 37 72  1  0
 38 73  1  0
 40 74  1  0
 42 75  1  0
 46 76  1  0
 49 77  1  0
 49 78  1  0
M  CHG  3   5  -1  23   1  26  -1
M  END
>  <EmbedRMS>  (138) 
0.0825287459393

$$$$

     RDKit          3D

 78 83  0  0  0  0  0  0  0  0999 V2000
   10.2839   43.7626   33.8276 C   0  0  0  0  0  0  0  0  0  0  0  0
   11.4104   43.5864   34.3768 O   0  0  0  0  0  0  0  0  0  0  0  0
    9.3634   42.7234   33.7352 O   0  0  0  0  0  0  0  0  0  0  0  0
    9.8899   41.2247   34.2940 P   0  0  0  0  0  0  0  0  0  0  0  0
   10.3724   41.4544   35.8837 O   0  0  0  0  0  0  0  0  0  0  0  0
    9.9547   45.0699   33.2065 C   0  0  1  0  0  0  0  0  0  0  0  0
   11.0197   46.0481   33.4569 N   0  0  0  0  0  0  0  0  0  0  0  0
    9.7500   44.8508   31.6925 C   0  0  0  0  0  0  0  0  0  0  0  0
    8.7942   45.8418   31.0872 C   0  0  0  0  0  0  0  0  0  0  0  0
    7.4074   45.6007   31.0994 C   0  0  0  0  0  0  0  0  0  0  0  0
    9.2833   46.9887   30.4444 C   0  0  0  0  0  0  0  0  0  0  0  0
    6.5280   46.5016   30.4834 C   0  0  0  0  0  0  0  0  0  0  0  0
    8.4040   47.8891   29.8316 C   0  0  0  0  0  0  0  0  0  0  0  0
    7.0145   47.6531   29.8495 C   0  0  0  0  0  0  0  0  0  0  0  0
    6.0881   48.5271   29.2571 O   0  0  0  0  0  0  0  0  0  0  0  0
    6.4057   49.7869   28.6589 C   0  0  1  0  0  0  0  0  0  0  0  0
    5.1645   50.3172   27.9433 C   0  0  0  0  0  0  0  0  0  0  0  0
    6.8608   50.7794   29.7155 C   0  0  0  0  0  0  0  0  0  0  0  0
    6.1381   50.8518   30.9317 C   0  0  0  0  0  0  0  0  0  0  0  0
    8.0262   51.5968   29.5424 C   0  0  0  0  0  0  0  0  0  0  0  0
    6.6079   51.6901   31.9338 C   0  0  0  0  0  0  0  0  0  0  0  0
    8.4655   52.4202   30.6046 C   0  0  0  0  0  0  0  0  0  0  0  0
    8.7550   51.6158   28.3051 N   0  0  0  0  0  0  0  0  0  0  0  0
    6.0779   51.9068   33.1912 O   0  0  0  0  0  0  0  0  0  0  0  0
    7.7252   52.4371   31.7792 C   0  0  0  0  0  0  0  0  0  0  0  0
    8.0863   51.7680   27.1126 O   0  0  0  0  0  0  0  0  0  0  0  0
    9.9989   51.7197   28.3156 O   0  0  0  0  0  0  0  0  0  0  0  0
    6.9176   52.8521   33.8681 C   0  0  0  0  0  0  0  0  0  0  0  0
    7.9570   53.1648   32.9306 O   0  0  0  0  0  0  0  0  0  0  0  0
    8.8119   40.1831   34.2121 O   0  0  0  0  0  0  0  0  0  0  0  0
   11.2416   40.7932   33.3699 O   0  0  0  0  0  0  0  0  0  0  0  0
   10.9186   40.6909   31.9972 C   0  0  0  0  0  0  0  0  0  0  0  0
   11.5172   39.3814   31.4407 C   0  0  0  0  0  0  0  0  0  0  0  0
   12.7493   39.0855   32.0727 O   0  0  0  0  0  0  0  0  0  0  0  0
   10.6023   38.1907   31.6665 C   0  0  0  0  0  0  0  0  0  0  0  0
   12.9319   37.6781   32.0281 C   0  0  0  0  0  0  0  0  0  0  0  0
    9.6392   38.0797   30.6452 O   0  0  0  0  0  0  0  0  0  0  0  0
   11.5715   37.0165   31.7056 C   0  0  0  0  0  0  0  0  0  0  0  0
   13.4847   37.2121   33.3235 N   0  0  0  0  0  0  0  0  0  0  0  0
   11.6187   36.3383   30.4694 O   0  0  0  0  0  0  0  0  0  0  0  0
   14.4801   36.3321   33.5724 C   0  0  0  0  0  0  0  0  0  0  0  0
   13.1137   37.6275   34.5687 C   0  0  0  0  0  0  0  0  0  0  0  0
   15.2073   35.6153   32.6738 N   0  0  0  0  0  0  0  0  0  0  0  0
   14.6759   36.2308   34.9179 C   0  0  0  0  0  0  0  0  0  0  0  0
   13.8216   37.0452   35.5781 N   0  0  0  0  0  0  0  0  0  0  0  0
   16.1640   34.7602   33.1546 C   0  0  0  0  0  0  0  0  0  0  0  0
   15.6526   35.3508   35.4129 C   0  0  0  0  0  0  0  0  0  0  0  0
   16.3794   34.6317   34.5041 N   0  0  0  0  0  0  0  0  0  0  0  0
   15.8999   35.1935   36.8088 N   0  0  0  0  0  0  0  0  0  0  0  0
    9.0098   45.4348   33.6673 H   0  0  0  0  0  0  0  0  0  0  0  0
   11.9347   45.6934   33.0924 H   0  0  0  0  0  0  0  0  0  0  0  0
   11.1133   46.1994   34.4881 H   0  0  0  0  0  0  0  0  0  0  0  0
    9.3506   43.8343   31.4764 H   0  0  0  0  0  0  0  0  0  0  0  0
   10.7302   44.8921   31.1676 H   0  0  0  0  0  0  0  0  0  0  0  0
    7.0107   44.7155   31.5812 H   0  0  0  0  0  0  0  0  0  0  0  0
   10.3478   47.1868   30.4144 H   0  0  0  0  0  0  0  0  0  0  0  0
    5.4635   46.3053   30.5021 H   0  0  0  0  0  0  0  0  0  0  0  0
    8.8183   48.7595   29.3439 H   0  0  0  0  0  0  0  0  0  0  0  0
    7.1872   49.6162   27.8903 H   0  0  0  0  0  0  0  0  0  0  0  0
    5.3795   51.2997   27.4718 H   0  0  0  0  0  0  0  0  0  0  0  0
    4.3213   50.4356   28.6570 H   0  0  0  0  0  0  0  0  0  0  0  0
    4.8573   49.6047   27.1487 H   0  0  0  0  0  0  0  0  0  0  0  0
    5.2506   50.2545   31.0991 H   0  0  0  0  0  0  0  0  0  0  0  0
    9.3438   53.0453   30.5072 H   0  0  0  0  0  0  0  0  0  0  0  0
    7.3511   52.3951   34.7823 H   0  0  0  0  0  0  0  0  0  0  0  0
    6.3409   53.7667   34.1199 H   0  0  0  0  0  0  0  0  0  0  0  0
    9.8300   40.7410   31.7611 H   0  0  0  0  0  0  0  0  0  0  0  0
   11.3971   41.5459   31.4735 H   0  0  0  0  0  0  0  0  0  0  0  0
   11.6974   39.5067   30.3480 H   0  0  0  0  0  0  0  0  0  0  0  0
   10.1077   38.2646   32.6645 H   0  0  0  0  0  0  0  0  0  0  0  0
   13.6622   37.4467   31.2208 H   0  0  0  0  0  0  0  0  0  0  0  0
    8.8975   38.6943   30.8831 H   0  0  0  0  0  0  0  0  0  0  0  0
   11.2806   36.3073   32.5170 H   0  0  0  0  0  0  0  0  0  0  0  0
   10.8493   35.7110   30.4585 H   0  0  0  0  0  0  0  0  0  0  0  0
   12.3290   38.3524   34.7444 H   0  0  0  0  0  0  0  0  0  0  0  0
   16.7559   34.1780   32.4619 H   0  0  0  0  0  0  0  0  0  0  0  0
   15.3531   35.7363   37.5137 H   0  0  0  0  0  0  0  0  0  0  0  0
   16.6344   34.5301   37.1414 H   0  0  0  0  0  0  0  0  0  0  0  0
  1  2  2  0
  1  3  1  0
  3  4  1  0
  4  5  1  0
  6  1  1  0
  7  6  1  0
  6  8  1  0
  8  9  1  0
  9 10  2  0
 11  9  1  0
 10 12  1  0
 13 11  2  0
 12 14  2  0
 14 13  1  0
 14 15  1  0
 15 16  1  0
 16 17  1  0
 16 18  1  0
 18 19  2  0
 20 18  1  0
 19 21  1  0
 22 20  2  0
 20 23  1  0
 21 24  1  0
 21 25  2  0
 25 22  1  0
 23 26  1  0
 23 27  2  0
 24 28  1  0
 25 29  1  0
 28 29  1  0
  4 30  2  0
  4 31  1  0
 32 31  1  0
 32 33  1  0
 33 34  1  0
 33 35  1  0
 34 36  1  0
 35 37  1  0
 35 38  1  0
 38 36  1  0
 36 39  1  0
 38 40  1  0
 41 39  1  0
 42 39  1  0
 43 41  2  0
 41 44  1  0
 45 42  2  0
 46 43  1  0
 44 47  2  0
 44 45  1  0
 48 46  2  0
 48 47  1  0
 47 49  1  0
  6 50  1  1
  7 51  1  0
  7 52  1  0
  8 53  1  0
  8 54  1  0
 10 55  1  0
 11 56  1  0
 12 57  1  0
 13 58  1  0
 16 59  1  6
 17 60  1  0
 17 61  1  0
 17 62  1  0
 19 63  1  0
 22 64  1  0
 28 65  1  0
 28 66  1  0
 32 67  1  0
 32 68  1  0
 33 69  1  0
 35 70  1  0
 36 71  1  0
 37 72  1  0
 38 73  1  0
 40 74  1  0
 42 75  1  0
 46 76  1  0
 49 77  1  0
 49 78  1  0
M  CHG  3   5  -1  23   1  26  -1
M  END
>  <EmbedRMS>  (139) 
0.083832957787

$$$$

     RDKit          3D

 78 83  0  0  0  0  0  0  0  0999 V2000
   10.2804   43.7665   33.8251 C   0  0  0  0  0  0  0  0  0  0  0  0
   11.4111   43.5919   34.3667 O   0  0  0  0  0  0  0  0  0  0  0  0
    9.3618   42.7250   33.7346 O   0  0  0  0  0  0  0  0  0  0  0  0
    9.8899   41.2267   34.2940 P   0  0  0  0  0  0  0  0  0  0  0  0
   10.3735   41.4566   35.8832 O   0  0  0  0  0  0  0  0  0  0  0  0
    9.9458   45.0736   33.2113 C   0  0  1  0  0  0  0  0  0  0  0  0
   11.0266   46.0293   33.4706 N   0  0  0  0  0  0  0  0  0  0  0  0
    9.7534   44.8539   31.6952 C   0  0  0  0  0  0  0  0  0  0  0  0
    8.7954   45.8412   31.0852 C   0  0  0  0  0  0  0  0  0  0  0  0
    7.4088   45.6001   31.1001 C   0  0  0  0  0  0  0  0  0  0  0  0
    9.2828   46.9872   30.4393 C   0  0  0  0  0  0  0  0  0  0  0  0
    6.5285   46.5004   30.4841 C   0  0  0  0  0  0  0  0  0  0  0  0
    8.4024   47.8882   29.8292 C   0  0  0  0  0  0  0  0  0  0  0  0
    7.0134   47.6530   29.8505 C   0  0  0  0  0  0  0  0  0  0  0  0
    6.0839   48.5250   29.2602 O   0  0  0  0  0  0  0  0  0  0  0  0
    6.3810   49.8074   28.7062 C   0  0  1  0  0  0  0  0  0  0  0  0
    5.1720   50.3172   27.9209 C   0  0  0  0  0  0  0  0  0  0  0  0
    6.7920   50.8002   29.7855 C   0  0  0  0  0  0  0  0  0  0  0  0
    8.0414   51.4529   29.6408 C   0  0  0  0  0  0  0  0  0  0  0  0
    5.9516   51.1453   30.9002 C   0  0  0  0  0  0  0  0  0  0  0  0
    8.4122   52.4015   30.5842 C   0  0  0  0  0  0  0  0  0  0  0  0
    6.3762   52.1311   31.8184 C   0  0  0  0  0  0  0  0  0  0  0  0
    4.6668   50.5420   31.1040 N   0  0  0  0  0  0  0  0  0  0  0  0
    9.5727   53.1493   30.6399 O   0  0  0  0  0  0  0  0  0  0  0  0
    7.6144   52.7273   31.6260 C   0  0  0  0  0  0  0  0  0  0  0  0
    3.5923   51.3370   31.4293 O   0  0  0  0  0  0  0  0  0  0  0  0
    4.5717   49.3092   31.2664 O   0  0  0  0  0  0  0  0  0  0  0  0
    9.4972   53.9977   31.7937 C   0  0  0  0  0  0  0  0  0  0  0  0
    8.2301   53.6966   32.3943 O   0  0  0  0  0  0  0  0  0  0  0  0
    8.8123   40.1844   34.2133 O   0  0  0  0  0  0  0  0  0  0  0  0
   11.2402   40.7944   33.3688 O   0  0  0  0  0  0  0  0  0  0  0  0
   10.9142   40.6898   31.9970 C   0  0  0  0  0  0  0  0  0  0  0  0
   11.5260   39.3884   31.4376 C   0  0  0  0  0  0  0  0  0  0  0  0
   12.7504   39.0888   32.0816 O   0  0  0  0  0  0  0  0  0  0  0  0
   10.6114   38.1909   31.6460 C   0  0  0  0  0  0  0  0  0  0  0  0
   12.9357   37.6812   32.0303 C   0  0  0  0  0  0  0  0  0  0  0  0
    9.6145   38.0858   30.6534 O   0  0  0  0  0  0  0  0  0  0  0  0
   11.5769   37.0148   31.7012 C   0  0  0  0  0  0  0  0  0  0  0  0
   13.4849   37.2112   33.3247 N   0  0  0  0  0  0  0  0  0  0  0  0
   11.6193   36.3261   30.4724 O   0  0  0  0  0  0  0  0  0  0  0  0
   14.4802   36.3313   33.5730 C   0  0  0  0  0  0  0  0  0  0  0  0
   13.1141   37.6268   34.5698 C   0  0  0  0  0  0  0  0  0  0  0  0
   15.2075   35.6151   32.6741 N   0  0  0  0  0  0  0  0  0  0  0  0
   14.6761   36.2300   34.9184 C   0  0  0  0  0  0  0  0  0  0  0  0
   13.8220   37.0445   35.5789 N   0  0  0  0  0  0  0  0  0  0  0  0
   16.1642   34.7600   33.1547 C   0  0  0  0  0  0  0  0  0  0  0  0
   15.6529   35.3503   35.4131 C   0  0  0  0  0  0  0  0  0  0  0  0
   16.3797   34.6314   34.5042 N   0  0  0  0  0  0  0  0  0  0  0  0
   15.9004   35.1930   36.8090 N   0  0  0  0  0  0  0  0  0  0  0  0
    8.9995   45.4382   33.6725 H   0  0  0  0  0  0  0  0  0  0  0  0
   10.7763   46.9369   33.0156 H   0  0  0  0  0  0  0  0  0  0  0  0
   11.0503   46.2280   34.4980 H   0  0  0  0  0  0  0  0  0  0  0  0
    9.3633   43.8353   31.4717 H   0  0  0  0  0  0  0  0  0  0  0  0
   10.7405   44.9069   31.1836 H   0  0  0  0  0  0  0  0  0  0  0  0
    7.0130   44.7156   31.5839 H   0  0  0  0  0  0  0  0  0  0  0  0
   10.3473   47.1841   30.4032 H   0  0  0  0  0  0  0  0  0  0  0  0
    5.4641   46.3039   30.5047 H   0  0  0  0  0  0  0  0  0  0  0  0
    8.8170   48.7536   29.3354 H   0  0  0  0  0  0  0  0  0  0  0  0
    7.1970   49.6843   27.9596 H   0  0  0  0  0  0  0  0  0  0  0  0
    4.2656   50.3655   28.5574 H   0  0  0  0  0  0  0  0  0  0  0  0
    5.3808   51.3276   27.5084 H   0  0  0  0  0  0  0  0  0  0  0  0
    4.9618   49.6298   27.0741 H   0  0  0  0  0  0  0  0  0  0  0  0
    8.7030   51.2375   28.8113 H   0  0  0  0  0  0  0  0  0  0  0  0
    5.7614   52.4138   32.6633 H   0  0  0  0  0  0  0  0  0  0  0  0
   10.3213   53.7613   32.4989 H   0  0  0  0  0  0  0  0  0  0  0  0
    9.5329   55.0646   31.4888 H   0  0  0  0  0  0  0  0  0  0  0  0
    9.8232   40.7190   31.7645 H   0  0  0  0  0  0  0  0  0  0  0  0
   11.3777   41.5525   31.4723 H   0  0  0  0  0  0  0  0  0  0  0  0
   11.7283   39.5311   30.3515 H   0  0  0  0  0  0  0  0  0  0  0  0
   10.1127   38.2734   32.6376 H   0  0  0  0  0  0  0  0  0  0  0  0
   13.6692   37.4566   31.2242 H   0  0  0  0  0  0  0  0  0  0  0  0
   10.0533   38.1117   29.7636 H   0  0  0  0  0  0  0  0  0  0  0  0
   11.2607   36.3148   32.5102 H   0  0  0  0  0  0  0  0  0  0  0  0
   12.1496   35.5023   30.6324 H   0  0  0  0  0  0  0  0  0  0  0  0
   12.3301   38.3524   34.7455 H   0  0  0  0  0  0  0  0  0  0  0  0
   16.7563   34.1781   32.4619 H   0  0  0  0  0  0  0  0  0  0  0  0
   16.6351   34.5298   37.1416 H   0  0  0  0  0  0  0  0  0  0  0  0
   15.3536   35.7357   37.5139 H   0  0  0  0  0  0  0  0  0  0  0  0
  1  2  2  0
  1  3  1  0
  3  4  1  0
  4  5  1  0
  6  1  1  0
  7  6  1  0
  6  8  1  0
  8  9  1  0
  9 10  2  0
 11  9  1  0
 10 12  1  0
 13 11  2  0
 12 14  2  0
 14 13  1  0
 14 15  1  0
 15 16  1  0
 16 17  1  0
 16 18  1  0
 18 19  2  0
 20 18  1  0
 19 21  1  0
 22 20  2  0
 20 23  1  0
 21 24  1  0
 21 25  2  0
 25 22  1  0
 23 26  1  0
 23 27  2  0
 24 28  1  0
 25 29  1  0
 28 29  1  0
  4 30  2  0
  4 31  1  0
 32 31  1  0
 32 33  1  0
 33 34  1  0
 33 35  1  0
 34 36  1  0
 35 37  1  0
 35 38  1  0
 38 36  1  0
 36 39  1  0
 38 40  1  0
 41 39  1  0
 42 39  1  0
 43 41  2  0
 41 44  1  0
 45 42  2  0
 46 43  1  0
 44 47  2  0
 44 45  1  0
 48 46  2  0
 48 47  1  0
 47 49  1  0
  6 50  1  1
  7 51  1  0
  7 52  1  0
  8 53  1  0
  8 54  1  0
 10 55  1  0
 11 56  1  0
 12 57  1  0
 13 58  1  0
 16 59  1  6
 17 60  1  0
 17 61  1  0
 17 62  1  0
 19 63  1  0
 22 64  1  0
 28 65  1  0
 28 66  1  0
 32 67  1  0
 32 68  1  0
 33 69  1  0
 35 70  1  0
 36 71  1  0
 37 72  1  0
 38 73  1  0
 40 74  1  0
 42 75  1  0
 46 76  1  0
 49 77  1  0
 49 78  1  0
M  CHG  3   5  -1  23   1  26  -1
M  END
>  <EmbedRMS>  (140) 
0.0814457678354

$$$$

     RDKit          3D

 78 83  0  0  0  0  0  0  0  0999 V2000
   10.2803   43.7667   33.8250 C   0  0  0  0  0  0  0  0  0  0  0  0
   11.4110   43.5923   34.3665 O   0  0  0  0  0  0  0  0  0  0  0  0
    9.3619   42.7251   33.7346 O   0  0  0  0  0  0  0  0  0  0  0  0
    9.8900   41.2268   34.2944 P   0  0  0  0  0  0  0  0  0  0  0  0
   10.3728   41.4568   35.8838 O   0  0  0  0  0  0  0  0  0  0  0  0
    9.9455   45.0740   33.2113 C   0  0  1  0  0  0  0  0  0  0  0  0
   11.0260   46.0299   33.4706 N   0  0  0  0  0  0  0  0  0  0  0  0
    9.7532   44.8544   31.6950 C   0  0  0  0  0  0  0  0  0  0  0  0
    8.7951   45.8416   31.0849 C   0  0  0  0  0  0  0  0  0  0  0  0
    7.4071   45.5990   31.0988 C   0  0  0  0  0  0  0  0  0  0  0  0
    9.2835   46.9882   30.4379 C   0  0  0  0  0  0  0  0  0  0  0  0
    6.5261   46.4991   30.4824 C   0  0  0  0  0  0  0  0  0  0  0  0
    8.4013   47.8869   29.8274 C   0  0  0  0  0  0  0  0  0  0  0  0
    7.0198   47.6526   29.8578 C   0  0  0  0  0  0  0  0  0  0  0  0
    6.1416   48.5584   29.2556 O   0  0  0  0  0  0  0  0  0  0  0  0
    5.5901   49.6917   29.9342 C   0  0  1  0  0  0  0  0  0  0  0  0
    4.5483   49.2590   30.9760 C   0  0  0  0  0  0  0  0  0  0  0  0
    6.6882   50.5875   30.5005 C   0  0  0  0  0  0  0  0  0  0  0  0
    7.2391   50.3090   31.7790 C   0  0  0  0  0  0  0  0  0  0  0  0
    7.1939   51.7069   29.7561 C   0  0  0  0  0  0  0  0  0  0  0  0
    8.2082   51.1630   32.2870 C   0  0  0  0  0  0  0  0  0  0  0  0
    8.1650   52.5538   30.3363 C   0  0  0  0  0  0  0  0  0  0  0  0
    6.7667   51.9765   28.4112 N   0  0  0  0  0  0  0  0  0  0  0  0
    8.8686   51.0876   33.4982 O   0  0  0  0  0  0  0  0  0  0  0  0
    8.6457   52.2421   31.6002 C   0  0  0  0  0  0  0  0  0  0  0  0
    6.6741   53.2767   27.9708 O   0  0  0  0  0  0  0  0  0  0  0  0
    6.7060   51.0524   27.5742 O   0  0  0  0  0  0  0  0  0  0  0  0
    9.7784   52.1934   33.5754 C   0  0  0  0  0  0  0  0  0  0  0  0
    9.6038   52.9051   32.3426 O   0  0  0  0  0  0  0  0  0  0  0  0
    8.8127   40.1843   34.2128 O   0  0  0  0  0  0  0  0  0  0  0  0
   11.2415   40.7951   33.3705 O   0  0  0  0  0  0  0  0  0  0  0  0
   10.9178   40.6922   31.9982 C   0  0  0  0  0  0  0  0  0  0  0  0
   11.5175   39.3837   31.4423 C   0  0  0  0  0  0  0  0  0  0  0  0
   12.7507   39.0887   32.0753 O   0  0  0  0  0  0  0  0  0  0  0  0
   10.6027   38.1916   31.6659 C   0  0  0  0  0  0  0  0  0  0  0  0
   12.9384   37.6819   32.0278 C   0  0  0  0  0  0  0  0  0  0  0  0
    9.6371   38.0805   30.6470 O   0  0  0  0  0  0  0  0  0  0  0  0
   11.5780   37.0215   31.6935 C   0  0  0  0  0  0  0  0  0  0  0  0
   13.4844   37.2119   33.3242 N   0  0  0  0  0  0  0  0  0  0  0  0
   11.6095   36.3202   30.4679 O   0  0  0  0  0  0  0  0  0  0  0  0
   14.4797   36.3318   33.5730 C   0  0  0  0  0  0  0  0  0  0  0  0
   13.1136   37.6278   34.5691 C   0  0  0  0  0  0  0  0  0  0  0  0
   15.2073   35.6155   32.6742 N   0  0  0  0  0  0  0  0  0  0  0  0
   14.6754   36.2304   34.9184 C   0  0  0  0  0  0  0  0  0  0  0  0
   13.8213   37.0452   35.5785 N   0  0  0  0  0  0  0  0  0  0  0  0
   16.1640   34.7604   33.1549 C   0  0  0  0  0  0  0  0  0  0  0  0
   15.6524   35.3507   35.4132 C   0  0  0  0  0  0  0  0  0  0  0  0
   16.3794   34.6318   34.5044 N   0  0  0  0  0  0  0  0  0  0  0  0
   15.9000   35.1934   36.8091 N   0  0  0  0  0  0  0  0  0  0  0  0
    8.9991   45.4384   33.6723 H   0  0  0  0  0  0  0  0  0  0  0  0
   11.0499   46.2282   34.4981 H   0  0  0  0  0  0  0  0  0  0  0  0
   10.7749   46.9377   33.0162 H   0  0  0  0  0  0  0  0  0  0  0  0
   10.7403   44.9078   31.1836 H   0  0  0  0  0  0  0  0  0  0  0  0
    9.3634   43.8358   31.4715 H   0  0  0  0  0  0  0  0  0  0  0  0
    7.0119   44.7133   31.5806 H   0  0  0  0  0  0  0  0  0  0  0  0
   10.3474   47.1872   30.4029 H   0  0  0  0  0  0  0  0  0  0  0  0
    5.4617   46.3028   30.4959 H   0  0  0  0  0  0  0  0  0  0  0  0
    8.7902   48.7689   29.3346 H   0  0  0  0  0  0  0  0  0  0  0  0
    5.0083   50.2711   29.1878 H   0  0  0  0  0  0  0  0  0  0  0  0
    4.9732   48.5511   31.7155 H   0  0  0  0  0  0  0  0  0  0  0  0
    3.7035   48.7491   30.4660 H   0  0  0  0  0  0  0  0  0  0  0  0
    4.1502   50.1477   31.5106 H   0  0  0  0  0  0  0  0  0  0  0  0
    6.9333   49.4539   32.3645 H   0  0  0  0  0  0  0  0  0  0  0  0
    8.5605   53.4078   29.8017 H   0  0  0  0  0  0  0  0  0  0  0  0
    9.5177   52.8460   34.4349 H   0  0  0  0  0  0  0  0  0  0  0  0
   10.8225   51.8262   33.6614 H   0  0  0  0  0  0  0  0  0  0  0  0
    9.8290   40.7408   31.7625 H   0  0  0  0  0  0  0  0  0  0  0  0
   11.3950   41.5477   31.4741 H   0  0  0  0  0  0  0  0  0  0  0  0
   11.6982   39.5114   30.3500 H   0  0  0  0  0  0  0  0  0  0  0  0
   10.1117   38.2604   32.6661 H   0  0  0  0  0  0  0  0  0  0  0  0
   13.6767   37.4557   31.2267 H   0  0  0  0  0  0  0  0  0  0  0  0
    8.8960   38.6950   30.8872 H   0  0  0  0  0  0  0  0  0  0  0  0
   11.2791   36.3072   32.4922 H   0  0  0  0  0  0  0  0  0  0  0  0
   11.8828   36.9598   29.7589 H   0  0  0  0  0  0  0  0  0  0  0  0
   12.3300   38.3539   34.7446 H   0  0  0  0  0  0  0  0  0  0  0  0
   16.7561   34.1785   32.4622 H   0  0  0  0  0  0  0  0  0  0  0  0
   15.3531   35.7360   37.5140 H   0  0  0  0  0  0  0  0  0  0  0  0
   16.6347   34.5303   37.1416 H   0  0  0  0  0  0  0  0  0  0  0  0
  1  2  2  0
  1  3  1  0
  3  4  1  0
  4  5  1  0
  6  1  1  0
  7  6  1  0
  6  8  1  0
  8  9  1  0
  9 10  2  0
 11  9  1  0
 10 12  1  0
 13 11  2  0
 12 14  2  0
 14 13  1  0
 14 15  1  0
 15 16  1  0
 16 17  1  0
 16 18  1  0
 18 19  2  0
 20 18  1  0
 19 21  1  0
 22 20  2  0
 20 23  1  0
 21 24  1  0
 21 25  2  0
 25 22  1  0
 23 26  1  0
 23 27  2  0
 24 28  1  0
 25 29  1  0
 28 29  1  0
  4 30  2  0
  4 31  1  0
 32 31  1  0
 32 33  1  0
 33 34  1  0
 33 35  1  0
 34 36  1  0
 35 37  1  0
 35 38  1  0
 38 36  1  0
 36 39  1  0
 38 40  1  0
 41 39  1  0
 42 39  1  0
 43 41  2  0
 41 44  1  0
 45 42  2  0
 46 43  1  0
 44 47  2  0
 44 45  1  0
 48 46  2  0
 48 47  1  0
 47 49  1  0
  6 50  1  1
  7 51  1  0
  7 52  1  0
  8 53  1  0
  8 54  1  0
 10 55  1  0
 11 56  1  0
 12 57  1  0
 13 58  1  0
 16 59  1  6
 17 60  1  0
 17 61  1  0
 17 62  1  0
 19 63  1  0
 22 64  1  0
 28 65  1  0
 28 66  1  0
 32 67  1  0
 32 68  1  0
 33 69  1  0
 35 70  1  0
 36 71  1  0
 37 72  1  0
 38 73  1  0
 40 74  1  0
 42 75  1  0
 46 76  1  0
 49 77  1  0
 49 78  1  0
M  CHG  3   5  -1  23   1  26  -1
M  END
>  <EmbedRMS>  (141) 
0.0819115000556

$$$$

     RDKit          3D

 78 83  0  0  0  0  0  0  0  0999 V2000
   10.2834   43.7663   33.8258 C   0  0  0  0  0  0  0  0  0  0  0  0
   11.4102   43.5930   34.3752 O   0  0  0  0  0  0  0  0  0  0  0  0
    9.3635   42.7257   33.7354 O   0  0  0  0  0  0  0  0  0  0  0  0
    9.8903   41.2268   34.2942 P   0  0  0  0  0  0  0  0  0  0  0  0
   10.3740   41.4559   35.8835 O   0  0  0  0  0  0  0  0  0  0  0  0
    9.9545   45.0696   33.2037 C   0  0  1  0  0  0  0  0  0  0  0  0
   11.0273   46.0323   33.4757 N   0  0  0  0  0  0  0  0  0  0  0  0
    9.7464   44.8481   31.6879 C   0  0  0  0  0  0  0  0  0  0  0  0
    8.7922   45.8409   31.0848 C   0  0  0  0  0  0  0  0  0  0  0  0
    7.4056   45.6012   31.0984 C   0  0  0  0  0  0  0  0  0  0  0  0
    9.2822   46.9872   30.4419 C   0  0  0  0  0  0  0  0  0  0  0  0
    6.5271   46.5027   30.4828 C   0  0  0  0  0  0  0  0  0  0  0  0
    8.4033   47.8891   29.8306 C   0  0  0  0  0  0  0  0  0  0  0  0
    7.0138   47.6548   29.8495 C   0  0  0  0  0  0  0  0  0  0  0  0
    6.0859   48.5277   29.2574 O   0  0  0  0  0  0  0  0  0  0  0  0
    6.3924   49.7932   28.6709 C   0  0  1  0  0  0  0  0  0  0  0  0
    5.1849   50.2922   27.8769 C   0  0  0  0  0  0  0  0  0  0  0  0
    6.8095   50.8080   29.7256 C   0  0  0  0  0  0  0  0  0  0  0  0
    8.0500   51.4711   29.5568 C   0  0  0  0  0  0  0  0  0  0  0  0
    5.9792   51.1587   30.8432 C   0  0  0  0  0  0  0  0  0  0  0  0
    8.4213   52.4360   30.4840 C   0  0  0  0  0  0  0  0  0  0  0  0
    6.4029   52.1585   31.7464 C   0  0  0  0  0  0  0  0  0  0  0  0
    4.7091   50.5346   31.0662 N   0  0  0  0  0  0  0  0  0  0  0  0
    9.5741   53.1968   30.5168 O   0  0  0  0  0  0  0  0  0  0  0  0
    7.6322   52.7661   31.5317 C   0  0  0  0  0  0  0  0  0  0  0  0
    4.6526   49.2054   31.4118 O   0  0  0  0  0  0  0  0  0  0  0  0
    3.6980   51.2451   31.2411 O   0  0  0  0  0  0  0  0  0  0  0  0
    9.5030   54.0586   31.6610 C   0  0  0  0  0  0  0  0  0  0  0  0
    8.2466   53.7513   32.2805 O   0  0  0  0  0  0  0  0  0  0  0  0
    8.8121   40.1851   34.2132 O   0  0  0  0  0  0  0  0  0  0  0  0
   11.2402   40.7951   33.3682 O   0  0  0  0  0  0  0  0  0  0  0  0
   10.9125   40.6876   31.9969 C   0  0  0  0  0  0  0  0  0  0  0  0
   11.5169   39.3811   31.4421 C   0  0  0  0  0  0  0  0  0  0  0  0
   12.7500   39.0881   32.0759 O   0  0  0  0  0  0  0  0  0  0  0  0
   10.6042   38.1892   31.6659 C   0  0  0  0  0  0  0  0  0  0  0  0
   12.9395   37.6814   32.0280 C   0  0  0  0  0  0  0  0  0  0  0  0
    9.6354   38.0950   30.6499 O   0  0  0  0  0  0  0  0  0  0  0  0
   11.5804   37.0191   31.6934 C   0  0  0  0  0  0  0  0  0  0  0  0
   13.4851   37.2119   33.3244 N   0  0  0  0  0  0  0  0  0  0  0  0
   11.6118   36.3189   30.4674 O   0  0  0  0  0  0  0  0  0  0  0  0
   14.4801   36.3317   33.5732 C   0  0  0  0  0  0  0  0  0  0  0  0
   13.1139   37.6277   34.5692 C   0  0  0  0  0  0  0  0  0  0  0  0
   15.2076   35.6154   32.6744 N   0  0  0  0  0  0  0  0  0  0  0  0
   14.6756   36.2303   34.9186 C   0  0  0  0  0  0  0  0  0  0  0  0
   13.8215   37.0451   35.5786 N   0  0  0  0  0  0  0  0  0  0  0  0
   16.1642   34.7602   33.1550 C   0  0  0  0  0  0  0  0  0  0  0  0
   15.6526   35.3506   35.4134 C   0  0  0  0  0  0  0  0  0  0  0  0
   16.3795   34.6316   34.5045 N   0  0  0  0  0  0  0  0  0  0  0  0
   15.9000   35.1933   36.8093 N   0  0  0  0  0  0  0  0  0  0  0  0
    9.0119   45.4320   33.6716 H   0  0  0  0  0  0  0  0  0  0  0  0
   10.7258   46.9689   33.1213 H   0  0  0  0  0  0  0  0  0  0  0  0
   11.8904   45.7660   32.9469 H   0  0  0  0  0  0  0  0  0  0  0  0
    9.3412   43.8329   31.4766 H   0  0  0  0  0  0  0  0  0  0  0  0
   10.7227   44.8813   31.1559 H   0  0  0  0  0  0  0  0  0  0  0  0
    7.0082   44.7163   31.5802 H   0  0  0  0  0  0  0  0  0  0  0  0
   10.3470   47.1829   30.4089 H   0  0  0  0  0  0  0  0  0  0  0  0
    5.4625   46.3070   30.5017 H   0  0  0  0  0  0  0  0  0  0  0  0
    8.8194   48.7557   29.3400 H   0  0  0  0  0  0  0  0  0  0  0  0
    7.2070   49.6474   27.9268 H   0  0  0  0  0  0  0  0  0  0  0  0
    4.2814   50.3630   28.5158 H   0  0  0  0  0  0  0  0  0  0  0  0
    5.3997   51.2903   27.4385 H   0  0  0  0  0  0  0  0  0  0  0  0
    4.9666   49.5853   27.0484 H   0  0  0  0  0  0  0  0  0  0  0  0
    8.7039   51.2498   28.7229 H   0  0  0  0  0  0  0  0  0  0  0  0
    5.7936   52.4433   32.5947 H   0  0  0  0  0  0  0  0  0  0  0  0
    9.5234   55.1219   31.3427 H   0  0  0  0  0  0  0  0  0  0  0  0
   10.3380   53.8399   32.3591 H   0  0  0  0  0  0  0  0  0  0  0  0
   11.3806   41.5456   31.4685 H   0  0  0  0  0  0  0  0  0  0  0  0
    9.8215   40.7221   31.7648 H   0  0  0  0  0  0  0  0  0  0  0  0
   11.6986   39.5089   30.3499 H   0  0  0  0  0  0  0  0  0  0  0  0
   10.1108   38.2736   32.6630 H   0  0  0  0  0  0  0  0  0  0  0  0
   13.6783   37.4562   31.2271 H   0  0  0  0  0  0  0  0  0  0  0  0
    9.0019   37.3860   30.9348 H   0  0  0  0  0  0  0  0  0  0  0  0
   11.2807   36.3052   32.4922 H   0  0  0  0  0  0  0  0  0  0  0  0
   11.8818   36.9599   29.7584 H   0  0  0  0  0  0  0  0  0  0  0  0
   12.3303   38.3537   34.7445 H   0  0  0  0  0  0  0  0  0  0  0  0
   16.7564   34.1783   32.4623 H   0  0  0  0  0  0  0  0  0  0  0  0
   15.3532   35.7360   37.5142 H   0  0  0  0  0  0  0  0  0  0  0  0
   16.6348   34.5302   37.1418 H   0  0  0  0  0  0  0  0  0  0  0  0
  1  2  2  0
  1  3  1  0
  3  4  1  0
  4  5  1  0
  6  1  1  0
  7  6  1  0
  6  8  1  0
  8  9  1  0
  9 10  2  0
 11  9  1  0
 10 12  1  0
 13 11  2  0
 12 14  2  0
 14 13  1  0
 14 15  1  0
 15 16  1  0
 16 17  1  0
 16 18  1  0
 18 19  2  0
 20 18  1  0
 19 21  1  0
 22 20  2  0
 20 23  1  0
 21 24  1  0
 21 25  2  0
 25 22  1  0
 23 26  1  0
 23 27  2  0
 24 28  1  0
 25 29  1  0
 28 29  1  0
  4 30  2  0
  4 31  1  0
 32 31  1  0
 32 33  1  0
 33 34  1  0
 33 35  1  0
 34 36  1  0
 35 37  1  0
 35 38  1  0
 38 36  1  0
 36 39  1  0
 38 40  1  0
 41 39  1  0
 42 39  1  0
 43 41  2  0
 41 44  1  0
 45 42  2  0
 46 43  1  0
 44 47  2  0
 44 45  1  0
 48 46  2  0
 48 47  1  0
 47 49  1  0
  6 50  1  1
  7 51  1  0
  7 52  1  0
  8 53  1  0
  8 54  1  0
 10 55  1  0
 11 56  1  0
 12 57  1  0
 13 58  1  0
 16 59  1  6
 17 60  1  0
 17 61  1  0
 17 62  1  0
 19 63  1  0
 22 64  1  0
 28 65  1  0
 28 66  1  0
 32 67  1  0
 32 68  1  0
 33 69  1  0
 35 70  1  0
 36 71  1  0
 37 72  1  0
 38 73  1  0
 40 74  1  0
 42 75  1  0
 46 76  1  0
 49 77  1  0
 49 78  1  0
M  CHG  3   5  -1  23   1  26  -1
M  END
>  <EmbedRMS>  (142) 
0.0815679378745

$$$$

     RDKit          3D

 78 83  0  0  0  0  0  0  0  0999 V2000
   10.2803   43.7667   33.8249 C   0  0  0  0  0  0  0  0  0  0  0  0
   11.4110   43.5922   34.3665 O   0  0  0  0  0  0  0  0  0  0  0  0
    9.3619   42.7251   33.7344 O   0  0  0  0  0  0  0  0  0  0  0  0
    9.8904   41.2266   34.2931 P   0  0  0  0  0  0  0  0  0  0  0  0
   10.3743   41.4564   35.8824 O   0  0  0  0  0  0  0  0  0  0  0  0
    9.9455   45.0740   33.2113 C   0  0  1  0  0  0  0  0  0  0  0  0
   11.0260   46.0299   33.4707 N   0  0  0  0  0  0  0  0  0  0  0  0
    9.7532   44.8545   31.6951 C   0  0  0  0  0  0  0  0  0  0  0  0
    8.7951   45.8417   31.0850 C   0  0  0  0  0  0  0  0  0  0  0  0
    7.4071   45.5991   31.0989 C   0  0  0  0  0  0  0  0  0  0  0  0
    9.2834   46.9882   30.4380 C   0  0  0  0  0  0  0  0  0  0  0  0
    6.5260   46.4991   30.4824 C   0  0  0  0  0  0  0  0  0  0  0  0
    8.4012   47.8869   29.8273 C   0  0  0  0  0  0  0  0  0  0  0  0
    7.0199   47.6525   29.8576 C   0  0  0  0  0  0  0  0  0  0  0  0
    6.1428   48.5585   29.2543 O   0  0  0  0  0  0  0  0  0  0  0  0
    5.5738   49.6808   29.9370 C   0  0  1  0  0  0  0  0  0  0  0  0
    4.5200   49.2317   30.9595 C   0  0  0  0  0  0  0  0  0  0  0  0
    6.6564   50.5773   30.5306 C   0  0  0  0  0  0  0  0  0  0  0  0
    7.2107   50.2696   31.8009 C   0  0  0  0  0  0  0  0  0  0  0  0
    7.1395   51.7288   29.8231 C   0  0  0  0  0  0  0  0  0  0  0  0
    8.1633   51.1252   32.3367 C   0  0  0  0  0  0  0  0  0  0  0  0
    8.0960   52.5750   30.4301 C   0  0  0  0  0  0  0  0  0  0  0  0
    6.7071   52.0250   28.4855 N   0  0  0  0  0  0  0  0  0  0  0  0
    8.8237   51.0244   33.5461 O   0  0  0  0  0  0  0  0  0  0  0  0
    8.5814   52.2330   31.6844 C   0  0  0  0  0  0  0  0  0  0  0  0
    6.6816   51.0320   27.5334 O   0  0  0  0  0  0  0  0  0  0  0  0
    6.5700   53.2113   28.1219 O   0  0  0  0  0  0  0  0  0  0  0  0
    9.7128   52.1438   33.6589 C   0  0  0  0  0  0  0  0  0  0  0  0
    9.5265   52.8901   32.4485 O   0  0  0  0  0  0  0  0  0  0  0  0
    8.8125   40.1845   34.2129 O   0  0  0  0  0  0  0  0  0  0  0  0
   11.2405   40.7949   33.3668 O   0  0  0  0  0  0  0  0  0  0  0  0
   10.9133   40.6866   31.9952 C   0  0  0  0  0  0  0  0  0  0  0  0
   11.5166   39.3787   31.4404 C   0  0  0  0  0  0  0  0  0  0  0  0
   12.7485   39.0849   32.0735 O   0  0  0  0  0  0  0  0  0  0  0  0
   10.6039   38.1884   31.6669 C   0  0  0  0  0  0  0  0  0  0  0  0
   12.9329   37.6776   32.0284 C   0  0  0  0  0  0  0  0  0  0  0  0
    9.6374   38.0938   30.6485 O   0  0  0  0  0  0  0  0  0  0  0  0
   11.5737   37.0141   31.7055 C   0  0  0  0  0  0  0  0  0  0  0  0
   13.4853   37.2120   33.3238 N   0  0  0  0  0  0  0  0  0  0  0  0
   11.6210   36.3379   30.4683 O   0  0  0  0  0  0  0  0  0  0  0  0
   14.4804   36.3319   33.5726 C   0  0  0  0  0  0  0  0  0  0  0  0
   13.1141   37.6275   34.5689 C   0  0  0  0  0  0  0  0  0  0  0  0
   15.2075   35.6152   32.6740 N   0  0  0  0  0  0  0  0  0  0  0  0
   14.6761   36.2306   34.9181 C   0  0  0  0  0  0  0  0  0  0  0  0
   13.8218   37.0451   35.5783 N   0  0  0  0  0  0  0  0  0  0  0  0
   16.1641   34.7600   33.1547 C   0  0  0  0  0  0  0  0  0  0  0  0
   15.6527   35.3506   35.4131 C   0  0  0  0  0  0  0  0  0  0  0  0
   16.3795   34.6315   34.5042 N   0  0  0  0  0  0  0  0  0  0  0  0
   15.9001   35.1933   36.8090 N   0  0  0  0  0  0  0  0  0  0  0  0
    8.9990   45.4385   33.6723 H   0  0  0  0  0  0  0  0  0  0  0  0
   11.0500   46.2281   34.4981 H   0  0  0  0  0  0  0  0  0  0  0  0
   10.7748   46.9377   33.0164 H   0  0  0  0  0  0  0  0  0  0  0  0
    9.3634   43.8358   31.4715 H   0  0  0  0  0  0  0  0  0  0  0  0
   10.7403   44.9079   31.1836 H   0  0  0  0  0  0  0  0  0  0  0  0
    7.0119   44.7132   31.5805 H   0  0  0  0  0  0  0  0  0  0  0  0
   10.3474   47.1874   30.4032 H   0  0  0  0  0  0  0  0  0  0  0  0
    5.4618   46.3021   30.4951 H   0  0  0  0  0  0  0  0  0  0  0  0
    8.7898   48.7694   29.3351 H   0  0  0  0  0  0  0  0  0  0  0  0
    4.9996   50.2632   29.1874 H   0  0  0  0  0  0  0  0  0  0  0  0
    4.9408   48.5275   31.7046 H   0  0  0  0  0  0  0  0  0  0  0  0
    3.6902   48.7135   30.4336 H   0  0  0  0  0  0  0  0  0  0  0  0
    4.1024   50.1140   31.4899 H   0  0  0  0  0  0  0  0  0  0  0  0
    6.9191   49.3913   32.3588 H   0  0  0  0  0  0  0  0  0  0  0  0
    8.4760   53.4522   29.9224 H   0  0  0  0  0  0  0  0  0  0  0  0
   10.7635   51.7934   33.7352 H   0  0  0  0  0  0  0  0  0  0  0  0
    9.4393   52.7646   34.5378 H   0  0  0  0  0  0  0  0  0  0  0  0
   11.3825   41.5438   31.4665 H   0  0  0  0  0  0  0  0  0  0  0  0
    9.8224   40.7224   31.7629 H   0  0  0  0  0  0  0  0  0  0  0  0
   11.6979   39.5036   30.3478 H   0  0  0  0  0  0  0  0  0  0  0  0
   10.1084   38.2786   32.6627 H   0  0  0  0  0  0  0  0  0  0  0  0
   13.6638   37.4473   31.2215 H   0  0  0  0  0  0  0  0  0  0  0  0
    8.9763   37.4191   30.9532 H   0  0  0  0  0  0  0  0  0  0  0  0
   11.2821   36.3054   32.5171 H   0  0  0  0  0  0  0  0  0  0  0  0
   10.8658   35.6935   30.4652 H   0  0  0  0  0  0  0  0  0  0  0  0
   12.3294   38.3523   34.7444 H   0  0  0  0  0  0  0  0  0  0  0  0
   16.7560   34.1777   32.4621 H   0  0  0  0  0  0  0  0  0  0  0  0
   16.6346   34.5299   37.1415 H   0  0  0  0  0  0  0  0  0  0  0  0
   15.3533   35.7361   37.5138 H   0  0  0  0  0  0  0  0  0  0  0  0
  1  2  2  0
  1  3  1  0
  3  4  1  0
  4  5  1  0
  6  1  1  0
  7  6  1  0
  6  8  1  0
  8  9  1  0
  9 10  2  0
 11  9  1  0
 10 12  1  0
 13 11  2  0
 12 14  2  0
 14 13  1  0
 14 15  1  0
 15 16  1  0
 16 17  1  0
 16 18  1  0
 18 19  2  0
 20 18  1  0
 19 21  1  0
 22 20  2  0
 20 23  1  0
 21 24  1  0
 21 25  2  0
 25 22  1  0
 23 26  1  0
 23 27  2  0
 24 28  1  0
 25 29  1  0
 28 29  1  0
  4 30  2  0
  4 31  1  0
 32 31  1  0
 32 33  1  0
 33 34  1  0
 33 35  1  0
 34 36  1  0
 35 37  1  0
 35 38  1  0
 38 36  1  0
 36 39  1  0
 38 40  1  0
 41 39  1  0
 42 39  1  0
 43 41  2  0
 41 44  1  0
 45 42  2  0
 46 43  1  0
 44 47  2  0
 44 45  1  0
 48 46  2  0
 48 47  1  0
 47 49  1  0
  6 50  1  1
  7 51  1  0
  7 52  1  0
  8 53  1  0
  8 54  1  0
 10 55  1  0
 11 56  1  0
 12 57  1  0
 13 58  1  0
 16 59  1  6
 17 60  1  0
 17 61  1  0
 17 62  1  0
 19 63  1  0
 22 64  1  0
 28 65  1  0
 28 66  1  0
 32 67  1  0
 32 68  1  0
 33 69  1  0
 35 70  1  0
 36 71  1  0
 37 72  1  0
 38 73  1  0
 40 74  1  0
 42 75  1  0
 46 76  1  0
 49 77  1  0
 49 78  1  0
M  CHG  3   5  -1  23   1  26  -1
M  END
>  <EmbedRMS>  (143) 
0.0824944959081

$$$$

     RDKit          3D

 78 83  0  0  0  0  0  0  0  0999 V2000
   10.2804   43.7664   33.8250 C   0  0  0  0  0  0  0  0  0  0  0  0
   11.4110   43.5919   34.3667 O   0  0  0  0  0  0  0  0  0  0  0  0
    9.3620   42.7248   33.7343 O   0  0  0  0  0  0  0  0  0  0  0  0
    9.8903   41.2265   34.2936 P   0  0  0  0  0  0  0  0  0  0  0  0
   10.3732   41.4564   35.8831 O   0  0  0  0  0  0  0  0  0  0  0  0
    9.9459   45.0736   33.2111 C   0  0  1  0  0  0  0  0  0  0  0  0
   11.0265   46.0293   33.4710 N   0  0  0  0  0  0  0  0  0  0  0  0
    9.7543   44.8540   31.6948 C   0  0  0  0  0  0  0  0  0  0  0  0
    8.7962   45.8409   31.0844 C   0  0  0  0  0  0  0  0  0  0  0  0
    7.4099   45.6003   31.1009 C   0  0  0  0  0  0  0  0  0  0  0  0
    9.2824   46.9872   30.4394 C   0  0  0  0  0  0  0  0  0  0  0  0
    6.5265   46.4989   30.4867 C   0  0  0  0  0  0  0  0  0  0  0  0
    8.3992   47.8864   29.8317 C   0  0  0  0  0  0  0  0  0  0  0  0
    7.0169   47.6561   29.8461 C   0  0  0  0  0  0  0  0  0  0  0  0
    6.1896   48.6087   29.2229 O   0  0  0  0  0  0  0  0  0  0  0  0
    4.7613   48.5810   29.0975 C   0  0  1  0  0  0  0  0  0  0  0  0
    4.3428   47.5075   28.0802 C   0  0  0  0  0  0  0  0  0  0  0  0
    4.0754   48.5320   30.4639 C   0  0  0  0  0  0  0  0  0  0  0  0
    3.0478   47.5860   30.7310 C   0  0  0  0  0  0  0  0  0  0  0  0
    4.4791   49.4271   31.5142 C   0  0  0  0  0  0  0  0  0  0  0  0
    2.5033   47.5343   32.0069 C   0  0  0  0  0  0  0  0  0  0  0  0
    3.8959   49.3146   32.7971 C   0  0  0  0  0  0  0  0  0  0  0  0
    5.4775   50.4398   31.3013 N   0  0  0  0  0  0  0  0  0  0  0  0
    1.5171   46.6927   32.4849 O   0  0  0  0  0  0  0  0  0  0  0  0
    2.9124   48.3578   32.9969 C   0  0  0  0  0  0  0  0  0  0  0  0
    5.4346   51.2377   30.1819 O   0  0  0  0  0  0  0  0  0  0  0  0
    6.2776   50.7290   32.2150 O   0  0  0  0  0  0  0  0  0  0  0  0
    1.2945   47.0110   33.8653 C   0  0  0  0  0  0  0  0  0  0  0  0
    2.2060   48.0803   34.1515 O   0  0  0  0  0  0  0  0  0  0  0  0
    8.8127   40.1841   34.2125 O   0  0  0  0  0  0  0  0  0  0  0  0
   11.2416   40.7945   33.3692 O   0  0  0  0  0  0  0  0  0  0  0  0
   10.9177   40.6904   31.9968 C   0  0  0  0  0  0  0  0  0  0  0  0
   11.5181   39.3813   31.4408 C   0  0  0  0  0  0  0  0  0  0  0  0
   12.7497   39.0870   32.0746 O   0  0  0  0  0  0  0  0  0  0  0  0
   10.6045   38.1891   31.6655 C   0  0  0  0  0  0  0  0  0  0  0  0
   12.9344   37.6801   32.0290 C   0  0  0  0  0  0  0  0  0  0  0  0
    9.6418   38.0758   30.6441 O   0  0  0  0  0  0  0  0  0  0  0  0
   11.5741   37.0170   31.7045 C   0  0  0  0  0  0  0  0  0  0  0  0
   13.4851   37.2126   33.3241 N   0  0  0  0  0  0  0  0  0  0  0  0
   11.6079   36.3407   30.4680 O   0  0  0  0  0  0  0  0  0  0  0  0
   14.4801   36.3321   33.5727 C   0  0  0  0  0  0  0  0  0  0  0  0
   13.1140   37.6277   34.5693 C   0  0  0  0  0  0  0  0  0  0  0  0
   15.2073   35.6155   32.6739 N   0  0  0  0  0  0  0  0  0  0  0  0
   14.6758   36.2306   34.9182 C   0  0  0  0  0  0  0  0  0  0  0  0
   13.8217   37.0451   35.5785 N   0  0  0  0  0  0  0  0  0  0  0  0
   16.1639   34.7602   33.1546 C   0  0  0  0  0  0  0  0  0  0  0  0
   15.6526   35.3506   35.4130 C   0  0  0  0  0  0  0  0  0  0  0  0
   16.3794   34.6316   34.5041 N   0  0  0  0  0  0  0  0  0  0  0  0
   15.9000   35.1933   36.8089 N   0  0  0  0  0  0  0  0  0  0  0  0
    8.9993   45.4380   33.6719 H   0  0  0  0  0  0  0  0  0  0  0  0
   11.0498   46.2278   34.4984 H   0  0  0  0  0  0  0  0  0  0  0  0
   10.7761   46.9370   33.0160 H   0  0  0  0  0  0  0  0  0  0  0  0
   10.7416   44.9078   31.1838 H   0  0  0  0  0  0  0  0  0  0  0  0
    9.3650   43.8352   31.4709 H   0  0  0  0  0  0  0  0  0  0  0  0
    7.0158   44.7161   31.5869 H   0  0  0  0  0  0  0  0  0  0  0  0
   10.3461   47.1876   30.4054 H   0  0  0  0  0  0  0  0  0  0  0  0
    5.4734   46.2770   30.5279 H   0  0  0  0  0  0  0  0  0  0  0  0
    8.7920   48.7696   29.3439 H   0  0  0  0  0  0  0  0  0  0  0  0
    4.4612   49.5442   28.6342 H   0  0  0  0  0  0  0  0  0  0  0  0
    4.9256   47.6386   27.1439 H   0  0  0  0  0  0  0  0  0  0  0  0
    4.5280   46.4829   28.4592 H   0  0  0  0  0  0  0  0  0  0  0  0
    3.2670   47.6165   27.8257 H   0  0  0  0  0  0  0  0  0  0  0  0
    2.6859   46.8911   29.9876 H   0  0  0  0  0  0  0  0  0  0  0  0
    4.1877   49.9687   33.6087 H   0  0  0  0  0  0  0  0  0  0  0  0
    0.2479   47.3485   34.0177 H   0  0  0  0  0  0  0  0  0  0  0  0
    1.5225   46.1319   34.5038 H   0  0  0  0  0  0  0  0  0  0  0  0
    9.8288   40.7385   31.7615 H   0  0  0  0  0  0  0  0  0  0  0  0
   11.3944   41.5458   31.4719 H   0  0  0  0  0  0  0  0  0  0  0  0
   11.6994   39.5068   30.3484 H   0  0  0  0  0  0  0  0  0  0  0  0
   10.1090   38.2634   32.6632 H   0  0  0  0  0  0  0  0  0  0  0  0
   13.6662   37.4515   31.2224 H   0  0  0  0  0  0  0  0  0  0  0  0
    8.9008   38.6924   30.8794 H   0  0  0  0  0  0  0  0  0  0  0  0
   11.2650   36.3083   32.5087 H   0  0  0  0  0  0  0  0  0  0  0  0
   12.1372   35.5141   30.6163 H   0  0  0  0  0  0  0  0  0  0  0  0
   12.3297   38.3530   34.7450 H   0  0  0  0  0  0  0  0  0  0  0  0
   16.7558   34.1781   32.4619 H   0  0  0  0  0  0  0  0  0  0  0  0
   16.6346   34.5300   37.1414 H   0  0  0  0  0  0  0  0  0  0  0  0
   15.3533   35.7360   37.5138 H   0  0  0  0  0  0  0  0  0  0  0  0
  1  2  2  0
  1  3  1  0
  3  4  1  0
  4  5  1  0
  6  1  1  0
  7  6  1  0
  6  8  1  0
  8  9  1  0
  9 10  2  0
 11  9  1  0
 10 12  1  0
 13 11  2  0
 12 14  2  0
 14 13  1  0
 14 15  1  0
 15 16  1  0
 16 17  1  0
 16 18  1  0
 18 19  2  0
 20 18  1  0
 19 21  1  0
 22 20  2  0
 20 23  1  0
 21 24  1  0
 21 25  2  0
 25 22  1  0
 23 26  1  0
 23 27  2  0
 24 28  1  0
 25 29  1  0
 28 29  1  0
  4 30  2  0
  4 31  1  0
 32 31  1  0
 32 33  1  0
 33 34  1  0
 33 35  1  0
 34 36  1  0
 35 37  1  0
 35 38  1  0
 38 36  1  0
 36 39  1  0
 38 40  1  0
 41 39  1  0
 42 39  1  0
 43 41  2  0
 41 44  1  0
 45 42  2  0
 46 43  1  0
 44 47  2  0
 44 45  1  0
 48 46  2  0
 48 47  1  0
 47 49  1  0
  6 50  1  1
  7 51  1  0
  7 52  1  0
  8 53  1  0
  8 54  1  0
 10 55  1  0
 11 56  1  0
 12 57  1  0
 13 58  1  0
 16 59  1  6
 17 60  1  0
 17 61  1  0
 17 62  1  0
 19 63  1  0
 22 64  1  0
 28 65  1  0
 28 66  1  0
 32 67  1  0
 32 68  1  0
 33 69  1  0
 35 70  1  0
 36 71  1  0
 37 72  1  0
 38 73  1  0
 40 74  1  0
 42 75  1  0
 46 76  1  0
 49 77  1  0
 49 78  1  0
M  CHG  3   5  -1  23   1  26  -1
M  END
>  <EmbedRMS>  (144) 
0.0826485671844

$$$$

     RDKit          3D

 78 83  0  0  0  0  0  0  0  0999 V2000
   10.2839   43.7626   33.8276 C   0  0  0  0  0  0  0  0  0  0  0  0
   11.4104   43.5863   34.3767 O   0  0  0  0  0  0  0  0  0  0  0  0
    9.3631   42.7236   33.7353 O   0  0  0  0  0  0  0  0  0  0  0  0
    9.8894   41.2249   34.2944 P   0  0  0  0  0  0  0  0  0  0  0  0
   10.3727   41.4547   35.8838 O   0  0  0  0  0  0  0  0  0  0  0  0
    9.9550   45.0700   33.2065 C   0  0  1  0  0  0  0  0  0  0  0  0
   11.0199   46.0481   33.4572 N   0  0  0  0  0  0  0  0  0  0  0  0
    9.7506   44.8512   31.6924 C   0  0  0  0  0  0  0  0  0  0  0  0
    8.7945   45.8421   31.0872 C   0  0  0  0  0  0  0  0  0  0  0  0
    7.4079   45.6006   31.1003 C   0  0  0  0  0  0  0  0  0  0  0  0
    9.2827   46.9890   30.4445 C   0  0  0  0  0  0  0  0  0  0  0  0
    6.5255   46.4992   30.4845 C   0  0  0  0  0  0  0  0  0  0  0  0
    8.4009   47.8875   29.8326 C   0  0  0  0  0  0  0  0  0  0  0  0
    7.0188   47.6566   29.8464 C   0  0  0  0  0  0  0  0  0  0  0  0
    6.1872   48.5935   29.2100 O   0  0  0  0  0  0  0  0  0  0  0  0
    4.7552   48.5819   29.2015 C   0  0  1  0  0  0  0  0  0  0  0  0
    4.2224   49.0314   30.5666 C   0  0  0  0  0  0  0  0  0  0  0  0
    4.2223   49.5058   28.1154 C   0  0  0  0  0  0  0  0  0  0  0  0
    5.0522   50.5412   27.6104 C   0  0  0  0  0  0  0  0  0  0  0  0
    2.8627   49.4209   27.6575 C   0  0  0  0  0  0  0  0  0  0  0  0
    4.5209   51.4292   26.6844 C   0  0  0  0  0  0  0  0  0  0  0  0
    2.3751   50.3638   26.7256 C   0  0  0  0  0  0  0  0  0  0  0  0
    1.9621   48.4119   28.1384 N   0  0  0  0  0  0  0  0  0  0  0  0
    5.1410   52.4987   26.0673 O   0  0  0  0  0  0  0  0  0  0  0  0
    3.2394   51.3451   26.2618 C   0  0  0  0  0  0  0  0  0  0  0  0
    0.6606   48.7490   28.4302 O   0  0  0  0  0  0  0  0  0  0  0  0
    2.2628   47.2048   28.0439 O   0  0  0  0  0  0  0  0  0  0  0  0
    4.1857   53.1232   25.1990 C   0  0  0  0  0  0  0  0  0  0  0  0
    2.9846   52.3552   25.3542 O   0  0  0  0  0  0  0  0  0  0  0  0
    8.8113   40.1834   34.2129 O   0  0  0  0  0  0  0  0  0  0  0  0
   11.2402   40.7930   33.3696 O   0  0  0  0  0  0  0  0  0  0  0  0
   10.9151   40.6903   31.9975 C   0  0  0  0  0  0  0  0  0  0  0  0
   11.5252   39.3885   31.4375 C   0  0  0  0  0  0  0  0  0  0  0  0
   12.7500   39.0873   32.0798 O   0  0  0  0  0  0  0  0  0  0  0  0
   10.6092   38.1925   31.6469 C   0  0  0  0  0  0  0  0  0  0  0  0
   12.9332   37.6792   32.0294 C   0  0  0  0  0  0  0  0  0  0  0  0
    9.6122   38.0894   30.6542 O   0  0  0  0  0  0  0  0  0  0  0  0
   11.5743   37.0144   31.7024 C   0  0  0  0  0  0  0  0  0  0  0  0
   13.4844   37.2107   33.3241 N   0  0  0  0  0  0  0  0  0  0  0  0
   11.6297   36.3238   30.4740 O   0  0  0  0  0  0  0  0  0  0  0  0
   14.4802   36.3313   33.5726 C   0  0  0  0  0  0  0  0  0  0  0  0
   13.1138   37.6266   34.5692 C   0  0  0  0  0  0  0  0  0  0  0  0
   15.2075   35.6149   32.6739 N   0  0  0  0  0  0  0  0  0  0  0  0
   14.6761   36.2303   34.9181 C   0  0  0  0  0  0  0  0  0  0  0  0
   13.8220   37.0447   35.5784 N   0  0  0  0  0  0  0  0  0  0  0  0
   16.1643   34.7600   33.1547 C   0  0  0  0  0  0  0  0  0  0  0  0
   15.6529   35.3505   35.4130 C   0  0  0  0  0  0  0  0  0  0  0  0
   16.3798   34.6315   34.5042 N   0  0  0  0  0  0  0  0  0  0  0  0
   15.9002   35.1932   36.8090 N   0  0  0  0  0  0  0  0  0  0  0  0
    9.0099   45.4348   33.6671 H   0  0  0  0  0  0  0  0  0  0  0  0
   11.1133   46.1992   34.4886 H   0  0  0  0  0  0  0  0  0  0  0  0
   11.9350   45.6934   33.0930 H   0  0  0  0  0  0  0  0  0  0  0  0
   10.7310   44.8933   31.1677 H   0  0  0  0  0  0  0  0  0  0  0  0
    9.3519   43.8346   31.4759 H   0  0  0  0  0  0  0  0  0  0  0  0
    7.0132   44.7143   31.5820 H   0  0  0  0  0  0  0  0  0  0  0  0
   10.3467   47.1890   30.4143 H   0  0  0  0  0  0  0  0  0  0  0  0
    5.4689   46.2769   30.5122 H   0  0  0  0  0  0  0  0  0  0  0  0
    8.7943   48.7689   29.3422 H   0  0  0  0  0  0  0  0  0  0  0  0
    4.4235   47.5498   28.9832 H   0  0  0  0  0  0  0  0  0  0  0  0
    4.6014   48.3709   31.3727 H   0  0  0  0  0  0  0  0  0  0  0  0
    4.5506   50.0709   30.7820 H   0  0  0  0  0  0  0  0  0  0  0  0
    3.1131   48.9927   30.5846 H   0  0  0  0  0  0  0  0  0  0  0  0
    6.0747   50.6721   27.9392 H   0  0  0  0  0  0  0  0  0  0  0  0
    1.3547   50.3240   26.3667 H   0  0  0  0  0  0  0  0  0  0  0  0
    4.0117   54.1741   25.5120 H   0  0  0  0  0  0  0  0  0  0  0  0
    4.5361   53.0781   24.1465 H   0  0  0  0  0  0  0  0  0  0  0  0
   11.3805   41.5528   31.4740 H   0  0  0  0  0  0  0  0  0  0  0  0
    9.8243   40.7216   31.7640 H   0  0  0  0  0  0  0  0  0  0  0  0
   11.7265   39.5311   30.3512 H   0  0  0  0  0  0  0  0  0  0  0  0
   10.1110   38.2746   32.6387 H   0  0  0  0  0  0  0  0  0  0  0  0
   13.6652   37.4518   31.2226 H   0  0  0  0  0  0  0  0  0  0  0  0
   10.0511   38.1142   29.7644 H   0  0  0  0  0  0  0  0  0  0  0  0
   11.2762   36.3141   32.5189 H   0  0  0  0  0  0  0  0  0  0  0  0
   10.8593   35.6977   30.4639 H   0  0  0  0  0  0  0  0  0  0  0  0
   12.3294   38.3518   34.7449 H   0  0  0  0  0  0  0  0  0  0  0  0
   16.7564   34.1779   32.4620 H   0  0  0  0  0  0  0  0  0  0  0  0
   16.6348   34.5300   37.1415 H   0  0  0  0  0  0  0  0  0  0  0  0
   15.3534   35.7359   37.5138 H   0  0  0  0  0  0  0  0  0  0  0  0
  1  2  2  0
  1  3  1  0
  3  4  1  0
  4  5  1  0
  6  1  1  0
  7  6  1  0
  6  8  1  0
  8  9  1  0
  9 10  2  0
 11  9  1  0
 10 12  1  0
 13 11  2  0
 12 14  2  0
 14 13  1  0
 14 15  1  0
 15 16  1  0
 16 17  1  0
 16 18  1  0
 18 19  2  0
 20 18  1  0
 19 21  1  0
 22 20  2  0
 20 23  1  0
 21 24  1  0
 21 25  2  0
 25 22  1  0
 23 26  1  0
 23 27  2  0
 24 28  1  0
 25 29  1  0
 28 29  1  0
  4 30  2  0
  4 31  1  0
 32 31  1  0
 32 33  1  0
 33 34  1  0
 33 35  1  0
 34 36  1  0
 35 37  1  0
 35 38  1  0
 38 36  1  0
 36 39  1  0
 38 40  1  0
 41 39  1  0
 42 39  1  0
 43 41  2  0
 41 44  1  0
 45 42  2  0
 46 43  1  0
 44 47  2  0
 44 45  1  0
 48 46  2  0
 48 47  1  0
 47 49  1  0
  6 50  1  1
  7 51  1  0
  7 52  1  0
  8 53  1  0
  8 54  1  0
 10 55  1  0
 11 56  1  0
 12 57  1  0
 13 58  1  0
 16 59  1  6
 17 60  1  0
 17 61  1  0
 17 62  1  0
 19 63  1  0
 22 64  1  0
 28 65  1  0
 28 66  1  0
 32 67  1  0
 32 68  1  0
 33 69  1  0
 35 70  1  0
 36 71  1  0
 37 72  1  0
 38 73  1  0
 40 74  1  0
 42 75  1  0
 46 76  1  0
 49 77  1  0
 49 78  1  0
M  CHG  3   5  -1  23   1  26  -1
M  END
>  <EmbedRMS>  (145) 
0.0826895321059

$$$$

     RDKit          3D

 78 83  0  0  0  0  0  0  0  0999 V2000
   10.2833   43.7663   33.8254 C   0  0  0  0  0  0  0  0  0  0  0  0
   11.4100   43.5931   34.3750 O   0  0  0  0  0  0  0  0  0  0  0  0
    9.3634   42.7257   33.7351 O   0  0  0  0  0  0  0  0  0  0  0  0
    9.8902   41.2269   34.2941 P   0  0  0  0  0  0  0  0  0  0  0  0
   10.3739   41.4561   35.8834 O   0  0  0  0  0  0  0  0  0  0  0  0
    9.9545   45.0696   33.2031 C   0  0  1  0  0  0  0  0  0  0  0  0
   11.0272   46.0322   33.4754 N   0  0  0  0  0  0  0  0  0  0  0  0
    9.7466   44.8484   31.6870 C   0  0  0  0  0  0  0  0  0  0  0  0
    8.7921   45.8409   31.0836 C   0  0  0  0  0  0  0  0  0  0  0  0
    7.4041   45.6015   31.1003 C   0  0  0  0  0  0  0  0  0  0  0  0
    9.2821   46.9902   30.4427 C   0  0  0  0  0  0  0  0  0  0  0  0
    6.5246   46.5042   30.4875 C   0  0  0  0  0  0  0  0  0  0  0  0
    8.4007   47.8918   29.8340 C   0  0  0  0  0  0  0  0  0  0  0  0
    7.0215   47.6466   29.8433 C   0  0  0  0  0  0  0  0  0  0  0  0
    6.1443   48.5459   29.2297 O   0  0  0  0  0  0  0  0  0  0  0  0
    5.6794   48.4013   27.8836 C   0  0  1  0  0  0  0  0  0  0  0  0
    6.8100   48.6683   26.8792 C   0  0  0  0  0  0  0  0  0  0  0  0
    4.9771   47.0619   27.6802 C   0  0  0  0  0  0  0  0  0  0  0  0
    5.7304   45.9135   27.3203 C   0  0  0  0  0  0  0  0  0  0  0  0
    3.5581   46.9320   27.8619 C   0  0  0  0  0  0  0  0  0  0  0  0
    5.0591   44.7183   27.1021 C   0  0  0  0  0  0  0  0  0  0  0  0
    2.9286   45.6935   27.6034 C   0  0  0  0  0  0  0  0  0  0  0  0
    2.7523   48.0237   28.3347 N   0  0  0  0  0  0  0  0  0  0  0  0
    5.5846   43.4926   26.7408 O   0  0  0  0  0  0  0  0  0  0  0  0
    3.7173   44.6146   27.2299 C   0  0  0  0  0  0  0  0  0  0  0  0
    1.4563   48.1586   27.8928 O   0  0  0  0  0  0  0  0  0  0  0  0
    3.1310   48.7104   29.3058 O   0  0  0  0  0  0  0  0  0  0  0  0
    4.5000   42.5606   26.6338 C   0  0  0  0  0  0  0  0  0  0  0  0
    3.3255   43.3186   26.9544 O   0  0  0  0  0  0  0  0  0  0  0  0
    8.8121   40.1852   34.2131 O   0  0  0  0  0  0  0  0  0  0  0  0
   11.2401   40.7952   33.3681 O   0  0  0  0  0  0  0  0  0  0  0  0
   10.9125   40.6877   31.9968 C   0  0  0  0  0  0  0  0  0  0  0  0
   11.5169   39.3811   31.4420 C   0  0  0  0  0  0  0  0  0  0  0  0
   12.7500   39.0881   32.0759 O   0  0  0  0  0  0  0  0  0  0  0  0
   10.6042   38.1893   31.6659 C   0  0  0  0  0  0  0  0  0  0  0  0
   12.9395   37.6814   32.0280 C   0  0  0  0  0  0  0  0  0  0  0  0
    9.6353   38.0951   30.6499 O   0  0  0  0  0  0  0  0  0  0  0  0
   11.5803   37.0191   31.6934 C   0  0  0  0  0  0  0  0  0  0  0  0
   13.4851   37.2119   33.3244 N   0  0  0  0  0  0  0  0  0  0  0  0
   11.6118   36.3189   30.4673 O   0  0  0  0  0  0  0  0  0  0  0  0
   14.4801   36.3316   33.5732 C   0  0  0  0  0  0  0  0  0  0  0  0
   13.1139   37.6277   34.5692 C   0  0  0  0  0  0  0  0  0  0  0  0
   15.2076   35.6154   32.6744 N   0  0  0  0  0  0  0  0  0  0  0  0
   14.6756   36.2303   34.9186 C   0  0  0  0  0  0  0  0  0  0  0  0
   13.8215   37.0451   35.5786 N   0  0  0  0  0  0  0  0  0  0  0  0
   16.1642   34.7602   33.1551 C   0  0  0  0  0  0  0  0  0  0  0  0
   15.6526   35.3505   35.4134 C   0  0  0  0  0  0  0  0  0  0  0  0
   16.3795   34.6316   34.5045 N   0  0  0  0  0  0  0  0  0  0  0  0
   15.9000   35.1933   36.8093 N   0  0  0  0  0  0  0  0  0  0  0  0
    9.0119   45.4319   33.6708 H   0  0  0  0  0  0  0  0  0  0  0  0
   10.7259   46.9689   33.1212 H   0  0  0  0  0  0  0  0  0  0  0  0
   11.8905   45.7660   32.9467 H   0  0  0  0  0  0  0  0  0  0  0  0
   10.7229   44.8823   31.1550 H   0  0  0  0  0  0  0  0  0  0  0  0
    9.3416   43.8332   31.4755 H   0  0  0  0  0  0  0  0  0  0  0  0
    7.0070   44.7175   31.5839 H   0  0  0  0  0  0  0  0  0  0  0  0
   10.3462   47.1895   30.4132 H   0  0  0  0  0  0  0  0  0  0  0  0
    5.4592   46.3133   30.5089 H   0  0  0  0  0  0  0  0  0  0  0  0
    8.7899   48.7769   29.3472 H   0  0  0  0  0  0  0  0  0  0  0  0
    4.9477   49.2147   27.6977 H   0  0  0  0  0  0  0  0  0  0  0  0
    7.1544   49.7195   26.9795 H   0  0  0  0  0  0  0  0  0  0  0  0
    7.6833   48.0090   27.0572 H   0  0  0  0  0  0  0  0  0  0  0  0
    6.4440   48.5168   25.8412 H   0  0  0  0  0  0  0  0  0  0  0  0
    6.8054   45.9385   27.2156 H   0  0  0  0  0  0  0  0  0  0  0  0
    1.8607   45.5670   27.7258 H   0  0  0  0  0  0  0  0  0  0  0  0
    4.4317   42.1681   25.5975 H   0  0  0  0  0  0  0  0  0  0  0  0
    4.6320   41.7326   27.3613 H   0  0  0  0  0  0  0  0  0  0  0  0
    9.8215   40.7222   31.7646 H   0  0  0  0  0  0  0  0  0  0  0  0
   11.3807   41.5457   31.4685 H   0  0  0  0  0  0  0  0  0  0  0  0
   11.6986   39.5089   30.3499 H   0  0  0  0  0  0  0  0  0  0  0  0
   10.1108   38.2737   32.6630 H   0  0  0  0  0  0  0  0  0  0  0  0
   13.6783   37.4562   31.2271 H   0  0  0  0  0  0  0  0  0  0  0  0
    9.0019   37.3861   30.9348 H   0  0  0  0  0  0  0  0  0  0  0  0
   11.2807   36.3053   32.4921 H   0  0  0  0  0  0  0  0  0  0  0  0
   11.8819   36.9600   29.7584 H   0  0  0  0  0  0  0  0  0  0  0  0
   12.3303   38.3538   34.7445 H   0  0  0  0  0  0  0  0  0  0  0  0
   16.7564   34.1783   32.4624 H   0  0  0  0  0  0  0  0  0  0  0  0
   16.6347   34.5301   37.1418 H   0  0  0  0  0  0  0  0  0  0  0  0
   15.3532   35.7359   37.5142 H   0  0  0  0  0  0  0  0  0  0  0  0
  1  2  2  0
  1  3  1  0
  3  4  1  0
  4  5  1  0
  6  1  1  0
  7  6  1  0
  6  8  1  0
  8  9  1  0
  9 10  2  0
 11  9  1  0
 10 12  1  0
 13 11  2  0
 12 14  2  0
 14 13  1  0
 14 15  1  0
 15 16  1  0
 16 17  1  0
 16 18  1  0
 18 19  2  0
 20 18  1  0
 19 21  1  0
 22 20  2  0
 20 23  1  0
 21 24  1  0
 21 25  2  0
 25 22  1  0
 23 26  1  0
 23 27  2  0
 24 28  1  0
 25 29  1  0
 28 29  1  0
  4 30  2  0
  4 31  1  0
 32 31  1  0
 32 33  1  0
 33 34  1  0
 33 35  1  0
 34 36  1  0
 35 37  1  0
 35 38  1  0
 38 36  1  0
 36 39  1  0
 38 40  1  0
 41 39  1  0
 42 39  1  0
 43 41  2  0
 41 44  1  0
 45 42  2  0
 46 43  1  0
 44 47  2  0
 44 45  1  0
 48 46  2  0
 48 47  1  0
 47 49  1  0
  6 50  1  1
  7 51  1  0
  7 52  1  0
  8 53  1  0
  8 54  1  0
 10 55  1  0
 11 56  1  0
 12 57  1  0
 13 58  1  0
 16 59  1  6
 17 60  1  0
 17 61  1  0
 17 62  1  0
 19 63  1  0
 22 64  1  0
 28 65  1  0
 28 66  1  0
 32 67  1  0
 32 68  1  0
 33 69  1  0
 35 70  1  0
 36 71  1  0
 37 72  1  0
 38 73  1  0
 40 74  1  0
 42 75  1  0
 46 76  1  0
 49 77  1  0
 49 78  1  0
M  CHG  3   5  -1  23   1  26  -1
M  END
>  <EmbedRMS>  (146) 
0.0816868244713

$$$$

     RDKit          3D

 78 83  0  0  0  0  0  0  0  0999 V2000
   10.2835   43.7661   33.8256 C   0  0  0  0  0  0  0  0  0  0  0  0
   11.4102   43.5931   34.3753 O   0  0  0  0  0  0  0  0  0  0  0  0
    9.3640   42.7253   33.7347 O   0  0  0  0  0  0  0  0  0  0  0  0
    9.8907   41.2265   34.2938 P   0  0  0  0  0  0  0  0  0  0  0  0
   10.3732   41.4559   35.8835 O   0  0  0  0  0  0  0  0  0  0  0  0
    9.9547   45.0695   33.2035 C   0  0  1  0  0  0  0  0  0  0  0  0
   11.0271   46.0323   33.4760 N   0  0  0  0  0  0  0  0  0  0  0  0
    9.7473   44.8482   31.6875 C   0  0  0  0  0  0  0  0  0  0  0  0
    8.7929   45.8406   31.0841 C   0  0  0  0  0  0  0  0  0  0  0  0
    7.4067   45.6013   31.0991 C   0  0  0  0  0  0  0  0  0  0  0  0
    9.2817   46.9872   30.4420 C   0  0  0  0  0  0  0  0  0  0  0  0
    6.5251   46.5011   30.4850 C   0  0  0  0  0  0  0  0  0  0  0  0
    8.4000   47.8872   29.8331 C   0  0  0  0  0  0  0  0  0  0  0  0
    7.0174   47.6579   29.8455 C   0  0  0  0  0  0  0  0  0  0  0  0
    6.1920   48.6115   29.2211 O   0  0  0  0  0  0  0  0  0  0  0  0
    4.7638   48.5864   29.0941 C   0  0  1  0  0  0  0  0  0  0  0  0
    4.3441   47.5140   28.0762 C   0  0  0  0  0  0  0  0  0  0  0  0
    4.0763   48.5391   30.4601 C   0  0  0  0  0  0  0  0  0  0  0  0
    3.0562   47.5860   30.7305 C   0  0  0  0  0  0  0  0  0  0  0  0
    4.4706   49.4438   31.5071 C   0  0  0  0  0  0  0  0  0  0  0  0
    2.5113   47.5354   32.0063 C   0  0  0  0  0  0  0  0  0  0  0  0
    3.8884   49.3308   32.7896 C   0  0  0  0  0  0  0  0  0  0  0  0
    5.4602   50.4655   31.2965 N   0  0  0  0  0  0  0  0  0  0  0  0
    1.5319   46.6877   32.4873 O   0  0  0  0  0  0  0  0  0  0  0  0
    2.9130   48.3666   32.9929 C   0  0  0  0  0  0  0  0  0  0  0  0
    6.3068   50.8197   32.3216 O   0  0  0  0  0  0  0  0  0  0  0  0
    5.4348   51.1711   30.2676 O   0  0  0  0  0  0  0  0  0  0  0  0
    1.3058   47.0101   33.8662 C   0  0  0  0  0  0  0  0  0  0  0  0
    2.2083   48.0881   34.1483 O   0  0  0  0  0  0  0  0  0  0  0  0
    8.8127   40.1848   34.2122 O   0  0  0  0  0  0  0  0  0  0  0  0
   11.2420   40.7941   33.3697 O   0  0  0  0  0  0  0  0  0  0  0  0
   10.9187   40.6911   31.9971 C   0  0  0  0  0  0  0  0  0  0  0  0
   11.5172   39.3815   31.4407 C   0  0  0  0  0  0  0  0  0  0  0  0
   12.7493   39.0856   32.0728 O   0  0  0  0  0  0  0  0  0  0  0  0
   10.6023   38.1908   31.6665 C   0  0  0  0  0  0  0  0  0  0  0  0
   12.9319   37.6781   32.0281 C   0  0  0  0  0  0  0  0  0  0  0  0
    9.6392   38.0798   30.6452 O   0  0  0  0  0  0  0  0  0  0  0  0
   11.5715   37.0166   31.7056 C   0  0  0  0  0  0  0  0  0  0  0  0
   13.4846   37.2121   33.3235 N   0  0  0  0  0  0  0  0  0  0  0  0
   11.6187   36.3384   30.4695 O   0  0  0  0  0  0  0  0  0  0  0  0
   14.4801   36.3321   33.5724 C   0  0  0  0  0  0  0  0  0  0  0  0
   13.1137   37.6275   34.5688 C   0  0  0  0  0  0  0  0  0  0  0  0
   15.2073   35.6153   32.6738 N   0  0  0  0  0  0  0  0  0  0  0  0
   14.6759   36.2308   34.9179 C   0  0  0  0  0  0  0  0  0  0  0  0
   13.8216   37.0452   35.5781 N   0  0  0  0  0  0  0  0  0  0  0  0
   16.1640   34.7602   33.1546 C   0  0  0  0  0  0  0  0  0  0  0  0
   15.6526   35.3508   35.4129 C   0  0  0  0  0  0  0  0  0  0  0  0
   16.3794   34.6317   34.5041 N   0  0  0  0  0  0  0  0  0  0  0  0
   15.8999   35.1935   36.8088 N   0  0  0  0  0  0  0  0  0  0  0  0
    9.0119   45.4316   33.6710 H   0  0  0  0  0  0  0  0  0  0  0  0
   11.8906   45.7661   32.9477 H   0  0  0  0  0  0  0  0  0  0  0  0
   10.7257   46.9689   33.1216 H   0  0  0  0  0  0  0  0  0  0  0  0
    9.3428   43.8329   31.4757 H   0  0  0  0  0  0  0  0  0  0  0  0
   10.7239   44.8822   31.1559 H   0  0  0  0  0  0  0  0  0  0  0  0
    7.0110   44.7166   31.5828 H   0  0  0  0  0  0  0  0  0  0  0  0
   10.3459   47.1862   30.4105 H   0  0  0  0  0  0  0  0  0  0  0  0
    5.4719   46.2798   30.5242 H   0  0  0  0  0  0  0  0  0  0  0  0
    8.7942   48.7704   29.3464 H   0  0  0  0  0  0  0  0  0  0  0  0
    4.4664   49.5506   28.6305 H   0  0  0  0  0  0  0  0  0  0  0  0
    3.2674   47.6217   27.8251 H   0  0  0  0  0  0  0  0  0  0  0  0
    4.9240   47.6478   27.1384 H   0  0  0  0  0  0  0  0  0  0  0  0
    4.5324   46.4891   28.4526 H   0  0  0  0  0  0  0  0  0  0  0  0
    2.7011   46.8843   29.9903 H   0  0  0  0  0  0  0  0  0  0  0  0
    4.1736   49.9909   33.5987 H   0  0  0  0  0  0  0  0  0  0  0  0
    0.2564   47.3395   34.0166 H   0  0  0  0  0  0  0  0  0  0  0  0
    1.5407   46.1356   34.5086 H   0  0  0  0  0  0  0  0  0  0  0  0
   11.3968   41.5460   31.4728 H   0  0  0  0  0  0  0  0  0  0  0  0
    9.8299   40.7410   31.7613 H   0  0  0  0  0  0  0  0  0  0  0  0
   11.6975   39.5067   30.3481 H   0  0  0  0  0  0  0  0  0  0  0  0
   10.1076   38.2648   32.6645 H   0  0  0  0  0  0  0  0  0  0  0  0
   13.6621   37.4467   31.2209 H   0  0  0  0  0  0  0  0  0  0  0  0
    8.8975   38.6944   30.8831 H   0  0  0  0  0  0  0  0  0  0  0  0
   11.2806   36.3073   32.5170 H   0  0  0  0  0  0  0  0  0  0  0  0
   10.8492   35.7110   30.4586 H   0  0  0  0  0  0  0  0  0  0  0  0
   12.3290   38.3524   34.7444 H   0  0  0  0  0  0  0  0  0  0  0  0
   16.7559   34.1780   32.4619 H   0  0  0  0  0  0  0  0  0  0  0  0
   15.3531   35.7362   37.5137 H   0  0  0  0  0  0  0  0  0  0  0  0
   16.6344   34.5301   37.1414 H   0  0  0  0  0  0  0  0  0  0  0  0
  1  2  2  0
  1  3  1  0
  3  4  1  0
  4  5  1  0
  6  1  1  0
  7  6  1  0
  6  8  1  0
  8  9  1  0
  9 10  2  0
 11  9  1  0
 10 12  1  0
 13 11  2  0
 12 14  2  0
 14 13  1  0
 14 15  1  0
 15 16  1  0
 16 17  1  0
 16 18  1  0
 18 19  2  0
 20 18  1  0
 19 21  1  0
 22 20  2  0
 20 23  1  0
 21 24  1  0
 21 25  2  0
 25 22  1  0
 23 26  1  0
 23 27  2  0
 24 28  1  0
 25 29  1  0
 28 29  1  0
  4 30  2  0
  4 31  1  0
 32 31  1  0
 32 33  1  0
 33 34  1  0
 33 35  1  0
 34 36  1  0
 35 37  1  0
 35 38  1  0
 38 36  1  0
 36 39  1  0
 38 40  1  0
 41 39  1  0
 42 39  1  0
 43 41  2  0
 41 44  1  0
 45 42  2  0
 46 43  1  0
 44 47  2  0
 44 45  1  0
 48 46  2  0
 48 47  1  0
 47 49  1  0
  6 50  1  1
  7 51  1  0
  7 52  1  0
  8 53  1  0
  8 54  1  0
 10 55  1  0
 11 56  1  0
 12 57  1  0
 13 58  1  0
 16 59  1  6
 17 60  1  0
 17 61  1  0
 17 62  1  0
 19 63  1  0
 22 64  1  0
 28 65  1  0
 28 66  1  0
 32 67  1  0
 32 68  1  0
 33 69  1  0
 35 70  1  0
 36 71  1  0
 37 72  1  0
 38 73  1  0
 40 74  1  0
 42 75  1  0
 46 76  1  0
 49 77  1  0
 49 78  1  0
M  CHG  3   5  -1  23   1  26  -1
M  END
>  <EmbedRMS>  (147) 
0.0829321461509

$$$$

     RDKit          3D

 78 83  0  0  0  0  0  0  0  0999 V2000
   10.2834   43.7661   33.8252 C   0  0  0  0  0  0  0  0  0  0  0  0
   11.4101   43.5932   34.3751 O   0  0  0  0  0  0  0  0  0  0  0  0
    9.3639   42.7253   33.7345 O   0  0  0  0  0  0  0  0  0  0  0  0
    9.8907   41.2265   34.2938 P   0  0  0  0  0  0  0  0  0  0  0  0
   10.3732   41.4560   35.8835 O   0  0  0  0  0  0  0  0  0  0  0  0
    9.9545   45.0694   33.2030 C   0  0  1  0  0  0  0  0  0  0  0  0
   11.0271   46.0321   33.4753 N   0  0  0  0  0  0  0  0  0  0  0  0
    9.7465   44.8483   31.6869 C   0  0  0  0  0  0  0  0  0  0  0  0
    8.7921   45.8408   31.0835 C   0  0  0  0  0  0  0  0  0  0  0  0
    7.4040   45.6016   31.1006 C   0  0  0  0  0  0  0  0  0  0  0  0
    9.2822   46.9900   30.4428 C   0  0  0  0  0  0  0  0  0  0  0  0
    6.5243   46.5041   30.4874 C   0  0  0  0  0  0  0  0  0  0  0  0
    8.4008   47.8920   29.8346 C   0  0  0  0  0  0  0  0  0  0  0  0
    7.0217   47.6467   29.8427 C   0  0  0  0  0  0  0  0  0  0  0  0
    6.1497   48.5540   29.2355 O   0  0  0  0  0  0  0  0  0  0  0  0
    5.5949   48.3754   27.9284 C   0  0  1  0  0  0  0  0  0  0  0  0
    6.6476   48.6172   26.8388 C   0  0  0  0  0  0  0  0  0  0  0  0
    4.8041   47.0723   27.8206 C   0  0  0  0  0  0  0  0  0  0  0  0
    3.4735   47.0984   28.3081 C   0  0  0  0  0  0  0  0  0  0  0  0
    5.3155   45.8409   27.2793 C   0  0  0  0  0  0  0  0  0  0  0  0
    2.7026   45.9471   28.2170 C   0  0  0  0  0  0  0  0  0  0  0  0
    4.4803   44.7062   27.1990 C   0  0  0  0  0  0  0  0  0  0  0  0
    6.6614   45.7088   26.8180 N   0  0  0  0  0  0  0  0  0  0  0  0
    1.3952   45.7547   28.6201 O   0  0  0  0  0  0  0  0  0  0  0  0
    3.1835   44.8027   27.6821 C   0  0  0  0  0  0  0  0  0  0  0  0
    6.8885   45.3564   25.5084 O   0  0  0  0  0  0  0  0  0  0  0  0
    7.5846   45.5787   27.6466 O   0  0  0  0  0  0  0  0  0  0  0  0
    1.0338   44.4003   28.3169 C   0  0  0  0  0  0  0  0  0  0  0  0
    2.2050   43.8280   27.7189 O   0  0  0  0  0  0  0  0  0  0  0  0
    8.8127   40.1848   34.2122 O   0  0  0  0  0  0  0  0  0  0  0  0
   11.2420   40.7941   33.3697 O   0  0  0  0  0  0  0  0  0  0  0  0
   10.9187   40.6911   31.9971 C   0  0  0  0  0  0  0  0  0  0  0  0
   11.5172   39.3815   31.4407 C   0  0  0  0  0  0  0  0  0  0  0  0
   12.7492   39.0856   32.0728 O   0  0  0  0  0  0  0  0  0  0  0  0
   10.6023   38.1908   31.6665 C   0  0  0  0  0  0  0  0  0  0  0  0
   12.9319   37.6781   32.0281 C   0  0  0  0  0  0  0  0  0  0  0  0
    9.6392   38.0798   30.6452 O   0  0  0  0  0  0  0  0  0  0  0  0
   11.5715   37.0166   31.7056 C   0  0  0  0  0  0  0  0  0  0  0  0
   13.4847   37.2121   33.3235 N   0  0  0  0  0  0  0  0  0  0  0  0
   11.6186   36.3384   30.4695 O   0  0  0  0  0  0  0  0  0  0  0  0
   14.4801   36.3321   33.5724 C   0  0  0  0  0  0  0  0  0  0  0  0
   13.1137   37.6276   34.5687 C   0  0  0  0  0  0  0  0  0  0  0  0
   15.2073   35.6153   32.6738 N   0  0  0  0  0  0  0  0  0  0  0  0
   14.6759   36.2308   34.9179 C   0  0  0  0  0  0  0  0  0  0  0  0
   13.8217   37.0452   35.5781 N   0  0  0  0  0  0  0  0  0  0  0  0
   16.1640   34.7601   33.1546 C   0  0  0  0  0  0  0  0  0  0  0  0
   15.6526   35.3508   35.4129 C   0  0  0  0  0  0  0  0  0  0  0  0
   16.3794   34.6317   34.5041 N   0  0  0  0  0  0  0  0  0  0  0  0
   15.8999   35.1935   36.8088 N   0  0  0  0  0  0  0  0  0  0  0  0
    9.0119   45.4316   33.6708 H   0  0  0  0  0  0  0  0  0  0  0  0
   10.7257   46.9688   33.1212 H   0  0  0  0  0  0  0  0  0  0  0  0
   11.8904   45.7660   32.9465 H   0  0  0  0  0  0  0  0  0  0  0  0
    9.3414   43.8331   31.4753 H   0  0  0  0  0  0  0  0  0  0  0  0
   10.7228   44.8821   31.1548 H   0  0  0  0  0  0  0  0  0  0  0  0
    7.0069   44.7185   31.5857 H   0  0  0  0  0  0  0  0  0  0  0  0
   10.3463   47.1891   30.4130 H   0  0  0  0  0  0  0  0  0  0  0  0
    5.4592   46.3147   30.5157 H   0  0  0  0  0  0  0  0  0  0  0  0
    8.7900   48.7768   29.3473 H   0  0  0  0  0  0  0  0  0  0  0  0
    4.8642   49.2025   27.7854 H   0  0  0  0  0  0  0  0  0  0  0  0
    6.2464   48.3386   25.8412 H   0  0  0  0  0  0  0  0  0  0  0  0
    7.5835   48.0609   27.0389 H   0  0  0  0  0  0  0  0  0  0  0  0
    6.9127   49.6958   26.8155 H   0  0  0  0  0  0  0  0  0  0  0  0
    3.0487   47.9942   28.7437 H   0  0  0  0  0  0  0  0  0  0  0  0
    4.8426   43.7719   26.7894 H   0  0  0  0  0  0  0  0  0  0  0  0
    0.1879   44.3802   27.5982 H   0  0  0  0  0  0  0  0  0  0  0  0
    0.7734   43.8547   29.2480 H   0  0  0  0  0  0  0  0  0  0  0  0
    9.8299   40.7410   31.7612 H   0  0  0  0  0  0  0  0  0  0  0  0
   11.3968   41.5460   31.4728 H   0  0  0  0  0  0  0  0  0  0  0  0
   11.6974   39.5067   30.3481 H   0  0  0  0  0  0  0  0  0  0  0  0
   10.1076   38.2648   32.6645 H   0  0  0  0  0  0  0  0  0  0  0  0
   13.6621   37.4467   31.2208 H   0  0  0  0  0  0  0  0  0  0  0  0
    8.8975   38.6945   30.8830 H   0  0  0  0  0  0  0  0  0  0  0  0
   11.2806   36.3073   32.5170 H   0  0  0  0  0  0  0  0  0  0  0  0
   10.8492   35.7111   30.4586 H   0  0  0  0  0  0  0  0  0  0  0  0
   12.3291   38.3524   34.7444 H   0  0  0  0  0  0  0  0  0  0  0  0
   16.7559   34.1780   32.4619 H   0  0  0  0  0  0  0  0  0  0  0  0
   15.3532   35.7363   37.5137 H   0  0  0  0  0  0  0  0  0  0  0  0
   16.6345   34.5301   37.1414 H   0  0  0  0  0  0  0  0  0  0  0  0
  1  2  2  0
  1  3  1  0
  3  4  1  0
  4  5  1  0
  6  1  1  0
  7  6  1  0
  6  8  1  0
  8  9  1  0
  9 10  2  0
 11  9  1  0
 10 12  1  0
 13 11  2  0
 12 14  2  0
 14 13  1  0
 14 15  1  0
 15 16  1  0
 16 17  1  0
 16 18  1  0
 18 19  2  0
 20 18  1  0
 19 21  1  0
 22 20  2  0
 20 23  1  0
 21 24  1  0
 21 25  2  0
 25 22  1  0
 23 26  1  0
 23 27  2  0
 24 28  1  0
 25 29  1  0
 28 29  1  0
  4 30  2  0
  4 31  1  0
 32 31  1  0
 32 33  1  0
 33 34  1  0
 33 35  1  0
 34 36  1  0
 35 37  1  0
 35 38  1  0
 38 36  1  0
 36 39  1  0
 38 40  1  0
 41 39  1  0
 42 39  1  0
 43 41  2  0
 41 44  1  0
 45 42  2  0
 46 43  1  0
 44 47  2  0
 44 45  1  0
 48 46  2  0
 48 47  1  0
 47 49  1  0
  6 50  1  1
  7 51  1  0
  7 52  1  0
  8 53  1  0
  8 54  1  0
 10 55  1  0
 11 56  1  0
 12 57  1  0
 13 58  1  0
 16 59  1  6
 17 60  1  0
 17 61  1  0
 17 62  1  0
 19 63  1  0
 22 64  1  0
 28 65  1  0
 28 66  1  0
 32 67  1  0
 32 68  1  0
 33 69  1  0
 35 70  1  0
 36 71  1  0
 37 72  1  0
 38 73  1  0
 40 74  1  0
 42 75  1  0
 46 76  1  0
 49 77  1  0
 49 78  1  0
M  CHG  3   5  -1  23   1  26  -1
M  END
>  <EmbedRMS>  (148) 
0.0830603970823

$$$$

     RDKit          3D

 78 83  0  0  0  0  0  0  0  0999 V2000
   10.2831   43.7666   33.8257 C   0  0  0  0  0  0  0  0  0  0  0  0
   11.4100   43.5934   34.3750 O   0  0  0  0  0  0  0  0  0  0  0  0
    9.3634   42.7259   33.7352 O   0  0  0  0  0  0  0  0  0  0  0  0
    9.8900   41.2271   34.2947 P   0  0  0  0  0  0  0  0  0  0  0  0
   10.3732   41.4564   35.8841 O   0  0  0  0  0  0  0  0  0  0  0  0
    9.9541   45.0700   33.2036 C   0  0  1  0  0  0  0  0  0  0  0  0
   11.0264   46.0330   33.4757 N   0  0  0  0  0  0  0  0  0  0  0  0
    9.7462   44.8485   31.6877 C   0  0  0  0  0  0  0  0  0  0  0  0
    8.7920   45.8412   31.0844 C   0  0  0  0  0  0  0  0  0  0  0  0
    7.4041   45.6000   31.0972 C   0  0  0  0  0  0  0  0  0  0  0  0
    9.2830   46.9876   30.4396 C   0  0  0  0  0  0  0  0  0  0  0  0
    6.5249   46.5012   30.4810 C   0  0  0  0  0  0  0  0  0  0  0  0
    8.4025   47.8878   29.8285 C   0  0  0  0  0  0  0  0  0  0  0  0
    7.0197   47.6548   29.8581 C   0  0  0  0  0  0  0  0  0  0  0  0
    6.1368   48.5501   29.2488 O   0  0  0  0  0  0  0  0  0  0  0  0
    5.6874   49.7641   29.8591 C   0  0  1  0  0  0  0  0  0  0  0  0
    4.6838   49.4800   30.9839 C   0  0  0  0  0  0  0  0  0  0  0  0
    6.8554   50.6831   30.2145 C   0  0  0  0  0  0  0  0  0  0  0  0
    7.3901   51.4608   29.1570 C   0  0  0  0  0  0  0  0  0  0  0  0
    7.4532   50.7901   31.5188 C   0  0  0  0  0  0  0  0  0  0  0  0
    8.4513   52.3159   29.4227 C   0  0  0  0  0  0  0  0  0  0  0  0
    8.5241   51.6848   31.7319 C   0  0  0  0  0  0  0  0  0  0  0  0
    7.0118   50.0045   32.6275 N   0  0  0  0  0  0  0  0  0  0  0  0
    9.1149   53.1579   28.5512 O   0  0  0  0  0  0  0  0  0  0  0  0
    8.9922   52.4256   30.6566 C   0  0  0  0  0  0  0  0  0  0  0  0
    7.4434   48.7050   32.7473 O   0  0  0  0  0  0  0  0  0  0  0  0
    6.5245   50.5740   33.6252 O   0  0  0  0  0  0  0  0  0  0  0  0
   10.1385   53.8400   29.2886 C   0  0  0  0  0  0  0  0  0  0  0  0
   10.0251   53.3427   30.6290 O   0  0  0  0  0  0  0  0  0  0  0  0
    8.8121   40.1852   34.2133 O   0  0  0  0  0  0  0  0  0  0  0  0
   11.2403   40.7948   33.3700 O   0  0  0  0  0  0  0  0  0  0  0  0
   10.9145   40.6914   31.9982 C   0  0  0  0  0  0  0  0  0  0  0  0
   11.5270   39.3912   31.4385 C   0  0  0  0  0  0  0  0  0  0  0  0
   12.7520   39.0911   32.0837 O   0  0  0  0  0  0  0  0  0  0  0  0
   10.6114   38.1932   31.6451 C   0  0  0  0  0  0  0  0  0  0  0  0
   12.9413   37.6838   32.0297 C   0  0  0  0  0  0  0  0  0  0  0  0
    9.6065   38.0878   30.6599 O   0  0  0  0  0  0  0  0  0  0  0  0
   11.5822   37.0198   31.6877 C   0  0  0  0  0  0  0  0  0  0  0  0
   13.4840   37.2104   33.3254 N   0  0  0  0  0  0  0  0  0  0  0  0
   11.6179   36.3072   30.4690 O   0  0  0  0  0  0  0  0  0  0  0  0
   14.4797   36.3309   33.5738 C   0  0  0  0  0  0  0  0  0  0  0  0
   13.1136   37.6269   34.5702 C   0  0  0  0  0  0  0  0  0  0  0  0
   15.2074   35.6152   32.6747 N   0  0  0  0  0  0  0  0  0  0  0  0
   14.6756   36.2298   34.9190 C   0  0  0  0  0  0  0  0  0  0  0  0
   13.8217   37.0445   35.5793 N   0  0  0  0  0  0  0  0  0  0  0  0
   16.1644   34.7603   33.1551 C   0  0  0  0  0  0  0  0  0  0  0  0
   15.6528   35.3503   35.4136 C   0  0  0  0  0  0  0  0  0  0  0  0
   16.3798   34.6316   34.5046 N   0  0  0  0  0  0  0  0  0  0  0  0
   15.9004   35.1930   36.8094 N   0  0  0  0  0  0  0  0  0  0  0  0
    9.0113   45.4322   33.6712 H   0  0  0  0  0  0  0  0  0  0  0  0
   11.8895   45.7676   32.9464 H   0  0  0  0  0  0  0  0  0  0  0  0
   10.7241   46.9697   33.1222 H   0  0  0  0  0  0  0  0  0  0  0  0
   10.7227   44.8819   31.1559 H   0  0  0  0  0  0  0  0  0  0  0  0
    9.3411   43.8334   31.4764 H   0  0  0  0  0  0  0  0  0  0  0  0
    7.0072   44.7142   31.5775 H   0  0  0  0  0  0  0  0  0  0  0  0
   10.3475   47.1837   30.4050 H   0  0  0  0  0  0  0  0  0  0  0  0
    5.4600   46.3078   30.4951 H   0  0  0  0  0  0  0  0  0  0  0  0
    8.7964   48.7633   29.3292 H   0  0  0  0  0  0  0  0  0  0  0  0
    5.0869   50.2974   29.0887 H   0  0  0  0  0  0  0  0  0  0  0  0
    4.4394   50.4146   31.5323 H   0  0  0  0  0  0  0  0  0  0  0  0
    5.0619   48.7143   31.6887 H   0  0  0  0  0  0  0  0  0  0  0  0
    3.7439   49.0807   30.5465 H   0  0  0  0  0  0  0  0  0  0  0  0
    6.9890   51.4008   28.1528 H   0  0  0  0  0  0  0  0  0  0  0  0
    8.9860   51.7834   32.7060 H   0  0  0  0  0  0  0  0  0  0  0  0
   11.1386   53.5962   28.8728 H   0  0  0  0  0  0  0  0  0  0  0  0
    9.9600   54.9356   29.2700 H   0  0  0  0  0  0  0  0  0  0  0  0
   11.3777   41.5549   31.4744 H   0  0  0  0  0  0  0  0  0  0  0  0
    9.8235   40.7202   31.7654 H   0  0  0  0  0  0  0  0  0  0  0  0
   11.7312   39.5363   30.3532 H   0  0  0  0  0  0  0  0  0  0  0  0
   10.1203   38.2697   32.6410 H   0  0  0  0  0  0  0  0  0  0  0  0
   13.6850   37.4639   31.2321 H   0  0  0  0  0  0  0  0  0  0  0  0
   10.0251   38.1793   29.7654 H   0  0  0  0  0  0  0  0  0  0  0  0
   11.2757   36.3136   32.4907 H   0  0  0  0  0  0  0  0  0  0  0  0
   11.9839   36.9111   29.7708 H   0  0  0  0  0  0  0  0  0  0  0  0
   12.3307   38.3536   34.7458 H   0  0  0  0  0  0  0  0  0  0  0  0
   16.7566   34.1787   32.4623 H   0  0  0  0  0  0  0  0  0  0  0  0
   15.3535   35.7355   37.5144 H   0  0  0  0  0  0  0  0  0  0  0  0
   16.6353   34.5300   37.1419 H   0  0  0  0  0  0  0  0  0  0  0  0
  1  2  2  0
  1  3  1  0
  3  4  1  0
  4  5  1  0
  6  1  1  0
  7  6  1  0
  6  8  1  0
  8  9  1  0
  9 10  2  0
 11  9  1  0
 10 12  1  0
 13 11  2  0
 12 14  2  0
 14 13  1  0
 14 15  1  0
 15 16  1  0
 16 17  1  0
 16 18  1  0
 18 19  2  0
 20 18  1  0
 19 21  1  0
 22 20  2  0
 20 23  1  0
 21 24  1  0
 21 25  2  0
 25 22  1  0
 23 26  1  0
 23 27  2  0
 24 28  1  0
 25 29  1  0
 28 29  1  0
  4 30  2  0
  4 31  1  0
 32 31  1  0
 32 33  1  0
 33 34  1  0
 33 35  1  0
 34 36  1  0
 35 37  1  0
 35 38  1  0
 38 36  1  0
 36 39  1  0
 38 40  1  0
 41 39  1  0
 42 39  1  0
 43 41  2  0
 41 44  1  0
 45 42  2  0
 46 43  1  0
 44 47  2  0
 44 45  1  0
 48 46  2  0
 48 47  1  0
 47 49  1  0
  6 50  1  1
  7 51  1  0
  7 52  1  0
  8 53  1  0
  8 54  1  0
 10 55  1  0
 11 56  1  0
 12 57  1  0
 13 58  1  0
 16 59  1  6
 17 60  1  0
 17 61  1  0
 17 62  1  0
 19 63  1  0
 22 64  1  0
 28 65  1  0
 28 66  1  0
 32 67  1  0
 32 68  1  0
 33 69  1  0
 35 70  1  0
 36 71  1  0
 37 72  1  0
 38 73  1  0
 40 74  1  0
 42 75  1  0
 46 76  1  0
 49 77  1  0
 49 78  1  0
M  CHG  3   5  -1  23   1  26  -1
M  END
>  <EmbedRMS>  (149) 
0.0809509577394

$$$$

     RDKit          3D

 78 83  0  0  0  0  0  0  0  0999 V2000
   10.2838   43.7627   33.8277 C   0  0  0  0  0  0  0  0  0  0  0  0
   11.4103   43.5863   34.3767 O   0  0  0  0  0  0  0  0  0  0  0  0
    9.3630   42.7236   33.7354 O   0  0  0  0  0  0  0  0  0  0  0  0
    9.8897   41.2248   34.2935 P   0  0  0  0  0  0  0  0  0  0  0  0
   10.3735   41.4542   35.8829 O   0  0  0  0  0  0  0  0  0  0  0  0
    9.9548   45.0699   33.2064 C   0  0  1  0  0  0  0  0  0  0  0  0
   11.0198   46.0481   33.4568 N   0  0  0  0  0  0  0  0  0  0  0  0
    9.7501   44.8507   31.6924 C   0  0  0  0  0  0  0  0  0  0  0  0
    8.7942   45.8415   31.0868 C   0  0  0  0  0  0  0  0  0  0  0  0
    7.4077   45.6010   31.1002 C   0  0  0  0  0  0  0  0  0  0  0  0
    9.2830   46.9888   30.4449 C   0  0  0  0  0  0  0  0  0  0  0  0
    6.5285   46.5021   30.4847 C   0  0  0  0  0  0  0  0  0  0  0  0
    8.4037   47.8904   29.8329 C   0  0  0  0  0  0  0  0  0  0  0  0
    7.0140   47.6518   29.8463 C   0  0  0  0  0  0  0  0  0  0  0  0
    6.0810   48.5206   29.2555 O   0  0  0  0  0  0  0  0  0  0  0  0
    6.3833   49.7035   28.5094 C   0  0  1  0  0  0  0  0  0  0  0  0
    6.8633   49.3035   27.1053 C   0  0  0  0  0  0  0  0  0  0  0  0
    5.1552   50.6127   28.5339 C   0  0  0  0  0  0  0  0  0  0  0  0
    4.5285   51.0471   27.3319 C   0  0  0  0  0  0  0  0  0  0  0  0
    4.5818   51.0143   29.7923 C   0  0  0  0  0  0  0  0  0  0  0  0
    3.3815   51.8243   27.4189 C   0  0  0  0  0  0  0  0  0  0  0  0
    3.4031   51.7935   29.8123 C   0  0  0  0  0  0  0  0  0  0  0  0
    5.1596   50.6261   31.0510 N   0  0  0  0  0  0  0  0  0  0  0  0
    2.6187   52.3449   26.3909 O   0  0  0  0  0  0  0  0  0  0  0  0
    2.8412   52.1789   28.6052 C   0  0  0  0  0  0  0  0  0  0  0  0
    4.3414   50.3600   32.1247 O   0  0  0  0  0  0  0  0  0  0  0  0
    6.3885   50.7240   31.2438 O   0  0  0  0  0  0  0  0  0  0  0  0
    1.5297   53.0739   26.9729 C   0  0  0  0  0  0  0  0  0  0  0  0
    1.7099   52.9421   28.3893 O   0  0  0  0  0  0  0  0  0  0  0  0
    8.8114   40.1834   34.2127 O   0  0  0  0  0  0  0  0  0  0  0  0
   11.2398   40.7937   33.3671 O   0  0  0  0  0  0  0  0  0  0  0  0
   10.9125   40.6857   31.9955 C   0  0  0  0  0  0  0  0  0  0  0  0
   11.5175   39.3786   31.4405 C   0  0  0  0  0  0  0  0  0  0  0  0
   12.7490   39.0863   32.0751 O   0  0  0  0  0  0  0  0  0  0  0  0
   10.6061   38.1867   31.6656 C   0  0  0  0  0  0  0  0  0  0  0  0
   12.9356   37.6796   32.0292 C   0  0  0  0  0  0  0  0  0  0  0  0
    9.6399   38.0902   30.6471 O   0  0  0  0  0  0  0  0  0  0  0  0
   11.5765   37.0145   31.7043 C   0  0  0  0  0  0  0  0  0  0  0  0
   13.4858   37.2125   33.3244 N   0  0  0  0  0  0  0  0  0  0  0  0
   11.6101   36.3396   30.4673 O   0  0  0  0  0  0  0  0  0  0  0  0
   14.4805   36.3319   33.5729 C   0  0  0  0  0  0  0  0  0  0  0  0
   13.1143   37.6276   34.5694 C   0  0  0  0  0  0  0  0  0  0  0  0
   15.2076   35.6153   32.6741 N   0  0  0  0  0  0  0  0  0  0  0  0
   14.6760   36.2304   34.9184 C   0  0  0  0  0  0  0  0  0  0  0  0
   13.8219   37.0449   35.5786 N   0  0  0  0  0  0  0  0  0  0  0  0
   16.1641   34.7600   33.1548 C   0  0  0  0  0  0  0  0  0  0  0  0
   15.6528   35.3505   35.4132 C   0  0  0  0  0  0  0  0  0  0  0  0
   16.3795   34.6314   34.5043 N   0  0  0  0  0  0  0  0  0  0  0  0
   15.9002   35.1931   36.8091 N   0  0  0  0  0  0  0  0  0  0  0  0
    9.0098   45.4349   33.6670 H   0  0  0  0  0  0  0  0  0  0  0  0
   11.9348   45.6932   33.0924 H   0  0  0  0  0  0  0  0  0  0  0  0
   11.1134   46.1993   34.4881 H   0  0  0  0  0  0  0  0  0  0  0  0
    9.3509   43.8342   31.4763 H   0  0  0  0  0  0  0  0  0  0  0  0
   10.7304   44.8921   31.1676 H   0  0  0  0  0  0  0  0  0  0  0  0
    7.0110   44.7163   31.5828 H   0  0  0  0  0  0  0  0  0  0  0  0
   10.3473   47.1879   30.4171 H   0  0  0  0  0  0  0  0  0  0  0  0
    5.4640   46.3056   30.5043 H   0  0  0  0  0  0  0  0  0  0  0  0
    8.8218   48.7636   29.3545 H   0  0  0  0  0  0  0  0  0  0  0  0
    7.2082   50.2667   28.9911 H   0  0  0  0  0  0  0  0  0  0  0  0
    7.1546   50.2038   26.5237 H   0  0  0  0  0  0  0  0  0  0  0  0
    6.0699   48.7416   26.5678 H   0  0  0  0  0  0  0  0  0  0  0  0
    7.7556   48.6482   27.1738 H   0  0  0  0  0  0  0  0  0  0  0  0
    4.8981   50.7919   26.3501 H   0  0  0  0  0  0  0  0  0  0  0  0
    2.9481   52.1037   30.7442 H   0  0  0  0  0  0  0  0  0  0  0  0
    0.5608   52.6267   26.6666 H   0  0  0  0  0  0  0  0  0  0  0  0
    1.5817   54.1428   26.6778 H   0  0  0  0  0  0  0  0  0  0  0  0
    9.8216   40.7200   31.7634 H   0  0  0  0  0  0  0  0  0  0  0  0
   11.3807   41.5436   31.4670 H   0  0  0  0  0  0  0  0  0  0  0  0
   11.6998   39.5042   30.3481 H   0  0  0  0  0  0  0  0  0  0  0  0
   10.1085   38.2765   32.6603 H   0  0  0  0  0  0  0  0  0  0  0  0
   13.6680   37.4519   31.2229 H   0  0  0  0  0  0  0  0  0  0  0  0
    9.0016   37.3867   30.9349 H   0  0  0  0  0  0  0  0  0  0  0  0
   11.2667   36.3061   32.5083 H   0  0  0  0  0  0  0  0  0  0  0  0
   12.1389   35.5126   30.6150 H   0  0  0  0  0  0  0  0  0  0  0  0
   12.3300   38.3529   34.7449 H   0  0  0  0  0  0  0  0  0  0  0  0
   16.7560   34.1779   32.4621 H   0  0  0  0  0  0  0  0  0  0  0  0
   16.6347   34.5298   37.1416 H   0  0  0  0  0  0  0  0  0  0  0  0
   15.3534   35.7359   37.5140 H   0  0  0  0  0  0  0  0  0  0  0  0
  1  2  2  0
  1  3  1  0
  3  4  1  0
  4  5  1  0
  6  1  1  0
  7  6  1  0
  6  8  1  0
  8  9  1  0
  9 10  2  0
 11  9  1  0
 10 12  1  0
 13 11  2  0
 12 14  2  0
 14 13  1  0
 14 15  1  0
 15 16  1  0
 16 17  1  0
 16 18  1  0
 18 19  2  0
 20 18  1  0
 19 21  1  0
 22 20  2  0
 20 23  1  0
 21 24  1  0
 21 25  2  0
 25 22  1  0
 23 26  1  0
 23 27  2  0
 24 28  1  0
 25 29  1  0
 28 29  1  0
  4 30  2  0
  4 31  1  0
 32 31  1  0
 32 33  1  0
 33 34  1  0
 33 35  1  0
 34 36  1  0
 35 37  1  0
 35 38  1  0
 38 36  1  0
 36 39  1  0
 38 40  1  0
 41 39  1  0
 42 39  1  0
 43 41  2  0
 41 44  1  0
 45 42  2  0
 46 43  1  0
 44 47  2  0
 44 45  1  0
 48 46  2  0
 48 47  1  0
 47 49  1  0
  6 50  1  1
  7 51  1  0
  7 52  1  0
  8 53  1  0
  8 54  1  0
 10 55  1  0
 11 56  1  0
 12 57  1  0
 13 58  1  0
 16 59  1  1
 17 60  1  0
 17 61  1  0
 17 62  1  0
 19 63  1  0
 22 64  1  0
 28 65  1  0
 28 66  1  0
 32 67  1  0
 32 68  1  0
 33 69  1  0
 35 70  1  0
 36 71  1  0
 37 72  1  0
 38 73  1  0
 40 74  1  0
 42 75  1  0
 46 76  1  0
 49 77  1  0
 49 78  1  0
M  CHG  3   5  -1  23   1  26  -1
M  END
>  <EmbedRMS>  (150) 
0.0832905757207

$$$$

     RDKit          3D

 78 83  0  0  0  0  0  0  0  0999 V2000
   10.2802   43.7666   33.8250 C   0  0  0  0  0  0  0  0  0  0  0  0
   11.4109   43.5920   34.3666 O   0  0  0  0  0  0  0  0  0  0  0  0
    9.3615   42.7252   33.7348 O   0  0  0  0  0  0  0  0  0  0  0  0
    9.8895   41.2270   34.2945 P   0  0  0  0  0  0  0  0  0  0  0  0
   10.3731   41.4569   35.8837 O   0  0  0  0  0  0  0  0  0  0  0  0
    9.9458   45.0737   33.2109 C   0  0  1  0  0  0  0  0  0  0  0  0
   11.0264   46.0293   33.4707 N   0  0  0  0  0  0  0  0  0  0  0  0
    9.7543   44.8538   31.6945 C   0  0  0  0  0  0  0  0  0  0  0  0
    8.7961   45.8402   31.0834 C   0  0  0  0  0  0  0  0  0  0  0  0
    7.4095   45.6005   31.1018 C   0  0  0  0  0  0  0  0  0  0  0  0
    9.2823   46.9877   30.4400 C   0  0  0  0  0  0  0  0  0  0  0  0
    6.5265   46.4999   30.4883 C   0  0  0  0  0  0  0  0  0  0  0  0
    8.3992   47.8880   29.8335 C   0  0  0  0  0  0  0  0  0  0  0  0
    7.0176   47.6538   29.8429 C   0  0  0  0  0  0  0  0  0  0  0  0
    6.1845   48.6016   29.2163 O   0  0  0  0  0  0  0  0  0  0  0  0
    4.8014   48.4504   28.8546 C   0  0  1  0  0  0  0  0  0  0  0  0
    4.6028   47.1782   28.0051 C   0  0  0  0  0  0  0  0  0  0  0  0
    3.8494   48.5424   30.0506 C   0  0  0  0  0  0  0  0  0  0  0  0
    4.3625   48.7741   31.3553 C   0  0  0  0  0  0  0  0  0  0  0  0
    2.4266   48.4151   29.8867 C   0  0  0  0  0  0  0  0  0  0  0  0
    3.4838   48.7749   32.4301 C   0  0  0  0  0  0  0  0  0  0  0  0
    1.5837   48.4067   31.0214 C   0  0  0  0  0  0  0  0  0  0  0  0
    1.8217   48.3382   28.5878 N   0  0  0  0  0  0  0  0  0  0  0  0
    3.7682   48.9530   33.7705 O   0  0  0  0  0  0  0  0  0  0  0  0
    2.1550   48.5885   32.2716 C   0  0  0  0  0  0  0  0  0  0  0  0
    2.1251   49.2800   27.6323 O   0  0  0  0  0  0  0  0  0  0  0  0
    0.8522   47.5755   28.3960 O   0  0  0  0  0  0  0  0  0  0  0  0
    2.5360   48.8692   34.4991 C   0  0  0  0  0  0  0  0  0  0  0  0
    1.5307   48.6370   33.5032 O   0  0  0  0  0  0  0  0  0  0  0  0
    8.8122   40.1844   34.2135 O   0  0  0  0  0  0  0  0  0  0  0  0
   11.2401   40.7950   33.3698 O   0  0  0  0  0  0  0  0  0  0  0  0
   10.9143   40.6914   31.9981 C   0  0  0  0  0  0  0  0  0  0  0  0
   11.5269   39.3912   31.4385 C   0  0  0  0  0  0  0  0  0  0  0  0
   12.7519   39.0911   32.0837 O   0  0  0  0  0  0  0  0  0  0  0  0
   10.6113   38.1932   31.6451 C   0  0  0  0  0  0  0  0  0  0  0  0
   12.9413   37.6838   32.0297 C   0  0  0  0  0  0  0  0  0  0  0  0
    9.6064   38.0878   30.6599 O   0  0  0  0  0  0  0  0  0  0  0  0
   11.5822   37.0197   31.6877 C   0  0  0  0  0  0  0  0  0  0  0  0
   13.4840   37.2105   33.3254 N   0  0  0  0  0  0  0  0  0  0  0  0
   11.6179   36.3072   30.4690 O   0  0  0  0  0  0  0  0  0  0  0  0
   14.4797   36.3309   33.5738 C   0  0  0  0  0  0  0  0  0  0  0  0
   13.1136   37.6269   34.5702 C   0  0  0  0  0  0  0  0  0  0  0  0
   15.2074   35.6152   32.6747 N   0  0  0  0  0  0  0  0  0  0  0  0
   14.6756   36.2298   34.9190 C   0  0  0  0  0  0  0  0  0  0  0  0
   13.8217   37.0445   35.5793 N   0  0  0  0  0  0  0  0  0  0  0  0
   16.1643   34.7603   33.1551 C   0  0  0  0  0  0  0  0  0  0  0  0
   15.6528   35.3503   35.4136 C   0  0  0  0  0  0  0  0  0  0  0  0
   16.3798   34.6316   34.5046 N   0  0  0  0  0  0  0  0  0  0  0  0
   15.9004   35.1930   36.8094 N   0  0  0  0  0  0  0  0  0  0  0  0
    8.9992   45.4383   33.6714 H   0  0  0  0  0  0  0  0  0  0  0  0
   11.0497   46.2279   34.4981 H   0  0  0  0  0  0  0  0  0  0  0  0
   10.7763   46.9369   33.0156 H   0  0  0  0  0  0  0  0  0  0  0  0
    9.3651   43.8349   31.4709 H   0  0  0  0  0  0  0  0  0  0  0  0
   10.7417   44.9075   31.1835 H   0  0  0  0  0  0  0  0  0  0  0  0
    7.0147   44.7206   31.5948 H   0  0  0  0  0  0  0  0  0  0  0  0
   10.3461   47.1885   30.4067 H   0  0  0  0  0  0  0  0  0  0  0  0
    5.4688   46.2998   30.5548 H   0  0  0  0  0  0  0  0  0  0  0  0
    8.7917   48.7712   29.3456 H   0  0  0  0  0  0  0  0  0  0  0  0
    4.5727   49.3165   28.1997 H   0  0  0  0  0  0  0  0  0  0  0  0
    5.5349   46.9347   27.4524 H   0  0  0  0  0  0  0  0  0  0  0  0
    4.3167   46.3061   28.6270 H   0  0  0  0  0  0  0  0  0  0  0  0
    3.8098   47.3295   27.2456 H   0  0  0  0  0  0  0  0  0  0  0  0
    5.4115   48.9466   31.5454 H   0  0  0  0  0  0  0  0  0  0  0  0
    0.5107   48.3002   30.9256 H   0  0  0  0  0  0  0  0  0  0  0  0
    2.3373   49.8243   35.0288 H   0  0  0  0  0  0  0  0  0  0  0  0
    2.5697   48.0209   35.2146 H   0  0  0  0  0  0  0  0  0  0  0  0
   11.3775   41.5548   31.4741 H   0  0  0  0  0  0  0  0  0  0  0  0
    9.8233   40.7200   31.7652 H   0  0  0  0  0  0  0  0  0  0  0  0
   11.7312   39.5361   30.3532 H   0  0  0  0  0  0  0  0  0  0  0  0
   10.1202   38.2696   32.6410 H   0  0  0  0  0  0  0  0  0  0  0  0
   13.6850   37.4639   31.2321 H   0  0  0  0  0  0  0  0  0  0  0  0
   10.0250   38.1792   29.7654 H   0  0  0  0  0  0  0  0  0  0  0  0
   11.2757   36.3135   32.4907 H   0  0  0  0  0  0  0  0  0  0  0  0
   11.9838   36.9111   29.7708 H   0  0  0  0  0  0  0  0  0  0  0  0
   12.3307   38.3536   34.7458 H   0  0  0  0  0  0  0  0  0  0  0  0
   16.7566   34.1787   32.4623 H   0  0  0  0  0  0  0  0  0  0  0  0
   16.6353   34.5301   37.1419 H   0  0  0  0  0  0  0  0  0  0  0  0
   15.3535   35.7355   37.5144 H   0  0  0  0  0  0  0  0  0  0  0  0
  1  2  2  0
  1  3  1  0
  3  4  1  0
  4  5  1  0
  6  1  1  0
  7  6  1  0
  6  8  1  0
  8  9  1  0
  9 10  2  0
 11  9  1  0
 10 12  1  0
 13 11  2  0
 12 14  2  0
 14 13  1  0
 14 15  1  0
 15 16  1  0
 16 17  1  0
 16 18  1  0
 18 19  2  0
 20 18  1  0
 19 21  1  0
 22 20  2  0
 20 23  1  0
 21 24  1  0
 21 25  2  0
 25 22  1  0
 23 26  1  0
 23 27  2  0
 24 28  1  0
 25 29  1  0
 28 29  1  0
  4 30  2  0
  4 31  1  0
 32 31  1  0
 32 33  1  0
 33 34  1  0
 33 35  1  0
 34 36  1  0
 35 37  1  0
 35 38  1  0
 38 36  1  0
 36 39  1  0
 38 40  1  0
 41 39  1  0
 42 39  1  0
 43 41  2  0
 41 44  1  0
 45 42  2  0
 46 43  1  0
 44 47  2  0
 44 45  1  0
 48 46  2  0
 48 47  1  0
 47 49  1  0
  6 50  1  1
  7 51  1  0
  7 52  1  0
  8 53  1  0
  8 54  1  0
 10 55  1  0
 11 56  1  0
 12 57  1  0
 13 58  1  0
 16 59  1  6
 17 60  1  0
 17 61  1  0
 17 62  1  0
 19 63  1  0
 22 64  1  0
 28 65  1  0
 28 66  1  0
 32 67  1  0
 32 68  1  0
 33 69  1  0
 35 70  1  0
 36 71  1  0
 37 72  1  0
 38 73  1  0
 40 74  1  0
 42 75  1  0
 46 76  1  0
 49 77  1  0
 49 78  1  0
M  CHG  3   5  -1  23   1  26  -1
M  END
>  <EmbedRMS>  (151) 
0.0806661386601

$$$$

     RDKit          3D

 78 83  0  0  0  0  0  0  0  0999 V2000
   10.2839   43.7626   33.8276 C   0  0  0  0  0  0  0  0  0  0  0  0
   11.4103   43.5864   34.3767 O   0  0  0  0  0  0  0  0  0  0  0  0
    9.3633   42.7234   33.7352 O   0  0  0  0  0  0  0  0  0  0  0  0
    9.8898   41.2247   34.2940 P   0  0  0  0  0  0  0  0  0  0  0  0
   10.3725   41.4544   35.8836 O   0  0  0  0  0  0  0  0  0  0  0  0
    9.9547   45.0700   33.2065 C   0  0  1  0  0  0  0  0  0  0  0  0
   11.0196   46.0482   33.4569 N   0  0  0  0  0  0  0  0  0  0  0  0
    9.7500   44.8508   31.6924 C   0  0  0  0  0  0  0  0  0  0  0  0
    8.7942   45.8417   31.0869 C   0  0  0  0  0  0  0  0  0  0  0  0
    7.4074   45.6007   31.0994 C   0  0  0  0  0  0  0  0  0  0  0  0
    9.2833   46.9887   30.4444 C   0  0  0  0  0  0  0  0  0  0  0  0
    6.5281   46.5015   30.4836 C   0  0  0  0  0  0  0  0  0  0  0  0
    8.4040   47.8895   29.8319 C   0  0  0  0  0  0  0  0  0  0  0  0
    7.0145   47.6527   29.8495 C   0  0  0  0  0  0  0  0  0  0  0  0
    6.0872   48.5292   29.2620 O   0  0  0  0  0  0  0  0  0  0  0  0
    6.4068   49.7803   28.6489 C   0  0  1  0  0  0  0  0  0  0  0  0
    5.1863   50.3207   27.9046 C   0  0  0  0  0  0  0  0  0  0  0  0
    6.9163   50.8028   29.6547 C   0  0  0  0  0  0  0  0  0  0  0  0
    7.8884   51.7268   29.2003 C   0  0  0  0  0  0  0  0  0  0  0  0
    6.5023   50.8441   31.0324 C   0  0  0  0  0  0  0  0  0  0  0  0
    8.4311   52.6249   30.1090 C   0  0  0  0  0  0  0  0  0  0  0  0
    7.1043   51.7711   31.9130 C   0  0  0  0  0  0  0  0  0  0  0  0
    5.5009   49.9609   31.5607 N   0  0  0  0  0  0  0  0  0  0  0  0
    9.3883   53.5965   29.8890 O   0  0  0  0  0  0  0  0  0  0  0  0
    8.0588   52.6433   31.4087 C   0  0  0  0  0  0  0  0  0  0  0  0
    5.6470   49.4453   32.8278 O   0  0  0  0  0  0  0  0  0  0  0  0
    4.4032   49.8321   30.9825 O   0  0  0  0  0  0  0  0  0  0  0  0
    9.6309   54.2680   31.1328 C   0  0  0  0  0  0  0  0  0  0  0  0
    8.7612   53.6280   32.0765 O   0  0  0  0  0  0  0  0  0  0  0  0
    8.8118   40.1831   34.2121 O   0  0  0  0  0  0  0  0  0  0  0  0
   11.2413   40.7934   33.3696 O   0  0  0  0  0  0  0  0  0  0  0  0
   10.9178   40.6902   31.9971 C   0  0  0  0  0  0  0  0  0  0  0  0
   11.5181   39.3813   31.4408 C   0  0  0  0  0  0  0  0  0  0  0  0
   12.7497   39.0870   32.0745 O   0  0  0  0  0  0  0  0  0  0  0  0
   10.6045   38.1891   31.6655 C   0  0  0  0  0  0  0  0  0  0  0  0
   12.9344   37.6801   32.0290 C   0  0  0  0  0  0  0  0  0  0  0  0
    9.6418   38.0757   30.6440 O   0  0  0  0  0  0  0  0  0  0  0  0
   11.5741   37.0169   31.7045 C   0  0  0  0  0  0  0  0  0  0  0  0
   13.4851   37.2125   33.3241 N   0  0  0  0  0  0  0  0  0  0  0  0
   11.6079   36.3406   30.4680 O   0  0  0  0  0  0  0  0  0  0  0  0
   14.4801   36.3321   33.5727 C   0  0  0  0  0  0  0  0  0  0  0  0
   13.1140   37.6277   34.5692 C   0  0  0  0  0  0  0  0  0  0  0  0
   15.2073   35.6155   32.6739 N   0  0  0  0  0  0  0  0  0  0  0  0
   14.6758   36.2306   34.9182 C   0  0  0  0  0  0  0  0  0  0  0  0
   13.8217   37.0451   35.5784 N   0  0  0  0  0  0  0  0  0  0  0  0
   16.1639   34.7602   33.1546 C   0  0  0  0  0  0  0  0  0  0  0  0
   15.6526   35.3506   35.4130 C   0  0  0  0  0  0  0  0  0  0  0  0
   16.3794   34.6316   34.5041 N   0  0  0  0  0  0  0  0  0  0  0  0
   15.9001   35.1933   36.8089 N   0  0  0  0  0  0  0  0  0  0  0  0
    9.0097   45.4349   33.6671 H   0  0  0  0  0  0  0  0  0  0  0  0
   11.1132   46.1995   34.4881 H   0  0  0  0  0  0  0  0  0  0  0  0
   11.9347   45.6934   33.0925 H   0  0  0  0  0  0  0  0  0  0  0  0
    9.3507   43.8343   31.4764 H   0  0  0  0  0  0  0  0  0  0  0  0
   10.7303   44.8922   31.1676 H   0  0  0  0  0  0  0  0  0  0  0  0
    7.0107   44.7158   31.5818 H   0  0  0  0  0  0  0  0  0  0  0  0
   10.3477   47.1874   30.4155 H   0  0  0  0  0  0  0  0  0  0  0  0
    5.4634   46.3065   30.5040 H   0  0  0  0  0  0  0  0  0  0  0  0
    8.8176   48.7628   29.3482 H   0  0  0  0  0  0  0  0  0  0  0  0
    7.1861   49.5917   27.8766 H   0  0  0  0  0  0  0  0  0  0  0  0
    4.8204   49.5600   27.1829 H   0  0  0  0  0  0  0  0  0  0  0  0
    4.3628   50.5712   28.6026 H   0  0  0  0  0  0  0  0  0  0  0  0
    5.4608   51.2364   27.3382 H   0  0  0  0  0  0  0  0  0  0  0  0
    8.2235   51.7342   28.1706 H   0  0  0  0  0  0  0  0  0  0  0  0
    6.8212   51.8218   32.9565 H   0  0  0  0  0  0  0  0  0  0  0  0
    9.3747   55.3446   31.0444 H   0  0  0  0  0  0  0  0  0  0  0  0
   10.6902   54.1385   31.4389 H   0  0  0  0  0  0  0  0  0  0  0  0
   11.3949   41.5458   31.4729 H   0  0  0  0  0  0  0  0  0  0  0  0
    9.8290   40.7386   31.7615 H   0  0  0  0  0  0  0  0  0  0  0  0
   11.6994   39.5070   30.3483 H   0  0  0  0  0  0  0  0  0  0  0  0
   10.1090   38.2633   32.6632 H   0  0  0  0  0  0  0  0  0  0  0  0
   13.6662   37.4514   31.2224 H   0  0  0  0  0  0  0  0  0  0  0  0
    8.9009   38.6924   30.8793 H   0  0  0  0  0  0  0  0  0  0  0  0
   11.2650   36.3082   32.5086 H   0  0  0  0  0  0  0  0  0  0  0  0
   12.1372   35.5140   30.6163 H   0  0  0  0  0  0  0  0  0  0  0  0
   12.3297   38.3530   34.7449 H   0  0  0  0  0  0  0  0  0  0  0  0
   16.7558   34.1781   32.4619 H   0  0  0  0  0  0  0  0  0  0  0  0
   16.6346   34.5300   37.1414 H   0  0  0  0  0  0  0  0  0  0  0  0
   15.3533   35.7360   37.5138 H   0  0  0  0  0  0  0  0  0  0  0  0
  1  2  2  0
  1  3  1  0
  3  4  1  0
  4  5  1  0
  6  1  1  0
  7  6  1  0
  6  8  1  0
  8  9  1  0
  9 10  2  0
 11  9  1  0
 10 12  1  0
 13 11  2  0
 12 14  2  0
 14 13  1  0
 14 15  1  0
 15 16  1  0
 16 17  1  0
 16 18  1  0
 18 19  2  0
 20 18  1  0
 19 21  1  0
 22 20  2  0
 20 23  1  0
 21 24  1  0
 21 25  2  0
 25 22  1  0
 23 26  1  0
 23 27  2  0
 24 28  1  0
 25 29  1  0
 28 29  1  0
  4 30  2  0
  4 31  1  0
 32 31  1  0
 32 33  1  0
 33 34  1  0
 33 35  1  0
 34 36  1  0
 35 37  1  0
 35 38  1  0
 38 36  1  0
 36 39  1  0
 38 40  1  0
 41 39  1  0
 42 39  1  0
 43 41  2  0
 41 44  1  0
 45 42  2  0
 46 43  1  0
 44 47  2  0
 44 45  1  0
 48 46  2  0
 48 47  1  0
 47 49  1  0
  6 50  1  1
  7 51  1  0
  7 52  1  0
  8 53  1  0
  8 54  1  0
 10 55  1  0
 11 56  1  0
 12 57  1  0
 13 58  1  0
 16 59  1  6
 17 60  1  0
 17 61  1  0
 17 62  1  0
 19 63  1  0
 22 64  1  0
 28 65  1  0
 28 66  1  0
 32 67  1  0
 32 68  1  0
 33 69  1  0
 35 70  1  0
 36 71  1  0
 37 72  1  0
 38 73  1  0
 40 74  1  0
 42 75  1  0
 46 76  1  0
 49 77  1  0
 49 78  1  0
M  CHG  3   5  -1  23   1  26  -1
M  END
>  <EmbedRMS>  (152) 
0.0837294057644

$$$$

     RDKit          3D

 78 83  0  0  0  0  0  0  0  0999 V2000
   10.2835   43.7662   33.8256 C   0  0  0  0  0  0  0  0  0  0  0  0
   11.4102   43.5930   34.3753 O   0  0  0  0  0  0  0  0  0  0  0  0
    9.3638   42.7255   33.7348 O   0  0  0  0  0  0  0  0  0  0  0  0
    9.8906   41.2266   34.2933 P   0  0  0  0  0  0  0  0  0  0  0  0
   10.3743   41.4557   35.8827 O   0  0  0  0  0  0  0  0  0  0  0  0
    9.9548   45.0695   33.2036 C   0  0  1  0  0  0  0  0  0  0  0  0
   11.0274   46.0322   33.4760 N   0  0  0  0  0  0  0  0  0  0  0  0
    9.7471   44.8484   31.6876 C   0  0  0  0  0  0  0  0  0  0  0  0
    8.7926   45.8410   31.0845 C   0  0  0  0  0  0  0  0  0  0  0  0
    7.4061   45.6012   31.0993 C   0  0  0  0  0  0  0  0  0  0  0  0
    9.2817   46.9877   30.4420 C   0  0  0  0  0  0  0  0  0  0  0  0
    6.5243   46.5007   30.4845 C   0  0  0  0  0  0  0  0  0  0  0  0
    8.4004   47.8876   29.8321 C   0  0  0  0  0  0  0  0  0  0  0  0
    7.0182   47.6577   29.8462 C   0  0  0  0  0  0  0  0  0  0  0  0
    6.1881   48.5948   29.2083 O   0  0  0  0  0  0  0  0  0  0  0  0
    4.7580   48.5676   29.1697 C   0  0  1  0  0  0  0  0  0  0  0  0
    4.2095   49.0384   30.5260 C   0  0  0  0  0  0  0  0  0  0  0  0
    4.2942   49.3907   27.9689 C   0  0  0  0  0  0  0  0  0  0  0  0
    3.4002   50.4880   28.1200 C   0  0  0  0  0  0  0  0  0  0  0  0
    4.7938   49.0869   26.6543 C   0  0  0  0  0  0  0  0  0  0  0  0
    3.0593   51.2319   26.9983 C   0  0  0  0  0  0  0  0  0  0  0  0
    4.4198   49.8925   25.5544 C   0  0  0  0  0  0  0  0  0  0  0  0
    5.6898   47.9860   26.4219 N   0  0  0  0  0  0  0  0  0  0  0  0
    2.2213   52.3278   26.9188 O   0  0  0  0  0  0  0  0  0  0  0  0
    3.5492   50.9492   25.7715 C   0  0  0  0  0  0  0  0  0  0  0  0
    5.4159   46.7412   26.9382 O   0  0  0  0  0  0  0  0  0  0  0  0
    6.6138   48.1005   25.5903 O   0  0  0  0  0  0  0  0  0  0  0  0
    2.1843   52.7586   25.5516 C   0  0  0  0  0  0  0  0  0  0  0  0
    3.0465   51.8505   24.8529 O   0  0  0  0  0  0  0  0  0  0  0  0
    8.8122   40.1851   34.2127 O   0  0  0  0  0  0  0  0  0  0  0  0
   11.2406   40.7945   33.3670 O   0  0  0  0  0  0  0  0  0  0  0  0
   10.9134   40.6866   31.9954 C   0  0  0  0  0  0  0  0  0  0  0  0
   11.5167   39.3787   31.4404 C   0  0  0  0  0  0  0  0  0  0  0  0
   12.7486   39.0849   32.0735 O   0  0  0  0  0  0  0  0  0  0  0  0
   10.6039   38.1884   31.6669 C   0  0  0  0  0  0  0  0  0  0  0  0
   12.9329   37.6776   32.0284 C   0  0  0  0  0  0  0  0  0  0  0  0
    9.6374   38.0938   30.6485 O   0  0  0  0  0  0  0  0  0  0  0  0
   11.5737   37.0140   31.7055 C   0  0  0  0  0  0  0  0  0  0  0  0
   13.4853   37.2120   33.3238 N   0  0  0  0  0  0  0  0  0  0  0  0
   11.6210   36.3379   30.4683 O   0  0  0  0  0  0  0  0  0  0  0  0
   14.4804   36.3319   33.5726 C   0  0  0  0  0  0  0  0  0  0  0  0
   13.1141   37.6275   34.5689 C   0  0  0  0  0  0  0  0  0  0  0  0
   15.2075   35.6152   32.6740 N   0  0  0  0  0  0  0  0  0  0  0  0
   14.6761   36.2306   34.9181 C   0  0  0  0  0  0  0  0  0  0  0  0
   13.8218   37.0451   35.5783 N   0  0  0  0  0  0  0  0  0  0  0  0
   16.1642   34.7600   33.1548 C   0  0  0  0  0  0  0  0  0  0  0  0
   15.6527   35.3507   35.4131 C   0  0  0  0  0  0  0  0  0  0  0  0
   16.3795   34.6315   34.5043 N   0  0  0  0  0  0  0  0  0  0  0  0
   15.9001   35.1933   36.8090 N   0  0  0  0  0  0  0  0  0  0  0  0
    9.0121   45.4317   33.6713 H   0  0  0  0  0  0  0  0  0  0  0  0
   11.8908   45.7659   32.9476 H   0  0  0  0  0  0  0  0  0  0  0  0
   10.7261   46.9688   33.1215 H   0  0  0  0  0  0  0  0  0  0  0  0
   10.7236   44.8825   31.1558 H   0  0  0  0  0  0  0  0  0  0  0  0
    9.3425   43.8332   31.4758 H   0  0  0  0  0  0  0  0  0  0  0  0
    7.0107   44.7154   31.5814 H   0  0  0  0  0  0  0  0  0  0  0  0
   10.3460   47.1857   30.4096 H   0  0  0  0  0  0  0  0  0  0  0  0
    5.4677   46.2796   30.5148 H   0  0  0  0  0  0  0  0  0  0  0  0
    8.7944   48.7683   29.3409 H   0  0  0  0  0  0  0  0  0  0  0  0
    4.3936   47.5331   29.0079 H   0  0  0  0  0  0  0  0  0  0  0  0
    4.5293   50.0817   30.7343 H   0  0  0  0  0  0  0  0  0  0  0  0
    3.1011   48.9684   30.5418 H   0  0  0  0  0  0  0  0  0  0  0  0
    4.5952   48.3956   31.3435 H   0  0  0  0  0  0  0  0  0  0  0  0
    2.9791   50.7772   29.0712 H   0  0  0  0  0  0  0  0  0  0  0  0
    4.7860   49.6888   24.5563 H   0  0  0  0  0  0  0  0  0  0  0  0
    2.5696   53.7961   25.4651 H   0  0  0  0  0  0  0  0  0  0  0  0
    1.1501   52.6874   25.1542 H   0  0  0  0  0  0  0  0  0  0  0  0
    9.8225   40.7225   31.7631 H   0  0  0  0  0  0  0  0  0  0  0  0
   11.3828   41.5438   31.4669 H   0  0  0  0  0  0  0  0  0  0  0  0
   11.6979   39.5036   30.3478 H   0  0  0  0  0  0  0  0  0  0  0  0
   10.1084   38.2786   32.6627 H   0  0  0  0  0  0  0  0  0  0  0  0
   13.6638   37.4472   31.2214 H   0  0  0  0  0  0  0  0  0  0  0  0
    8.9763   37.4191   30.9532 H   0  0  0  0  0  0  0  0  0  0  0  0
   11.2821   36.3054   32.5171 H   0  0  0  0  0  0  0  0  0  0  0  0
   10.8658   35.6935   30.4652 H   0  0  0  0  0  0  0  0  0  0  0  0
   12.3293   38.3523   34.7445 H   0  0  0  0  0  0  0  0  0  0  0  0
   16.7561   34.1778   32.4621 H   0  0  0  0  0  0  0  0  0  0  0  0
   16.6345   34.5300   37.1416 H   0  0  0  0  0  0  0  0  0  0  0  0
   15.3533   35.7361   37.5138 H   0  0  0  0  0  0  0  0  0  0  0  0
  1  2  2  0
  1  3  1  0
  3  4  1  0
  4  5  1  0
  6  1  1  0
  7  6  1  0
  6  8  1  0
  8  9  1  0
  9 10  2  0
 11  9  1  0
 10 12  1  0
 13 11  2  0
 12 14  2  0
 14 13  1  0
 14 15  1  0
 15 16  1  0
 16 17  1  0
 16 18  1  0
 18 19  2  0
 20 18  1  0
 19 21  1  0
 22 20  2  0
 20 23  1  0
 21 24  1  0
 21 25  2  0
 25 22  1  0
 23 26  1  0
 23 27  2  0
 24 28  1  0
 25 29  1  0
 28 29  1  0
  4 30  2  0
  4 31  1  0
 32 31  1  0
 32 33  1  0
 33 34  1  0
 33 35  1  0
 34 36  1  0
 35 37  1  0
 35 38  1  0
 38 36  1  0
 36 39  1  0
 38 40  1  0
 41 39  1  0
 42 39  1  0
 43 41  2  0
 41 44  1  0
 45 42  2  0
 46 43  1  0
 44 47  2  0
 44 45  1  0
 48 46  2  0
 48 47  1  0
 47 49  1  0
  6 50  1  1
  7 51  1  0
  7 52  1  0
  8 53  1  0
  8 54  1  0
 10 55  1  0
 11 56  1  0
 12 57  1  0
 13 58  1  0
 16 59  1  6
 17 60  1  0
 17 61  1  0
 17 62  1  0
 19 63  1  0
 22 64  1  0
 28 65  1  0
 28 66  1  0
 32 67  1  0
 32 68  1  0
 33 69  1  0
 35 70  1  0
 36 71  1  0
 37 72  1  0
 38 73  1  0
 40 74  1  0
 42 75  1  0
 46 76  1  0
 49 77  1  0
 49 78  1  0
M  CHG  3   5  -1  23   1  26  -1
M  END
>  <EmbedRMS>  (153) 
0.0825362017741

$$$$

     RDKit          3D

 78 83  0  0  0  0  0  0  0  0999 V2000
   10.2833   43.7662   33.8253 C   0  0  0  0  0  0  0  0  0  0  0  0
   11.4100   43.5931   34.3750 O   0  0  0  0  0  0  0  0  0  0  0  0
    9.3637   42.7255   33.7346 O   0  0  0  0  0  0  0  0  0  0  0  0
    9.8906   41.2266   34.2933 P   0  0  0  0  0  0  0  0  0  0  0  0
   10.3742   41.4558   35.8827 O   0  0  0  0  0  0  0  0  0  0  0  0
    9.9545   45.0695   33.2031 C   0  0  1  0  0  0  0  0  0  0  0  0
   11.0272   46.0322   33.4754 N   0  0  0  0  0  0  0  0  0  0  0  0
    9.7466   44.8484   31.6870 C   0  0  0  0  0  0  0  0  0  0  0  0
    8.7921   45.8409   31.0836 C   0  0  0  0  0  0  0  0  0  0  0  0
    7.4041   45.6015   31.1003 C   0  0  0  0  0  0  0  0  0  0  0  0
    9.2821   46.9902   30.4427 C   0  0  0  0  0  0  0  0  0  0  0  0
    6.5246   46.5042   30.4875 C   0  0  0  0  0  0  0  0  0  0  0  0
    8.4007   47.8918   29.8340 C   0  0  0  0  0  0  0  0  0  0  0  0
    7.0215   47.6466   29.8433 C   0  0  0  0  0  0  0  0  0  0  0  0
    6.1445   48.5461   29.2298 O   0  0  0  0  0  0  0  0  0  0  0  0
    5.6784   48.4008   27.8842 C   0  0  1  0  0  0  0  0  0  0  0  0
    6.8086   48.6657   26.8787 C   0  0  0  0  0  0  0  0  0  0  0  0
    4.9744   47.0621   27.6826 C   0  0  0  0  0  0  0  0  0  0  0  0
    5.7258   45.9127   27.3219 C   0  0  0  0  0  0  0  0  0  0  0  0
    3.5556   46.9337   27.8671 C   0  0  0  0  0  0  0  0  0  0  0  0
    5.0529   44.7180   27.1060 C   0  0  0  0  0  0  0  0  0  0  0  0
    2.9244   45.6956   27.6108 C   0  0  0  0  0  0  0  0  0  0  0  0
    2.7518   48.0265   28.3407 N   0  0  0  0  0  0  0  0  0  0  0  0
    5.5765   43.4915   26.7445 O   0  0  0  0  0  0  0  0  0  0  0  0
    3.7113   44.6157   27.2365 C   0  0  0  0  0  0  0  0  0  0  0  0
    1.4550   48.1622   27.9014 O   0  0  0  0  0  0  0  0  0  0  0  0
    3.1331   48.7138   29.3104 O   0  0  0  0  0  0  0  0  0  0  0  0
    4.4907   42.5605   26.6404 C   0  0  0  0  0  0  0  0  0  0  0  0
    3.3177   43.3199   26.9628 O   0  0  0  0  0  0  0  0  0  0  0  0
    8.8122   40.1851   34.2127 O   0  0  0  0  0  0  0  0  0  0  0  0
   11.2406   40.7945   33.3670 O   0  0  0  0  0  0  0  0  0  0  0  0
   10.9134   40.6866   31.9954 C   0  0  0  0  0  0  0  0  0  0  0  0
   11.5166   39.3787   31.4404 C   0  0  0  0  0  0  0  0  0  0  0  0
   12.7485   39.0849   32.0735 O   0  0  0  0  0  0  0  0  0  0  0  0
   10.6038   38.1884   31.6669 C   0  0  0  0  0  0  0  0  0  0  0  0
   12.9329   37.6776   32.0284 C   0  0  0  0  0  0  0  0  0  0  0  0
    9.6373   38.0939   30.6484 O   0  0  0  0  0  0  0  0  0  0  0  0
   11.5737   37.0141   31.7055 C   0  0  0  0  0  0  0  0  0  0  0  0
   13.4853   37.2120   33.3238 N   0  0  0  0  0  0  0  0  0  0  0  0
   11.6210   36.3379   30.4683 O   0  0  0  0  0  0  0  0  0  0  0  0
   14.4804   36.3319   33.5726 C   0  0  0  0  0  0  0  0  0  0  0  0
   13.1141   37.6275   34.5689 C   0  0  0  0  0  0  0  0  0  0  0  0
   15.2075   35.6152   32.6740 N   0  0  0  0  0  0  0  0  0  0  0  0
   14.6761   36.2306   34.9181 C   0  0  0  0  0  0  0  0  0  0  0  0
   13.8218   37.0451   35.5783 N   0  0  0  0  0  0  0  0  0  0  0  0
   16.1642   34.7600   33.1548 C   0  0  0  0  0  0  0  0  0  0  0  0
   15.6528   35.3507   35.4131 C   0  0  0  0  0  0  0  0  0  0  0  0
   16.3795   34.6315   34.5043 N   0  0  0  0  0  0  0  0  0  0  0  0
   15.9001   35.1933   36.8090 N   0  0  0  0  0  0  0  0  0  0  0  0
    9.0119   45.4318   33.6708 H   0  0  0  0  0  0  0  0  0  0  0  0
   10.7258   46.9688   33.1212 H   0  0  0  0  0  0  0  0  0  0  0  0
   11.8905   45.7660   32.9467 H   0  0  0  0  0  0  0  0  0  0  0  0
    9.3416   43.8332   31.4754 H   0  0  0  0  0  0  0  0  0  0  0  0
   10.7229   44.8823   31.1549 H   0  0  0  0  0  0  0  0  0  0  0  0
    7.0070   44.7176   31.5839 H   0  0  0  0  0  0  0  0  0  0  0  0
   10.3462   47.1895   30.4132 H   0  0  0  0  0  0  0  0  0  0  0  0
    5.4592   46.3134   30.5090 H   0  0  0  0  0  0  0  0  0  0  0  0
    8.7900   48.7769   29.3473 H   0  0  0  0  0  0  0  0  0  0  0  0
    4.9474   49.2149   27.6980 H   0  0  0  0  0  0  0  0  0  0  0  0
    7.6814   48.0059   27.0570 H   0  0  0  0  0  0  0  0  0  0  0  0
    7.1540   49.7168   26.9777 H   0  0  0  0  0  0  0  0  0  0  0  0
    6.4418   48.5134   25.8412 H   0  0  0  0  0  0  0  0  0  0  0  0
    6.8007   45.9366   27.2149 H   0  0  0  0  0  0  0  0  0  0  0  0
    1.8566   45.5703   27.7354 H   0  0  0  0  0  0  0  0  0  0  0  0
    4.6235   41.7329   27.3684 H   0  0  0  0  0  0  0  0  0  0  0  0
    4.4200   42.1672   25.6047 H   0  0  0  0  0  0  0  0  0  0  0  0
   11.3827   41.5438   31.4668 H   0  0  0  0  0  0  0  0  0  0  0  0
    9.8225   40.7225   31.7631 H   0  0  0  0  0  0  0  0  0  0  0  0
   11.6978   39.5037   30.3478 H   0  0  0  0  0  0  0  0  0  0  0  0
   10.1083   38.2787   32.6626 H   0  0  0  0  0  0  0  0  0  0  0  0
   13.6638   37.4472   31.2214 H   0  0  0  0  0  0  0  0  0  0  0  0
    8.9762   37.4192   30.9532 H   0  0  0  0  0  0  0  0  0  0  0  0
   11.2821   36.3054   32.5171 H   0  0  0  0  0  0  0  0  0  0  0  0
   10.8657   35.6936   30.4652 H   0  0  0  0  0  0  0  0  0  0  0  0
   12.3293   38.3523   34.7444 H   0  0  0  0  0  0  0  0  0  0  0  0
   16.7561   34.1778   32.4621 H   0  0  0  0  0  0  0  0  0  0  0  0
   16.6345   34.5300   37.1416 H   0  0  0  0  0  0  0  0  0  0  0  0
   15.3533   35.7361   37.5138 H   0  0  0  0  0  0  0  0  0  0  0  0
  1  2  2  0
  1  3  1  0
  3  4  1  0
  4  5  1  0
  6  1  1  0
  7  6  1  0
  6  8  1  0
  8  9  1  0
  9 10  2  0
 11  9  1  0
 10 12  1  0
 13 11  2  0
 12 14  2  0
 14 13  1  0
 14 15  1  0
 15 16  1  0
 16 17  1  0
 16 18  1  0
 18 19  2  0
 20 18  1  0
 19 21  1  0
 22 20  2  0
 20 23  1  0
 21 24  1  0
 21 25  2  0
 25 22  1  0
 23 26  1  0
 23 27  2  0
 24 28  1  0
 25 29  1  0
 28 29  1  0
  4 30  2  0
  4 31  1  0
 32 31  1  0
 32 33  1  0
 33 34  1  0
 33 35  1  0
 34 36  1  0
 35 37  1  0
 35 38  1  0
 38 36  1  0
 36 39  1  0
 38 40  1  0
 41 39  1  0
 42 39  1  0
 43 41  2  0
 41 44  1  0
 45 42  2  0
 46 43  1  0
 44 47  2  0
 44 45  1  0
 48 46  2  0
 48 47  1  0
 47 49  1  0
  6 50  1  1
  7 51  1  0
  7 52  1  0
  8 53  1  0
  8 54  1  0
 10 55  1  0
 11 56  1  0
 12 57  1  0
 13 58  1  0
 16 59  1  6
 17 60  1  0
 17 61  1  0
 17 62  1  0
 19 63  1  0
 22 64  1  0
 28 65  1  0
 28 66  1  0
 32 67  1  0
 32 68  1  0
 33 69  1  0
 35 70  1  0
 36 71  1  0
 37 72  1  0
 38 73  1  0
 40 74  1  0
 42 75  1  0
 46 76  1  0
 49 77  1  0
 49 78  1  0
M  CHG  3   5  -1  23   1  26  -1
M  END
>  <EmbedRMS>  (154) 
0.0826778257225

$$$$

     RDKit          3D

 78 83  0  0  0  0  0  0  0  0999 V2000
   10.2803   43.7665   33.8251 C   0  0  0  0  0  0  0  0  0  0  0  0
   11.4110   43.5919   34.3666 O   0  0  0  0  0  0  0  0  0  0  0  0
    9.3616   42.7251   33.7349 O   0  0  0  0  0  0  0  0  0  0  0  0
    9.8896   41.2269   34.2945 P   0  0  0  0  0  0  0  0  0  0  0  0
   10.3732   41.4568   35.8838 O   0  0  0  0  0  0  0  0  0  0  0  0
    9.9458   45.0737   33.2112 C   0  0  1  0  0  0  0  0  0  0  0  0
   11.0266   46.0293   33.4706 N   0  0  0  0  0  0  0  0  0  0  0  0
    9.7535   44.8539   31.6950 C   0  0  0  0  0  0  0  0  0  0  0  0
    8.7955   45.8410   31.0848 C   0  0  0  0  0  0  0  0  0  0  0  0
    7.4087   45.6003   31.1003 C   0  0  0  0  0  0  0  0  0  0  0  0
    9.2830   46.9875   30.4396 C   0  0  0  0  0  0  0  0  0  0  0  0
    6.5282   46.5009   30.4850 C   0  0  0  0  0  0  0  0  0  0  0  0
    8.4024   47.8886   29.8300 C   0  0  0  0  0  0  0  0  0  0  0  0
    7.0136   47.6519   29.8492 C   0  0  0  0  0  0  0  0  0  0  0  0
    6.0863   48.5253   29.2578 O   0  0  0  0  0  0  0  0  0  0  0  0
    6.4053   49.7643   28.6171 C   0  0  1  0  0  0  0  0  0  0  0  0
    5.1530   50.2934   27.9222 C   0  0  0  0  0  0  0  0  0  0  0  0
    6.9017   50.7903   29.6228 C   0  0  0  0  0  0  0  0  0  0  0  0
    6.3098   50.8278   30.9099 C   0  0  0  0  0  0  0  0  0  0  0  0
    7.8762   51.7814   29.2729 C   0  0  0  0  0  0  0  0  0  0  0  0
    6.7138   51.8163   31.7979 C   0  0  0  0  0  0  0  0  0  0  0  0
    8.2375   52.7726   30.2126 C   0  0  0  0  0  0  0  0  0  0  0  0
    8.4852   51.8097   27.9753 N   0  0  0  0  0  0  0  0  0  0  0  0
    6.2829   52.0366   33.0920 O   0  0  0  0  0  0  0  0  0  0  0  0
    7.6366   52.7477   31.4640 C   0  0  0  0  0  0  0  0  0  0  0  0
    9.2481   50.7460   27.5537 O   0  0  0  0  0  0  0  0  0  0  0  0
    8.5587   52.8883   27.3514 O   0  0  0  0  0  0  0  0  0  0  0  0
    6.9837   53.1788   33.6030 C   0  0  0  0  0  0  0  0  0  0  0  0
    7.8371   53.6022   32.5309 O   0  0  0  0  0  0  0  0  0  0  0  0
    8.8122   40.1844   34.2135 O   0  0  0  0  0  0  0  0  0  0  0  0
   11.2401   40.7950   33.3698 O   0  0  0  0  0  0  0  0  0  0  0  0
   10.9143   40.6914   31.9981 C   0  0  0  0  0  0  0  0  0  0  0  0
   11.5269   39.3911   31.4385 C   0  0  0  0  0  0  0  0  0  0  0  0
   12.7519   39.0911   32.0837 O   0  0  0  0  0  0  0  0  0  0  0  0
   10.6113   38.1932   31.6451 C   0  0  0  0  0  0  0  0  0  0  0  0
   12.9413   37.6838   32.0297 C   0  0  0  0  0  0  0  0  0  0  0  0
    9.6064   38.0877   30.6599 O   0  0  0  0  0  0  0  0  0  0  0  0
   11.5822   37.0197   31.6877 C   0  0  0  0  0  0  0  0  0  0  0  0
   13.4840   37.2105   33.3254 N   0  0  0  0  0  0  0  0  0  0  0  0
   11.6179   36.3072   30.4690 O   0  0  0  0  0  0  0  0  0  0  0  0
   14.4797   36.3309   33.5738 C   0  0  0  0  0  0  0  0  0  0  0  0
   13.1136   37.6269   34.5702 C   0  0  0  0  0  0  0  0  0  0  0  0
   15.2074   35.6152   32.6747 N   0  0  0  0  0  0  0  0  0  0  0  0
   14.6756   36.2298   34.9190 C   0  0  0  0  0  0  0  0  0  0  0  0
   13.8217   37.0445   35.5793 N   0  0  0  0  0  0  0  0  0  0  0  0
   16.1643   34.7603   33.1551 C   0  0  0  0  0  0  0  0  0  0  0  0
   15.6528   35.3503   35.4136 C   0  0  0  0  0  0  0  0  0  0  0  0
   16.3798   34.6316   34.5046 N   0  0  0  0  0  0  0  0  0  0  0  0
   15.9004   35.1931   36.8094 N   0  0  0  0  0  0  0  0  0  0  0  0
    8.9995   45.4383   33.6723 H   0  0  0  0  0  0  0  0  0  0  0  0
   11.0503   46.2279   34.4980 H   0  0  0  0  0  0  0  0  0  0  0  0
   10.7762   46.9369   33.0156 H   0  0  0  0  0  0  0  0  0  0  0  0
   10.7406   44.9070   31.1836 H   0  0  0  0  0  0  0  0  0  0  0  0
    9.3636   43.8352   31.4716 H   0  0  0  0  0  0  0  0  0  0  0  0
    7.0130   44.7160   31.5846 H   0  0  0  0  0  0  0  0  0  0  0  0
   10.3472   47.1861   30.4061 H   0  0  0  0  0  0  0  0  0  0  0  0
    5.4637   46.3048   30.5058 H   0  0  0  0  0  0  0  0  0  0  0  0
    8.8140   48.7614   29.3460 H   0  0  0  0  0  0  0  0  0  0  0  0
    7.1556   49.5635   27.8280 H   0  0  0  0  0  0  0  0  0  0  0  0
    5.3798   51.2432   27.3918 H   0  0  0  0  0  0  0  0  0  0  0  0
    4.7947   49.5512   27.1775 H   0  0  0  0  0  0  0  0  0  0  0  0
    4.3434   50.4739   28.6616 H   0  0  0  0  0  0  0  0  0  0  0  0
    5.5494   50.1168   31.2066 H   0  0  0  0  0  0  0  0  0  0  0  0
    8.9704   53.5327   29.9739 H   0  0  0  0  0  0  0  0  0  0  0  0
    6.2661   53.9850   33.8628 H   0  0  0  0  0  0  0  0  0  0  0  0
    7.5919   52.8925   34.4866 H   0  0  0  0  0  0  0  0  0  0  0  0
    9.8233   40.7200   31.7652 H   0  0  0  0  0  0  0  0  0  0  0  0
   11.3774   41.5548   31.4741 H   0  0  0  0  0  0  0  0  0  0  0  0
   11.7312   39.5361   30.3532 H   0  0  0  0  0  0  0  0  0  0  0  0
   10.1202   38.2696   32.6410 H   0  0  0  0  0  0  0  0  0  0  0  0
   13.6850   37.4639   31.2321 H   0  0  0  0  0  0  0  0  0  0  0  0
   10.0251   38.1792   29.7654 H   0  0  0  0  0  0  0  0  0  0  0  0
   11.2757   36.3135   32.4907 H   0  0  0  0  0  0  0  0  0  0  0  0
   11.9838   36.9111   29.7708 H   0  0  0  0  0  0  0  0  0  0  0  0
   12.3307   38.3536   34.7458 H   0  0  0  0  0  0  0  0  0  0  0  0
   16.7566   34.1787   32.4623 H   0  0  0  0  0  0  0  0  0  0  0  0
   15.3535   35.7355   37.5144 H   0  0  0  0  0  0  0  0  0  0  0  0
   16.6353   34.5301   37.1419 H   0  0  0  0  0  0  0  0  0  0  0  0
  1  2  2  0
  1  3  1  0
  3  4  1  0
  4  5  1  0
  6  1  1  0
  7  6  1  0
  6  8  1  0
  8  9  1  0
  9 10  2  0
 11  9  1  0
 10 12  1  0
 13 11  2  0
 12 14  2  0
 14 13  1  0
 14 15  1  0
 15 16  1  0
 16 17  1  0
 16 18  1  0
 18 19  2  0
 20 18  1  0
 19 21  1  0
 22 20  2  0
 20 23  1  0
 21 24  1  0
 21 25  2  0
 25 22  1  0
 23 26  1  0
 23 27  2  0
 24 28  1  0
 25 29  1  0
 28 29  1  0
  4 30  2  0
  4 31  1  0
 32 31  1  0
 32 33  1  0
 33 34  1  0
 33 35  1  0
 34 36  1  0
 35 37  1  0
 35 38  1  0
 38 36  1  0
 36 39  1  0
 38 40  1  0
 41 39  1  0
 42 39  1  0
 43 41  2  0
 41 44  1  0
 45 42  2  0
 46 43  1  0
 44 47  2  0
 44 45  1  0
 48 46  2  0
 48 47  1  0
 47 49  1  0
  6 50  1  1
  7 51  1  0
  7 52  1  0
  8 53  1  0
  8 54  1  0
 10 55  1  0
 11 56  1  0
 12 57  1  0
 13 58  1  0
 16 59  1  6
 17 60  1  0
 17 61  1  0
 17 62  1  0
 19 63  1  0
 22 64  1  0
 28 65  1  0
 28 66  1  0
 32 67  1  0
 32 68  1  0
 33 69  1  0
 35 70  1  0
 36 71  1  0
 37 72  1  0
 38 73  1  0
 40 74  1  0
 42 75  1  0
 46 76  1  0
 49 77  1  0
 49 78  1  0
M  CHG  3   5  -1  23   1  26  -1
M  END
>  <EmbedRMS>  (155) 
0.080656572331

$$$$

     RDKit          3D

 78 83  0  0  0  0  0  0  0  0999 V2000
   10.2803   43.7665   33.8251 C   0  0  0  0  0  0  0  0  0  0  0  0
   11.4110   43.5919   34.3667 O   0  0  0  0  0  0  0  0  0  0  0  0
    9.3618   42.7250   33.7345 O   0  0  0  0  0  0  0  0  0  0  0  0
    9.8902   41.2265   34.2931 P   0  0  0  0  0  0  0  0  0  0  0  0
   10.3743   41.4562   35.8824 O   0  0  0  0  0  0  0  0  0  0  0  0
    9.9458   45.0737   33.2113 C   0  0  1  0  0  0  0  0  0  0  0  0
   11.0266   46.0293   33.4706 N   0  0  0  0  0  0  0  0  0  0  0  0
    9.7534   44.8539   31.6951 C   0  0  0  0  0  0  0  0  0  0  0  0
    8.7954   45.8412   31.0852 C   0  0  0  0  0  0  0  0  0  0  0  0
    7.4088   45.6001   31.1001 C   0  0  0  0  0  0  0  0  0  0  0  0
    9.2828   46.9872   30.4394 C   0  0  0  0  0  0  0  0  0  0  0  0
    6.5286   46.5004   30.4842 C   0  0  0  0  0  0  0  0  0  0  0  0
    8.4025   47.8883   29.8294 C   0  0  0  0  0  0  0  0  0  0  0  0
    7.0133   47.6530   29.8503 C   0  0  0  0  0  0  0  0  0  0  0  0
    6.0836   48.5252   29.2601 O   0  0  0  0  0  0  0  0  0  0  0  0
    6.3875   49.7929   28.6769 C   0  0  1  0  0  0  0  0  0  0  0  0
    5.1778   50.2928   27.8867 C   0  0  0  0  0  0  0  0  0  0  0  0
    6.8055   50.8049   29.7340 C   0  0  0  0  0  0  0  0  0  0  0  0
    8.0456   51.4687   29.5656 C   0  0  0  0  0  0  0  0  0  0  0  0
    5.9766   51.1520   30.8538 C   0  0  0  0  0  0  0  0  0  0  0  0
    8.4180   52.4308   30.4953 C   0  0  0  0  0  0  0  0  0  0  0  0
    6.4013   52.1491   31.7594 C   0  0  0  0  0  0  0  0  0  0  0  0
    4.7071   50.5268   31.0766 N   0  0  0  0  0  0  0  0  0  0  0  0
    9.5708   53.1916   30.5289 O   0  0  0  0  0  0  0  0  0  0  0  0
    7.6303   52.7576   31.5450 C   0  0  0  0  0  0  0  0  0  0  0  0
    4.6513   49.1963   31.4173 O   0  0  0  0  0  0  0  0  0  0  0  0
    3.6961   51.2364   31.2558 O   0  0  0  0  0  0  0  0  0  0  0  0
    9.5011   54.0497   31.6759 C   0  0  0  0  0  0  0  0  0  0  0  0
    8.2455   53.7405   32.2961 O   0  0  0  0  0  0  0  0  0  0  0  0
    8.8124   40.1844   34.2130 O   0  0  0  0  0  0  0  0  0  0  0  0
   11.2402   40.7949   33.3666 O   0  0  0  0  0  0  0  0  0  0  0  0
   10.9125   40.6859   31.9952 C   0  0  0  0  0  0  0  0  0  0  0  0
   11.5175   39.3786   31.4405 C   0  0  0  0  0  0  0  0  0  0  0  0
   12.7490   39.0864   32.0753 O   0  0  0  0  0  0  0  0  0  0  0  0
   10.6060   38.1867   31.6656 C   0  0  0  0  0  0  0  0  0  0  0  0
   12.9355   37.6796   32.0292 C   0  0  0  0  0  0  0  0  0  0  0  0
    9.6399   38.0903   30.6471 O   0  0  0  0  0  0  0  0  0  0  0  0
   11.5765   37.0145   31.7044 C   0  0  0  0  0  0  0  0  0  0  0  0
   13.4858   37.2125   33.3244 N   0  0  0  0  0  0  0  0  0  0  0  0
   11.6101   36.3397   30.4673 O   0  0  0  0  0  0  0  0  0  0  0  0
   14.4805   36.3319   33.5729 C   0  0  0  0  0  0  0  0  0  0  0  0
   13.1143   37.6276   34.5694 C   0  0  0  0  0  0  0  0  0  0  0  0
   15.2076   35.6153   32.6741 N   0  0  0  0  0  0  0  0  0  0  0  0
   14.6760   36.2304   34.9184 C   0  0  0  0  0  0  0  0  0  0  0  0
   13.8219   37.0449   35.5786 N   0  0  0  0  0  0  0  0  0  0  0  0
   16.1641   34.7600   33.1548 C   0  0  0  0  0  0  0  0  0  0  0  0
   15.6528   35.3505   35.4132 C   0  0  0  0  0  0  0  0  0  0  0  0
   16.3795   34.6314   34.5043 N   0  0  0  0  0  0  0  0  0  0  0  0
   15.9002   35.1932   36.8091 N   0  0  0  0  0  0  0  0  0  0  0  0
    8.9995   45.4383   33.6725 H   0  0  0  0  0  0  0  0  0  0  0  0
   11.0503   46.2279   34.4980 H   0  0  0  0  0  0  0  0  0  0  0  0
   10.7763   46.9369   33.0156 H   0  0  0  0  0  0  0  0  0  0  0  0
    9.3634   43.8353   31.4717 H   0  0  0  0  0  0  0  0  0  0  0  0
   10.7405   44.9070   31.1837 H   0  0  0  0  0  0  0  0  0  0  0  0
    7.0131   44.7157   31.5839 H   0  0  0  0  0  0  0  0  0  0  0  0
   10.3473   47.1843   30.4037 H   0  0  0  0  0  0  0  0  0  0  0  0
    5.4641   46.3037   30.5046 H   0  0  0  0  0  0  0  0  0  0  0  0
    8.8171   48.7549   29.3375 H   0  0  0  0  0  0  0  0  0  0  0  0
    7.2008   49.6503   27.9308 H   0  0  0  0  0  0  0  0  0  0  0  0
    4.2750   50.3587   28.5270 H   0  0  0  0  0  0  0  0  0  0  0  0
    4.9599   49.5892   27.0553 H   0  0  0  0  0  0  0  0  0  0  0  0
    5.3898   51.2934   27.4525 H   0  0  0  0  0  0  0  0  0  0  0  0
    8.6985   51.2502   28.7301 H   0  0  0  0  0  0  0  0  0  0  0  0
    5.7932   52.4312   32.6095 H   0  0  0  0  0  0  0  0  0  0  0  0
    9.5211   55.1141   31.3610 H   0  0  0  0  0  0  0  0  0  0  0  0
   10.3371   53.8288   32.3722 H   0  0  0  0  0  0  0  0  0  0  0  0
    9.8214   40.7199   31.7634 H   0  0  0  0  0  0  0  0  0  0  0  0
   11.3802   41.5436   31.4660 H   0  0  0  0  0  0  0  0  0  0  0  0
   11.6999   39.5040   30.3482 H   0  0  0  0  0  0  0  0  0  0  0  0
   10.1085   38.2766   32.6603 H   0  0  0  0  0  0  0  0  0  0  0  0
   13.6679   37.4521   31.2229 H   0  0  0  0  0  0  0  0  0  0  0  0
    9.0016   37.3867   30.9349 H   0  0  0  0  0  0  0  0  0  0  0  0
   11.2667   36.3062   32.5083 H   0  0  0  0  0  0  0  0  0  0  0  0
   12.1390   35.5126   30.6150 H   0  0  0  0  0  0  0  0  0  0  0  0
   12.3300   38.3529   34.7449 H   0  0  0  0  0  0  0  0  0  0  0  0
   16.7560   34.1779   32.4621 H   0  0  0  0  0  0  0  0  0  0  0  0
   15.3534   35.7359   37.5140 H   0  0  0  0  0  0  0  0  0  0  0  0
   16.6347   34.5299   37.1417 H   0  0  0  0  0  0  0  0  0  0  0  0
  1  2  2  0
  1  3  1  0
  3  4  1  0
  4  5  1  0
  6  1  1  0
  7  6  1  0
  6  8  1  0
  8  9  1  0
  9 10  2  0
 11  9  1  0
 10 12  1  0
 13 11  2  0
 12 14  2  0
 14 13  1  0
 14 15  1  0
 15 16  1  0
 16 17  1  0
 16 18  1  0
 18 19  2  0
 20 18  1  0
 19 21  1  0
 22 20  2  0
 20 23  1  0
 21 24  1  0
 21 25  2  0
 25 22  1  0
 23 26  1  0
 23 27  2  0
 24 28  1  0
 25 29  1  0
 28 29  1  0
  4 30  2  0
  4 31  1  0
 32 31  1  0
 32 33  1  0
 33 34  1  0
 33 35  1  0
 34 36  1  0
 35 37  1  0
 35 38  1  0
 38 36  1  0
 36 39  1  0
 38 40  1  0
 41 39  1  0
 42 39  1  0
 43 41  2  0
 41 44  1  0
 45 42  2  0
 46 43  1  0
 44 47  2  0
 44 45  1  0
 48 46  2  0
 48 47  1  0
 47 49  1  0
  6 50  1  1
  7 51  1  0
  7 52  1  0
  8 53  1  0
  8 54  1  0
 10 55  1  0
 11 56  1  0
 12 57  1  0
 13 58  1  0
 16 59  1  6
 17 60  1  0
 17 61  1  0
 17 62  1  0
 19 63  1  0
 22 64  1  0
 28 65  1  0
 28 66  1  0
 32 67  1  0
 32 68  1  0
 33 69  1  0
 35 70  1  0
 36 71  1  0
 37 72  1  0
 38 73  1  0
 40 74  1  0
 42 75  1  0
 46 76  1  0
 49 77  1  0
 49 78  1  0
M  CHG  3   5  -1  23   1  26  -1
M  END
>  <EmbedRMS>  (156) 
0.0822201604371

$$$$

     RDKit          3D

 78 83  0  0  0  0  0  0  0  0999 V2000
   10.2834   43.7662   33.8257 C   0  0  0  0  0  0  0  0  0  0  0  0
   11.4102   43.5931   34.3753 O   0  0  0  0  0  0  0  0  0  0  0  0
    9.3637   42.7255   33.7351 O   0  0  0  0  0  0  0  0  0  0  0  0
    9.8904   41.2268   34.2946 P   0  0  0  0  0  0  0  0  0  0  0  0
   10.3728   41.4561   35.8842 O   0  0  0  0  0  0  0  0  0  0  0  0
    9.9547   45.0695   33.2035 C   0  0  1  0  0  0  0  0  0  0  0  0
   11.0272   46.0323   33.4759 N   0  0  0  0  0  0  0  0  0  0  0  0
    9.7473   44.8482   31.6875 C   0  0  0  0  0  0  0  0  0  0  0  0
    8.7929   45.8406   31.0840 C   0  0  0  0  0  0  0  0  0  0  0  0
    7.4067   45.6013   31.0991 C   0  0  0  0  0  0  0  0  0  0  0  0
    9.2816   46.9872   30.4419 C   0  0  0  0  0  0  0  0  0  0  0  0
    6.5250   46.5012   30.4850 C   0  0  0  0  0  0  0  0  0  0  0  0
    8.4000   47.8872   29.8331 C   0  0  0  0  0  0  0  0  0  0  0  0
    7.0173   47.6580   29.8455 C   0  0  0  0  0  0  0  0  0  0  0  0
    6.1919   48.6115   29.2213 O   0  0  0  0  0  0  0  0  0  0  0  0
    4.7637   48.5865   29.0943 C   0  0  1  0  0  0  0  0  0  0  0  0
    4.3440   47.5141   28.0764 C   0  0  0  0  0  0  0  0  0  0  0  0
    4.0763   48.5392   30.4604 C   0  0  0  0  0  0  0  0  0  0  0  0
    3.0559   47.5863   30.7305 C   0  0  0  0  0  0  0  0  0  0  0  0
    4.4710   49.4433   31.5077 C   0  0  0  0  0  0  0  0  0  0  0  0
    2.5114   47.5351   32.0064 C   0  0  0  0  0  0  0  0  0  0  0  0
    3.8893   49.3295   32.7904 C   0  0  0  0  0  0  0  0  0  0  0  0
    5.4605   50.4653   31.2974 N   0  0  0  0  0  0  0  0  0  0  0  0
    1.5318   46.6874   32.4873 O   0  0  0  0  0  0  0  0  0  0  0  0
    2.9138   48.3654   32.9935 C   0  0  0  0  0  0  0  0  0  0  0  0
    6.3048   50.8218   32.3238 O   0  0  0  0  0  0  0  0  0  0  0  0
    5.4363   51.1697   30.2677 O   0  0  0  0  0  0  0  0  0  0  0  0
    1.3068   47.0085   33.8665 C   0  0  0  0  0  0  0  0  0  0  0  0
    2.2097   48.0861   34.1489 O   0  0  0  0  0  0  0  0  0  0  0  0
    8.8125   40.1848   34.2125 O   0  0  0  0  0  0  0  0  0  0  0  0
   11.2417   40.7948   33.3707 O   0  0  0  0  0  0  0  0  0  0  0  0
   10.9180   40.6922   31.9984 C   0  0  0  0  0  0  0  0  0  0  0  0
   11.5176   39.3838   31.4423 C   0  0  0  0  0  0  0  0  0  0  0  0
   12.7508   39.0887   32.0752 O   0  0  0  0  0  0  0  0  0  0  0  0
   10.6028   38.1916   31.6659 C   0  0  0  0  0  0  0  0  0  0  0  0
   12.9385   37.6818   32.0278 C   0  0  0  0  0  0  0  0  0  0  0  0
    9.6371   38.0806   30.6471 O   0  0  0  0  0  0  0  0  0  0  0  0
   11.5780   37.0215   31.6935 C   0  0  0  0  0  0  0  0  0  0  0  0
   13.4844   37.2119   33.3242 N   0  0  0  0  0  0  0  0  0  0  0  0
   11.6095   36.3201   30.4679 O   0  0  0  0  0  0  0  0  0  0  0  0
   14.4797   36.3318   33.5730 C   0  0  0  0  0  0  0  0  0  0  0  0
   13.1135   37.6277   34.5691 C   0  0  0  0  0  0  0  0  0  0  0  0
   15.2073   35.6155   32.6742 N   0  0  0  0  0  0  0  0  0  0  0  0
   14.6754   36.2304   34.9184 C   0  0  0  0  0  0  0  0  0  0  0  0
   13.8213   37.0451   35.5785 N   0  0  0  0  0  0  0  0  0  0  0  0
   16.1641   34.7604   33.1549 C   0  0  0  0  0  0  0  0  0  0  0  0
   15.6524   35.3507   35.4132 C   0  0  0  0  0  0  0  0  0  0  0  0
   16.3795   34.6318   34.5044 N   0  0  0  0  0  0  0  0  0  0  0  0
   15.8999   35.1933   36.8091 N   0  0  0  0  0  0  0  0  0  0  0  0
    9.0119   45.4317   33.6710 H   0  0  0  0  0  0  0  0  0  0  0  0
   10.7257   46.9689   33.1215 H   0  0  0  0  0  0  0  0  0  0  0  0
   11.8907   45.7661   32.9476 H   0  0  0  0  0  0  0  0  0  0  0  0
   10.7239   44.8822   31.1559 H   0  0  0  0  0  0  0  0  0  0  0  0
    9.3428   43.8329   31.4757 H   0  0  0  0  0  0  0  0  0  0  0  0
    7.0110   44.7167   31.5829 H   0  0  0  0  0  0  0  0  0  0  0  0
   10.3458   47.1862   30.4105 H   0  0  0  0  0  0  0  0  0  0  0  0
    5.4718   46.2799   30.5244 H   0  0  0  0  0  0  0  0  0  0  0  0
    8.7942   48.7704   29.3464 H   0  0  0  0  0  0  0  0  0  0  0  0
    4.4662   49.5507   28.6306 H   0  0  0  0  0  0  0  0  0  0  0  0
    3.2674   47.6221   27.8249 H   0  0  0  0  0  0  0  0  0  0  0  0
    4.5318   46.4892   28.4532 H   0  0  0  0  0  0  0  0  0  0  0  0
    4.9244   47.6474   27.1389 H   0  0  0  0  0  0  0  0  0  0  0  0
    2.7002   46.8852   29.9899 H   0  0  0  0  0  0  0  0  0  0  0  0
    4.1748   49.9889   33.5998 H   0  0  0  0  0  0  0  0  0  0  0  0
    0.2576   47.3381   34.0180 H   0  0  0  0  0  0  0  0  0  0  0  0
    1.5419   46.1334   34.5079 H   0  0  0  0  0  0  0  0  0  0  0  0
    9.8292   40.7409   31.7627 H   0  0  0  0  0  0  0  0  0  0  0  0
   11.3952   41.5478   31.4743 H   0  0  0  0  0  0  0  0  0  0  0  0
   11.6982   39.5115   30.3500 H   0  0  0  0  0  0  0  0  0  0  0  0
   10.1117   38.2604   32.6661 H   0  0  0  0  0  0  0  0  0  0  0  0
   13.6767   37.4556   31.2267 H   0  0  0  0  0  0  0  0  0  0  0  0
    8.8962   38.6952   30.8873 H   0  0  0  0  0  0  0  0  0  0  0  0
   11.2791   36.3072   32.4923 H   0  0  0  0  0  0  0  0  0  0  0  0
   11.8828   36.9598   29.7589 H   0  0  0  0  0  0  0  0  0  0  0  0
   12.3299   38.3537   34.7447 H   0  0  0  0  0  0  0  0  0  0  0  0
   16.7562   34.1786   32.4621 H   0  0  0  0  0  0  0  0  0  0  0  0
   15.3531   35.7360   37.5140 H   0  0  0  0  0  0  0  0  0  0  0  0
   16.6347   34.5303   37.1417 H   0  0  0  0  0  0  0  0  0  0  0  0
  1  2  2  0
  1  3  1  0
  3  4  1  0
  4  5  1  0
  6  1  1  0
  7  6  1  0
  6  8  1  0
  8  9  1  0
  9 10  2  0
 11  9  1  0
 10 12  1  0
 13 11  2  0
 12 14  2  0
 14 13  1  0
 14 15  1  0
 15 16  1  0
 16 17  1  0
 16 18  1  0
 18 19  2  0
 20 18  1  0
 19 21  1  0
 22 20  2  0
 20 23  1  0
 21 24  1  0
 21 25  2  0
 25 22  1  0
 23 26  1  0
 23 27  2  0
 24 28  1  0
 25 29  1  0
 28 29  1  0
  4 30  2  0
  4 31  1  0
 32 31  1  0
 32 33  1  0
 33 34  1  0
 33 35  1  0
 34 36  1  0
 35 37  1  0
 35 38  1  0
 38 36  1  0
 36 39  1  0
 38 40  1  0
 41 39  1  0
 42 39  1  0
 43 41  2  0
 41 44  1  0
 45 42  2  0
 46 43  1  0
 44 47  2  0
 44 45  1  0
 48 46  2  0
 48 47  1  0
 47 49  1  0
  6 50  1  1
  7 51  1  0
  7 52  1  0
  8 53  1  0
  8 54  1  0
 10 55  1  0
 11 56  1  0
 12 57  1  0
 13 58  1  0
 16 59  1  6
 17 60  1  0
 17 61  1  0
 17 62  1  0
 19 63  1  0
 22 64  1  0
 28 65  1  0
 28 66  1  0
 32 67  1  0
 32 68  1  0
 33 69  1  0
 35 70  1  0
 36 71  1  0
 37 72  1  0
 38 73  1  0
 40 74  1  0
 42 75  1  0
 46 76  1  0
 49 77  1  0
 49 78  1  0
M  CHG  3   5  -1  23   1  26  -1
M  END
>  <EmbedRMS>  (157) 
0.0819727256147

$$$$

     RDKit          3D

 78 83  0  0  0  0  0  0  0  0999 V2000
   10.2834   43.7661   33.8257 C   0  0  0  0  0  0  0  0  0  0  0  0
   11.4102   43.5928   34.3752 O   0  0  0  0  0  0  0  0  0  0  0  0
    9.3636   42.7255   33.7350 O   0  0  0  0  0  0  0  0  0  0  0  0
    9.8906   41.2265   34.2934 P   0  0  0  0  0  0  0  0  0  0  0  0
   10.3744   41.4556   35.8827 O   0  0  0  0  0  0  0  0  0  0  0  0
    9.9547   45.0693   33.2036 C   0  0  1  0  0  0  0  0  0  0  0  0
   11.0274   46.0321   33.4756 N   0  0  0  0  0  0  0  0  0  0  0  0
    9.7466   44.8477   31.6878 C   0  0  0  0  0  0  0  0  0  0  0  0
    8.7922   45.8402   31.0846 C   0  0  0  0  0  0  0  0  0  0  0  0
    7.4062   45.6017   31.0994 C   0  0  0  0  0  0  0  0  0  0  0  0
    9.2812   46.9869   30.4429 C   0  0  0  0  0  0  0  0  0  0  0  0
    6.5285   46.5039   30.4841 C   0  0  0  0  0  0  0  0  0  0  0  0
    8.4024   47.8893   29.8323 C   0  0  0  0  0  0  0  0  0  0  0  0
    7.0132   47.6546   29.8452 C   0  0  0  0  0  0  0  0  0  0  0  0
    6.0703   48.5091   29.2444 O   0  0  0  0  0  0  0  0  0  0  0  0
    6.3011   49.7196   28.5126 C   0  0  1  0  0  0  0  0  0  0  0  0
    6.7341   50.8484   29.4611 C   0  0  0  0  0  0  0  0  0  0  0  0
    7.1774   49.4958   27.2797 C   0  0  0  0  0  0  0  0  0  0  0  0
    8.4464   50.1260   27.1575 C   0  0  0  0  0  0  0  0  0  0  0  0
    6.6897   48.7137   26.1781 C   0  0  0  0  0  0  0  0  0  0  0  0
    9.1793   49.9332   25.9941 C   0  0  0  0  0  0  0  0  0  0  0  0
    7.4759   48.5659   25.0134 C   0  0  0  0  0  0  0  0  0  0  0  0
    5.3857   48.1143   26.2007 N   0  0  0  0  0  0  0  0  0  0  0  0
   10.4268   50.4331   25.6733 O   0  0  0  0  0  0  0  0  0  0  0  0
    8.7155   49.1856   24.9683 C   0  0  0  0  0  0  0  0  0  0  0  0
    5.0617   47.1999   27.1743 O   0  0  0  0  0  0  0  0  0  0  0  0
    4.6393   48.2224   25.2060 O   0  0  0  0  0  0  0  0  0  0  0  0
   10.7669   49.9658   24.3609 C   0  0  0  0  0  0  0  0  0  0  0  0
    9.6458   49.1733   23.9468 O   0  0  0  0  0  0  0  0  0  0  0  0
    8.8122   40.1851   34.2127 O   0  0  0  0  0  0  0  0  0  0  0  0
   11.2404   40.7947   33.3668 O   0  0  0  0  0  0  0  0  0  0  0  0
   10.9126   40.6860   31.9954 C   0  0  0  0  0  0  0  0  0  0  0  0
   11.5175   39.3787   31.4405 C   0  0  0  0  0  0  0  0  0  0  0  0
   12.7490   39.0864   32.0752 O   0  0  0  0  0  0  0  0  0  0  0  0
   10.6061   38.1868   31.6656 C   0  0  0  0  0  0  0  0  0  0  0  0
   12.9355   37.6796   32.0292 C   0  0  0  0  0  0  0  0  0  0  0  0
    9.6399   38.0903   30.6472 O   0  0  0  0  0  0  0  0  0  0  0  0
   11.5765   37.0145   31.7044 C   0  0  0  0  0  0  0  0  0  0  0  0
   13.4858   37.2124   33.3243 N   0  0  0  0  0  0  0  0  0  0  0  0
   11.6101   36.3398   30.4672 O   0  0  0  0  0  0  0  0  0  0  0  0
   14.4805   36.3319   33.5729 C   0  0  0  0  0  0  0  0  0  0  0  0
   13.1143   37.6276   34.5693 C   0  0  0  0  0  0  0  0  0  0  0  0
   15.2076   35.6153   32.6741 N   0  0  0  0  0  0  0  0  0  0  0  0
   14.6760   36.2304   34.9183 C   0  0  0  0  0  0  0  0  0  0  0  0
   13.8219   37.0450   35.5786 N   0  0  0  0  0  0  0  0  0  0  0  0
   16.1642   34.7600   33.1548 C   0  0  0  0  0  0  0  0  0  0  0  0
   15.6528   35.3505   35.4132 C   0  0  0  0  0  0  0  0  0  0  0  0
   16.3796   34.6315   34.5043 N   0  0  0  0  0  0  0  0  0  0  0  0
   15.9001   35.1933   36.8091 N   0  0  0  0  0  0  0  0  0  0  0  0
    9.0121   45.4316   33.6715 H   0  0  0  0  0  0  0  0  0  0  0  0
   10.7261   46.9687   33.1213 H   0  0  0  0  0  0  0  0  0  0  0  0
   11.8906   45.7657   32.9468 H   0  0  0  0  0  0  0  0  0  0  0  0
    9.3416   43.8325   31.4763 H   0  0  0  0  0  0  0  0  0  0  0  0
   10.7230   44.8812   31.1557 H   0  0  0  0  0  0  0  0  0  0  0  0
    7.0083   44.7171   31.5812 H   0  0  0  0  0  0  0  0  0  0  0  0
   10.3459   47.1844   30.4128 H   0  0  0  0  0  0  0  0  0  0  0  0
    5.4642   46.3057   30.5012 H   0  0  0  0  0  0  0  0  0  0  0  0
    8.8251   48.7559   29.3592 H   0  0  0  0  0  0  0  0  0  0  0  0
    5.3117   50.0465   28.1248 H   0  0  0  0  0  0  0  0  0  0  0  0
    7.6882   50.6201   29.9748 H   0  0  0  0  0  0  0  0  0  0  0  0
    5.9567   50.9921   30.2413 H   0  0  0  0  0  0  0  0  0  0  0  0
    6.8376   51.8019   28.9006 H   0  0  0  0  0  0  0  0  0  0  0  0
    8.8653   50.7471   27.9360 H   0  0  0  0  0  0  0  0  0  0  0  0
    7.1276   47.9828   24.1704 H   0  0  0  0  0  0  0  0  0  0  0  0
   10.9047   50.8246   23.6710 H   0  0  0  0  0  0  0  0  0  0  0  0
   11.6837   49.3411   24.4011 H   0  0  0  0  0  0  0  0  0  0  0  0
    9.8215   40.7201   31.7637 H   0  0  0  0  0  0  0  0  0  0  0  0
   11.3804   41.5437   31.4664 H   0  0  0  0  0  0  0  0  0  0  0  0
   11.6998   39.5042   30.3482 H   0  0  0  0  0  0  0  0  0  0  0  0
   10.1086   38.2766   32.6603 H   0  0  0  0  0  0  0  0  0  0  0  0
   13.6679   37.4520   31.2229 H   0  0  0  0  0  0  0  0  0  0  0  0
    9.0017   37.3867   30.9351 H   0  0  0  0  0  0  0  0  0  0  0  0
   11.2665   36.3061   32.5083 H   0  0  0  0  0  0  0  0  0  0  0  0
   12.1389   35.5127   30.6149 H   0  0  0  0  0  0  0  0  0  0  0  0
   12.3301   38.3530   34.7449 H   0  0  0  0  0  0  0  0  0  0  0  0
   16.7561   34.1779   32.4621 H   0  0  0  0  0  0  0  0  0  0  0  0
   15.3534   35.7360   37.5141 H   0  0  0  0  0  0  0  0  0  0  0  0
   16.6346   34.5300   37.1417 H   0  0  0  0  0  0  0  0  0  0  0  0
  1  2  2  0
  1  3  1  0
  3  4  1  0
  4  5  1  0
  6  1  1  0
  7  6  1  0
  6  8  1  0
  8  9  1  0
  9 10  2  0
 11  9  1  0
 10 12  1  0
 13 11  2  0
 12 14  2  0
 14 13  1  0
 14 15  1  0
 15 16  1  0
 16 17  1  0
 16 18  1  0
 18 19  2  0
 20 18  1  0
 19 21  1  0
 22 20  2  0
 20 23  1  0
 21 24  1  0
 21 25  2  0
 25 22  1  0
 23 26  1  0
 23 27  2  0
 24 28  1  0
 25 29  1  0
 28 29  1  0
  4 30  2  0
  4 31  1  0
 32 31  1  0
 32 33  1  0
 33 34  1  0
 33 35  1  0
 34 36  1  0
 35 37  1  0
 35 38  1  0
 38 36  1  0
 36 39  1  0
 38 40  1  0
 41 39  1  0
 42 39  1  0
 43 41  2  0
 41 44  1  0
 45 42  2  0
 46 43  1  0
 44 47  2  0
 44 45  1  0
 48 46  2  0
 48 47  1  0
 47 49  1  0
  6 50  1  1
  7 51  1  0
  7 52  1  0
  8 53  1  0
  8 54  1  0
 10 55  1  0
 11 56  1  0
 12 57  1  0
 13 58  1  0
 16 59  1  6
 17 60  1  0
 17 61  1  0
 17 62  1  0
 19 63  1  0
 22 64  1  0
 28 65  1  0
 28 66  1  0
 32 67  1  0
 32 68  1  0
 33 69  1  0
 35 70  1  0
 36 71  1  0
 37 72  1  0
 38 73  1  0
 40 74  1  0
 42 75  1  0
 46 76  1  0
 49 77  1  0
 49 78  1  0
M  CHG  3   5  -1  23   1  26  -1
M  END
>  <EmbedRMS>  (158) 
0.0823761262237

$$$$

     RDKit          3D

 78 83  0  0  0  0  0  0  0  0999 V2000
   10.2838   43.7627   33.8276 C   0  0  0  0  0  0  0  0  0  0  0  0
   11.4103   43.5863   34.3766 O   0  0  0  0  0  0  0  0  0  0  0  0
    9.3628   42.7238   33.7357 O   0  0  0  0  0  0  0  0  0  0  0  0
    9.8890   41.2252   34.2949 P   0  0  0  0  0  0  0  0  0  0  0  0
   10.3724   41.4548   35.8843 O   0  0  0  0  0  0  0  0  0  0  0  0
    9.9549   45.0700   33.2062 C   0  0  1  0  0  0  0  0  0  0  0  0
   11.0198   46.0481   33.4570 N   0  0  0  0  0  0  0  0  0  0  0  0
    9.7506   44.8510   31.6921 C   0  0  0  0  0  0  0  0  0  0  0  0
    8.7945   45.8416   31.0866 C   0  0  0  0  0  0  0  0  0  0  0  0
    7.4078   45.6008   31.1008 C   0  0  0  0  0  0  0  0  0  0  0  0
    9.2826   46.9895   30.4451 C   0  0  0  0  0  0  0  0  0  0  0  0
    6.5258   46.5004   30.4862 C   0  0  0  0  0  0  0  0  0  0  0  0
    8.4007   47.8886   29.8344 C   0  0  0  0  0  0  0  0  0  0  0  0
    7.0192   47.6541   29.8434 C   0  0  0  0  0  0  0  0  0  0  0  0
    6.1845   48.5873   29.2065 O   0  0  0  0  0  0  0  0  0  0  0  0
    4.7746   48.4526   29.0239 C   0  0  1  0  0  0  0  0  0  0  0  0
    4.1898   49.7907   28.5708 C   0  0  0  0  0  0  0  0  0  0  0  0
    4.4461   47.3485   28.0294 C   0  0  0  0  0  0  0  0  0  0  0  0
    3.5556   46.3263   28.4405 C   0  0  0  0  0  0  0  0  0  0  0  0
    4.9522   47.3319   26.6859 C   0  0  0  0  0  0  0  0  0  0  0  0
    3.2068   45.3395   27.5277 C   0  0  0  0  0  0  0  0  0  0  0  0
    4.5510   46.3102   25.7969 C   0  0  0  0  0  0  0  0  0  0  0  0
    5.8475   48.3407   26.2032 N   0  0  0  0  0  0  0  0  0  0  0  0
    2.3667   44.2581   27.7111 O   0  0  0  0  0  0  0  0  0  0  0  0
    3.6824   45.3324   26.2615 C   0  0  0  0  0  0  0  0  0  0  0  0
    7.1238   48.4190   26.7074 O   0  0  0  0  0  0  0  0  0  0  0  0
    5.5829   48.9391   25.1404 O   0  0  0  0  0  0  0  0  0  0  0  0
    2.3141   43.5249   26.4797 C   0  0  0  0  0  0  0  0  0  0  0  0
    3.1680   44.2457   25.5808 O   0  0  0  0  0  0  0  0  0  0  0  0
    8.8112   40.1834   34.2132 O   0  0  0  0  0  0  0  0  0  0  0  0
   11.2398   40.7938   33.3702 O   0  0  0  0  0  0  0  0  0  0  0  0
   10.9144   40.6912   31.9983 C   0  0  0  0  0  0  0  0  0  0  0  0
   11.5270   39.3911   31.4385 C   0  0  0  0  0  0  0  0  0  0  0  0
   12.7520   39.0911   32.0835 O   0  0  0  0  0  0  0  0  0  0  0  0
   10.6113   38.1931   31.6451 C   0  0  0  0  0  0  0  0  0  0  0  0
   12.9413   37.6838   32.0297 C   0  0  0  0  0  0  0  0  0  0  0  0
    9.6064   38.0877   30.6599 O   0  0  0  0  0  0  0  0  0  0  0  0
   11.5822   37.0197   31.6876 C   0  0  0  0  0  0  0  0  0  0  0  0
   13.4840   37.2104   33.3254 N   0  0  0  0  0  0  0  0  0  0  0  0
   11.6179   36.3072   30.4690 O   0  0  0  0  0  0  0  0  0  0  0  0
   14.4797   36.3309   33.5738 C   0  0  0  0  0  0  0  0  0  0  0  0
   13.1137   37.6269   34.5702 C   0  0  0  0  0  0  0  0  0  0  0  0
   15.2074   35.6152   32.6747 N   0  0  0  0  0  0  0  0  0  0  0  0
   14.6756   36.2298   34.9190 C   0  0  0  0  0  0  0  0  0  0  0  0
   13.8217   37.0445   35.5793 N   0  0  0  0  0  0  0  0  0  0  0  0
   16.1643   34.7603   33.1551 C   0  0  0  0  0  0  0  0  0  0  0  0
   15.6528   35.3503   35.4136 C   0  0  0  0  0  0  0  0  0  0  0  0
   16.3798   34.6315   34.5046 N   0  0  0  0  0  0  0  0  0  0  0  0
   15.9004   35.1930   36.8094 N   0  0  0  0  0  0  0  0  0  0  0  0
    9.0098   45.4349   33.6667 H   0  0  0  0  0  0  0  0  0  0  0  0
   11.1132   46.1993   34.4883 H   0  0  0  0  0  0  0  0  0  0  0  0
   11.9349   45.6933   33.0928 H   0  0  0  0  0  0  0  0  0  0  0  0
   10.7310   44.8930   31.1674 H   0  0  0  0  0  0  0  0  0  0  0  0
    9.3518   43.8344   31.4758 H   0  0  0  0  0  0  0  0  0  0  0  0
    7.0125   44.7166   31.5856 H   0  0  0  0  0  0  0  0  0  0  0  0
   10.3466   47.1900   30.4158 H   0  0  0  0  0  0  0  0  0  0  0  0
    5.4683   46.2882   30.5254 H   0  0  0  0  0  0  0  0  0  0  0  0
    8.7938   48.7703   29.3442 H   0  0  0  0  0  0  0  0  0  0  0  0
    4.3114   48.2370   30.0126 H   0  0  0  0  0  0  0  0  0  0  0  0
    4.3504   50.5537   29.3617 H   0  0  0  0  0  0  0  0  0  0  0  0
    3.0970   49.6924   28.3954 H   0  0  0  0  0  0  0  0  0  0  0  0
    4.6756   50.1509   27.6415 H   0  0  0  0  0  0  0  0  0  0  0  0
    3.1379   46.3040   29.4390 H   0  0  0  0  0  0  0  0  0  0  0  0
    4.9157   46.2774   24.7782 H   0  0  0  0  0  0  0  0  0  0  0  0
    1.2753   43.5052   26.0884 H   0  0  0  0  0  0  0  0  0  0  0  0
    2.6985   42.4942   26.6297 H   0  0  0  0  0  0  0  0  0  0  0  0
   11.3780   41.5548   31.4751 H   0  0  0  0  0  0  0  0  0  0  0  0
    9.8235   40.7202   31.7651 H   0  0  0  0  0  0  0  0  0  0  0  0
   11.7311   39.5363   30.3531 H   0  0  0  0  0  0  0  0  0  0  0  0
   10.1203   38.2695   32.6410 H   0  0  0  0  0  0  0  0  0  0  0  0
   13.6850   37.4638   31.2321 H   0  0  0  0  0  0  0  0  0  0  0  0
   10.0250   38.1792   29.7654 H   0  0  0  0  0  0  0  0  0  0  0  0
   11.2757   36.3135   32.4907 H   0  0  0  0  0  0  0  0  0  0  0  0
   11.9839   36.9111   29.7708 H   0  0  0  0  0  0  0  0  0  0  0  0
   12.3308   38.3537   34.7457 H   0  0  0  0  0  0  0  0  0  0  0  0
   16.7566   34.1786   32.4623 H   0  0  0  0  0  0  0  0  0  0  0  0
   15.3535   35.7355   37.5144 H   0  0  0  0  0  0  0  0  0  0  0  0
   16.6353   34.5301   37.1418 H   0  0  0  0  0  0  0  0  0  0  0  0
  1  2  2  0
  1  3  1  0
  3  4  1  0
  4  5  1  0
  6  1  1  0
  7  6  1  0
  6  8  1  0
  8  9  1  0
  9 10  2  0
 11  9  1  0
 10 12  1  0
 13 11  2  0
 12 14  2  0
 14 13  1  0
 14 15  1  0
 15 16  1  0
 16 17  1  0
 16 18  1  0
 18 19  2  0
 20 18  1  0
 19 21  1  0
 22 20  2  0
 20 23  1  0
 21 24  1  0
 21 25  2  0
 25 22  1  0
 23 26  1  0
 23 27  2  0
 24 28  1  0
 25 29  1  0
 28 29  1  0
  4 30  2  0
  4 31  1  0
 32 31  1  0
 32 33  1  0
 33 34  1  0
 33 35  1  0
 34 36  1  0
 35 37  1  0
 35 38  1  0
 38 36  1  0
 36 39  1  0
 38 40  1  0
 41 39  1  0
 42 39  1  0
 43 41  2  0
 41 44  1  0
 45 42  2  0
 46 43  1  0
 44 47  2  0
 44 45  1  0
 48 46  2  0
 48 47  1  0
 47 49  1  0
  6 50  1  1
  7 51  1  0
  7 52  1  0
  8 53  1  0
  8 54  1  0
 10 55  1  0
 11 56  1  0
 12 57  1  0
 13 58  1  0
 16 59  1  1
 17 60  1  0
 17 61  1  0
 17 62  1  0
 19 63  1  0
 22 64  1  0
 28 65  1  0
 28 66  1  0
 32 67  1  0
 32 68  1  0
 33 69  1  0
 35 70  1  0
 36 71  1  0
 37 72  1  0
 38 73  1  0
 40 74  1  0
 42 75  1  0
 46 76  1  0
 49 77  1  0
 49 78  1  0
M  CHG  3   5  -1  23   1  26  -1
M  END
>  <EmbedRMS>  (159) 
0.0817436402809

$$$$

     RDKit          3D

 78 83  0  0  0  0  0  0  0  0999 V2000
   10.2835   43.7661   33.8257 C   0  0  0  0  0  0  0  0  0  0  0  0
   11.4102   43.5929   34.3753 O   0  0  0  0  0  0  0  0  0  0  0  0
    9.3637   42.7255   33.7350 O   0  0  0  0  0  0  0  0  0  0  0  0
    9.8902   41.2267   34.2942 P   0  0  0  0  0  0  0  0  0  0  0  0
   10.3736   41.4560   35.8836 O   0  0  0  0  0  0  0  0  0  0  0  0
    9.9547   45.0694   33.2036 C   0  0  1  0  0  0  0  0  0  0  0  0
   11.0274   46.0321   33.4756 N   0  0  0  0  0  0  0  0  0  0  0  0
    9.7466   44.8479   31.6877 C   0  0  0  0  0  0  0  0  0  0  0  0
    8.7923   45.8406   31.0848 C   0  0  0  0  0  0  0  0  0  0  0  0
    7.4061   45.6016   31.0992 C   0  0  0  0  0  0  0  0  0  0  0  0
    9.2816   46.9871   30.4426 C   0  0  0  0  0  0  0  0  0  0  0  0
    6.5280   46.5033   30.4836 C   0  0  0  0  0  0  0  0  0  0  0  0
    8.4030   47.8895   29.8318 C   0  0  0  0  0  0  0  0  0  0  0  0
    7.0128   47.6544   29.8465 C   0  0  0  0  0  0  0  0  0  0  0  0
    6.0735   48.5110   29.2430 O   0  0  0  0  0  0  0  0  0  0  0  0
    6.3251   49.7491   28.5646 C   0  0  1  0  0  0  0  0  0  0  0  0
    6.7236   50.8336   29.5783 C   0  0  0  0  0  0  0  0  0  0  0  0
    7.2574   49.5575   27.3671 C   0  0  0  0  0  0  0  0  0  0  0  0
    8.3836   50.4045   27.1763 C   0  0  0  0  0  0  0  0  0  0  0  0
    7.0242   48.4968   26.4248 C   0  0  0  0  0  0  0  0  0  0  0  0
    9.2380   50.1494   26.1123 C   0  0  0  0  0  0  0  0  0  0  0  0
    7.9399   48.2795   25.3697 C   0  0  0  0  0  0  0  0  0  0  0  0
    5.8796   47.6326   26.5282 N   0  0  0  0  0  0  0  0  0  0  0  0
   10.3863   50.8287   25.7529 O   0  0  0  0  0  0  0  0  0  0  0  0
    9.0286   49.1299   25.2507 C   0  0  0  0  0  0  0  0  0  0  0  0
    4.6284   48.1561   26.7563 O   0  0  0  0  0  0  0  0  0  0  0  0
    5.9798   46.4255   26.2259 O   0  0  0  0  0  0  0  0  0  0  0  0
   10.9313   50.1918   24.5894 C   0  0  0  0  0  0  0  0  0  0  0  0
   10.0329   49.1118   24.3020 O   0  0  0  0  0  0  0  0  0  0  0  0
    8.8121   40.1850   34.2131 O   0  0  0  0  0  0  0  0  0  0  0  0
   11.2404   40.7941   33.3690 O   0  0  0  0  0  0  0  0  0  0  0  0
   10.9143   40.6898   31.9972 C   0  0  0  0  0  0  0  0  0  0  0  0
   11.5261   39.3885   31.4376 C   0  0  0  0  0  0  0  0  0  0  0  0
   12.7504   39.0888   32.0815 O   0  0  0  0  0  0  0  0  0  0  0  0
   10.6115   38.1910   31.6460 C   0  0  0  0  0  0  0  0  0  0  0  0
   12.9357   37.6812   32.0303 C   0  0  0  0  0  0  0  0  0  0  0  0
    9.6146   38.0859   30.6533 O   0  0  0  0  0  0  0  0  0  0  0  0
   11.5769   37.0148   31.7012 C   0  0  0  0  0  0  0  0  0  0  0  0
   13.4849   37.2112   33.3247 N   0  0  0  0  0  0  0  0  0  0  0  0
   11.6193   36.3261   30.4724 O   0  0  0  0  0  0  0  0  0  0  0  0
   14.4802   36.3313   33.5730 C   0  0  0  0  0  0  0  0  0  0  0  0
   13.1141   37.6268   34.5698 C   0  0  0  0  0  0  0  0  0  0  0  0
   15.2075   35.6151   32.6741 N   0  0  0  0  0  0  0  0  0  0  0  0
   14.6761   36.2300   34.9184 C   0  0  0  0  0  0  0  0  0  0  0  0
   13.8220   37.0445   35.5789 N   0  0  0  0  0  0  0  0  0  0  0  0
   16.1642   34.7600   33.1547 C   0  0  0  0  0  0  0  0  0  0  0  0
   15.6529   35.3503   35.4131 C   0  0  0  0  0  0  0  0  0  0  0  0
   16.3797   34.6314   34.5042 N   0  0  0  0  0  0  0  0  0  0  0  0
   15.9004   35.1930   36.8090 N   0  0  0  0  0  0  0  0  0  0  0  0
    9.0121   45.4317   33.6715 H   0  0  0  0  0  0  0  0  0  0  0  0
   11.8906   45.7657   32.9470 H   0  0  0  0  0  0  0  0  0  0  0  0
   10.7260   46.9687   33.1211 H   0  0  0  0  0  0  0  0  0  0  0  0
   10.7230   44.8813   31.1557 H   0  0  0  0  0  0  0  0  0  0  0  0
    9.3415   43.8328   31.4763 H   0  0  0  0  0  0  0  0  0  0  0  0
    7.0086   44.7166   31.5806 H   0  0  0  0  0  0  0  0  0  0  0  0
   10.3464   47.1833   30.4106 H   0  0  0  0  0  0  0  0  0  0  0  0
    5.4638   46.3047   30.5000 H   0  0  0  0  0  0  0  0  0  0  0  0
    8.8258   48.7544   29.3491 H   0  0  0  0  0  0  0  0  0  0  0  0
    5.3537   50.0907   28.1497 H   0  0  0  0  0  0  0  0  0  0  0  0
    7.7229   50.6431   30.0174 H   0  0  0  0  0  0  0  0  0  0  0  0
    5.9828   50.8563   30.4055 H   0  0  0  0  0  0  0  0  0  0  0  0
    6.7193   51.8335   29.0944 H   0  0  0  0  0  0  0  0  0  0  0  0
    8.6140   51.2276   27.8365 H   0  0  0  0  0  0  0  0  0  0  0  0
    7.7942   47.4827   24.6517 H   0  0  0  0  0  0  0  0  0  0  0  0
   10.9584   50.9045   23.7385 H   0  0  0  0  0  0  0  0  0  0  0  0
   11.9464   49.7983   24.8068 H   0  0  0  0  0  0  0  0  0  0  0  0
   11.3779   41.5526   31.4726 H   0  0  0  0  0  0  0  0  0  0  0  0
    9.8233   40.7191   31.7647 H   0  0  0  0  0  0  0  0  0  0  0  0
   11.7283   39.5312   30.3515 H   0  0  0  0  0  0  0  0  0  0  0  0
   10.1127   38.2734   32.6376 H   0  0  0  0  0  0  0  0  0  0  0  0
   13.6692   37.4566   31.2242 H   0  0  0  0  0  0  0  0  0  0  0  0
   10.0533   38.1118   29.7635 H   0  0  0  0  0  0  0  0  0  0  0  0
   11.2606   36.3148   32.5102 H   0  0  0  0  0  0  0  0  0  0  0  0
   12.1496   35.5023   30.6324 H   0  0  0  0  0  0  0  0  0  0  0  0
   12.3301   38.3524   34.7455 H   0  0  0  0  0  0  0  0  0  0  0  0
   16.7563   34.1781   32.4619 H   0  0  0  0  0  0  0  0  0  0  0  0
   16.6351   34.5298   37.1415 H   0  0  0  0  0  0  0  0  0  0  0  0
   15.3536   35.7357   37.5139 H   0  0  0  0  0  0  0  0  0  0  0  0
  1  2  2  0
  1  3  1  0
  3  4  1  0
  4  5  1  0
  6  1  1  0
  7  6  1  0
  6  8  1  0
  8  9  1  0
  9 10  2  0
 11  9  1  0
 10 12  1  0
 13 11  2  0
 12 14  2  0
 14 13  1  0
 14 15  1  0
 15 16  1  0
 16 17  1  0
 16 18  1  0
 18 19  2  0
 20 18  1  0
 19 21  1  0
 22 20  2  0
 20 23  1  0
 21 24  1  0
 21 25  2  0
 25 22  1  0
 23 26  1  0
 23 27  2  0
 24 28  1  0
 25 29  1  0
 28 29  1  0
  4 30  2  0
  4 31  1  0
 32 31  1  0
 32 33  1  0
 33 34  1  0
 33 35  1  0
 34 36  1  0
 35 37  1  0
 35 38  1  0
 38 36  1  0
 36 39  1  0
 38 40  1  0
 41 39  1  0
 42 39  1  0
 43 41  2  0
 41 44  1  0
 45 42  2  0
 46 43  1  0
 44 47  2  0
 44 45  1  0
 48 46  2  0
 48 47  1  0
 47 49  1  0
  6 50  1  1
  7 51  1  0
  7 52  1  0
  8 53  1  0
  8 54  1  0
 10 55  1  0
 11 56  1  0
 12 57  1  0
 13 58  1  0
 16 59  1  6
 17 60  1  0
 17 61  1  0
 17 62  1  0
 19 63  1  0
 22 64  1  0
 28 65  1  0
 28 66  1  0
 32 67  1  0
 32 68  1  0
 33 69  1  0
 35 70  1  0
 36 71  1  0
 37 72  1  0
 38 73  1  0
 40 74  1  0
 42 75  1  0
 46 76  1  0
 49 77  1  0
 49 78  1  0
M  CHG  3   5  -1  23   1  26  -1
M  END
>  <EmbedRMS>  (160) 
0.0816124803091

$$$$

     RDKit          3D

 78 83  0  0  0  0  0  0  0  0999 V2000
   10.2831   43.7666   33.8257 C   0  0  0  0  0  0  0  0  0  0  0  0
   11.4100   43.5934   34.3750 O   0  0  0  0  0  0  0  0  0  0  0  0
    9.3634   42.7259   33.7352 O   0  0  0  0  0  0  0  0  0  0  0  0
    9.8900   41.2271   34.2947 P   0  0  0  0  0  0  0  0  0  0  0  0
   10.3733   41.4564   35.8841 O   0  0  0  0  0  0  0  0  0  0  0  0
    9.9541   45.0700   33.2036 C   0  0  1  0  0  0  0  0  0  0  0  0
   11.0264   46.0330   33.4757 N   0  0  0  0  0  0  0  0  0  0  0  0
    9.7463   44.8485   31.6877 C   0  0  0  0  0  0  0  0  0  0  0  0
    8.7920   45.8412   31.0844 C   0  0  0  0  0  0  0  0  0  0  0  0
    7.4042   45.5999   31.0971 C   0  0  0  0  0  0  0  0  0  0  0  0
    9.2830   46.9877   30.4397 C   0  0  0  0  0  0  0  0  0  0  0  0
    6.5249   46.5011   30.4808 C   0  0  0  0  0  0  0  0  0  0  0  0
    8.4024   47.8878   29.8285 C   0  0  0  0  0  0  0  0  0  0  0  0
    7.0197   47.6549   29.8584 C   0  0  0  0  0  0  0  0  0  0  0  0
    6.1374   48.5517   29.2509 O   0  0  0  0  0  0  0  0  0  0  0  0
    5.6832   49.7620   29.8653 C   0  0  1  0  0  0  0  0  0  0  0  0
    4.6647   49.4743   30.9760 C   0  0  0  0  0  0  0  0  0  0  0  0
    6.8469   50.6773   30.2440 C   0  0  0  0  0  0  0  0  0  0  0  0
    7.3767   51.4879   29.2090 C   0  0  0  0  0  0  0  0  0  0  0  0
    7.4404   50.7556   31.5526 C   0  0  0  0  0  0  0  0  0  0  0  0
    8.4263   52.3486   29.5014 C   0  0  0  0  0  0  0  0  0  0  0  0
    8.4967   51.6597   31.7942 C   0  0  0  0  0  0  0  0  0  0  0  0
    7.0049   49.9375   32.6399 N   0  0  0  0  0  0  0  0  0  0  0  0
    9.0828   53.2212   28.6550 O   0  0  0  0  0  0  0  0  0  0  0  0
    8.9600   52.4337   30.7404 C   0  0  0  0  0  0  0  0  0  0  0  0
    6.5048   50.5388   33.7710 O   0  0  0  0  0  0  0  0  0  0  0  0
    7.3805   48.7498   32.7037 O   0  0  0  0  0  0  0  0  0  0  0  0
   10.0940   53.8975   29.4147 C   0  0  0  0  0  0  0  0  0  0  0  0
    9.9809   53.3646   30.7413 O   0  0  0  0  0  0  0  0  0  0  0  0
    8.8121   40.1852   34.2133 O   0  0  0  0  0  0  0  0  0  0  0  0
   11.2403   40.7948   33.3700 O   0  0  0  0  0  0  0  0  0  0  0  0
   10.9144   40.6914   31.9982 C   0  0  0  0  0  0  0  0  0  0  0  0
   11.5270   39.3912   31.4385 C   0  0  0  0  0  0  0  0  0  0  0  0
   12.7520   39.0911   32.0837 O   0  0  0  0  0  0  0  0  0  0  0  0
   10.6113   38.1932   31.6451 C   0  0  0  0  0  0  0  0  0  0  0  0
   12.9413   37.6838   32.0297 C   0  0  0  0  0  0  0  0  0  0  0  0
    9.6064   38.0878   30.6599 O   0  0  0  0  0  0  0  0  0  0  0  0
   11.5822   37.0198   31.6877 C   0  0  0  0  0  0  0  0  0  0  0  0
   13.4840   37.2104   33.3254 N   0  0  0  0  0  0  0  0  0  0  0  0
   11.6179   36.3072   30.4690 O   0  0  0  0  0  0  0  0  0  0  0  0
   14.4797   36.3309   33.5738 C   0  0  0  0  0  0  0  0  0  0  0  0
   13.1136   37.6269   34.5702 C   0  0  0  0  0  0  0  0  0  0  0  0
   15.2074   35.6152   32.6747 N   0  0  0  0  0  0  0  0  0  0  0  0
   14.6756   36.2298   34.9190 C   0  0  0  0  0  0  0  0  0  0  0  0
   13.8217   37.0445   35.5793 N   0  0  0  0  0  0  0  0  0  0  0  0
   16.1643   34.7603   33.1551 C   0  0  0  0  0  0  0  0  0  0  0  0
   15.6528   35.3503   35.4136 C   0  0  0  0  0  0  0  0  0  0  0  0
   16.3798   34.6316   34.5046 N   0  0  0  0  0  0  0  0  0  0  0  0
   15.9004   35.1930   36.8094 N   0  0  0  0  0  0  0  0  0  0  0  0
    9.0113   45.4322   33.6712 H   0  0  0  0  0  0  0  0  0  0  0  0
   10.7241   46.9697   33.1221 H   0  0  0  0  0  0  0  0  0  0  0  0
   11.8896   45.7675   32.9464 H   0  0  0  0  0  0  0  0  0  0  0  0
   10.7227   44.8820   31.1559 H   0  0  0  0  0  0  0  0  0  0  0  0
    9.3412   43.8334   31.4763 H   0  0  0  0  0  0  0  0  0  0  0  0
    7.0073   44.7141   31.5773 H   0  0  0  0  0  0  0  0  0  0  0  0
   10.3475   47.1839   30.4053 H   0  0  0  0  0  0  0  0  0  0  0  0
    5.4599   46.3076   30.4949 H   0  0  0  0  0  0  0  0  0  0  0  0
    8.7959   48.7642   29.3302 H   0  0  0  0  0  0  0  0  0  0  0  0
    5.0933   50.3013   29.0909 H   0  0  0  0  0  0  0  0  0  0  0  0
    5.0250   48.6936   31.6734 H   0  0  0  0  0  0  0  0  0  0  0  0
    4.4274   50.4034   31.5366 H   0  0  0  0  0  0  0  0  0  0  0  0
    3.7240   49.0937   30.5238 H   0  0  0  0  0  0  0  0  0  0  0  0
    6.9794   51.4505   28.2023 H   0  0  0  0  0  0  0  0  0  0  0  0
    8.9528   51.7392   32.7728 H   0  0  0  0  0  0  0  0  0  0  0  0
   11.0991   53.6774   28.9978 H   0  0  0  0  0  0  0  0  0  0  0  0
    9.9012   54.9908   29.4232 H   0  0  0  0  0  0  0  0  0  0  0  0
   11.3776   41.5549   31.4744 H   0  0  0  0  0  0  0  0  0  0  0  0
    9.8234   40.7201   31.7654 H   0  0  0  0  0  0  0  0  0  0  0  0
   11.7312   39.5363   30.3532 H   0  0  0  0  0  0  0  0  0  0  0  0
   10.1203   38.2696   32.6410 H   0  0  0  0  0  0  0  0  0  0  0  0
   13.6850   37.4639   31.2321 H   0  0  0  0  0  0  0  0  0  0  0  0
   10.0251   38.1793   29.7654 H   0  0  0  0  0  0  0  0  0  0  0  0
   11.2757   36.3135   32.4907 H   0  0  0  0  0  0  0  0  0  0  0  0
   11.9838   36.9111   29.7708 H   0  0  0  0  0  0  0  0  0  0  0  0
   12.3307   38.3536   34.7458 H   0  0  0  0  0  0  0  0  0  0  0  0
   16.7566   34.1787   32.4623 H   0  0  0  0  0  0  0  0  0  0  0  0
   16.6353   34.5301   37.1419 H   0  0  0  0  0  0  0  0  0  0  0  0
   15.3535   35.7355   37.5144 H   0  0  0  0  0  0  0  0  0  0  0  0
  1  2  2  0
  1  3  1  0
  3  4  1  0
  4  5  1  0
  6  1  1  0
  7  6  1  0
  6  8  1  0
  8  9  1  0
  9 10  2  0
 11  9  1  0
 10 12  1  0
 13 11  2  0
 12 14  2  0
 14 13  1  0
 14 15  1  0
 15 16  1  0
 16 17  1  0
 16 18  1  0
 18 19  2  0
 20 18  1  0
 19 21  1  0
 22 20  2  0
 20 23  1  0
 21 24  1  0
 21 25  2  0
 25 22  1  0
 23 26  1  0
 23 27  2  0
 24 28  1  0
 25 29  1  0
 28 29  1  0
  4 30  2  0
  4 31  1  0
 32 31  1  0
 32 33  1  0
 33 34  1  0
 33 35  1  0
 34 36  1  0
 35 37  1  0
 35 38  1  0
 38 36  1  0
 36 39  1  0
 38 40  1  0
 41 39  1  0
 42 39  1  0
 43 41  2  0
 41 44  1  0
 45 42  2  0
 46 43  1  0
 44 47  2  0
 44 45  1  0
 48 46  2  0
 48 47  1  0
 47 49  1  0
  6 50  1  1
  7 51  1  0
  7 52  1  0
  8 53  1  0
  8 54  1  0
 10 55  1  0
 11 56  1  0
 12 57  1  0
 13 58  1  0
 16 59  1  6
 17 60  1  0
 17 61  1  0
 17 62  1  0
 19 63  1  0
 22 64  1  0
 28 65  1  0
 28 66  1  0
 32 67  1  0
 32 68  1  0
 33 69  1  0
 35 70  1  0
 36 71  1  0
 37 72  1  0
 38 73  1  0
 40 74  1  0
 42 75  1  0
 46 76  1  0
 49 77  1  0
 49 78  1  0
M  CHG  3   5  -1  23   1  26  -1
M  END
>  <EmbedRMS>  (161) 
0.0809523995588

$$$$

     RDKit          3D

 78 83  0  0  0  0  0  0  0  0999 V2000
   10.2837   43.7626   33.8272 C   0  0  0  0  0  0  0  0  0  0  0  0
   11.4102   43.5864   34.3764 O   0  0  0  0  0  0  0  0  0  0  0  0
    9.3629   42.7236   33.7352 O   0  0  0  0  0  0  0  0  0  0  0  0
    9.8893   41.2250   34.2943 P   0  0  0  0  0  0  0  0  0  0  0  0
   10.3727   41.4547   35.8837 O   0  0  0  0  0  0  0  0  0  0  0  0
    9.9547   45.0700   33.2059 C   0  0  1  0  0  0  0  0  0  0  0  0
   11.0197   46.0481   33.4565 N   0  0  0  0  0  0  0  0  0  0  0  0
    9.7499   44.8511   31.6917 C   0  0  0  0  0  0  0  0  0  0  0  0
    8.7939   45.8420   31.0864 C   0  0  0  0  0  0  0  0  0  0  0  0
    7.4058   45.6012   31.1018 C   0  0  0  0  0  0  0  0  0  0  0  0
    9.2831   46.9914   30.4452 C   0  0  0  0  0  0  0  0  0  0  0  0
    6.5257   46.5028   30.4874 C   0  0  0  0  0  0  0  0  0  0  0  0
    8.4014   47.8918   29.8349 C   0  0  0  0  0  0  0  0  0  0  0  0
    7.0223   47.6454   29.8432 C   0  0  0  0  0  0  0  0  0  0  0  0
    6.1439   48.5503   29.2421 O   0  0  0  0  0  0  0  0  0  0  0  0
    5.6613   48.4255   27.9004 C   0  0  1  0  0  0  0  0  0  0  0  0
    6.7426   48.7993   26.8808 C   0  0  0  0  0  0  0  0  0  0  0  0
    4.9727   47.0810   27.6686 C   0  0  0  0  0  0  0  0  0  0  0  0
    3.5826   47.0168   27.9393 C   0  0  0  0  0  0  0  0  0  0  0  0
    5.6564   45.8742   27.2896 C   0  0  0  0  0  0  0  0  0  0  0  0
    2.9318   45.7958   27.8196 C   0  0  0  0  0  0  0  0  0  0  0  0
    4.9437   44.6608   27.1869 C   0  0  0  0  0  0  0  0  0  0  0  0
    7.0527   45.8537   26.9913 N   0  0  0  0  0  0  0  0  0  0  0  0
    1.5973   45.5092   28.0342 O   0  0  0  0  0  0  0  0  0  0  0  0
    3.5837   44.6674   27.4600 C   0  0  0  0  0  0  0  0  0  0  0  0
    7.4518   46.0352   25.6878 O   0  0  0  0  0  0  0  0  0  0  0  0
    7.8379   45.3015   27.7881 O   0  0  0  0  0  0  0  0  0  0  0  0
    1.4008   44.1096   27.7909 C   0  0  0  0  0  0  0  0  0  0  0  0
    2.6949   43.6102   27.4267 O   0  0  0  0  0  0  0  0  0  0  0  0
    8.8113   40.1834   34.2129 O   0  0  0  0  0  0  0  0  0  0  0  0
   11.2399   40.7932   33.3692 O   0  0  0  0  0  0  0  0  0  0  0  0
   10.9143   40.6896   31.9973 C   0  0  0  0  0  0  0  0  0  0  0  0
   11.5260   39.3884   31.4375 C   0  0  0  0  0  0  0  0  0  0  0  0
   12.7504   39.0888   32.0815 O   0  0  0  0  0  0  0  0  0  0  0  0
   10.6115   38.1909   31.6460 C   0  0  0  0  0  0  0  0  0  0  0  0
   12.9357   37.6812   32.0303 C   0  0  0  0  0  0  0  0  0  0  0  0
    9.6145   38.0858   30.6533 O   0  0  0  0  0  0  0  0  0  0  0  0
   11.5769   37.0148   31.7012 C   0  0  0  0  0  0  0  0  0  0  0  0
   13.4849   37.2112   33.3247 N   0  0  0  0  0  0  0  0  0  0  0  0
   11.6193   36.3260   30.4724 O   0  0  0  0  0  0  0  0  0  0  0  0
   14.4802   36.3313   33.5730 C   0  0  0  0  0  0  0  0  0  0  0  0
   13.1141   37.6268   34.5697 C   0  0  0  0  0  0  0  0  0  0  0  0
   15.2075   35.6151   32.6741 N   0  0  0  0  0  0  0  0  0  0  0  0
   14.6761   36.2301   34.9184 C   0  0  0  0  0  0  0  0  0  0  0  0
   13.8220   37.0445   35.5789 N   0  0  0  0  0  0  0  0  0  0  0  0
   16.1642   34.7600   33.1547 C   0  0  0  0  0  0  0  0  0  0  0  0
   15.6529   35.3503   35.4131 C   0  0  0  0  0  0  0  0  0  0  0  0
   16.3797   34.6314   34.5042 N   0  0  0  0  0  0  0  0  0  0  0  0
   15.9004   35.1930   36.8090 N   0  0  0  0  0  0  0  0  0  0  0  0
    9.0098   45.4349   33.6666 H   0  0  0  0  0  0  0  0  0  0  0  0
   11.1133   46.1991   34.4878 H   0  0  0  0  0  0  0  0  0  0  0  0
   11.9347   45.6933   33.0920 H   0  0  0  0  0  0  0  0  0  0  0  0
   10.7300   44.8930   31.1666 H   0  0  0  0  0  0  0  0  0  0  0  0
    9.3507   43.8347   31.4753 H   0  0  0  0  0  0  0  0  0  0  0  0
    7.0093   44.7170   31.5854 H   0  0  0  0  0  0  0  0  0  0  0  0
   10.3469   47.1927   30.4182 H   0  0  0  0  0  0  0  0  0  0  0  0
    5.4605   46.3114   30.5089 H   0  0  0  0  0  0  0  0  0  0  0  0
    8.7901   48.7790   29.3517 H   0  0  0  0  0  0  0  0  0  0  0  0
    4.8871   49.2155   27.7796 H   0  0  0  0  0  0  0  0  0  0  0  0
    7.6961   48.2739   27.0823 H   0  0  0  0  0  0  0  0  0  0  0  0
    6.3958   48.5766   25.8494 H   0  0  0  0  0  0  0  0  0  0  0  0
    6.9521   49.8881   26.9478 H   0  0  0  0  0  0  0  0  0  0  0  0
    3.0246   47.8908   28.2512 H   0  0  0  0  0  0  0  0  0  0  0  0
    5.4403   43.7425   26.9002 H   0  0  0  0  0  0  0  0  0  0  0  0
    0.6842   43.9618   26.9559 H   0  0  0  0  0  0  0  0  0  0  0  0
    1.0414   43.6062   28.7128 H   0  0  0  0  0  0  0  0  0  0  0  0
    9.8233   40.7192   31.7643 H   0  0  0  0  0  0  0  0  0  0  0  0
   11.3782   41.5526   31.4732 H   0  0  0  0  0  0  0  0  0  0  0  0
   11.7282   39.5312   30.3514 H   0  0  0  0  0  0  0  0  0  0  0  0
   10.1127   38.2733   32.6376 H   0  0  0  0  0  0  0  0  0  0  0  0
   13.6692   37.4565   31.2241 H   0  0  0  0  0  0  0  0  0  0  0  0
   10.0533   38.1118   29.7635 H   0  0  0  0  0  0  0  0  0  0  0  0
   11.2607   36.3148   32.5101 H   0  0  0  0  0  0  0  0  0  0  0  0
   12.1496   35.5022   30.6324 H   0  0  0  0  0  0  0  0  0  0  0  0
   12.3301   38.3524   34.7455 H   0  0  0  0  0  0  0  0  0  0  0  0
   16.7563   34.1781   32.4619 H   0  0  0  0  0  0  0  0  0  0  0  0
   15.3536   35.7357   37.5139 H   0  0  0  0  0  0  0  0  0  0  0  0
   16.6351   34.5298   37.1416 H   0  0  0  0  0  0  0  0  0  0  0  0
  1  2  2  0
  1  3  1  0
  3  4  1  0
  4  5  1  0
  6  1  1  0
  7  6  1  0
  6  8  1  0
  8  9  1  0
  9 10  2  0
 11  9  1  0
 10 12  1  0
 13 11  2  0
 12 14  2  0
 14 13  1  0
 14 15  1  0
 15 16  1  0
 16 17  1  0
 16 18  1  0
 18 19  2  0
 20 18  1  0
 19 21  1  0
 22 20  2  0
 20 23  1  0
 21 24  1  0
 21 25  2  0
 25 22  1  0
 23 26  1  0
 23 27  2  0
 24 28  1  0
 25 29  1  0
 28 29  1  0
  4 30  2  0
  4 31  1  0
 32 31  1  0
 32 33  1  0
 33 34  1  0
 33 35  1  0
 34 36  1  0
 35 37  1  0
 35 38  1  0
 38 36  1  0
 36 39  1  0
 38 40  1  0
 41 39  1  0
 42 39  1  0
 43 41  2  0
 41 44  1  0
 45 42  2  0
 46 43  1  0
 44 47  2  0
 44 45  1  0
 48 46  2  0
 48 47  1  0
 47 49  1  0
  6 50  1  1
  7 51  1  0
  7 52  1  0
  8 53  1  0
  8 54  1  0
 10 55  1  0
 11 56  1  0
 12 57  1  0
 13 58  1  0
 16 59  1  1
 17 60  1  0
 17 61  1  0
 17 62  1  0
 19 63  1  0
 22 64  1  0
 28 65  1  0
 28 66  1  0
 32 67  1  0
 32 68  1  0
 33 69  1  0
 35 70  1  0
 36 71  1  0
 37 72  1  0
 38 73  1  0
 40 74  1  0
 42 75  1  0
 46 76  1  0
 49 77  1  0
 49 78  1  0
M  CHG  3   5  -1  23   1  26  -1
M  END
>  <EmbedRMS>  (162) 
0.082647374593

$$$$

     RDKit          3D

 78 83  0  0  0  0  0  0  0  0999 V2000
   10.2834   43.7661   33.8257 C   0  0  0  0  0  0  0  0  0  0  0  0
   11.4102   43.5930   34.3752 O   0  0  0  0  0  0  0  0  0  0  0  0
    9.3637   42.7255   33.7350 O   0  0  0  0  0  0  0  0  0  0  0  0
    9.8902   41.2267   34.2942 P   0  0  0  0  0  0  0  0  0  0  0  0
   10.3736   41.4560   35.8836 O   0  0  0  0  0  0  0  0  0  0  0  0
    9.9547   45.0694   33.2035 C   0  0  1  0  0  0  0  0  0  0  0  0
   11.0273   46.0321   33.4756 N   0  0  0  0  0  0  0  0  0  0  0  0
    9.7467   44.8479   31.6876 C   0  0  0  0  0  0  0  0  0  0  0  0
    8.7924   45.8405   31.0841 C   0  0  0  0  0  0  0  0  0  0  0  0
    7.4058   45.6016   31.0993 C   0  0  0  0  0  0  0  0  0  0  0  0
    9.2821   46.9877   30.4426 C   0  0  0  0  0  0  0  0  0  0  0  0
    6.5271   46.5035   30.4847 C   0  0  0  0  0  0  0  0  0  0  0  0
    8.4032   47.8906   29.8324 C   0  0  0  0  0  0  0  0  0  0  0  0
    7.0134   47.6526   29.8457 C   0  0  0  0  0  0  0  0  0  0  0  0
    6.0821   48.5211   29.2522 O   0  0  0  0  0  0  0  0  0  0  0  0
    6.3900   49.6757   28.4644 C   0  0  1  0  0  0  0  0  0  0  0  0
    6.8880   49.2514   27.0782 C   0  0  0  0  0  0  0  0  0  0  0  0
    5.1419   50.5264   28.3203 C   0  0  0  0  0  0  0  0  0  0  0  0
    3.9119   49.8809   28.0394 C   0  0  0  0  0  0  0  0  0  0  0  0
    5.1608   51.9515   28.4945 C   0  0  0  0  0  0  0  0  0  0  0  0
    2.7564   50.6487   27.9825 C   0  0  0  0  0  0  0  0  0  0  0  0
    3.9490   52.6772   28.4430 C   0  0  0  0  0  0  0  0  0  0  0  0
    6.3847   52.6751   28.6980 N   0  0  0  0  0  0  0  0  0  0  0  0
    1.4612   50.2347   27.7375 O   0  0  0  0  0  0  0  0  0  0  0  0
    2.7733   51.9865   28.1815 C   0  0  0  0  0  0  0  0  0  0  0  0
    6.3963   53.7801   29.5177 O   0  0  0  0  0  0  0  0  0  0  0  0
    7.3698   52.4626   27.9616 O   0  0  0  0  0  0  0  0  0  0  0  0
    0.6114   51.3889   27.7856 C   0  0  0  0  0  0  0  0  0  0  0  0
    1.4898   52.4860   28.0715 O   0  0  0  0  0  0  0  0  0  0  0  0
    8.8121   40.1850   34.2131 O   0  0  0  0  0  0  0  0  0  0  0  0
   11.2404   40.7941   33.3690 O   0  0  0  0  0  0  0  0  0  0  0  0
   10.9143   40.6898   31.9972 C   0  0  0  0  0  0  0  0  0  0  0  0
   11.5261   39.3885   31.4376 C   0  0  0  0  0  0  0  0  0  0  0  0
   12.7504   39.0888   32.0816 O   0  0  0  0  0  0  0  0  0  0  0  0
   10.6115   38.1910   31.6460 C   0  0  0  0  0  0  0  0  0  0  0  0
   12.9357   37.6812   32.0303 C   0  0  0  0  0  0  0  0  0  0  0  0
    9.6146   38.0859   30.6534 O   0  0  0  0  0  0  0  0  0  0  0  0
   11.5769   37.0148   31.7012 C   0  0  0  0  0  0  0  0  0  0  0  0
   13.4849   37.2112   33.3247 N   0  0  0  0  0  0  0  0  0  0  0  0
   11.6193   36.3261   30.4724 O   0  0  0  0  0  0  0  0  0  0  0  0
   14.4802   36.3313   33.5730 C   0  0  0  0  0  0  0  0  0  0  0  0
   13.1141   37.6268   34.5698 C   0  0  0  0  0  0  0  0  0  0  0  0
   15.2075   35.6151   32.6741 N   0  0  0  0  0  0  0  0  0  0  0  0
   14.6761   36.2300   34.9184 C   0  0  0  0  0  0  0  0  0  0  0  0
   13.8220   37.0445   35.5789 N   0  0  0  0  0  0  0  0  0  0  0  0
   16.1642   34.7600   33.1547 C   0  0  0  0  0  0  0  0  0  0  0  0
   15.6529   35.3503   35.4131 C   0  0  0  0  0  0  0  0  0  0  0  0
   16.3797   34.6314   34.5042 N   0  0  0  0  0  0  0  0  0  0  0  0
   15.9004   35.1930   36.8090 N   0  0  0  0  0  0  0  0  0  0  0  0
    9.0121   45.4317   33.6713 H   0  0  0  0  0  0  0  0  0  0  0  0
   10.7259   46.9687   33.1213 H   0  0  0  0  0  0  0  0  0  0  0  0
   11.8906   45.7658   32.9469 H   0  0  0  0  0  0  0  0  0  0  0  0
    9.3416   43.8327   31.4762 H   0  0  0  0  0  0  0  0  0  0  0  0
   10.7231   44.8813   31.1556 H   0  0  0  0  0  0  0  0  0  0  0  0
    7.0085   44.7171   31.5819 H   0  0  0  0  0  0  0  0  0  0  0  0
   10.3466   47.1853   30.4135 H   0  0  0  0  0  0  0  0  0  0  0  0
    5.4625   46.3074   30.5039 H   0  0  0  0  0  0  0  0  0  0  0  0
    8.8208   48.7658   29.3569 H   0  0  0  0  0  0  0  0  0  0  0  0
    7.1786   50.2552   28.9833 H   0  0  0  0  0  0  0  0  0  0  0  0
    7.8289   48.6705   27.1616 H   0  0  0  0  0  0  0  0  0  0  0  0
    7.0880   50.1457   26.4507 H   0  0  0  0  0  0  0  0  0  0  0  0
    6.1301   48.6177   26.5702 H   0  0  0  0  0  0  0  0  0  0  0  0
    3.8556   48.8102   27.8877 H   0  0  0  0  0  0  0  0  0  0  0  0
    3.9292   53.7514   28.5747 H   0  0  0  0  0  0  0  0  0  0  0  0
   -0.1403   51.2790   28.5952 H   0  0  0  0  0  0  0  0  0  0  0  0
    0.1147   51.5413   26.8045 H   0  0  0  0  0  0  0  0  0  0  0  0
    9.8233   40.7191   31.7647 H   0  0  0  0  0  0  0  0  0  0  0  0
   11.3779   41.5526   31.4726 H   0  0  0  0  0  0  0  0  0  0  0  0
   11.7283   39.5312   30.3515 H   0  0  0  0  0  0  0  0  0  0  0  0
   10.1127   38.2734   32.6376 H   0  0  0  0  0  0  0  0  0  0  0  0
   13.6692   37.4566   31.2242 H   0  0  0  0  0  0  0  0  0  0  0  0
   10.0534   38.1118   29.7636 H   0  0  0  0  0  0  0  0  0  0  0  0
   11.2607   36.3148   32.5102 H   0  0  0  0  0  0  0  0  0  0  0  0
   12.1496   35.5023   30.6324 H   0  0  0  0  0  0  0  0  0  0  0  0
   12.3301   38.3524   34.7455 H   0  0  0  0  0  0  0  0  0  0  0  0
   16.7563   34.1781   32.4619 H   0  0  0  0  0  0  0  0  0  0  0  0
   16.6351   34.5298   37.1416 H   0  0  0  0  0  0  0  0  0  0  0  0
   15.3536   35.7357   37.5139 H   0  0  0  0  0  0  0  0  0  0  0  0
  1  2  2  0
  1  3  1  0
  3  4  1  0
  4  5  1  0
  6  1  1  0
  7  6  1  0
  6  8  1  0
  8  9  1  0
  9 10  2  0
 11  9  1  0
 10 12  1  0
 13 11  2  0
 12 14  2  0
 14 13  1  0
 14 15  1  0
 15 16  1  0
 16 17  1  0
 16 18  1  0
 18 19  2  0
 20 18  1  0
 19 21  1  0
 22 20  2  0
 20 23  1  0
 21 24  1  0
 21 25  2  0
 25 22  1  0
 23 26  1  0
 23 27  2  0
 24 28  1  0
 25 29  1  0
 28 29  1  0
  4 30  2  0
  4 31  1  0
 32 31  1  0
 32 33  1  0
 33 34  1  0
 33 35  1  0
 34 36  1  0
 35 37  1  0
 35 38  1  0
 38 36  1  0
 36 39  1  0
 38 40  1  0
 41 39  1  0
 42 39  1  0
 43 41  2  0
 41 44  1  0
 45 42  2  0
 46 43  1  0
 44 47  2  0
 44 45  1  0
 48 46  2  0
 48 47  1  0
 47 49  1  0
  6 50  1  1
  7 51  1  0
  7 52  1  0
  8 53  1  0
  8 54  1  0
 10 55  1  0
 11 56  1  0
 12 57  1  0
 13 58  1  0
 16 59  1  1
 17 60  1  0
 17 61  1  0
 17 62  1  0
 19 63  1  0
 22 64  1  0
 28 65  1  0
 28 66  1  0
 32 67  1  0
 32 68  1  0
 33 69  1  0
 35 70  1  0
 36 71  1  0
 37 72  1  0
 38 73  1  0
 40 74  1  0
 42 75  1  0
 46 76  1  0
 49 77  1  0
 49 78  1  0
M  CHG  3   5  -1  23   1  26  -1
M  END
>  <EmbedRMS>  (163) 
0.0816233812971

$$$$

     RDKit          3D

 78 83  0  0  0  0  0  0  0  0999 V2000
   10.2802   43.7668   33.8251 C   0  0  0  0  0  0  0  0  0  0  0  0
   11.4110   43.5922   34.3665 O   0  0  0  0  0  0  0  0  0  0  0  0
    9.3616   42.7253   33.7348 O   0  0  0  0  0  0  0  0  0  0  0  0
    9.8896   41.2271   34.2945 P   0  0  0  0  0  0  0  0  0  0  0  0
   10.3732   41.4569   35.8837 O   0  0  0  0  0  0  0  0  0  0  0  0
    9.9454   45.0741   33.2114 C   0  0  1  0  0  0  0  0  0  0  0  0
   11.0259   46.0300   33.4708 N   0  0  0  0  0  0  0  0  0  0  0  0
    9.7532   44.8545   31.6952 C   0  0  0  0  0  0  0  0  0  0  0  0
    8.7951   45.8417   31.0852 C   0  0  0  0  0  0  0  0  0  0  0  0
    7.4074   45.5986   31.0982 C   0  0  0  0  0  0  0  0  0  0  0  0
    9.2834   46.9876   30.4374 C   0  0  0  0  0  0  0  0  0  0  0  0
    6.5261   46.4984   30.4819 C   0  0  0  0  0  0  0  0  0  0  0  0
    8.4012   47.8859   29.8265 C   0  0  0  0  0  0  0  0  0  0  0  0
    7.0198   47.6549   29.8596 C   0  0  0  0  0  0  0  0  0  0  0  0
    6.1535   48.5718   29.2558 O   0  0  0  0  0  0  0  0  0  0  0  0
    5.3713   49.5453   29.9617 C   0  0  1  0  0  0  0  0  0  0  0  0
    4.2878   48.8965   30.8310 C   0  0  0  0  0  0  0  0  0  0  0  0
    6.2524   50.5062   30.7564 C   0  0  0  0  0  0  0  0  0  0  0  0
    6.9692   50.0218   31.8818 C   0  0  0  0  0  0  0  0  0  0  0  0
    6.4348   51.8738   30.3575 C   0  0  0  0  0  0  0  0  0  0  0  0
    7.8539   50.8742   32.5277 C   0  0  0  0  0  0  0  0  0  0  0  0
    7.3599   52.6901   31.0452 C   0  0  0  0  0  0  0  0  0  0  0  0
    5.6876   52.4534   29.2797 N   0  0  0  0  0  0  0  0  0  0  0  0
    8.6590   50.6090   33.6187 O   0  0  0  0  0  0  0  0  0  0  0  0
    8.0455   52.1500   32.1239 C   0  0  0  0  0  0  0  0  0  0  0  0
    6.3255   53.2696   28.3745 O   0  0  0  0  0  0  0  0  0  0  0  0
    4.4403   52.4646   29.3261 O   0  0  0  0  0  0  0  0  0  0  0  0
    9.4034   51.7975   33.9180 C   0  0  0  0  0  0  0  0  0  0  0  0
    8.9805   52.7573   32.9398 O   0  0  0  0  0  0  0  0  0  0  0  0
    8.8123   40.1845   34.2135 O   0  0  0  0  0  0  0  0  0  0  0  0
   11.2401   40.7951   33.3698 O   0  0  0  0  0  0  0  0  0  0  0  0
   10.9143   40.6914   31.9980 C   0  0  0  0  0  0  0  0  0  0  0  0
   11.5269   39.3912   31.4385 C   0  0  0  0  0  0  0  0  0  0  0  0
   12.7519   39.0911   32.0837 O   0  0  0  0  0  0  0  0  0  0  0  0
   10.6113   38.1932   31.6451 C   0  0  0  0  0  0  0  0  0  0  0  0
   12.9413   37.6838   32.0297 C   0  0  0  0  0  0  0  0  0  0  0  0
    9.6064   38.0877   30.6599 O   0  0  0  0  0  0  0  0  0  0  0  0
   11.5822   37.0198   31.6877 C   0  0  0  0  0  0  0  0  0  0  0  0
   13.4840   37.2105   33.3254 N   0  0  0  0  0  0  0  0  0  0  0  0
   11.6179   36.3072   30.4691 O   0  0  0  0  0  0  0  0  0  0  0  0
   14.4797   36.3310   33.5738 C   0  0  0  0  0  0  0  0  0  0  0  0
   13.1136   37.6269   34.5702 C   0  0  0  0  0  0  0  0  0  0  0  0
   15.2074   35.6152   32.6747 N   0  0  0  0  0  0  0  0  0  0  0  0
   14.6756   36.2298   34.9190 C   0  0  0  0  0  0  0  0  0  0  0  0
   13.8217   37.0445   35.5793 N   0  0  0  0  0  0  0  0  0  0  0  0
   16.1643   34.7603   33.1551 C   0  0  0  0  0  0  0  0  0  0  0  0
   15.6528   35.3503   35.4136 C   0  0  0  0  0  0  0  0  0  0  0  0
   16.3798   34.6316   34.5046 N   0  0  0  0  0  0  0  0  0  0  0  0
   15.9004   35.1930   36.8094 N   0  0  0  0  0  0  0  0  0  0  0  0
    8.9989   45.4385   33.6723 H   0  0  0  0  0  0  0  0  0  0  0  0
   10.7745   46.9379   33.0167 H   0  0  0  0  0  0  0  0  0  0  0  0
   11.0500   46.2280   34.4982 H   0  0  0  0  0  0  0  0  0  0  0  0
   10.7404   44.9079   31.1838 H   0  0  0  0  0  0  0  0  0  0  0  0
    9.3635   43.8358   31.4716 H   0  0  0  0  0  0  0  0  0  0  0  0
    7.0127   44.7107   31.5764 H   0  0  0  0  0  0  0  0  0  0  0  0
   10.3473   47.1868   30.4027 H   0  0  0  0  0  0  0  0  0  0  0  0
    5.4647   46.2897   30.4840 H   0  0  0  0  0  0  0  0  0  0  0  0
    8.7892   48.7706   29.3378 H   0  0  0  0  0  0  0  0  0  0  0  0
    4.8238   50.0965   29.1756 H   0  0  0  0  0  0  0  0  0  0  0  0
    4.7230   48.3125   31.6666 H   0  0  0  0  0  0  0  0  0  0  0  0
    3.6660   48.2175   30.2100 H   0  0  0  0  0  0  0  0  0  0  0  0
    3.6288   49.6822   31.2583 H   0  0  0  0  0  0  0  0  0  0  0  0
    6.8651   49.0051   32.2344 H   0  0  0  0  0  0  0  0  0  0  0  0
    7.5207   53.7218   30.7594 H   0  0  0  0  0  0  0  0  0  0  0  0
    9.1580   52.1574   34.9392 H   0  0  0  0  0  0  0  0  0  0  0  0
   10.4921   51.6038   33.8191 H   0  0  0  0  0  0  0  0  0  0  0  0
    9.8233   40.7200   31.7652 H   0  0  0  0  0  0  0  0  0  0  0  0
   11.3775   41.5548   31.4740 H   0  0  0  0  0  0  0  0  0  0  0  0
   11.7312   39.5361   30.3532 H   0  0  0  0  0  0  0  0  0  0  0  0
   10.1202   38.2696   32.6410 H   0  0  0  0  0  0  0  0  0  0  0  0
   13.6850   37.4639   31.2321 H   0  0  0  0  0  0  0  0  0  0  0  0
   10.0251   38.1791   29.7654 H   0  0  0  0  0  0  0  0  0  0  0  0
   11.2757   36.3135   32.4908 H   0  0  0  0  0  0  0  0  0  0  0  0
   11.9838   36.9111   29.7708 H   0  0  0  0  0  0  0  0  0  0  0  0
   12.3307   38.3536   34.7458 H   0  0  0  0  0  0  0  0  0  0  0  0
   16.7566   34.1787   32.4623 H   0  0  0  0  0  0  0  0  0  0  0  0
   16.6353   34.5301   37.1419 H   0  0  0  0  0  0  0  0  0  0  0  0
   15.3535   35.7355   37.5144 H   0  0  0  0  0  0  0  0  0  0  0  0
  1  2  2  0
  1  3  1  0
  3  4  1  0
  4  5  1  0
  6  1  1  0
  7  6  1  0
  6  8  1  0
  8  9  1  0
  9 10  2  0
 11  9  1  0
 10 12  1  0
 13 11  2  0
 12 14  2  0
 14 13  1  0
 14 15  1  0
 15 16  1  0
 16 17  1  0
 16 18  1  0
 18 19  2  0
 20 18  1  0
 19 21  1  0
 22 20  2  0
 20 23  1  0
 21 24  1  0
 21 25  2  0
 25 22  1  0
 23 26  1  0
 23 27  2  0
 24 28  1  0
 25 29  1  0
 28 29  1  0
  4 30  2  0
  4 31  1  0
 32 31  1  0
 32 33  1  0
 33 34  1  0
 33 35  1  0
 34 36  1  0
 35 37  1  0
 35 38  1  0
 38 36  1  0
 36 39  1  0
 38 40  1  0
 41 39  1  0
 42 39  1  0
 43 41  2  0
 41 44  1  0
 45 42  2  0
 46 43  1  0
 44 47  2  0
 44 45  1  0
 48 46  2  0
 48 47  1  0
 47 49  1  0
  6 50  1  1
  7 51  1  0
  7 52  1  0
  8 53  1  0
  8 54  1  0
 10 55  1  0
 11 56  1  0
 12 57  1  0
 13 58  1  0
 16 59  1  6
 17 60  1  0
 17 61  1  0
 17 62  1  0
 19 63  1  0
 22 64  1  0
 28 65  1  0
 28 66  1  0
 32 67  1  0
 32 68  1  0
 33 69  1  0
 35 70  1  0
 36 71  1  0
 37 72  1  0
 38 73  1  0
 40 74  1  0
 42 75  1  0
 46 76  1  0
 49 77  1  0
 49 78  1  0
M  CHG  3   5  -1  23   1  26  -1
M  END
>  <EmbedRMS>  (164) 
0.0807676345615

$$$$

     RDKit          3D

 78 83  0  0  0  0  0  0  0  0999 V2000
   10.2835   43.7661   33.8252 C   0  0  0  0  0  0  0  0  0  0  0  0
   11.4101   43.5931   34.3751 O   0  0  0  0  0  0  0  0  0  0  0  0
    9.3640   42.7253   33.7344 O   0  0  0  0  0  0  0  0  0  0  0  0
    9.8907   41.2265   34.2938 P   0  0  0  0  0  0  0  0  0  0  0  0
   10.3732   41.4560   35.8835 O   0  0  0  0  0  0  0  0  0  0  0  0
    9.9546   45.0694   33.2031 C   0  0  1  0  0  0  0  0  0  0  0  0
   11.0272   46.0321   33.4754 N   0  0  0  0  0  0  0  0  0  0  0  0
    9.7465   44.8484   31.6870 C   0  0  0  0  0  0  0  0  0  0  0  0
    8.7920   45.8411   31.0840 C   0  0  0  0  0  0  0  0  0  0  0  0
    7.4040   45.6017   31.1008 C   0  0  0  0  0  0  0  0  0  0  0  0
    9.2822   46.9902   30.4428 C   0  0  0  0  0  0  0  0  0  0  0  0
    6.5246   46.5038   30.4869 C   0  0  0  0  0  0  0  0  0  0  0  0
    8.4008   47.8918   29.8339 C   0  0  0  0  0  0  0  0  0  0  0  0
    7.0216   47.6465   29.8432 C   0  0  0  0  0  0  0  0  0  0  0  0
    6.1429   48.5534   29.2454 O   0  0  0  0  0  0  0  0  0  0  0  0
    5.6607   48.4343   27.9031 C   0  0  1  0  0  0  0  0  0  0  0  0
    6.7389   48.8237   26.8865 C   0  0  0  0  0  0  0  0  0  0  0  0
    4.9808   47.0865   27.6629 C   0  0  0  0  0  0  0  0  0  0  0  0
    3.5907   47.0135   27.9321 C   0  0  0  0  0  0  0  0  0  0  0  0
    5.6728   45.8828   27.2875 C   0  0  0  0  0  0  0  0  0  0  0  0
    2.9488   45.7872   27.8189 C   0  0  0  0  0  0  0  0  0  0  0  0
    4.9696   44.6631   27.1955 C   0  0  0  0  0  0  0  0  0  0  0  0
    7.0692   45.8684   26.9885 N   0  0  0  0  0  0  0  0  0  0  0  0
    1.6164   45.4920   28.0347 O   0  0  0  0  0  0  0  0  0  0  0  0
    3.6095   44.6614   27.4677 C   0  0  0  0  0  0  0  0  0  0  0  0
    7.9238   45.2109   27.8411 O   0  0  0  0  0  0  0  0  0  0  0  0
    7.4344   46.0674   25.8119 O   0  0  0  0  0  0  0  0  0  0  0  0
    1.4306   44.0893   27.8010 C   0  0  0  0  0  0  0  0  0  0  0  0
    2.7287   43.5973   27.4412 O   0  0  0  0  0  0  0  0  0  0  0  0
    8.8127   40.1848   34.2122 O   0  0  0  0  0  0  0  0  0  0  0  0
   11.2420   40.7941   33.3696 O   0  0  0  0  0  0  0  0  0  0  0  0
   10.9187   40.6911   31.9971 C   0  0  0  0  0  0  0  0  0  0  0  0
   11.5172   39.3815   31.4407 C   0  0  0  0  0  0  0  0  0  0  0  0
   12.7492   39.0856   32.0728 O   0  0  0  0  0  0  0  0  0  0  0  0
   10.6022   38.1908   31.6665 C   0  0  0  0  0  0  0  0  0  0  0  0
   12.9319   37.6781   32.0281 C   0  0  0  0  0  0  0  0  0  0  0  0
    9.6392   38.0798   30.6452 O   0  0  0  0  0  0  0  0  0  0  0  0
   11.5715   37.0166   31.7056 C   0  0  0  0  0  0  0  0  0  0  0  0
   13.4846   37.2121   33.3235 N   0  0  0  0  0  0  0  0  0  0  0  0
   11.6186   36.3384   30.4695 O   0  0  0  0  0  0  0  0  0  0  0  0
   14.4801   36.3321   33.5724 C   0  0  0  0  0  0  0  0  0  0  0  0
   13.1137   37.6276   34.5687 C   0  0  0  0  0  0  0  0  0  0  0  0
   15.2073   35.6153   32.6738 N   0  0  0  0  0  0  0  0  0  0  0  0
   14.6759   36.2308   34.9179 C   0  0  0  0  0  0  0  0  0  0  0  0
   13.8216   37.0452   35.5780 N   0  0  0  0  0  0  0  0  0  0  0  0
   16.1640   34.7602   33.1546 C   0  0  0  0  0  0  0  0  0  0  0  0
   15.6526   35.3508   35.4129 C   0  0  0  0  0  0  0  0  0  0  0  0
   16.3794   34.6317   34.5041 N   0  0  0  0  0  0  0  0  0  0  0  0
   15.8999   35.1935   36.8088 N   0  0  0  0  0  0  0  0  0  0  0  0
    9.0120   45.4316   33.6710 H   0  0  0  0  0  0  0  0  0  0  0  0
   10.7257   46.9688   33.1213 H   0  0  0  0  0  0  0  0  0  0  0  0
   11.8904   45.7660   32.9465 H   0  0  0  0  0  0  0  0  0  0  0  0
    9.3414   43.8333   31.4752 H   0  0  0  0  0  0  0  0  0  0  0  0
   10.7227   44.8823   31.1548 H   0  0  0  0  0  0  0  0  0  0  0  0
    7.0069   44.7178   31.5845 H   0  0  0  0  0  0  0  0  0  0  0  0
   10.3462   47.1897   30.4137 H   0  0  0  0  0  0  0  0  0  0  0  0
    5.4592   46.3135   30.5090 H   0  0  0  0  0  0  0  0  0  0  0  0
    8.7901   48.7792   29.3516 H   0  0  0  0  0  0  0  0  0  0  0  0
    4.8812   49.2199   27.7881 H   0  0  0  0  0  0  0  0  0  0  0  0
    6.9366   49.9145   26.9581 H   0  0  0  0  0  0  0  0  0  0  0  0
    7.6978   48.3083   27.0887 H   0  0  0  0  0  0  0  0  0  0  0  0
    6.3963   48.6015   25.8536 H   0  0  0  0  0  0  0  0  0  0  0  0
    3.0262   47.8844   28.2410 H   0  0  0  0  0  0  0  0  0  0  0  0
    5.4729   43.7466   26.9151 H   0  0  0  0  0  0  0  0  0  0  0  0
    1.0744   43.5897   28.7261 H   0  0  0  0  0  0  0  0  0  0  0  0
    0.7158   43.9303   26.9666 H   0  0  0  0  0  0  0  0  0  0  0  0
    9.8299   40.7411   31.7612 H   0  0  0  0  0  0  0  0  0  0  0  0
   11.3968   41.5460   31.4728 H   0  0  0  0  0  0  0  0  0  0  0  0
   11.6974   39.5067   30.3481 H   0  0  0  0  0  0  0  0  0  0  0  0
   10.1076   38.2648   32.6645 H   0  0  0  0  0  0  0  0  0  0  0  0
   13.6621   37.4467   31.2208 H   0  0  0  0  0  0  0  0  0  0  0  0
    8.8975   38.6946   30.8829 H   0  0  0  0  0  0  0  0  0  0  0  0
   11.2805   36.3074   32.5170 H   0  0  0  0  0  0  0  0  0  0  0  0
   10.8491   35.7111   30.4586 H   0  0  0  0  0  0  0  0  0  0  0  0
   12.3290   38.3524   34.7444 H   0  0  0  0  0  0  0  0  0  0  0  0
   16.7559   34.1780   32.4619 H   0  0  0  0  0  0  0  0  0  0  0  0
   15.3531   35.7363   37.5137 H   0  0  0  0  0  0  0  0  0  0  0  0
   16.6344   34.5301   37.1414 H   0  0  0  0  0  0  0  0  0  0  0  0
  1  2  2  0
  1  3  1  0
  3  4  1  0
  4  5  1  0
  6  1  1  0
  7  6  1  0
  6  8  1  0
  8  9  1  0
  9 10  2  0
 11  9  1  0
 10 12  1  0
 13 11  2  0
 12 14  2  0
 14 13  1  0
 14 15  1  0
 15 16  1  0
 16 17  1  0
 16 18  1  0
 18 19  2  0
 20 18  1  0
 19 21  1  0
 22 20  2  0
 20 23  1  0
 21 24  1  0
 21 25  2  0
 25 22  1  0
 23 26  1  0
 23 27  2  0
 24 28  1  0
 25 29  1  0
 28 29  1  0
  4 30  2  0
  4 31  1  0
 32 31  1  0
 32 33  1  0
 33 34  1  0
 33 35  1  0
 34 36  1  0
 35 37  1  0
 35 38  1  0
 38 36  1  0
 36 39  1  0
 38 40  1  0
 41 39  1  0
 42 39  1  0
 43 41  2  0
 41 44  1  0
 45 42  2  0
 46 43  1  0
 44 47  2  0
 44 45  1  0
 48 46  2  0
 48 47  1  0
 47 49  1  0
  6 50  1  1
  7 51  1  0
  7 52  1  0
  8 53  1  0
  8 54  1  0
 10 55  1  0
 11 56  1  0
 12 57  1  0
 13 58  1  0
 16 59  1  1
 17 60  1  0
 17 61  1  0
 17 62  1  0
 19 63  1  0
 22 64  1  0
 28 65  1  0
 28 66  1  0
 32 67  1  0
 32 68  1  0
 33 69  1  0
 35 70  1  0
 36 71  1  0
 37 72  1  0
 38 73  1  0
 40 74  1  0
 42 75  1  0
 46 76  1  0
 49 77  1  0
 49 78  1  0
M  CHG  3   5  -1  23   1  26  -1
M  END
>  <EmbedRMS>  (165) 
0.0830564294604

$$$$

     RDKit          3D

 78 83  0  0  0  0  0  0  0  0999 V2000
   10.2845   43.7667   33.8259 C   0  0  0  0  0  0  0  0  0  0  0  0
   11.4118   43.5940   34.3741 O   0  0  0  0  0  0  0  0  0  0  0  0
    9.3651   42.7258   33.7368 O   0  0  0  0  0  0  0  0  0  0  0  0
    9.8931   41.2269   34.2948 P   0  0  0  0  0  0  0  0  0  0  0  0
   10.3772   41.4548   35.8841 O   0  0  0  0  0  0  0  0  0  0  0  0
    9.9539   45.0695   33.2045 C   0  0  1  0  0  0  0  0  0  0  0  0
   11.0268   46.0331   33.4741 N   0  0  0  0  0  0  0  0  0  0  0  0
    9.7418   44.8476   31.6897 C   0  0  0  0  0  0  0  0  0  0  0  0
    8.7885   45.8421   31.0868 C   0  0  0  0  0  0  0  0  0  0  0  0
    7.4013   45.6031   31.0931 C   0  0  0  0  0  0  0  0  0  0  0  0
    9.2808   46.9915   30.4536 C   0  0  0  0  0  0  0  0  0  0  0  0
    6.5224   46.5006   30.4705 C   0  0  0  0  0  0  0  0  0  0  0  0
    8.4017   47.8948   29.8451 C   0  0  0  0  0  0  0  0  0  0  0  0
    7.0210   47.6539   29.8327 C   0  0  0  0  0  0  0  0  0  0  0  0
    6.1960   48.5820   29.1754 O   0  0  0  0  0  0  0  0  0  0  0  0
    4.9762   48.2916   28.4739 C   0  0  1  0  0  0  0  0  0  0  0  0
    5.2314   47.2229   27.3966 C   0  0  0  0  0  0  0  0  0  0  0  0
    3.8174   48.0187   29.4334 C   0  0  0  0  0  0  0  0  0  0  0  0
    3.0093   46.8568   29.2880 C   0  0  0  0  0  0  0  0  0  0  0  0
    3.5246   48.9335   30.5050 C   0  0  0  0  0  0  0  0  0  0  0  0
    1.9818   46.6392   30.1973 C   0  0  0  0  0  0  0  0  0  0  0  0
    2.4710   48.6496   31.4076 C   0  0  0  0  0  0  0  0  0  0  0  0
    4.2768   50.1441   30.6886 N   0  0  0  0  0  0  0  0  0  0  0  0
    1.0888   45.5842   30.2421 O   0  0  0  0  0  0  0  0  0  0  0  0
    1.7221   47.4966   31.2117 C   0  0  0  0  0  0  0  0  0  0  0  0
    4.5317   50.9785   29.6252 O   0  0  0  0  0  0  0  0  0  0  0  0
    4.5821   50.5231   31.8386 O   0  0  0  0  0  0  0  0  0  0  0  0
    0.2031   45.8011   31.3507 C   0  0  0  0  0  0  0  0  0  0  0  0
    0.6428   47.0330   31.9443 O   0  0  0  0  0  0  0  0  0  0  0  0
    8.8143   40.1861   34.2146 O   0  0  0  0  0  0  0  0  0  0  0  0
   11.2432   40.7930   33.3690 O   0  0  0  0  0  0  0  0  0  0  0  0
   10.9186   40.6897   31.9966 C   0  0  0  0  0  0  0  0  0  0  0  0
   11.5177   39.3800   31.4400 C   0  0  0  0  0  0  0  0  0  0  0  0
   12.7505   39.0845   32.0706 O   0  0  0  0  0  0  0  0  0  0  0  0
   10.6027   38.1902   31.6682 C   0  0  0  0  0  0  0  0  0  0  0  0
   12.9316   37.6768   32.0285 C   0  0  0  0  0  0  0  0  0  0  0  0
    9.6404   38.0823   30.6456 O   0  0  0  0  0  0  0  0  0  0  0  0
   11.5706   37.0148   31.7081 C   0  0  0  0  0  0  0  0  0  0  0  0
   13.4847   37.2120   33.3237 N   0  0  0  0  0  0  0  0  0  0  0  0
   11.6176   36.3369   30.4718 O   0  0  0  0  0  0  0  0  0  0  0  0
   14.4815   36.3336   33.5721 C   0  0  0  0  0  0  0  0  0  0  0  0
   13.1114   37.6248   34.5691 C   0  0  0  0  0  0  0  0  0  0  0  0
   15.2056   35.6138   32.6732 N   0  0  0  0  0  0  0  0  0  0  0  0
   14.6777   36.2325   34.9179 C   0  0  0  0  0  0  0  0  0  0  0  0
   13.8206   37.0439   35.5782 N   0  0  0  0  0  0  0  0  0  0  0  0
   16.1620   34.7584   33.1542 C   0  0  0  0  0  0  0  0  0  0  0  0
   15.6546   35.3518   35.4125 C   0  0  0  0  0  0  0  0  0  0  0  0
   16.3795   34.6318   34.5032 N   0  0  0  0  0  0  0  0  0  0  0  0
   15.9025   35.1907   36.8081 N   0  0  0  0  0  0  0  0  0  0  0  0
    9.0111   45.4291   33.6745 H   0  0  0  0  0  0  0  0  0  0  0  0
   11.8918   45.7679   32.9468 H   0  0  0  0  0  0  0  0  0  0  0  0
   10.7222   46.9684   33.1190 H   0  0  0  0  0  0  0  0  0  0  0  0
    9.3357   43.8326   31.4817 H   0  0  0  0  0  0  0  0  0  0  0  0
   10.7163   44.8761   31.1550 H   0  0  0  0  0  0  0  0  0  0  0  0
    7.0037   44.7164   31.5688 H   0  0  0  0  0  0  0  0  0  0  0  0
   10.3456   47.1911   30.4352 H   0  0  0  0  0  0  0  0  0  0  0  0
    5.4663   46.2829   30.4965 H   0  0  0  0  0  0  0  0  0  0  0  0
    8.7975   48.7796   29.3634 H   0  0  0  0  0  0  0  0  0  0  0  0
    4.7011   49.2065   27.9131 H   0  0  0  0  0  0  0  0  0  0  0  0
    5.4494   46.2342   27.8503 H   0  0  0  0  0  0  0  0  0  0  0  0
    6.1062   47.5199   26.7803 H   0  0  0  0  0  0  0  0  0  0  0  0
    4.3507   47.1363   26.7222 H   0  0  0  0  0  0  0  0  0  0  0  0
    3.1665   46.1281   28.5064 H   0  0  0  0  0  0  0  0  0  0  0  0
    2.2231   49.3262   32.2141 H   0  0  0  0  0  0  0  0  0  0  0  0
    0.2900   44.9705   32.0818 H   0  0  0  0  0  0  0  0  0  0  0  0
   -0.8430   45.9013   30.9889 H   0  0  0  0  0  0  0  0  0  0  0  0
    9.8295   40.7406   31.7629 H   0  0  0  0  0  0  0  0  0  0  0  0
   11.3935   41.5447   31.4699 H   0  0  0  0  0  0  0  0  0  0  0  0
   11.6959   39.5028   30.3458 H   0  0  0  0  0  0  0  0  0  0  0  0
   10.1097   38.2616   32.6678 H   0  0  0  0  0  0  0  0  0  0  0  0
   13.6624   37.4456   31.2219 H   0  0  0  0  0  0  0  0  0  0  0  0
    8.8970   38.6946   30.8850 H   0  0  0  0  0  0  0  0  0  0  0  0
   11.2790   36.3055   32.5213 H   0  0  0  0  0  0  0  0  0  0  0  0
   10.8485   35.7093   30.4588 H   0  0  0  0  0  0  0  0  0  0  0  0
   12.3215   38.3434   34.7456 H   0  0  0  0  0  0  0  0  0  0  0  0
   16.7508   34.1719   32.4633 H   0  0  0  0  0  0  0  0  0  0  0  0
   16.6398   34.5280   37.1367 H   0  0  0  0  0  0  0  0  0  0  0  0
   15.3590   35.7326   37.5160 H   0  0  0  0  0  0  0  0  0  0  0  0
  1  2  2  0
  1  3  1  0
  3  4  1  0
  4  5  1  0
  6  1  1  0
  7  6  1  0
  6  8  1  0
  8  9  1  0
  9 10  2  0
 11  9  1  0
 10 12  1  0
 13 11  2  0
 12 14  2  0
 14 13  1  0
 14 15  1  0
 15 16  1  0
 16 17  1  0
 16 18  1  0
 18 19  2  0
 20 18  1  0
 19 21  1  0
 22 20  2  0
 20 23  1  0
 21 24  1  0
 21 25  2  0
 25 22  1  0
 23 26  1  0
 23 27  2  0
 24 28  1  0
 25 29  1  0
 28 29  1  0
  4 30  2  0
  4 31  1  0
 32 31  1  0
 32 33  1  0
 33 34  1  0
 33 35  1  0
 34 36  1  0
 35 37  1  0
 35 38  1  0
 38 36  1  0
 36 39  1  0
 38 40  1  0
 41 39  1  0
 42 39  1  0
 43 41  2  0
 41 44  1  0
 45 42  2  0
 46 43  1  0
 44 47  2  0
 44 45  1  0
 48 46  2  0
 48 47  1  0
 47 49  1  0
  6 50  1  1
  7 51  1  0
  7 52  1  0
  8 53  1  0
  8 54  1  0
 10 55  1  0
 11 56  1  0
 12 57  1  0
 13 58  1  0
 16 59  1  6
 17 60  1  0
 17 61  1  0
 17 62  1  0
 19 63  1  0
 22 64  1  0
 28 65  1  0
 28 66  1  0
 32 67  1  0
 32 68  1  0
 33 69  1  0
 35 70  1  0
 36 71  1  0
 37 72  1  0
 38 73  1  0
 40 74  1  0
 42 75  1  0
 46 76  1  0
 49 77  1  0
 49 78  1  0
M  CHG  3   5  -1  23   1  26  -1
M  END
>  <EmbedRMS>  (166) 
0.0832826466814

$$$$

     RDKit          3D

 78 83  0  0  0  0  0  0  0  0999 V2000
   10.2837   43.7627   33.8277 C   0  0  0  0  0  0  0  0  0  0  0  0
   11.4102   43.5862   34.3767 O   0  0  0  0  0  0  0  0  0  0  0  0
    9.3629   42.7237   33.7353 O   0  0  0  0  0  0  0  0  0  0  0  0
    9.8896   41.2249   34.2935 P   0  0  0  0  0  0  0  0  0  0  0  0
   10.3733   41.4545   35.8829 O   0  0  0  0  0  0  0  0  0  0  0  0
    9.9548   45.0700   33.2064 C   0  0  1  0  0  0  0  0  0  0  0  0
   11.0198   46.0480   33.4573 N   0  0  0  0  0  0  0  0  0  0  0  0
    9.7509   44.8509   31.6922 C   0  0  0  0  0  0  0  0  0  0  0  0
    8.7948   45.8415   31.0865 C   0  0  0  0  0  0  0  0  0  0  0  0
    7.4086   45.6006   31.0999 C   0  0  0  0  0  0  0  0  0  0  0  0
    9.2827   46.9884   30.4443 C   0  0  0  0  0  0  0  0  0  0  0  0
    6.5264   46.4999   30.4852 C   0  0  0  0  0  0  0  0  0  0  0  0
    8.4006   47.8872   29.8338 C   0  0  0  0  0  0  0  0  0  0  0  0
    7.0180   47.6570   29.8457 C   0  0  0  0  0  0  0  0  0  0  0  0
    6.1920   48.6101   29.2213 O   0  0  0  0  0  0  0  0  0  0  0  0
    4.7634   48.5858   29.0982 C   0  0  1  0  0  0  0  0  0  0  0  0
    4.3407   47.5137   28.0812 C   0  0  0  0  0  0  0  0  0  0  0  0
    4.0801   48.5378   30.4658 C   0  0  0  0  0  0  0  0  0  0  0  0
    3.0534   47.5918   30.7357 C   0  0  0  0  0  0  0  0  0  0  0  0
    4.4874   49.4323   31.5150 C   0  0  0  0  0  0  0  0  0  0  0  0
    2.5145   47.5383   32.0138 C   0  0  0  0  0  0  0  0  0  0  0  0
    3.9095   49.3183   32.8002 C   0  0  0  0  0  0  0  0  0  0  0  0
    5.4851   50.4450   31.2993 N   0  0  0  0  0  0  0  0  0  0  0  0
    1.5314   46.6952   32.4952 O   0  0  0  0  0  0  0  0  0  0  0  0
    2.9276   48.3606   33.0031 C   0  0  0  0  0  0  0  0  0  0  0  0
    5.4390   51.2430   30.1801 O   0  0  0  0  0  0  0  0  0  0  0  0
    6.2891   50.7329   32.2099 O   0  0  0  0  0  0  0  0  0  0  0  0
    1.3159   47.0104   33.8773 C   0  0  0  0  0  0  0  0  0  0  0  0
    2.2274   48.0804   34.1605 O   0  0  0  0  0  0  0  0  0  0  0  0
    8.8113   40.1835   34.2125 O   0  0  0  0  0  0  0  0  0  0  0  0
   11.2400   40.7938   33.3673 O   0  0  0  0  0  0  0  0  0  0  0  0
   10.9131   40.6865   31.9956 C   0  0  0  0  0  0  0  0  0  0  0  0
   11.5165   39.3787   31.4405 C   0  0  0  0  0  0  0  0  0  0  0  0
   12.7484   39.0849   32.0735 O   0  0  0  0  0  0  0  0  0  0  0  0
   10.6038   38.1884   31.6669 C   0  0  0  0  0  0  0  0  0  0  0  0
   12.9328   37.6775   32.0284 C   0  0  0  0  0  0  0  0  0  0  0  0
    9.6373   38.0940   30.6485 O   0  0  0  0  0  0  0  0  0  0  0  0
   11.5737   37.0141   31.7055 C   0  0  0  0  0  0  0  0  0  0  0  0
   13.4852   37.2118   33.3238 N   0  0  0  0  0  0  0  0  0  0  0  0
   11.6210   36.3379   30.4683 O   0  0  0  0  0  0  0  0  0  0  0  0
   14.4804   36.3317   33.5726 C   0  0  0  0  0  0  0  0  0  0  0  0
   13.1141   37.6273   34.5689 C   0  0  0  0  0  0  0  0  0  0  0  0
   15.2077   35.6152   32.6739 N   0  0  0  0  0  0  0  0  0  0  0  0
   14.6762   36.2306   34.9181 C   0  0  0  0  0  0  0  0  0  0  0  0
   13.8221   37.0452   35.5782 N   0  0  0  0  0  0  0  0  0  0  0  0
   16.1644   34.7600   33.1548 C   0  0  0  0  0  0  0  0  0  0  0  0
   15.6528   35.3506   35.4131 C   0  0  0  0  0  0  0  0  0  0  0  0
   16.3796   34.6314   34.5043 N   0  0  0  0  0  0  0  0  0  0  0  0
   15.9003   35.1934   36.8090 N   0  0  0  0  0  0  0  0  0  0  0  0
    9.0097   45.4349   33.6667 H   0  0  0  0  0  0  0  0  0  0  0  0
   11.9350   45.6933   33.0932 H   0  0  0  0  0  0  0  0  0  0  0  0
   11.1129   46.1993   34.4887 H   0  0  0  0  0  0  0  0  0  0  0  0
    9.3524   43.8342   31.4757 H   0  0  0  0  0  0  0  0  0  0  0  0
   10.7313   44.8931   31.1677 H   0  0  0  0  0  0  0  0  0  0  0  0
    7.0135   44.7155   31.5833 H   0  0  0  0  0  0  0  0  0  0  0  0
   10.3467   47.1891   30.4151 H   0  0  0  0  0  0  0  0  0  0  0  0
    5.4732   46.2780   30.5243 H   0  0  0  0  0  0  0  0  0  0  0  0
    8.7943   48.7708   29.3476 H   0  0  0  0  0  0  0  0  0  0  0  0
    4.4646   49.5498   28.6358 H   0  0  0  0  0  0  0  0  0  0  0  0
    4.5243   46.4885   28.4592 H   0  0  0  0  0  0  0  0  0  0  0  0
    3.2647   47.6252   27.8284 H   0  0  0  0  0  0  0  0  0  0  0  0
    4.9223   47.6438   27.1439 H   0  0  0  0  0  0  0  0  0  0  0  0
    2.6892   46.8972   29.9933 H   0  0  0  0  0  0  0  0  0  0  0  0
    4.2048   49.9713   33.6114 H   0  0  0  0  0  0  0  0  0  0  0  0
    0.2699   47.3460   34.0362 H   0  0  0  0  0  0  0  0  0  0  0  0
    1.5486   46.1303   34.5127 H   0  0  0  0  0  0  0  0  0  0  0  0
    9.8223   40.7225   31.7631 H   0  0  0  0  0  0  0  0  0  0  0  0
   11.3825   41.5440   31.4675 H   0  0  0  0  0  0  0  0  0  0  0  0
   11.6976   39.5039   30.3479 H   0  0  0  0  0  0  0  0  0  0  0  0
   10.1083   38.2782   32.6627 H   0  0  0  0  0  0  0  0  0  0  0  0
   13.6637   37.4473   31.2214 H   0  0  0  0  0  0  0  0  0  0  0  0
    8.9764   37.4191   30.9532 H   0  0  0  0  0  0  0  0  0  0  0  0
   11.2822   36.3054   32.5171 H   0  0  0  0  0  0  0  0  0  0  0  0
   10.8659   35.6935   30.4651 H   0  0  0  0  0  0  0  0  0  0  0  0
   12.3292   38.3518   34.7444 H   0  0  0  0  0  0  0  0  0  0  0  0
   16.7565   34.1780   32.4621 H   0  0  0  0  0  0  0  0  0  0  0  0
   16.6346   34.5299   37.1417 H   0  0  0  0  0  0  0  0  0  0  0  0
   15.3534   35.7360   37.5139 H   0  0  0  0  0  0  0  0  0  0  0  0
  1  2  2  0
  1  3  1  0
  3  4  1  0
  4  5  1  0
  6  1  1  0
  7  6  1  0
  6  8  1  0
  8  9  1  0
  9 10  2  0
 11  9  1  0
 10 12  1  0
 13 11  2  0
 12 14  2  0
 14 13  1  0
 14 15  1  0
 15 16  1  0
 16 17  1  0
 16 18  1  0
 18 19  2  0
 20 18  1  0
 19 21  1  0
 22 20  2  0
 20 23  1  0
 21 24  1  0
 21 25  2  0
 25 22  1  0
 23 26  1  0
 23 27  2  0
 24 28  1  0
 25 29  1  0
 28 29  1  0
  4 30  2  0
  4 31  1  0
 32 31  1  0
 32 33  1  0
 33 34  1  0
 33 35  1  0
 34 36  1  0
 35 37  1  0
 35 38  1  0
 38 36  1  0
 36 39  1  0
 38 40  1  0
 41 39  1  0
 42 39  1  0
 43 41  2  0
 41 44  1  0
 45 42  2  0
 46 43  1  0
 44 47  2  0
 44 45  1  0
 48 46  2  0
 48 47  1  0
 47 49  1  0
  6 50  1  1
  7 51  1  0
  7 52  1  0
  8 53  1  0
  8 54  1  0
 10 55  1  0
 11 56  1  0
 12 57  1  0
 13 58  1  0
 16 59  1  6
 17 60  1  0
 17 61  1  0
 17 62  1  0
 19 63  1  0
 22 64  1  0
 28 65  1  0
 28 66  1  0
 32 67  1  0
 32 68  1  0
 33 69  1  0
 35 70  1  0
 36 71  1  0
 37 72  1  0
 38 73  1  0
 40 74  1  0
 42 75  1  0
 46 76  1  0
 49 77  1  0
 49 78  1  0
M  CHG  3   5  -1  23   1  26  -1
M  END
>  <EmbedRMS>  (167) 
0.0833753710429

$$$$

     RDKit          3D

 78 83  0  0  0  0  0  0  0  0999 V2000
   10.2805   43.7663   33.8249 C   0  0  0  0  0  0  0  0  0  0  0  0
   11.4112   43.5918   34.3667 O   0  0  0  0  0  0  0  0  0  0  0  0
    9.3622   42.7247   33.7342 O   0  0  0  0  0  0  0  0  0  0  0  0
    9.8904   41.2264   34.2936 P   0  0  0  0  0  0  0  0  0  0  0  0
   10.3731   41.4565   35.8832 O   0  0  0  0  0  0  0  0  0  0  0  0
    9.9460   45.0736   33.2113 C   0  0  1  0  0  0  0  0  0  0  0  0
   11.0267   46.0292   33.4709 N   0  0  0  0  0  0  0  0  0  0  0  0
    9.7540   44.8542   31.6950 C   0  0  0  0  0  0  0  0  0  0  0  0
    8.7957   45.8413   31.0851 C   0  0  0  0  0  0  0  0  0  0  0  0
    7.4090   45.6001   31.1009 C   0  0  0  0  0  0  0  0  0  0  0  0
    9.2824   46.9876   30.4395 C   0  0  0  0  0  0  0  0  0  0  0  0
    6.5257   46.4984   30.4856 C   0  0  0  0  0  0  0  0  0  0  0  0
    8.3998   47.8866   29.8305 C   0  0  0  0  0  0  0  0  0  0  0  0
    7.0180   47.6560   29.8473 C   0  0  0  0  0  0  0  0  0  0  0  0
    6.1859   48.5933   29.2133 O   0  0  0  0  0  0  0  0  0  0  0  0
    4.7560   48.5979   29.2274 C   0  0  1  0  0  0  0  0  0  0  0  0
    4.2150   49.0206   30.5986 C   0  0  0  0  0  0  0  0  0  0  0  0
    4.2110   49.5138   28.1440 C   0  0  0  0  0  0  0  0  0  0  0  0
    2.9790   49.1507   27.5460 C   0  0  0  0  0  0  0  0  0  0  0  0
    4.8895   50.6964   27.6820 C   0  0  0  0  0  0  0  0  0  0  0  0
    2.4828   49.9326   26.5117 C   0  0  0  0  0  0  0  0  0  0  0  0
    4.3419   51.4415   26.6130 C   0  0  0  0  0  0  0  0  0  0  0  0
    6.1184   51.1552   28.2665 N   0  0  0  0  0  0  0  0  0  0  0  0
    1.3181   49.7615   25.7884 O   0  0  0  0  0  0  0  0  0  0  0  0
    3.1375   51.0266   26.0621 C   0  0  0  0  0  0  0  0  0  0  0  0
    7.0989   51.6861   27.4605 O   0  0  0  0  0  0  0  0  0  0  0  0
    6.2137   51.2991   29.5019 O   0  0  0  0  0  0  0  0  0  0  0  0
    1.2384   50.8185   24.8223 C   0  0  0  0  0  0  0  0  0  0  0  0
    2.4201   51.6035   25.0317 O   0  0  0  0  0  0  0  0  0  0  0  0
    8.8129   40.1841   34.2124 O   0  0  0  0  0  0  0  0  0  0  0  0
   11.2419   40.7944   33.3695 O   0  0  0  0  0  0  0  0  0  0  0  0
   10.9186   40.6911   31.9969 C   0  0  0  0  0  0  0  0  0  0  0  0
   11.5172   39.3814   31.4407 C   0  0  0  0  0  0  0  0  0  0  0  0
   12.7492   39.0856   32.0729 O   0  0  0  0  0  0  0  0  0  0  0  0
   10.6023   38.1908   31.6665 C   0  0  0  0  0  0  0  0  0  0  0  0
   12.9319   37.6781   32.0281 C   0  0  0  0  0  0  0  0  0  0  0  0
    9.6392   38.0797   30.6452 O   0  0  0  0  0  0  0  0  0  0  0  0
   11.5715   37.0165   31.7056 C   0  0  0  0  0  0  0  0  0  0  0  0
   13.4847   37.2121   33.3235 N   0  0  0  0  0  0  0  0  0  0  0  0
   11.6187   36.3383   30.4695 O   0  0  0  0  0  0  0  0  0  0  0  0
   14.4801   36.3321   33.5724 C   0  0  0  0  0  0  0  0  0  0  0  0
   13.1137   37.6276   34.5688 C   0  0  0  0  0  0  0  0  0  0  0  0
   15.2073   35.6153   32.6738 N   0  0  0  0  0  0  0  0  0  0  0  0
   14.6759   36.2308   34.9179 C   0  0  0  0  0  0  0  0  0  0  0  0
   13.8217   37.0452   35.5781 N   0  0  0  0  0  0  0  0  0  0  0  0
   16.1640   34.7602   33.1546 C   0  0  0  0  0  0  0  0  0  0  0  0
   15.6526   35.3508   35.4129 C   0  0  0  0  0  0  0  0  0  0  0  0
   16.3794   34.6317   34.5041 N   0  0  0  0  0  0  0  0  0  0  0  0
   15.8999   35.1935   36.8088 N   0  0  0  0  0  0  0  0  0  0  0  0
    8.9996   45.4380   33.6723 H   0  0  0  0  0  0  0  0  0  0  0  0
   11.0502   46.2277   34.4983 H   0  0  0  0  0  0  0  0  0  0  0  0
   10.7764   46.9369   33.0160 H   0  0  0  0  0  0  0  0  0  0  0  0
    9.3645   43.8355   31.4711 H   0  0  0  0  0  0  0  0  0  0  0  0
   10.7411   44.9079   31.1836 H   0  0  0  0  0  0  0  0  0  0  0  0
    7.0153   44.7144   31.5843 H   0  0  0  0  0  0  0  0  0  0  0  0
   10.3463   47.1873   30.4048 H   0  0  0  0  0  0  0  0  0  0  0  0
    5.4691   46.2760   30.5138 H   0  0  0  0  0  0  0  0  0  0  0  0
    8.7920   48.7682   29.3392 H   0  0  0  0  0  0  0  0  0  0  0  0
    4.4017   47.5665   29.0097 H   0  0  0  0  0  0  0  0  0  0  0  0
    3.1076   48.9329   30.6110 H   0  0  0  0  0  0  0  0  0  0  0  0
    4.4869   50.0692   30.8326 H   0  0  0  0  0  0  0  0  0  0  0  0
    4.6204   48.3685   31.3986 H   0  0  0  0  0  0  0  0  0  0  0  0
    2.4288   48.2761   27.8703 H   0  0  0  0  0  0  0  0  0  0  0  0
    4.8312   52.3313   26.2384 H   0  0  0  0  0  0  0  0  0  0  0  0
    1.2338   50.3996   23.7942 H   0  0  0  0  0  0  0  0  0  0  0  0
    0.3324   51.4347   25.0011 H   0  0  0  0  0  0  0  0  0  0  0  0
    9.8298   40.7409   31.7611 H   0  0  0  0  0  0  0  0  0  0  0  0
   11.3967   41.5459   31.4726 H   0  0  0  0  0  0  0  0  0  0  0  0
   11.6975   39.5066   30.3481 H   0  0  0  0  0  0  0  0  0  0  0  0
   10.1076   38.2647   32.6645 H   0  0  0  0  0  0  0  0  0  0  0  0
   13.6621   37.4468   31.2209 H   0  0  0  0  0  0  0  0  0  0  0  0
    8.8974   38.6942   30.8832 H   0  0  0  0  0  0  0  0  0  0  0  0
   11.2806   36.3073   32.5170 H   0  0  0  0  0  0  0  0  0  0  0  0
   10.8493   35.7110   30.4586 H   0  0  0  0  0  0  0  0  0  0  0  0
   12.3290   38.3524   34.7444 H   0  0  0  0  0  0  0  0  0  0  0  0
   16.7559   34.1780   32.4619 H   0  0  0  0  0  0  0  0  0  0  0  0
   16.6344   34.5301   37.1414 H   0  0  0  0  0  0  0  0  0  0  0  0
   15.3532   35.7362   37.5137 H   0  0  0  0  0  0  0  0  0  0  0  0
  1  2  2  0
  1  3  1  0
  3  4  1  0
  4  5  1  0
  6  1  1  0
  7  6  1  0
  6  8  1  0
  8  9  1  0
  9 10  2  0
 11  9  1  0
 10 12  1  0
 13 11  2  0
 12 14  2  0
 14 13  1  0
 14 15  1  0
 15 16  1  0
 16 17  1  0
 16 18  1  0
 18 19  2  0
 20 18  1  0
 19 21  1  0
 22 20  2  0
 20 23  1  0
 21 24  1  0
 21 25  2  0
 25 22  1  0
 23 26  1  0
 23 27  2  0
 24 28  1  0
 25 29  1  0
 28 29  1  0
  4 30  2  0
  4 31  1  0
 32 31  1  0
 32 33  1  0
 33 34  1  0
 33 35  1  0
 34 36  1  0
 35 37  1  0
 35 38  1  0
 38 36  1  0
 36 39  1  0
 38 40  1  0
 41 39  1  0
 42 39  1  0
 43 41  2  0
 41 44  1  0
 45 42  2  0
 46 43  1  0
 44 47  2  0
 44 45  1  0
 48 46  2  0
 48 47  1  0
 47 49  1  0
  6 50  1  1
  7 51  1  0
  7 52  1  0
  8 53  1  0
  8 54  1  0
 10 55  1  0
 11 56  1  0
 12 57  1  0
 13 58  1  0
 16 59  1  6
 17 60  1  0
 17 61  1  0
 17 62  1  0
 19 63  1  0
 22 64  1  0
 28 65  1  0
 28 66  1  0
 32 67  1  0
 32 68  1  0
 33 69  1  0
 35 70  1  0
 36 71  1  0
 37 72  1  0
 38 73  1  0
 40 74  1  0
 42 75  1  0
 46 76  1  0
 49 77  1  0
 49 78  1  0
M  CHG  3   5  -1  23   1  26  -1
M  END
>  <EmbedRMS>  (168) 
0.0827443242166

$$$$

     RDKit          3D

 78 83  0  0  0  0  0  0  0  0999 V2000
   10.2834   43.7662   33.8256 C   0  0  0  0  0  0  0  0  0  0  0  0
   11.4102   43.5930   34.3751 O   0  0  0  0  0  0  0  0  0  0  0  0
    9.3635   42.7257   33.7352 O   0  0  0  0  0  0  0  0  0  0  0  0
    9.8902   41.2269   34.2941 P   0  0  0  0  0  0  0  0  0  0  0  0
   10.3739   41.4560   35.8835 O   0  0  0  0  0  0  0  0  0  0  0  0
    9.9548   45.0696   33.2034 C   0  0  1  0  0  0  0  0  0  0  0  0
   11.0274   46.0322   33.4758 N   0  0  0  0  0  0  0  0  0  0  0  0
    9.7471   44.8484   31.6874 C   0  0  0  0  0  0  0  0  0  0  0  0
    8.7925   45.8409   31.0843 C   0  0  0  0  0  0  0  0  0  0  0  0
    7.4058   45.6012   31.0998 C   0  0  0  0  0  0  0  0  0  0  0  0
    9.2816   46.9883   30.4424 C   0  0  0  0  0  0  0  0  0  0  0  0
    6.5243   46.5012   30.4858 C   0  0  0  0  0  0  0  0  0  0  0  0
    8.4004   47.8885   29.8328 C   0  0  0  0  0  0  0  0  0  0  0  0
    7.0190   47.6554   29.8443 C   0  0  0  0  0  0  0  0  0  0  0  0
    6.1833   48.5855   29.2040 O   0  0  0  0  0  0  0  0  0  0  0  0
    4.7667   48.4606   29.0597 C   0  0  1  0  0  0  0  0  0  0  0  0
    4.1788   49.7753   28.5481 C   0  0  0  0  0  0  0  0  0  0  0  0
    4.3789   47.3086   28.1437 C   0  0  0  0  0  0  0  0  0  0  0  0
    3.1773   46.6217   28.4430 C   0  0  0  0  0  0  0  0  0  0  0  0
    5.1839   46.8604   27.0382 C   0  0  0  0  0  0  0  0  0  0  0  0
    2.8305   45.5187   27.6750 C   0  0  0  0  0  0  0  0  0  0  0  0
    4.7857   45.7204   26.3039 C   0  0  0  0  0  0  0  0  0  0  0  0
    6.3990   47.5223   26.6542 N   0  0  0  0  0  0  0  0  0  0  0  0
    1.7212   44.7037   27.7942 O   0  0  0  0  0  0  0  0  0  0  0  0
    3.6026   45.0846   26.6536 C   0  0  0  0  0  0  0  0  0  0  0  0
    7.4776   46.7778   26.2358 O   0  0  0  0  0  0  0  0  0  0  0  0
    6.4187   48.7576   26.4823 O   0  0  0  0  0  0  0  0  0  0  0  0
    1.8041   43.6930   26.7801 C   0  0  0  0  0  0  0  0  0  0  0  0
    3.0207   43.9734   26.0744 O   0  0  0  0  0  0  0  0  0  0  0  0
    8.8120   40.1852   34.2131 O   0  0  0  0  0  0  0  0  0  0  0  0
   11.2402   40.7951   33.3681 O   0  0  0  0  0  0  0  0  0  0  0  0
   10.9126   40.6877   31.9968 C   0  0  0  0  0  0  0  0  0  0  0  0
   11.5169   39.3811   31.4420 C   0  0  0  0  0  0  0  0  0  0  0  0
   12.7500   39.0881   32.0759 O   0  0  0  0  0  0  0  0  0  0  0  0
   10.6043   38.1893   31.6659 C   0  0  0  0  0  0  0  0  0  0  0  0
   12.9395   37.6814   32.0280 C   0  0  0  0  0  0  0  0  0  0  0  0
    9.6353   38.0951   30.6499 O   0  0  0  0  0  0  0  0  0  0  0  0
   11.5803   37.0191   31.6934 C   0  0  0  0  0  0  0  0  0  0  0  0
   13.4851   37.2119   33.3244 N   0  0  0  0  0  0  0  0  0  0  0  0
   11.6118   36.3189   30.4673 O   0  0  0  0  0  0  0  0  0  0  0  0
   14.4801   36.3317   33.5732 C   0  0  0  0  0  0  0  0  0  0  0  0
   13.1139   37.6277   34.5692 C   0  0  0  0  0  0  0  0  0  0  0  0
   15.2076   35.6154   32.6744 N   0  0  0  0  0  0  0  0  0  0  0  0
   14.6756   36.2303   34.9186 C   0  0  0  0  0  0  0  0  0  0  0  0
   13.8215   37.0450   35.5786 N   0  0  0  0  0  0  0  0  0  0  0  0
   16.1642   34.7602   33.1551 C   0  0  0  0  0  0  0  0  0  0  0  0
   15.6526   35.3505   35.4134 C   0  0  0  0  0  0  0  0  0  0  0  0
   16.3795   34.6316   34.5045 N   0  0  0  0  0  0  0  0  0  0  0  0
   15.9000   35.1933   36.8093 N   0  0  0  0  0  0  0  0  0  0  0  0
    9.0121   45.4318   33.6711 H   0  0  0  0  0  0  0  0  0  0  0  0
   10.7262   46.9688   33.1214 H   0  0  0  0  0  0  0  0  0  0  0  0
   11.8908   45.7658   32.9474 H   0  0  0  0  0  0  0  0  0  0  0  0
    9.3425   43.8331   31.4757 H   0  0  0  0  0  0  0  0  0  0  0  0
   10.7235   44.8825   31.1556 H   0  0  0  0  0  0  0  0  0  0  0  0
    7.0101   44.7161   31.5827 H   0  0  0  0  0  0  0  0  0  0  0  0
   10.3459   47.1864   30.4102 H   0  0  0  0  0  0  0  0  0  0  0  0
    5.4657   46.2866   30.5169 H   0  0  0  0  0  0  0  0  0  0  0  0
    8.7936   48.7688   29.3402 H   0  0  0  0  0  0  0  0  0  0  0  0
    4.3343   48.2978   30.0726 H   0  0  0  0  0  0  0  0  0  0  0  0
    3.0692   49.7174   28.5379 H   0  0  0  0  0  0  0  0  0  0  0  0
    4.4790   50.6067   29.2205 H   0  0  0  0  0  0  0  0  0  0  0  0
    4.5295   50.0054   27.5224 H   0  0  0  0  0  0  0  0  0  0  0  0
    2.5392   46.9294   29.2620 H   0  0  0  0  0  0  0  0  0  0  0  0
    5.3732   45.3529   25.4724 H   0  0  0  0  0  0  0  0  0  0  0  0
    0.9361   43.7673   26.0919 H   0  0  0  0  0  0  0  0  0  0  0  0
    1.8540   42.6860   27.2446 H   0  0  0  0  0  0  0  0  0  0  0  0
   11.3809   41.5457   31.4686 H   0  0  0  0  0  0  0  0  0  0  0  0
    9.8216   40.7223   31.7646 H   0  0  0  0  0  0  0  0  0  0  0  0
   11.6986   39.5089   30.3499 H   0  0  0  0  0  0  0  0  0  0  0  0
   10.1109   38.2738   32.6630 H   0  0  0  0  0  0  0  0  0  0  0  0
   13.6783   37.4562   31.2271 H   0  0  0  0  0  0  0  0  0  0  0  0
    9.0020   37.3861   30.9348 H   0  0  0  0  0  0  0  0  0  0  0  0
   11.2807   36.3053   32.4921 H   0  0  0  0  0  0  0  0  0  0  0  0
   11.8819   36.9600   29.7584 H   0  0  0  0  0  0  0  0  0  0  0  0
   12.3303   38.3537   34.7446 H   0  0  0  0  0  0  0  0  0  0  0  0
   16.7564   34.1783   32.4623 H   0  0  0  0  0  0  0  0  0  0  0  0
   15.3532   35.7359   37.5142 H   0  0  0  0  0  0  0  0  0  0  0  0
   16.6348   34.5301   37.1418 H   0  0  0  0  0  0  0  0  0  0  0  0
  1  2  2  0
  1  3  1  0
  3  4  1  0
  4  5  1  0
  6  1  1  0
  7  6  1  0
  6  8  1  0
  8  9  1  0
  9 10  2  0
 11  9  1  0
 10 12  1  0
 13 11  2  0
 12 14  2  0
 14 13  1  0
 14 15  1  0
 15 16  1  0
 16 17  1  0
 16 18  1  0
 18 19  2  0
 20 18  1  0
 19 21  1  0
 22 20  2  0
 20 23  1  0
 21 24  1  0
 21 25  2  0
 25 22  1  0
 23 26  1  0
 23 27  2  0
 24 28  1  0
 25 29  1  0
 28 29  1  0
  4 30  2  0
  4 31  1  0
 32 31  1  0
 32 33  1  0
 33 34  1  0
 33 35  1  0
 34 36  1  0
 35 37  1  0
 35 38  1  0
 38 36  1  0
 36 39  1  0
 38 40  1  0
 41 39  1  0
 42 39  1  0
 43 41  2  0
 41 44  1  0
 45 42  2  0
 46 43  1  0
 44 47  2  0
 44 45  1  0
 48 46  2  0
 48 47  1  0
 47 49  1  0
  6 50  1  1
  7 51  1  0
  7 52  1  0
  8 53  1  0
  8 54  1  0
 10 55  1  0
 11 56  1  0
 12 57  1  0
 13 58  1  0
 16 59  1  1
 17 60  1  0
 17 61  1  0
 17 62  1  0
 19 63  1  0
 22 64  1  0
 28 65  1  0
 28 66  1  0
 32 67  1  0
 32 68  1  0
 33 69  1  0
 35 70  1  0
 36 71  1  0
 37 72  1  0
 38 73  1  0
 40 74  1  0
 42 75  1  0
 46 76  1  0
 49 77  1  0
 49 78  1  0
M  CHG  3   5  -1  23   1  26  -1
M  END
>  <EmbedRMS>  (169) 
0.0815651932518

$$$$

     RDKit          3D

 78 83  0  0  0  0  0  0  0  0999 V2000
   10.2840   43.7626   33.8276 C   0  0  0  0  0  0  0  0  0  0  0  0
   11.4104   43.5864   34.3768 O   0  0  0  0  0  0  0  0  0  0  0  0
    9.3634   42.7234   33.7352 O   0  0  0  0  0  0  0  0  0  0  0  0
    9.8900   41.2247   34.2940 P   0  0  0  0  0  0  0  0  0  0  0  0
   10.3724   41.4545   35.8837 O   0  0  0  0  0  0  0  0  0  0  0  0
    9.9548   45.0699   33.2065 C   0  0  1  0  0  0  0  0  0  0  0  0
   11.0197   46.0482   33.4569 N   0  0  0  0  0  0  0  0  0  0  0  0
    9.7500   44.8509   31.6925 C   0  0  0  0  0  0  0  0  0  0  0  0
    8.7942   45.8419   31.0871 C   0  0  0  0  0  0  0  0  0  0  0  0
    7.4074   45.6008   31.0997 C   0  0  0  0  0  0  0  0  0  0  0  0
    9.2832   46.9891   30.4448 C   0  0  0  0  0  0  0  0  0  0  0  0
    6.5280   46.5016   30.4835 C   0  0  0  0  0  0  0  0  0  0  0  0
    8.4036   47.8895   29.8322 C   0  0  0  0  0  0  0  0  0  0  0  0
    7.0146   47.6522   29.8482 C   0  0  0  0  0  0  0  0  0  0  0  0
    6.0886   48.5243   29.2529 O   0  0  0  0  0  0  0  0  0  0  0  0
    6.4084   49.7666   28.6192 C   0  0  1  0  0  0  0  0  0  0  0  0
    5.1604   50.2926   27.9140 C   0  0  0  0  0  0  0  0  0  0  0  0
    6.8894   50.7909   29.6348 C   0  0  0  0  0  0  0  0  0  0  0  0
    6.2711   50.8272   30.9096 C   0  0  0  0  0  0  0  0  0  0  0  0
    7.8734   51.7819   29.3076 C   0  0  0  0  0  0  0  0  0  0  0  0
    6.6559   51.8148   31.8068 C   0  0  0  0  0  0  0  0  0  0  0  0
    8.2123   52.7728   30.2550 C   0  0  0  0  0  0  0  0  0  0  0  0
    8.5118   51.8180   28.0242 N   0  0  0  0  0  0  0  0  0  0  0  0
    6.1973   52.0341   33.0914 O   0  0  0  0  0  0  0  0  0  0  0  0
    7.5848   52.7468   31.4932 C   0  0  0  0  0  0  0  0  0  0  0  0
    8.6487   53.0212   27.3720 O   0  0  0  0  0  0  0  0  0  0  0  0
    9.1888   50.8440   27.6370 O   0  0  0  0  0  0  0  0  0  0  0  0
    6.8862   53.1764   33.6180 C   0  0  0  0  0  0  0  0  0  0  0  0
    7.7619   53.6010   32.5646 O   0  0  0  0  0  0  0  0  0  0  0  0
    8.8119   40.1831   34.2121 O   0  0  0  0  0  0  0  0  0  0  0  0
   11.2416   40.7932   33.3699 O   0  0  0  0  0  0  0  0  0  0  0  0
   10.9187   40.6909   31.9972 C   0  0  0  0  0  0  0  0  0  0  0  0
   11.5172   39.3814   31.4407 C   0  0  0  0  0  0  0  0  0  0  0  0
   12.7493   39.0855   32.0727 O   0  0  0  0  0  0  0  0  0  0  0  0
   10.6023   38.1907   31.6665 C   0  0  0  0  0  0  0  0  0  0  0  0
   12.9319   37.6780   32.0281 C   0  0  0  0  0  0  0  0  0  0  0  0
    9.6392   38.0798   30.6452 O   0  0  0  0  0  0  0  0  0  0  0  0
   11.5715   37.0165   31.7056 C   0  0  0  0  0  0  0  0  0  0  0  0
   13.4846   37.2121   33.3235 N   0  0  0  0  0  0  0  0  0  0  0  0
   11.6187   36.3384   30.4694 O   0  0  0  0  0  0  0  0  0  0  0  0
   14.4801   36.3320   33.5724 C   0  0  0  0  0  0  0  0  0  0  0  0
   13.1137   37.6275   34.5688 C   0  0  0  0  0  0  0  0  0  0  0  0
   15.2072   35.6153   32.6738 N   0  0  0  0  0  0  0  0  0  0  0  0
   14.6759   36.2308   34.9179 C   0  0  0  0  0  0  0  0  0  0  0  0
   13.8216   37.0452   35.5781 N   0  0  0  0  0  0  0  0  0  0  0  0
   16.1639   34.7601   33.1546 C   0  0  0  0  0  0  0  0  0  0  0  0
   15.6526   35.3508   35.4129 C   0  0  0  0  0  0  0  0  0  0  0  0
   16.3793   34.6316   34.5040 N   0  0  0  0  0  0  0  0  0  0  0  0
   15.9000   35.1934   36.8088 N   0  0  0  0  0  0  0  0  0  0  0  0
    9.0098   45.4348   33.6672 H   0  0  0  0  0  0  0  0  0  0  0  0
   11.9348   45.6934   33.0925 H   0  0  0  0  0  0  0  0  0  0  0  0
   11.1133   46.1994   34.4881 H   0  0  0  0  0  0  0  0  0  0  0  0
    9.3508   43.8344   31.4763 H   0  0  0  0  0  0  0  0  0  0  0  0
   10.7303   44.8923   31.1676 H   0  0  0  0  0  0  0  0  0  0  0  0
    7.0108   44.7158   31.5817 H   0  0  0  0  0  0  0  0  0  0  0  0
   10.3475   47.1881   30.4161 H   0  0  0  0  0  0  0  0  0  0  0  0
    5.4635   46.3050   30.5017 H   0  0  0  0  0  0  0  0  0  0  0  0
    8.8161   48.7625   29.3491 H   0  0  0  0  0  0  0  0  0  0  0  0
    7.1653   49.5705   27.8356 H   0  0  0  0  0  0  0  0  0  0  0  0
    4.3420   50.4650   28.6457 H   0  0  0  0  0  0  0  0  0  0  0  0
    5.3878   51.2463   27.3909 H   0  0  0  0  0  0  0  0  0  0  0  0
    4.8138   49.5525   27.1619 H   0  0  0  0  0  0  0  0  0  0  0  0
    5.5043   50.1162   31.1895 H   0  0  0  0  0  0  0  0  0  0  0  0
    8.9496   53.5336   30.0332 H   0  0  0  0  0  0  0  0  0  0  0  0
    6.1626   53.9820   33.8629 H   0  0  0  0  0  0  0  0  0  0  0  0
    7.4756   52.8900   34.5141 H   0  0  0  0  0  0  0  0  0  0  0  0
   11.3971   41.5460   31.4735 H   0  0  0  0  0  0  0  0  0  0  0  0
    9.8300   40.7410   31.7611 H   0  0  0  0  0  0  0  0  0  0  0  0
   11.6974   39.5068   30.3481 H   0  0  0  0  0  0  0  0  0  0  0  0
   10.1077   38.2646   32.6645 H   0  0  0  0  0  0  0  0  0  0  0  0
   13.6621   37.4466   31.2209 H   0  0  0  0  0  0  0  0  0  0  0  0
    8.8975   38.6943   30.8832 H   0  0  0  0  0  0  0  0  0  0  0  0
   11.2806   36.3073   32.5170 H   0  0  0  0  0  0  0  0  0  0  0  0
   10.8493   35.7110   30.4586 H   0  0  0  0  0  0  0  0  0  0  0  0
   12.3290   38.3523   34.7444 H   0  0  0  0  0  0  0  0  0  0  0  0
   16.7559   34.1780   32.4619 H   0  0  0  0  0  0  0  0  0  0  0  0
   16.6345   34.5301   37.1413 H   0  0  0  0  0  0  0  0  0  0  0  0
   15.3532   35.7362   37.5137 H   0  0  0  0  0  0  0  0  0  0  0  0
  1  2  2  0
  1  3  1  0
  3  4  1  0
  4  5  1  0
  6  1  1  0
  7  6  1  0
  6  8  1  0
  8  9  1  0
  9 10  2  0
 11  9  1  0
 10 12  1  0
 13 11  2  0
 12 14  2  0
 14 13  1  0
 14 15  1  0
 15 16  1  0
 16 17  1  0
 16 18  1  0
 18 19  2  0
 20 18  1  0
 19 21  1  0
 22 20  2  0
 20 23  1  0
 21 24  1  0
 21 25  2  0
 25 22  1  0
 23 26  1  0
 23 27  2  0
 24 28  1  0
 25 29  1  0
 28 29  1  0
  4 30  2  0
  4 31  1  0
 32 31  1  0
 32 33  1  0
 33 34  1  0
 33 35  1  0
 34 36  1  0
 35 37  1  0
 35 38  1  0
 38 36  1  0
 36 39  1  0
 38 40  1  0
 41 39  1  0
 42 39  1  0
 43 41  2  0
 41 44  1  0
 45 42  2  0
 46 43  1  0
 44 47  2  0
 44 45  1  0
 48 46  2  0
 48 47  1  0
 47 49  1  0
  6 50  1  1
  7 51  1  0
  7 52  1  0
  8 53  1  0
  8 54  1  0
 10 55  1  0
 11 56  1  0
 12 57  1  0
 13 58  1  0
 16 59  1  6
 17 60  1  0
 17 61  1  0
 17 62  1  0
 19 63  1  0
 22 64  1  0
 28 65  1  0
 28 66  1  0
 32 67  1  0
 32 68  1  0
 33 69  1  0
 35 70  1  0
 36 71  1  0
 37 72  1  0
 38 73  1  0
 40 74  1  0
 42 75  1  0
 46 76  1  0
 49 77  1  0
 49 78  1  0
M  CHG  3   5  -1  23   1  26  -1
M  END
>  <EmbedRMS>  (170) 
0.0838395722231

$$$$

     RDKit          3D

 78 83  0  0  0  0  0  0  0  0999 V2000
   10.2836   43.7661   33.8257 C   0  0  0  0  0  0  0  0  0  0  0  0
   11.4103   43.5930   34.3754 O   0  0  0  0  0  0  0  0  0  0  0  0
    9.3640   42.7253   33.7347 O   0  0  0  0  0  0  0  0  0  0  0  0
    9.8907   41.2265   34.2938 P   0  0  0  0  0  0  0  0  0  0  0  0
   10.3732   41.4559   35.8835 O   0  0  0  0  0  0  0  0  0  0  0  0
    9.9548   45.0694   33.2036 C   0  0  1  0  0  0  0  0  0  0  0  0
   11.0273   46.0322   33.4761 N   0  0  0  0  0  0  0  0  0  0  0  0
    9.7473   44.8482   31.6877 C   0  0  0  0  0  0  0  0  0  0  0  0
    8.7930   45.8409   31.0845 C   0  0  0  0  0  0  0  0  0  0  0  0
    7.4070   45.6016   31.0987 C   0  0  0  0  0  0  0  0  0  0  0  0
    9.2817   46.9870   30.4420 C   0  0  0  0  0  0  0  0  0  0  0  0
    6.5256   46.5015   30.4841 C   0  0  0  0  0  0  0  0  0  0  0  0
    8.3997   47.8863   29.8327 C   0  0  0  0  0  0  0  0  0  0  0  0
    7.0164   47.6585   29.8462 C   0  0  0  0  0  0  0  0  0  0  0  0
    6.1959   48.6132   29.2178 O   0  0  0  0  0  0  0  0  0  0  0  0
    4.7647   48.6528   29.1422 C   0  0  1  0  0  0  0  0  0  0  0  0
    4.2477   47.5855   28.1649 C   0  0  0  0  0  0  0  0  0  0  0  0
    4.1083   48.6843   30.5238 C   0  0  0  0  0  0  0  0  0  0  0  0
    3.2771   47.6152   30.9588 C   0  0  0  0  0  0  0  0  0  0  0  0
    4.2472   49.8372   31.3744 C   0  0  0  0  0  0  0  0  0  0  0  0
    2.6631   47.7063   32.2001 C   0  0  0  0  0  0  0  0  0  0  0  0
    3.5838   49.8750   32.6216 C   0  0  0  0  0  0  0  0  0  0  0  0
    4.9943   50.9976   30.9717 N   0  0  0  0  0  0  0  0  0  0  0  0
    1.8369   46.7871   32.8179 O   0  0  0  0  0  0  0  0  0  0  0  0
    2.8111   48.7869   32.9968 C   0  0  0  0  0  0  0  0  0  0  0  0
    4.5308   52.2511   31.2989 O   0  0  0  0  0  0  0  0  0  0  0  0
    6.1554   50.8860   30.5310 O   0  0  0  0  0  0  0  0  0  0  0  0
    1.4439   47.3280   34.0865 C   0  0  0  0  0  0  0  0  0  0  0  0
    2.0876   48.6072   34.1600 O   0  0  0  0  0  0  0  0  0  0  0  0
    8.8127   40.1848   34.2122 O   0  0  0  0  0  0  0  0  0  0  0  0
   11.2420   40.7941   33.3697 O   0  0  0  0  0  0  0  0  0  0  0  0
   10.9187   40.6911   31.9971 C   0  0  0  0  0  0  0  0  0  0  0  0
   11.5172   39.3815   31.4407 C   0  0  0  0  0  0  0  0  0  0  0  0
   12.7493   39.0855   32.0728 O   0  0  0  0  0  0  0  0  0  0  0  0
   10.6023   38.1908   31.6665 C   0  0  0  0  0  0  0  0  0  0  0  0
   12.9319   37.6781   32.0281 C   0  0  0  0  0  0  0  0  0  0  0  0
    9.6392   38.0798   30.6452 O   0  0  0  0  0  0  0  0  0  0  0  0
   11.5715   37.0165   31.7056 C   0  0  0  0  0  0  0  0  0  0  0  0
   13.4847   37.2121   33.3235 N   0  0  0  0  0  0  0  0  0  0  0  0
   11.6187   36.3384   30.4695 O   0  0  0  0  0  0  0  0  0  0  0  0
   14.4801   36.3321   33.5724 C   0  0  0  0  0  0  0  0  0  0  0  0
   13.1137   37.6275   34.5688 C   0  0  0  0  0  0  0  0  0  0  0  0
   15.2073   35.6153   32.6738 N   0  0  0  0  0  0  0  0  0  0  0  0
   14.6759   36.2308   34.9179 C   0  0  0  0  0  0  0  0  0  0  0  0
   13.8216   37.0452   35.5781 N   0  0  0  0  0  0  0  0  0  0  0  0
   16.1640   34.7602   33.1546 C   0  0  0  0  0  0  0  0  0  0  0  0
   15.6526   35.3508   35.4129 C   0  0  0  0  0  0  0  0  0  0  0  0
   16.3794   34.6317   34.5041 N   0  0  0  0  0  0  0  0  0  0  0  0
   15.8999   35.1934   36.8088 N   0  0  0  0  0  0  0  0  0  0  0  0
    9.0120   45.4315   33.6712 H   0  0  0  0  0  0  0  0  0  0  0  0
   10.7259   46.9688   33.1217 H   0  0  0  0  0  0  0  0  0  0  0  0
   11.8908   45.7660   32.9478 H   0  0  0  0  0  0  0  0  0  0  0  0
   10.7239   44.8821   31.1560 H   0  0  0  0  0  0  0  0  0  0  0  0
    9.3426   43.8330   31.4758 H   0  0  0  0  0  0  0  0  0  0  0  0
    7.0113   44.7155   31.5799 H   0  0  0  0  0  0  0  0  0  0  0  0
   10.3459   47.1859   30.4100 H   0  0  0  0  0  0  0  0  0  0  0  0
    5.4768   46.2733   30.5140 H   0  0  0  0  0  0  0  0  0  0  0  0
    8.7942   48.7689   29.3451 H   0  0  0  0  0  0  0  0  0  0  0  0
    4.5005   49.6190   28.6599 H   0  0  0  0  0  0  0  0  0  0  0  0
    3.1446   47.6636   28.0593 H   0  0  0  0  0  0  0  0  0  0  0  0
    4.7003   47.7527   27.1644 H   0  0  0  0  0  0  0  0  0  0  0  0
    4.5137   46.5598   28.4862 H   0  0  0  0  0  0  0  0  0  0  0  0
    3.1058   46.7308   30.3624 H   0  0  0  0  0  0  0  0  0  0  0  0
    3.6708   50.7298   33.2799 H   0  0  0  0  0  0  0  0  0  0  0  0
    0.3413   47.4509   34.1266 H   0  0  0  0  0  0  0  0  0  0  0  0
    1.7981   46.6728   34.9098 H   0  0  0  0  0  0  0  0  0  0  0  0
    9.8300   40.7410   31.7613 H   0  0  0  0  0  0  0  0  0  0  0  0
   11.3968   41.5460   31.4729 H   0  0  0  0  0  0  0  0  0  0  0  0
   11.6975   39.5067   30.3481 H   0  0  0  0  0  0  0  0  0  0  0  0
   10.1076   38.2648   32.6645 H   0  0  0  0  0  0  0  0  0  0  0  0
   13.6621   37.4467   31.2209 H   0  0  0  0  0  0  0  0  0  0  0  0
    8.8975   38.6944   30.8831 H   0  0  0  0  0  0  0  0  0  0  0  0
   11.2806   36.3073   32.5170 H   0  0  0  0  0  0  0  0  0  0  0  0
   10.8492   35.7110   30.4586 H   0  0  0  0  0  0  0  0  0  0  0  0
   12.3290   38.3524   34.7444 H   0  0  0  0  0  0  0  0  0  0  0  0
   16.7559   34.1780   32.4619 H   0  0  0  0  0  0  0  0  0  0  0  0
   15.3532   35.7362   37.5137 H   0  0  0  0  0  0  0  0  0  0  0  0
   16.6344   34.5301   37.1414 H   0  0  0  0  0  0  0  0  0  0  0  0
  1  2  2  0
  1  3  1  0
  3  4  1  0
  4  5  1  0
  6  1  1  0
  7  6  1  0
  6  8  1  0
  8  9  1  0
  9 10  2  0
 11  9  1  0
 10 12  1  0
 13 11  2  0
 12 14  2  0
 14 13  1  0
 14 15  1  0
 15 16  1  0
 16 17  1  0
 16 18  1  0
 18 19  2  0
 20 18  1  0
 19 21  1  0
 22 20  2  0
 20 23  1  0
 21 24  1  0
 21 25  2  0
 25 22  1  0
 23 26  1  0
 23 27  2  0
 24 28  1  0
 25 29  1  0
 28 29  1  0
  4 30  2  0
  4 31  1  0
 32 31  1  0
 32 33  1  0
 33 34  1  0
 33 35  1  0
 34 36  1  0
 35 37  1  0
 35 38  1  0
 38 36  1  0
 36 39  1  0
 38 40  1  0
 41 39  1  0
 42 39  1  0
 43 41  2  0
 41 44  1  0
 45 42  2  0
 46 43  1  0
 44 47  2  0
 44 45  1  0
 48 46  2  0
 48 47  1  0
 47 49  1  0
  6 50  1  1
  7 51  1  0
  7 52  1  0
  8 53  1  0
  8 54  1  0
 10 55  1  0
 11 56  1  0
 12 57  1  0
 13 58  1  0
 16 59  1  6
 17 60  1  0
 17 61  1  0
 17 62  1  0
 19 63  1  0
 22 64  1  0
 28 65  1  0
 28 66  1  0
 32 67  1  0
 32 68  1  0
 33 69  1  0
 35 70  1  0
 36 71  1  0
 37 72  1  0
 38 73  1  0
 40 74  1  0
 42 75  1  0
 46 76  1  0
 49 77  1  0
 49 78  1  0
M  CHG  3   5  -1  23   1  26  -1
M  END
>  <EmbedRMS>  (171) 
0.0829241320984

$$$$

     RDKit          3D

 78 83  0  0  0  0  0  0  0  0999 V2000
   10.2839   43.7625   33.8276 C   0  0  0  0  0  0  0  0  0  0  0  0
   11.4104   43.5864   34.3767 O   0  0  0  0  0  0  0  0  0  0  0  0
    9.3634   42.7233   33.7352 O   0  0  0  0  0  0  0  0  0  0  0  0
    9.8899   41.2246   34.2940 P   0  0  0  0  0  0  0  0  0  0  0  0
   10.3724   41.4544   35.8837 O   0  0  0  0  0  0  0  0  0  0  0  0
    9.9548   45.0698   33.2063 C   0  0  1  0  0  0  0  0  0  0  0  0
   11.0197   46.0480   33.4568 N   0  0  0  0  0  0  0  0  0  0  0  0
    9.7502   44.8506   31.6923 C   0  0  0  0  0  0  0  0  0  0  0  0
    8.7943   45.8413   31.0865 C   0  0  0  0  0  0  0  0  0  0  0  0
    7.4077   45.6011   31.1003 C   0  0  0  0  0  0  0  0  0  0  0  0
    9.2830   46.9890   30.4452 C   0  0  0  0  0  0  0  0  0  0  0  0
    6.5284   46.5024   30.4853 C   0  0  0  0  0  0  0  0  0  0  0  0
    8.4036   47.8907   29.8334 C   0  0  0  0  0  0  0  0  0  0  0  0
    7.0141   47.6513   29.8454 C   0  0  0  0  0  0  0  0  0  0  0  0
    6.0817   48.5182   29.2514 O   0  0  0  0  0  0  0  0  0  0  0  0
    6.3839   49.6477   28.4309 C   0  0  1  0  0  0  0  0  0  0  0  0
    6.9083   49.2099   27.0564 C   0  0  0  0  0  0  0  0  0  0  0  0
    5.1493   50.5254   28.2963 C   0  0  0  0  0  0  0  0  0  0  0  0
    5.2304   51.8608   28.7657 C   0  0  0  0  0  0  0  0  0  0  0  0
    3.9292   50.0774   27.6815 C   0  0  0  0  0  0  0  0  0  0  0  0
    4.1327   52.6948   28.5992 C   0  0  0  0  0  0  0  0  0  0  0  0
    2.8508   50.9777   27.5271 C   0  0  0  0  0  0  0  0  0  0  0  0
    3.7680   48.7361   27.2000 N   0  0  0  0  0  0  0  0  0  0  0  0
    3.9953   54.0180   28.9723 O   0  0  0  0  0  0  0  0  0  0  0  0
    2.9946   52.2730   28.0036 C   0  0  0  0  0  0  0  0  0  0  0  0
    3.8804   47.6746   28.0660 O   0  0  0  0  0  0  0  0  0  0  0  0
    3.2709   48.5411   26.0717 O   0  0  0  0  0  0  0  0  0  0  0  0
    2.6845   54.4529   28.5855 C   0  0  0  0  0  0  0  0  0  0  0  0
    2.0793   53.3075   27.9703 O   0  0  0  0  0  0  0  0  0  0  0  0
    8.8119   40.1831   34.2121 O   0  0  0  0  0  0  0  0  0  0  0  0
   11.2416   40.7932   33.3699 O   0  0  0  0  0  0  0  0  0  0  0  0
   10.9187   40.6909   31.9972 C   0  0  0  0  0  0  0  0  0  0  0  0
   11.5172   39.3814   31.4407 C   0  0  0  0  0  0  0  0  0  0  0  0
   12.7493   39.0855   32.0727 O   0  0  0  0  0  0  0  0  0  0  0  0
   10.6023   38.1907   31.6665 C   0  0  0  0  0  0  0  0  0  0  0  0
   12.9319   37.6781   32.0281 C   0  0  0  0  0  0  0  0  0  0  0  0
    9.6392   38.0797   30.6452 O   0  0  0  0  0  0  0  0  0  0  0  0
   11.5715   37.0165   31.7056 C   0  0  0  0  0  0  0  0  0  0  0  0
   13.4847   37.2121   33.3235 N   0  0  0  0  0  0  0  0  0  0  0  0
   11.6187   36.3383   30.4694 O   0  0  0  0  0  0  0  0  0  0  0  0
   14.4801   36.3321   33.5724 C   0  0  0  0  0  0  0  0  0  0  0  0
   13.1137   37.6275   34.5687 C   0  0  0  0  0  0  0  0  0  0  0  0
   15.2073   35.6153   32.6738 N   0  0  0  0  0  0  0  0  0  0  0  0
   14.6759   36.2308   34.9179 C   0  0  0  0  0  0  0  0  0  0  0  0
   13.8216   37.0452   35.5781 N   0  0  0  0  0  0  0  0  0  0  0  0
   16.1640   34.7602   33.1546 C   0  0  0  0  0  0  0  0  0  0  0  0
   15.6526   35.3508   35.4129 C   0  0  0  0  0  0  0  0  0  0  0  0
   16.3794   34.6317   34.5041 N   0  0  0  0  0  0  0  0  0  0  0  0
   15.8999   35.1935   36.8088 N   0  0  0  0  0  0  0  0  0  0  0  0
    9.0098   45.4347   33.6670 H   0  0  0  0  0  0  0  0  0  0  0  0
   11.1133   46.1992   34.4881 H   0  0  0  0  0  0  0  0  0  0  0  0
   11.9348   45.6932   33.0924 H   0  0  0  0  0  0  0  0  0  0  0  0
    9.3510   43.8340   31.4762 H   0  0  0  0  0  0  0  0  0  0  0  0
   10.7305   44.8920   31.1675 H   0  0  0  0  0  0  0  0  0  0  0  0
    7.0110   44.7163   31.5829 H   0  0  0  0  0  0  0  0  0  0  0  0
   10.3472   47.1890   30.4190 H   0  0  0  0  0  0  0  0  0  0  0  0
    5.4640   46.3053   30.5039 H   0  0  0  0  0  0  0  0  0  0  0  0
    8.8209   48.7679   29.3618 H   0  0  0  0  0  0  0  0  0  0  0  0
    7.1856   50.2398   28.9230 H   0  0  0  0  0  0  0  0  0  0  0  0
    6.2320   48.4717   26.5814 H   0  0  0  0  0  0  0  0  0  0  0  0
    7.9063   48.7370   27.1558 H   0  0  0  0  0  0  0  0  0  0  0  0
    7.0124   50.0910   26.3877 H   0  0  0  0  0  0  0  0  0  0  0  0
    6.1260   52.2461   29.2364 H   0  0  0  0  0  0  0  0  0  0  0  0
    1.9231   50.6688   27.0624 H   0  0  0  0  0  0  0  0  0  0  0  0
    2.7562   55.2866   27.8560 H   0  0  0  0  0  0  0  0  0  0  0  0
    2.1024   54.7600   29.4795 H   0  0  0  0  0  0  0  0  0  0  0  0
   11.3972   41.5459   31.4735 H   0  0  0  0  0  0  0  0  0  0  0  0
    9.8300   40.7410   31.7611 H   0  0  0  0  0  0  0  0  0  0  0  0
   11.6974   39.5067   30.3480 H   0  0  0  0  0  0  0  0  0  0  0  0
   10.1077   38.2647   32.6645 H   0  0  0  0  0  0  0  0  0  0  0  0
   13.6621   37.4467   31.2208 H   0  0  0  0  0  0  0  0  0  0  0  0
    8.8975   38.6943   30.8831 H   0  0  0  0  0  0  0  0  0  0  0  0
   11.2806   36.3073   32.5170 H   0  0  0  0  0  0  0  0  0  0  0  0
   10.8493   35.7110   30.4585 H   0  0  0  0  0  0  0  0  0  0  0  0
   12.3290   38.3523   34.7444 H   0  0  0  0  0  0  0  0  0  0  0  0
   16.7559   34.1780   32.4619 H   0  0  0  0  0  0  0  0  0  0  0  0
   15.3531   35.7362   37.5137 H   0  0  0  0  0  0  0  0  0  0  0  0
   16.6344   34.5301   37.1414 H   0  0  0  0  0  0  0  0  0  0  0  0
  1  2  2  0
  1  3  1  0
  3  4  1  0
  4  5  1  0
  6  1  1  0
  7  6  1  0
  6  8  1  0
  8  9  1  0
  9 10  2  0
 11  9  1  0
 10 12  1  0
 13 11  2  0
 12 14  2  0
 14 13  1  0
 14 15  1  0
 15 16  1  0
 16 17  1  0
 16 18  1  0
 18 19  2  0
 20 18  1  0
 19 21  1  0
 22 20  2  0
 20 23  1  0
 21 24  1  0
 21 25  2  0
 25 22  1  0
 23 26  1  0
 23 27  2  0
 24 28  1  0
 25 29  1  0
 28 29  1  0
  4 30  2  0
  4 31  1  0
 32 31  1  0
 32 33  1  0
 33 34  1  0
 33 35  1  0
 34 36  1  0
 35 37  1  0
 35 38  1  0
 38 36  1  0
 36 39  1  0
 38 40  1  0
 41 39  1  0
 42 39  1  0
 43 41  2  0
 41 44  1  0
 45 42  2  0
 46 43  1  0
 44 47  2  0
 44 45  1  0
 48 46  2  0
 48 47  1  0
 47 49  1  0
  6 50  1  1
  7 51  1  0
  7 52  1  0
  8 53  1  0
  8 54  1  0
 10 55  1  0
 11 56  1  0
 12 57  1  0
 13 58  1  0
 16 59  1  1
 17 60  1  0
 17 61  1  0
 17 62  1  0
 19 63  1  0
 22 64  1  0
 28 65  1  0
 28 66  1  0
 32 67  1  0
 32 68  1  0
 33 69  1  0
 35 70  1  0
 36 71  1  0
 37 72  1  0
 38 73  1  0
 40 74  1  0
 42 75  1  0
 46 76  1  0
 49 77  1  0
 49 78  1  0
M  CHG  3   5  -1  23   1  26  -1
M  END
>  <EmbedRMS>  (172) 
0.0838357101976

$$$$

     RDKit          3D

 78 83  0  0  0  0  0  0  0  0999 V2000
   10.2839   43.7626   33.8276 C   0  0  0  0  0  0  0  0  0  0  0  0
   11.4103   43.5864   34.3767 O   0  0  0  0  0  0  0  0  0  0  0  0
    9.3633   42.7234   33.7351 O   0  0  0  0  0  0  0  0  0  0  0  0
    9.8899   41.2247   34.2940 P   0  0  0  0  0  0  0  0  0  0  0  0
   10.3723   41.4545   35.8837 O   0  0  0  0  0  0  0  0  0  0  0  0
    9.9549   45.0699   33.2064 C   0  0  1  0  0  0  0  0  0  0  0  0
   11.0196   46.0482   33.4572 N   0  0  0  0  0  0  0  0  0  0  0  0
    9.7508   44.8510   31.6922 C   0  0  0  0  0  0  0  0  0  0  0  0
    8.7948   45.8416   31.0866 C   0  0  0  0  0  0  0  0  0  0  0  0
    7.4085   45.6008   31.1001 C   0  0  0  0  0  0  0  0  0  0  0  0
    9.2826   46.9885   30.4445 C   0  0  0  0  0  0  0  0  0  0  0  0
    6.5263   46.4999   30.4853 C   0  0  0  0  0  0  0  0  0  0  0  0
    8.4005   47.8872   29.8339 C   0  0  0  0  0  0  0  0  0  0  0  0
    7.0180   47.6568   29.8455 C   0  0  0  0  0  0  0  0  0  0  0  0
    6.1921   48.6093   29.2203 O   0  0  0  0  0  0  0  0  0  0  0  0
    4.7644   48.5795   29.0880 C   0  0  1  0  0  0  0  0  0  0  0  0
    4.3524   47.5048   28.0692 C   0  0  0  0  0  0  0  0  0  0  0  0
    4.0718   48.5300   30.4510 C   0  0  0  0  0  0  0  0  0  0  0  0
    3.0439   47.5830   30.7131 C   0  0  0  0  0  0  0  0  0  0  0  0
    4.4691   49.4261   31.5029 C   0  0  0  0  0  0  0  0  0  0  0  0
    2.4928   47.5313   31.9862 C   0  0  0  0  0  0  0  0  0  0  0  0
    3.8793   49.3134   32.7829 C   0  0  0  0  0  0  0  0  0  0  0  0
    5.4674   50.4399   31.2948 N   0  0  0  0  0  0  0  0  0  0  0  0
    1.5048   46.6891   32.4594 O   0  0  0  0  0  0  0  0  0  0  0  0
    2.8957   48.3558   32.9780 C   0  0  0  0  0  0  0  0  0  0  0  0
    5.4291   51.2373   30.1748 O   0  0  0  0  0  0  0  0  0  0  0  0
    6.2622   50.7307   32.2125 O   0  0  0  0  0  0  0  0  0  0  0  0
    1.2746   47.0078   33.8384 C   0  0  0  0  0  0  0  0  0  0  0  0
    2.1836   48.0781   34.1289 O   0  0  0  0  0  0  0  0  0  0  0  0
    8.8119   40.1831   34.2120 O   0  0  0  0  0  0  0  0  0  0  0  0
   11.2415   40.7932   33.3699 O   0  0  0  0  0  0  0  0  0  0  0  0
   10.9186   40.6909   31.9972 C   0  0  0  0  0  0  0  0  0  0  0  0
   11.5172   39.3814   31.4407 C   0  0  0  0  0  0  0  0  0  0  0  0
   12.7493   39.0855   32.0728 O   0  0  0  0  0  0  0  0  0  0  0  0
   10.6023   38.1907   31.6665 C   0  0  0  0  0  0  0  0  0  0  0  0
   12.9319   37.6781   32.0281 C   0  0  0  0  0  0  0  0  0  0  0  0
    9.6392   38.0797   30.6452 O   0  0  0  0  0  0  0  0  0  0  0  0
   11.5715   37.0165   31.7056 C   0  0  0  0  0  0  0  0  0  0  0  0
   13.4847   37.2121   33.3235 N   0  0  0  0  0  0  0  0  0  0  0  0
   11.6187   36.3383   30.4694 O   0  0  0  0  0  0  0  0  0  0  0  0
   14.4801   36.3321   33.5724 C   0  0  0  0  0  0  0  0  0  0  0  0
   13.1137   37.6275   34.5687 C   0  0  0  0  0  0  0  0  0  0  0  0
   15.2073   35.6153   32.6738 N   0  0  0  0  0  0  0  0  0  0  0  0
   14.6759   36.2308   34.9179 C   0  0  0  0  0  0  0  0  0  0  0  0
   13.8216   37.0452   35.5781 N   0  0  0  0  0  0  0  0  0  0  0  0
   16.1640   34.7602   33.1546 C   0  0  0  0  0  0  0  0  0  0  0  0
   15.6526   35.3508   35.4129 C   0  0  0  0  0  0  0  0  0  0  0  0
   16.3794   34.6317   34.5041 N   0  0  0  0  0  0  0  0  0  0  0  0
   15.8999   35.1935   36.8088 N   0  0  0  0  0  0  0  0  0  0  0  0
    9.0097   45.4347   33.6667 H   0  0  0  0  0  0  0  0  0  0  0  0
   11.9348   45.6935   33.0931 H   0  0  0  0  0  0  0  0  0  0  0  0
   11.1128   46.1994   34.4885 H   0  0  0  0  0  0  0  0  0  0  0  0
    9.3522   43.8343   31.4758 H   0  0  0  0  0  0  0  0  0  0  0  0
   10.7313   44.8930   31.1678 H   0  0  0  0  0  0  0  0  0  0  0  0
    7.0135   44.7158   31.5838 H   0  0  0  0  0  0  0  0  0  0  0  0
   10.3465   47.1893   30.4152 H   0  0  0  0  0  0  0  0  0  0  0  0
    5.4731   46.2779   30.5244 H   0  0  0  0  0  0  0  0  0  0  0  0
    8.7942   48.7706   29.3473 H   0  0  0  0  0  0  0  0  0  0  0  0
    4.4652   49.5420   28.6228 H   0  0  0  0  0  0  0  0  0  0  0  0
    3.2779   47.6124   27.8090 H   0  0  0  0  0  0  0  0  0  0  0  0
    4.5369   46.4807   28.4498 H   0  0  0  0  0  0  0  0  0  0  0  0
    4.9400   47.6361   27.1358 H   0  0  0  0  0  0  0  0  0  0  0  0
    2.6865   46.8875   29.9682 H   0  0  0  0  0  0  0  0  0  0  0  0
    4.1662   49.9683   33.5956 H   0  0  0  0  0  0  0  0  0  0  0  0
    1.5000   46.1292   34.4786 H   0  0  0  0  0  0  0  0  0  0  0  0
    0.2269   47.3443   33.9851 H   0  0  0  0  0  0  0  0  0  0  0  0
   11.3971   41.5460   31.4735 H   0  0  0  0  0  0  0  0  0  0  0  0
    9.8300   40.7410   31.7610 H   0  0  0  0  0  0  0  0  0  0  0  0
   11.6974   39.5067   30.3480 H   0  0  0  0  0  0  0  0  0  0  0  0
   10.1077   38.2647   32.6645 H   0  0  0  0  0  0  0  0  0  0  0  0
   13.6622   37.4467   31.2209 H   0  0  0  0  0  0  0  0  0  0  0  0
    8.8975   38.6943   30.8831 H   0  0  0  0  0  0  0  0  0  0  0  0
   11.2806   36.3073   32.5170 H   0  0  0  0  0  0  0  0  0  0  0  0
   10.8493   35.7110   30.4585 H   0  0  0  0  0  0  0  0  0  0  0  0
   12.3290   38.3523   34.7444 H   0  0  0  0  0  0  0  0  0  0  0  0
   16.7559   34.1780   32.4619 H   0  0  0  0  0  0  0  0  0  0  0  0
   16.6344   34.5301   37.1414 H   0  0  0  0  0  0  0  0  0  0  0  0
   15.3532   35.7362   37.5137 H   0  0  0  0  0  0  0  0  0  0  0  0
  1  2  2  0
  1  3  1  0
  3  4  1  0
  4  5  1  0
  6  1  1  0
  7  6  1  0
  6  8  1  0
  8  9  1  0
  9 10  2  0
 11  9  1  0
 10 12  1  0
 13 11  2  0
 12 14  2  0
 14 13  1  0
 14 15  1  0
 15 16  1  0
 16 17  1  0
 16 18  1  0
 18 19  2  0
 20 18  1  0
 19 21  1  0
 22 20  2  0
 20 23  1  0
 21 24  1  0
 21 25  2  0
 25 22  1  0
 23 26  1  0
 23 27  2  0
 24 28  1  0
 25 29  1  0
 28 29  1  0
  4 30  2  0
  4 31  1  0
 32 31  1  0
 32 33  1  0
 33 34  1  0
 33 35  1  0
 34 36  1  0
 35 37  1  0
 35 38  1  0
 38 36  1  0
 36 39  1  0
 38 40  1  0
 41 39  1  0
 42 39  1  0
 43 41  2  0
 41 44  1  0
 45 42  2  0
 46 43  1  0
 44 47  2  0
 44 45  1  0
 48 46  2  0
 48 47  1  0
 47 49  1  0
  6 50  1  1
  7 51  1  0
  7 52  1  0
  8 53  1  0
  8 54  1  0
 10 55  1  0
 11 56  1  0
 12 57  1  0
 13 58  1  0
 16 59  1  6
 17 60  1  0
 17 61  1  0
 17 62  1  0
 19 63  1  0
 22 64  1  0
 28 65  1  0
 28 66  1  0
 32 67  1  0
 32 68  1  0
 33 69  1  0
 35 70  1  0
 36 71  1  0
 37 72  1  0
 38 73  1  0
 40 74  1  0
 42 75  1  0
 46 76  1  0
 49 77  1  0
 49 78  1  0
M  CHG  3   5  -1  23   1  26  -1
M  END
>  <EmbedRMS>  (173) 
0.0838180573374

$$$$

     RDKit          3D

 78 83  0  0  0  0  0  0  0  0999 V2000
   10.2805   43.7664   33.8250 C   0  0  0  0  0  0  0  0  0  0  0  0
   11.4111   43.5918   34.3667 O   0  0  0  0  0  0  0  0  0  0  0  0
    9.3619   42.7249   33.7345 O   0  0  0  0  0  0  0  0  0  0  0  0
    9.8900   41.2266   34.2940 P   0  0  0  0  0  0  0  0  0  0  0  0
   10.3734   41.4567   35.8833 O   0  0  0  0  0  0  0  0  0  0  0  0
    9.9460   45.0736   33.2113 C   0  0  1  0  0  0  0  0  0  0  0  0
   11.0268   46.0292   33.4710 N   0  0  0  0  0  0  0  0  0  0  0  0
    9.7540   44.8542   31.6950 C   0  0  0  0  0  0  0  0  0  0  0  0
    8.7958   45.8414   31.0851 C   0  0  0  0  0  0  0  0  0  0  0  0
    7.4092   45.6001   31.1009 C   0  0  0  0  0  0  0  0  0  0  0  0
    9.2824   46.9876   30.4395 C   0  0  0  0  0  0  0  0  0  0  0  0
    6.5257   46.4984   30.4856 C   0  0  0  0  0  0  0  0  0  0  0  0
    8.3997   47.8865   29.8304 C   0  0  0  0  0  0  0  0  0  0  0  0
    7.0177   47.6562   29.8472 C   0  0  0  0  0  0  0  0  0  0  0  0
    6.1855   48.5935   29.2125 O   0  0  0  0  0  0  0  0  0  0  0  0
    4.7554   48.5958   29.2261 C   0  0  1  0  0  0  0  0  0  0  0  0
    4.2343   49.0439   30.5983 C   0  0  0  0  0  0  0  0  0  0  0  0
    4.2600   49.5352   28.1407 C   0  0  0  0  0  0  0  0  0  0  0  0
    4.6703   50.8915   28.1814 C   0  0  0  0  0  0  0  0  0  0  0  0
    3.3627   49.1090   27.1046 C   0  0  0  0  0  0  0  0  0  0  0  0
    4.1532   51.7714   27.2396 C   0  0  0  0  0  0  0  0  0  0  0  0
    2.8549   50.0537   26.1851 C   0  0  0  0  0  0  0  0  0  0  0  0
    2.9764   47.7360   26.9552 N   0  0  0  0  0  0  0  0  0  0  0  0
    4.4021   53.1231   27.0993 O   0  0  0  0  0  0  0  0  0  0  0  0
    3.2791   51.3716   26.2878 C   0  0  0  0  0  0  0  0  0  0  0  0
    1.6713   47.4276   26.6484 O   0  0  0  0  0  0  0  0  0  0  0  0
    3.8513   46.8563   26.8173 O   0  0  0  0  0  0  0  0  0  0  0  0
    3.6336   53.6012   25.9868 C   0  0  0  0  0  0  0  0  0  0  0  0
    2.9316   52.4503   25.4975 O   0  0  0  0  0  0  0  0  0  0  0  0
    8.8123   40.1844   34.2133 O   0  0  0  0  0  0  0  0  0  0  0  0
   11.2405   40.7942   33.3692 O   0  0  0  0  0  0  0  0  0  0  0  0
   10.9150   40.6905   31.9972 C   0  0  0  0  0  0  0  0  0  0  0  0
   11.5252   39.3886   31.4375 C   0  0  0  0  0  0  0  0  0  0  0  0
   12.7499   39.0874   32.0799 O   0  0  0  0  0  0  0  0  0  0  0  0
   10.6092   38.1926   31.6470 C   0  0  0  0  0  0  0  0  0  0  0  0
   12.9332   37.6793   32.0294 C   0  0  0  0  0  0  0  0  0  0  0  0
    9.6122   38.0894   30.6542 O   0  0  0  0  0  0  0  0  0  0  0  0
   11.5743   37.0145   31.7024 C   0  0  0  0  0  0  0  0  0  0  0  0
   13.4844   37.2108   33.3241 N   0  0  0  0  0  0  0  0  0  0  0  0
   11.6297   36.3239   30.4740 O   0  0  0  0  0  0  0  0  0  0  0  0
   14.4802   36.3313   33.5727 C   0  0  0  0  0  0  0  0  0  0  0  0
   13.1139   37.6266   34.5692 C   0  0  0  0  0  0  0  0  0  0  0  0
   15.2075   35.6149   32.6739 N   0  0  0  0  0  0  0  0  0  0  0  0
   14.6761   36.2303   34.9181 C   0  0  0  0  0  0  0  0  0  0  0  0
   13.8220   37.0447   35.5785 N   0  0  0  0  0  0  0  0  0  0  0  0
   16.1643   34.7600   33.1547 C   0  0  0  0  0  0  0  0  0  0  0  0
   15.6529   35.3505   35.4130 C   0  0  0  0  0  0  0  0  0  0  0  0
   16.3798   34.6315   34.5042 N   0  0  0  0  0  0  0  0  0  0  0  0
   15.9003   35.1932   36.8090 N   0  0  0  0  0  0  0  0  0  0  0  0
    8.9996   45.4381   33.6723 H   0  0  0  0  0  0  0  0  0  0  0  0
   10.7765   46.9369   33.0160 H   0  0  0  0  0  0  0  0  0  0  0  0
   11.0503   46.2277   34.4984 H   0  0  0  0  0  0  0  0  0  0  0  0
    9.3646   43.8355   31.4711 H   0  0  0  0  0  0  0  0  0  0  0  0
   10.7412   44.9080   31.1837 H   0  0  0  0  0  0  0  0  0  0  0  0
    7.0155   44.7142   31.5841 H   0  0  0  0  0  0  0  0  0  0  0  0
   10.3463   47.1872   30.4047 H   0  0  0  0  0  0  0  0  0  0  0  0
    5.4698   46.2739   30.5133 H   0  0  0  0  0  0  0  0  0  0  0  0
    8.7924   48.7677   29.3389 H   0  0  0  0  0  0  0  0  0  0  0  0
    4.3813   47.5713   29.0486 H   0  0  0  0  0  0  0  0  0  0  0  0
    4.6625   50.0274   30.8845 H   0  0  0  0  0  0  0  0  0  0  0  0
    4.5130   48.3079   31.3797 H   0  0  0  0  0  0  0  0  0  0  0  0
    3.1262   49.1227   30.5784 H   0  0  0  0  0  0  0  0  0  0  0  0
    5.3615   51.2523   28.9323 H   0  0  0  0  0  0  0  0  0  0  0  0
    2.1722   49.7615   25.3976 H   0  0  0  0  0  0  0  0  0  0  0  0
    2.9126   54.3757   26.3225 H   0  0  0  0  0  0  0  0  0  0  0  0
    4.3060   54.0030   25.2000 H   0  0  0  0  0  0  0  0  0  0  0  0
   11.3801   41.5528   31.4730 H   0  0  0  0  0  0  0  0  0  0  0  0
    9.8242   40.7215   31.7641 H   0  0  0  0  0  0  0  0  0  0  0  0
   11.7266   39.5310   30.3513 H   0  0  0  0  0  0  0  0  0  0  0  0
   10.1110   38.2747   32.6387 H   0  0  0  0  0  0  0  0  0  0  0  0
   13.6652   37.4520   31.2226 H   0  0  0  0  0  0  0  0  0  0  0  0
   10.0511   38.1143   29.7645 H   0  0  0  0  0  0  0  0  0  0  0  0
   11.2762   36.3141   32.5189 H   0  0  0  0  0  0  0  0  0  0  0  0
   10.8593   35.6978   30.4640 H   0  0  0  0  0  0  0  0  0  0  0  0
   12.3295   38.3518   34.7450 H   0  0  0  0  0  0  0  0  0  0  0  0
   16.7564   34.1780   32.4620 H   0  0  0  0  0  0  0  0  0  0  0  0
   15.3534   35.7359   37.5138 H   0  0  0  0  0  0  0  0  0  0  0  0
   16.6349   34.5300   37.1415 H   0  0  0  0  0  0  0  0  0  0  0  0
  1  2  2  0
  1  3  1  0
  3  4  1  0
  4  5  1  0
  6  1  1  0
  7  6  1  0
  6  8  1  0
  8  9  1  0
  9 10  2  0
 11  9  1  0
 10 12  1  0
 13 11  2  0
 12 14  2  0
 14 13  1  0
 14 15  1  0
 15 16  1  0
 16 17  1  0
 16 18  1  0
 18 19  2  0
 20 18  1  0
 19 21  1  0
 22 20  2  0
 20 23  1  0
 21 24  1  0
 21 25  2  0
 25 22  1  0
 23 26  1  0
 23 27  2  0
 24 28  1  0
 25 29  1  0
 28 29  1  0
  4 30  2  0
  4 31  1  0
 32 31  1  0
 32 33  1  0
 33 34  1  0
 33 35  1  0
 34 36  1  0
 35 37  1  0
 35 38  1  0
 38 36  1  0
 36 39  1  0
 38 40  1  0
 41 39  1  0
 42 39  1  0
 43 41  2  0
 41 44  1  0
 45 42  2  0
 46 43  1  0
 44 47  2  0
 44 45  1  0
 48 46  2  0
 48 47  1  0
 47 49  1  0
  6 50  1  1
  7 51  1  0
  7 52  1  0
  8 53  1  0
  8 54  1  0
 10 55  1  0
 11 56  1  0
 12 57  1  0
 13 58  1  0
 16 59  1  6
 17 60  1  0
 17 61  1  0
 17 62  1  0
 19 63  1  0
 22 64  1  0
 28 65  1  0
 28 66  1  0
 32 67  1  0
 32 68  1  0
 33 69  1  0
 35 70  1  0
 36 71  1  0
 37 72  1  0
 38 73  1  0
 40 74  1  0
 42 75  1  0
 46 76  1  0
 49 77  1  0
 49 78  1  0
M  CHG  3   5  -1  23   1  26  -1
M  END
>  <EmbedRMS>  (174) 
0.0816130442335

$$$$

     RDKit          3D

 78 83  0  0  0  0  0  0  0  0999 V2000
   10.2803   43.7664   33.8246 C   0  0  0  0  0  0  0  0  0  0  0  0
   11.4109   43.5920   34.3665 O   0  0  0  0  0  0  0  0  0  0  0  0
    9.3618   42.7249   33.7343 O   0  0  0  0  0  0  0  0  0  0  0  0
    9.8899   41.2267   34.2939 P   0  0  0  0  0  0  0  0  0  0  0  0
   10.3734   41.4568   35.8832 O   0  0  0  0  0  0  0  0  0  0  0  0
    9.9458   45.0736   33.2107 C   0  0  1  0  0  0  0  0  0  0  0  0
   11.0265   46.0292   33.4704 N   0  0  0  0  0  0  0  0  0  0  0  0
    9.7535   44.8542   31.6943 C   0  0  0  0  0  0  0  0  0  0  0  0
    8.7952   45.8412   31.0840 C   0  0  0  0  0  0  0  0  0  0  0  0
    7.4072   45.6005   31.1020 C   0  0  0  0  0  0  0  0  0  0  0  0
    9.2828   46.9902   30.4403 C   0  0  0  0  0  0  0  0  0  0  0  0
    6.5261   46.5021   30.4889 C   0  0  0  0  0  0  0  0  0  0  0  0
    8.4000   47.8910   29.8327 C   0  0  0  0  0  0  0  0  0  0  0  0
    7.0211   47.6446   29.8438 C   0  0  0  0  0  0  0  0  0  0  0  0
    6.1411   48.5417   29.2311 O   0  0  0  0  0  0  0  0  0  0  0  0
    5.6986   48.4142   27.8758 C   0  0  1  0  0  0  0  0  0  0  0  0
    6.8382   48.7137   26.8911 C   0  0  0  0  0  0  0  0  0  0  0  0
    5.0210   47.0683   27.6369 C   0  0  0  0  0  0  0  0  0  0  0  0
    5.8039   45.9293   27.3125 C   0  0  0  0  0  0  0  0  0  0  0  0
    3.5968   46.9243   27.7430 C   0  0  0  0  0  0  0  0  0  0  0  0
    5.1574   44.7279   27.0566 C   0  0  0  0  0  0  0  0  0  0  0  0
    2.9938   45.6793   27.4501 C   0  0  0  0  0  0  0  0  0  0  0  0
    2.7624   48.0084   28.1821 N   0  0  0  0  0  0  0  0  0  0  0  0
    5.7137   43.5090   26.7194 O   0  0  0  0  0  0  0  0  0  0  0  0
    3.8119   44.6098   27.1148 C   0  0  0  0  0  0  0  0  0  0  0  0
    3.1129   48.7435   29.2910 O   0  0  0  0  0  0  0  0  0  0  0  0
    1.6175   48.1483   27.7044 O   0  0  0  0  0  0  0  0  0  0  0  0
    4.6459   42.5661   26.5543 C   0  0  0  0  0  0  0  0  0  0  0  0
    3.4486   43.3107   26.8162 O   0  0  0  0  0  0  0  0  0  0  0  0
    8.8123   40.1844   34.2133 O   0  0  0  0  0  0  0  0  0  0  0  0
   11.2405   40.7942   33.3691 O   0  0  0  0  0  0  0  0  0  0  0  0
   10.9150   40.6905   31.9972 C   0  0  0  0  0  0  0  0  0  0  0  0
   11.5252   39.3886   31.4375 C   0  0  0  0  0  0  0  0  0  0  0  0
   12.7499   39.0874   32.0799 O   0  0  0  0  0  0  0  0  0  0  0  0
   10.6092   38.1926   31.6469 C   0  0  0  0  0  0  0  0  0  0  0  0
   12.9331   37.6793   32.0294 C   0  0  0  0  0  0  0  0  0  0  0  0
    9.6121   38.0894   30.6542 O   0  0  0  0  0  0  0  0  0  0  0  0
   11.5743   37.0145   31.7024 C   0  0  0  0  0  0  0  0  0  0  0  0
   13.4844   37.2108   33.3241 N   0  0  0  0  0  0  0  0  0  0  0  0
   11.6297   36.3239   30.4740 O   0  0  0  0  0  0  0  0  0  0  0  0
   14.4802   36.3313   33.5726 C   0  0  0  0  0  0  0  0  0  0  0  0
   13.1138   37.6267   34.5692 C   0  0  0  0  0  0  0  0  0  0  0  0
   15.2075   35.6149   32.6739 N   0  0  0  0  0  0  0  0  0  0  0  0
   14.6761   36.2303   34.9181 C   0  0  0  0  0  0  0  0  0  0  0  0
   13.8220   37.0447   35.5785 N   0  0  0  0  0  0  0  0  0  0  0  0
   16.1643   34.7600   33.1547 C   0  0  0  0  0  0  0  0  0  0  0  0
   15.6529   35.3505   35.4130 C   0  0  0  0  0  0  0  0  0  0  0  0
   16.3798   34.6315   34.5042 N   0  0  0  0  0  0  0  0  0  0  0  0
   15.9003   35.1932   36.8090 N   0  0  0  0  0  0  0  0  0  0  0  0
    8.9994   45.4382   33.6718 H   0  0  0  0  0  0  0  0  0  0  0  0
   11.0501   46.2277   34.4978 H   0  0  0  0  0  0  0  0  0  0  0  0
   10.7763   46.9369   33.0155 H   0  0  0  0  0  0  0  0  0  0  0  0
    9.3637   43.8355   31.4707 H   0  0  0  0  0  0  0  0  0  0  0  0
   10.7405   44.9078   31.1827 H   0  0  0  0  0  0  0  0  0  0  0  0
    7.0117   44.7169   31.5874 H   0  0  0  0  0  0  0  0  0  0  0  0
   10.3465   47.1911   30.4084 H   0  0  0  0  0  0  0  0  0  0  0  0
    5.4609   46.3099   30.5099 H   0  0  0  0  0  0  0  0  0  0  0  0
    8.7881   48.7765   29.3458 H   0  0  0  0  0  0  0  0  0  0  0  0
    4.9587   49.2210   27.6950 H   0  0  0  0  0  0  0  0  0  0  0  0
    7.7135   48.0549   27.0602 H   0  0  0  0  0  0  0  0  0  0  0  0
    7.1746   49.7641   27.0217 H   0  0  0  0  0  0  0  0  0  0  0  0
    6.4839   48.5862   25.8460 H   0  0  0  0  0  0  0  0  0  0  0  0
    6.8827   45.9671   27.2629 H   0  0  0  0  0  0  0  0  0  0  0  0
    1.9222   45.5418   27.5175 H   0  0  0  0  0  0  0  0  0  0  0  0
    4.6351   42.1762   25.5148 H   0  0  0  0  0  0  0  0  0  0  0  0
    4.7492   41.7370   27.2854 H   0  0  0  0  0  0  0  0  0  0  0  0
    9.8241   40.7215   31.7640 H   0  0  0  0  0  0  0  0  0  0  0  0
   11.3800   41.5528   31.4730 H   0  0  0  0  0  0  0  0  0  0  0  0
   11.7266   39.5310   30.3512 H   0  0  0  0  0  0  0  0  0  0  0  0
   10.1110   38.2747   32.6387 H   0  0  0  0  0  0  0  0  0  0  0  0
   13.6652   37.4520   31.2226 H   0  0  0  0  0  0  0  0  0  0  0  0
   10.0511   38.1143   29.7645 H   0  0  0  0  0  0  0  0  0  0  0  0
   11.2761   36.3141   32.5189 H   0  0  0  0  0  0  0  0  0  0  0  0
   10.8592   35.6978   30.4640 H   0  0  0  0  0  0  0  0  0  0  0  0
   12.3295   38.3518   34.7450 H   0  0  0  0  0  0  0  0  0  0  0  0
   16.7564   34.1780   32.4620 H   0  0  0  0  0  0  0  0  0  0  0  0
   15.3534   35.7359   37.5138 H   0  0  0  0  0  0  0  0  0  0  0  0
   16.6349   34.5300   37.1415 H   0  0  0  0  0  0  0  0  0  0  0  0
  1  2  2  0
  1  3  1  0
  3  4  1  0
  4  5  1  0
  6  1  1  0
  7  6  1  0
  6  8  1  0
  8  9  1  0
  9 10  2  0
 11  9  1  0
 10 12  1  0
 13 11  2  0
 12 14  2  0
 14 13  1  0
 14 15  1  0
 15 16  1  0
 16 17  1  0
 16 18  1  0
 18 19  2  0
 20 18  1  0
 19 21  1  0
 22 20  2  0
 20 23  1  0
 21 24  1  0
 21 25  2  0
 25 22  1  0
 23 26  1  0
 23 27  2  0
 24 28  1  0
 25 29  1  0
 28 29  1  0
  4 30  2  0
  4 31  1  0
 32 31  1  0
 32 33  1  0
 33 34  1  0
 33 35  1  0
 34 36  1  0
 35 37  1  0
 35 38  1  0
 38 36  1  0
 36 39  1  0
 38 40  1  0
 41 39  1  0
 42 39  1  0
 43 41  2  0
 41 44  1  0
 45 42  2  0
 46 43  1  0
 44 47  2  0
 44 45  1  0
 48 46  2  0
 48 47  1  0
 47 49  1  0
  6 50  1  1
  7 51  1  0
  7 52  1  0
  8 53  1  0
  8 54  1  0
 10 55  1  0
 11 56  1  0
 12 57  1  0
 13 58  1  0
 16 59  1  6
 17 60  1  0
 17 61  1  0
 17 62  1  0
 19 63  1  0
 22 64  1  0
 28 65  1  0
 28 66  1  0
 32 67  1  0
 32 68  1  0
 33 69  1  0
 35 70  1  0
 36 71  1  0
 37 72  1  0
 38 73  1  0
 40 74  1  0
 42 75  1  0
 46 76  1  0
 49 77  1  0
 49 78  1  0
M  CHG  3   5  -1  23   1  26  -1
M  END
>  <EmbedRMS>  (175) 
0.0817597992865

$$$$

     RDKit          3D

 78 83  0  0  0  0  0  0  0  0999 V2000
   10.2804   43.7664   33.8249 C   0  0  0  0  0  0  0  0  0  0  0  0
   11.4110   43.5919   34.3666 O   0  0  0  0  0  0  0  0  0  0  0  0
    9.3619   42.7249   33.7343 O   0  0  0  0  0  0  0  0  0  0  0  0
    9.8903   41.2265   34.2931 P   0  0  0  0  0  0  0  0  0  0  0  0
   10.3742   41.4563   35.8824 O   0  0  0  0  0  0  0  0  0  0  0  0
    9.9460   45.0736   33.2110 C   0  0  1  0  0  0  0  0  0  0  0  0
   11.0267   46.0292   33.4708 N   0  0  0  0  0  0  0  0  0  0  0  0
    9.7541   44.8541   31.6947 C   0  0  0  0  0  0  0  0  0  0  0  0
    8.7958   45.8409   31.0844 C   0  0  0  0  0  0  0  0  0  0  0  0
    7.4091   45.6003   31.1015 C   0  0  0  0  0  0  0  0  0  0  0  0
    9.2824   46.9882   30.4401 C   0  0  0  0  0  0  0  0  0  0  0  0
    6.5260   46.4996   30.4876 C   0  0  0  0  0  0  0  0  0  0  0  0
    8.3995   47.8878   29.8322 C   0  0  0  0  0  0  0  0  0  0  0  0
    7.0181   47.6534   29.8440 C   0  0  0  0  0  0  0  0  0  0  0  0
    6.1821   48.5869   29.2092 O   0  0  0  0  0  0  0  0  0  0  0  0
    4.7713   48.4539   29.0323 C   0  0  1  0  0  0  0  0  0  0  0  0
    4.1864   49.7926   28.5814 C   0  0  0  0  0  0  0  0  0  0  0  0
    4.4375   47.3501   28.0391 C   0  0  0  0  0  0  0  0  0  0  0  0
    3.5472   46.3292   28.4538 C   0  0  0  0  0  0  0  0  0  0  0  0
    4.9381   47.3328   26.6936 C   0  0  0  0  0  0  0  0  0  0  0  0
    3.1934   45.3428   27.5425 C   0  0  0  0  0  0  0  0  0  0  0  0
    4.5319   46.3117   25.8063 C   0  0  0  0  0  0  0  0  0  0  0  0
    5.8329   48.3403   26.2074 N   0  0  0  0  0  0  0  0  0  0  0  0
    2.3525   44.2626   27.7294 O   0  0  0  0  0  0  0  0  0  0  0  0
    3.6638   45.3350   26.2744 C   0  0  0  0  0  0  0  0  0  0  0  0
    7.1112   48.4172   26.7067 O   0  0  0  0  0  0  0  0  0  0  0  0
    5.5650   48.9389   25.1454 O   0  0  0  0  0  0  0  0  0  0  0  0
    2.2939   43.5294   26.4982 C   0  0  0  0  0  0  0  0  0  0  0  0
    3.1452   44.2491   25.5958 O   0  0  0  0  0  0  0  0  0  0  0  0
    8.8124   40.1844   34.2129 O   0  0  0  0  0  0  0  0  0  0  0  0
   11.2404   40.7948   33.3668 O   0  0  0  0  0  0  0  0  0  0  0  0
   10.9133   40.6866   31.9952 C   0  0  0  0  0  0  0  0  0  0  0  0
   11.5166   39.3787   31.4404 C   0  0  0  0  0  0  0  0  0  0  0  0
   12.7485   39.0849   32.0735 O   0  0  0  0  0  0  0  0  0  0  0  0
   10.6038   38.1884   31.6669 C   0  0  0  0  0  0  0  0  0  0  0  0
   12.9329   37.6776   32.0284 C   0  0  0  0  0  0  0  0  0  0  0  0
    9.6374   38.0938   30.6484 O   0  0  0  0  0  0  0  0  0  0  0  0
   11.5737   37.0141   31.7055 C   0  0  0  0  0  0  0  0  0  0  0  0
   13.4853   37.2120   33.3238 N   0  0  0  0  0  0  0  0  0  0  0  0
   11.6210   36.3379   30.4683 O   0  0  0  0  0  0  0  0  0  0  0  0
   14.4804   36.3319   33.5726 C   0  0  0  0  0  0  0  0  0  0  0  0
   13.1141   37.6275   34.5689 C   0  0  0  0  0  0  0  0  0  0  0  0
   15.2076   35.6152   32.6740 N   0  0  0  0  0  0  0  0  0  0  0  0
   14.6761   36.2306   34.9181 C   0  0  0  0  0  0  0  0  0  0  0  0
   13.8218   37.0451   35.5783 N   0  0  0  0  0  0  0  0  0  0  0  0
   16.1642   34.7600   33.1548 C   0  0  0  0  0  0  0  0  0  0  0  0
   15.6527   35.3507   35.4131 C   0  0  0  0  0  0  0  0  0  0  0  0
   16.3795   34.6315   34.5043 N   0  0  0  0  0  0  0  0  0  0  0  0
   15.9000   35.1933   36.8090 N   0  0  0  0  0  0  0  0  0  0  0  0
    8.9995   45.4382   33.6719 H   0  0  0  0  0  0  0  0  0  0  0  0
   11.0501   46.2277   34.4982 H   0  0  0  0  0  0  0  0  0  0  0  0
   10.7765   46.9369   33.0158 H   0  0  0  0  0  0  0  0  0  0  0  0
    9.3647   43.8353   31.4709 H   0  0  0  0  0  0  0  0  0  0  0  0
   10.7413   44.9079   31.1834 H   0  0  0  0  0  0  0  0  0  0  0  0
    7.0148   44.7169   31.5885 H   0  0  0  0  0  0  0  0  0  0  0  0
   10.3462   47.1883   30.4060 H   0  0  0  0  0  0  0  0  0  0  0  0
    5.4686   46.2875   30.5290 H   0  0  0  0  0  0  0  0  0  0  0  0
    8.7917   48.7692   29.3408 H   0  0  0  0  0  0  0  0  0  0  0  0
    4.3118   48.2389   30.0228 H   0  0  0  0  0  0  0  0  0  0  0  0
    3.0928   49.6957   28.4105 H   0  0  0  0  0  0  0  0  0  0  0  0
    4.3511   50.5556   29.3716 H   0  0  0  0  0  0  0  0  0  0  0  0
    4.6688   50.1522   27.6501 H   0  0  0  0  0  0  0  0  0  0  0  0
    3.1334   46.3075   29.4540 H   0  0  0  0  0  0  0  0  0  0  0  0
    4.8924   46.2784   24.7861 H   0  0  0  0  0  0  0  0  0  0  0  0
    1.2536   43.5112   26.1111 H   0  0  0  0  0  0  0  0  0  0  0  0
    2.6775   42.4982   26.6466 H   0  0  0  0  0  0  0  0  0  0  0  0
    9.8224   40.7224   31.7629 H   0  0  0  0  0  0  0  0  0  0  0  0
   11.3826   41.5438   31.4666 H   0  0  0  0  0  0  0  0  0  0  0  0
   11.6979   39.5036   30.3478 H   0  0  0  0  0  0  0  0  0  0  0  0
   10.1083   38.2787   32.6626 H   0  0  0  0  0  0  0  0  0  0  0  0
   13.6638   37.4472   31.2214 H   0  0  0  0  0  0  0  0  0  0  0  0
    8.9762   37.4191   30.9532 H   0  0  0  0  0  0  0  0  0  0  0  0
   11.2821   36.3054   32.5172 H   0  0  0  0  0  0  0  0  0  0  0  0
   10.8658   35.6935   30.4652 H   0  0  0  0  0  0  0  0  0  0  0  0
   12.3293   38.3523   34.7445 H   0  0  0  0  0  0  0  0  0  0  0  0
   16.7561   34.1778   32.4621 H   0  0  0  0  0  0  0  0  0  0  0  0
   15.3533   35.7361   37.5138 H   0  0  0  0  0  0  0  0  0  0  0  0
   16.6345   34.5300   37.1416 H   0  0  0  0  0  0  0  0  0  0  0  0
  1  2  2  0
  1  3  1  0
  3  4  1  0
  4  5  1  0
  6  1  1  0
  7  6  1  0
  6  8  1  0
  8  9  1  0
  9 10  2  0
 11  9  1  0
 10 12  1  0
 13 11  2  0
 12 14  2  0
 14 13  1  0
 14 15  1  0
 15 16  1  0
 16 17  1  0
 16 18  1  0
 18 19  2  0
 20 18  1  0
 19 21  1  0
 22 20  2  0
 20 23  1  0
 21 24  1  0
 21 25  2  0
 25 22  1  0
 23 26  1  0
 23 27  2  0
 24 28  1  0
 25 29  1  0
 28 29  1  0
  4 30  2  0
  4 31  1  0
 32 31  1  0
 32 33  1  0
 33 34  1  0
 33 35  1  0
 34 36  1  0
 35 37  1  0
 35 38  1  0
 38 36  1  0
 36 39  1  0
 38 40  1  0
 41 39  1  0
 42 39  1  0
 43 41  2  0
 41 44  1  0
 45 42  2  0
 46 43  1  0
 44 47  2  0
 44 45  1  0
 48 46  2  0
 48 47  1  0
 47 49  1  0
  6 50  1  1
  7 51  1  0
  7 52  1  0
  8 53  1  0
  8 54  1  0
 10 55  1  0
 11 56  1  0
 12 57  1  0
 13 58  1  0
 16 59  1  1
 17 60  1  0
 17 61  1  0
 17 62  1  0
 19 63  1  0
 22 64  1  0
 28 65  1  0
 28 66  1  0
 32 67  1  0
 32 68  1  0
 33 69  1  0
 35 70  1  0
 36 71  1  0
 37 72  1  0
 38 73  1  0
 40 74  1  0
 42 75  1  0
 46 76  1  0
 49 77  1  0
 49 78  1  0
M  CHG  3   5  -1  23   1  26  -1
M  END
>  <EmbedRMS>  (176) 
0.0823838661548

$$$$

     RDKit          3D

 78 83  0  0  0  0  0  0  0  0999 V2000
   10.2837   43.7627   33.8273 C   0  0  0  0  0  0  0  0  0  0  0  0
   11.4102   43.5864   34.3764 O   0  0  0  0  0  0  0  0  0  0  0  0
    9.3629   42.7236   33.7352 O   0  0  0  0  0  0  0  0  0  0  0  0
    9.8893   41.2250   34.2943 P   0  0  0  0  0  0  0  0  0  0  0  0
   10.3727   41.4547   35.8837 O   0  0  0  0  0  0  0  0  0  0  0  0
    9.9547   45.0700   33.2059 C   0  0  1  0  0  0  0  0  0  0  0  0
   11.0197   46.0481   33.4566 N   0  0  0  0  0  0  0  0  0  0  0  0
    9.7501   44.8511   31.6917 C   0  0  0  0  0  0  0  0  0  0  0  0
    8.7940   45.8419   31.0861 C   0  0  0  0  0  0  0  0  0  0  0  0
    7.4059   45.6010   31.1013 C   0  0  0  0  0  0  0  0  0  0  0  0
    9.2831   46.9915   30.4452 C   0  0  0  0  0  0  0  0  0  0  0  0
    6.5259   46.5029   30.4877 C   0  0  0  0  0  0  0  0  0  0  0  0
    8.4012   47.8917   29.8348 C   0  0  0  0  0  0  0  0  0  0  0  0
    7.0221   47.6455   29.8434 C   0  0  0  0  0  0  0  0  0  0  0  0
    6.1446   48.5439   29.2289 O   0  0  0  0  0  0  0  0  0  0  0  0
    5.6806   48.3983   27.8827 C   0  0  1  0  0  0  0  0  0  0  0  0
    6.8113   48.6667   26.8788 C   0  0  0  0  0  0  0  0  0  0  0  0
    4.9802   47.0578   27.6794 C   0  0  0  0  0  0  0  0  0  0  0  0
    5.7351   45.9106   27.3191 C   0  0  0  0  0  0  0  0  0  0  0  0
    3.5615   46.9258   27.8619 C   0  0  0  0  0  0  0  0  0  0  0  0
    5.0655   44.7143   27.1014 C   0  0  0  0  0  0  0  0  0  0  0  0
    2.9338   45.6862   27.6038 C   0  0  0  0  0  0  0  0  0  0  0  0
    2.7543   48.0162   28.3350 N   0  0  0  0  0  0  0  0  0  0  0  0
    5.5927   43.4895   26.7399 O   0  0  0  0  0  0  0  0  0  0  0  0
    3.7239   44.6086   27.2300 C   0  0  0  0  0  0  0  0  0  0  0  0
    1.4577   48.1490   27.8941 O   0  0  0  0  0  0  0  0  0  0  0  0
    3.1325   48.7038   29.3057 O   0  0  0  0  0  0  0  0  0  0  0  0
    4.5094   42.5558   26.6336 C   0  0  0  0  0  0  0  0  0  0  0  0
    3.3340   43.3120   26.9549 O   0  0  0  0  0  0  0  0  0  0  0  0
    8.8113   40.1834   34.2130 O   0  0  0  0  0  0  0  0  0  0  0  0
   11.2399   40.7932   33.3692 O   0  0  0  0  0  0  0  0  0  0  0  0
   10.9143   40.6896   31.9973 C   0  0  0  0  0  0  0  0  0  0  0  0
   11.5260   39.3884   31.4375 C   0  0  0  0  0  0  0  0  0  0  0  0
   12.7504   39.0887   32.0815 O   0  0  0  0  0  0  0  0  0  0  0  0
   10.6114   38.1909   31.6460 C   0  0  0  0  0  0  0  0  0  0  0  0
   12.9357   37.6812   32.0303 C   0  0  0  0  0  0  0  0  0  0  0  0
    9.6145   38.0858   30.6533 O   0  0  0  0  0  0  0  0  0  0  0  0
   11.5769   37.0148   31.7012 C   0  0  0  0  0  0  0  0  0  0  0  0
   13.4849   37.2112   33.3247 N   0  0  0  0  0  0  0  0  0  0  0  0
   11.6193   36.3260   30.4724 O   0  0  0  0  0  0  0  0  0  0  0  0
   14.4802   36.3313   33.5730 C   0  0  0  0  0  0  0  0  0  0  0  0
   13.1141   37.6268   34.5697 C   0  0  0  0  0  0  0  0  0  0  0  0
   15.2075   35.6151   32.6741 N   0  0  0  0  0  0  0  0  0  0  0  0
   14.6761   36.2301   34.9184 C   0  0  0  0  0  0  0  0  0  0  0  0
   13.8220   37.0445   35.5789 N   0  0  0  0  0  0  0  0  0  0  0  0
   16.1642   34.7600   33.1547 C   0  0  0  0  0  0  0  0  0  0  0  0
   15.6529   35.3503   35.4131 C   0  0  0  0  0  0  0  0  0  0  0  0
   16.3797   34.6314   34.5042 N   0  0  0  0  0  0  0  0  0  0  0  0
   15.9004   35.1930   36.8090 N   0  0  0  0  0  0  0  0  0  0  0  0
    9.0097   45.4349   33.6666 H   0  0  0  0  0  0  0  0  0  0  0  0
   11.9347   45.6933   33.0922 H   0  0  0  0  0  0  0  0  0  0  0  0
   11.1132   46.1991   34.4879 H   0  0  0  0  0  0  0  0  0  0  0  0
    9.3510   43.8346   31.4755 H   0  0  0  0  0  0  0  0  0  0  0  0
   10.7303   44.8930   31.1668 H   0  0  0  0  0  0  0  0  0  0  0  0
    7.0095   44.7167   31.5848 H   0  0  0  0  0  0  0  0  0  0  0  0
   10.3469   47.1927   30.4178 H   0  0  0  0  0  0  0  0  0  0  0  0
    5.4606   46.3110   30.5084 H   0  0  0  0  0  0  0  0  0  0  0  0
    8.7899   48.7770   29.3481 H   0  0  0  0  0  0  0  0  0  0  0  0
    4.9477   49.2106   27.6961 H   0  0  0  0  0  0  0  0  0  0  0  0
    7.6855   48.0089   27.0576 H   0  0  0  0  0  0  0  0  0  0  0  0
    6.4461   48.5142   25.8407 H   0  0  0  0  0  0  0  0  0  0  0  0
    7.1539   49.7185   26.9789 H   0  0  0  0  0  0  0  0  0  0  0  0
    6.8100   45.9373   27.2137 H   0  0  0  0  0  0  0  0  0  0  0  0
    1.8661   45.5581   27.7270 H   0  0  0  0  0  0  0  0  0  0  0  0
    4.4411   42.1631   25.5974 H   0  0  0  0  0  0  0  0  0  0  0  0
    4.6433   41.7280   27.3611 H   0  0  0  0  0  0  0  0  0  0  0  0
    9.8233   40.7192   31.7643 H   0  0  0  0  0  0  0  0  0  0  0  0
   11.3782   41.5526   31.4732 H   0  0  0  0  0  0  0  0  0  0  0  0
   11.7282   39.5312   30.3514 H   0  0  0  0  0  0  0  0  0  0  0  0
   10.1127   38.2733   32.6376 H   0  0  0  0  0  0  0  0  0  0  0  0
   13.6692   37.4565   31.2241 H   0  0  0  0  0  0  0  0  0  0  0  0
   10.0533   38.1119   29.7635 H   0  0  0  0  0  0  0  0  0  0  0  0
   11.2607   36.3148   32.5101 H   0  0  0  0  0  0  0  0  0  0  0  0
   12.1496   35.5022   30.6323 H   0  0  0  0  0  0  0  0  0  0  0  0
   12.3301   38.3524   34.7455 H   0  0  0  0  0  0  0  0  0  0  0  0
   16.7562   34.1781   32.4619 H   0  0  0  0  0  0  0  0  0  0  0  0
   16.6350   34.5299   37.1416 H   0  0  0  0  0  0  0  0  0  0  0  0
   15.3535   35.7357   37.5139 H   0  0  0  0  0  0  0  0  0  0  0  0
  1  2  2  0
  1  3  1  0
  3  4  1  0
  4  5  1  0
  6  1  1  0
  7  6  1  0
  6  8  1  0
  8  9  1  0
  9 10  2  0
 11  9  1  0
 10 12  1  0
 13 11  2  0
 12 14  2  0
 14 13  1  0
 14 15  1  0
 15 16  1  0
 16 17  1  0
 16 18  1  0
 18 19  2  0
 20 18  1  0
 19 21  1  0
 22 20  2  0
 20 23  1  0
 21 24  1  0
 21 25  2  0
 25 22  1  0
 23 26  1  0
 23 27  2  0
 24 28  1  0
 25 29  1  0
 28 29  1  0
  4 30  2  0
  4 31  1  0
 32 31  1  0
 32 33  1  0
 33 34  1  0
 33 35  1  0
 34 36  1  0
 35 37  1  0
 35 38  1  0
 38 36  1  0
 36 39  1  0
 38 40  1  0
 41 39  1  0
 42 39  1  0
 43 41  2  0
 41 44  1  0
 45 42  2  0
 46 43  1  0
 44 47  2  0
 44 45  1  0
 48 46  2  0
 48 47  1  0
 47 49  1  0
  6 50  1  1
  7 51  1  0
  7 52  1  0
  8 53  1  0
  8 54  1  0
 10 55  1  0
 11 56  1  0
 12 57  1  0
 13 58  1  0
 16 59  1  6
 17 60  1  0
 17 61  1  0
 17 62  1  0
 19 63  1  0
 22 64  1  0
 28 65  1  0
 28 66  1  0
 32 67  1  0
 32 68  1  0
 33 69  1  0
 35 70  1  0
 36 71  1  0
 37 72  1  0
 38 73  1  0
 40 74  1  0
 42 75  1  0
 46 76  1  0
 49 77  1  0
 49 78  1  0
M  CHG  3   5  -1  23   1  26  -1
M  END
>  <EmbedRMS>  (177) 
0.0826477049351

$$$$

     RDKit          3D

 78 83  0  0  0  0  0  0  0  0999 V2000
   10.2835   43.7661   33.8256 C   0  0  0  0  0  0  0  0  0  0  0  0
   11.4102   43.5930   34.3753 O   0  0  0  0  0  0  0  0  0  0  0  0
    9.3638   42.7254   33.7349 O   0  0  0  0  0  0  0  0  0  0  0  0
    9.8903   41.2267   34.2942 P   0  0  0  0  0  0  0  0  0  0  0  0
   10.3735   41.4561   35.8837 O   0  0  0  0  0  0  0  0  0  0  0  0
    9.9546   45.0694   33.2034 C   0  0  1  0  0  0  0  0  0  0  0  0
   11.0273   46.0321   33.4756 N   0  0  0  0  0  0  0  0  0  0  0  0
    9.7467   44.8478   31.6875 C   0  0  0  0  0  0  0  0  0  0  0  0
    8.7924   45.8403   31.0839 C   0  0  0  0  0  0  0  0  0  0  0  0
    7.4058   45.6016   31.0993 C   0  0  0  0  0  0  0  0  0  0  0  0
    9.2820   46.9876   30.4427 C   0  0  0  0  0  0  0  0  0  0  0  0
    6.5271   46.5037   30.4850 C   0  0  0  0  0  0  0  0  0  0  0  0
    8.4032   47.8907   29.8326 C   0  0  0  0  0  0  0  0  0  0  0  0
    7.0135   47.6525   29.8454 C   0  0  0  0  0  0  0  0  0  0  0  0
    6.0814   48.5206   29.2526 O   0  0  0  0  0  0  0  0  0  0  0  0
    6.3840   49.6507   28.4333 C   0  0  1  0  0  0  0  0  0  0  0  0
    6.9069   49.2140   27.0578 C   0  0  0  0  0  0  0  0  0  0  0  0
    5.1502   50.5299   28.3007 C   0  0  0  0  0  0  0  0  0  0  0  0
    5.2330   51.8646   28.7713 C   0  0  0  0  0  0  0  0  0  0  0  0
    3.9291   50.0837   27.6866 C   0  0  0  0  0  0  0  0  0  0  0  0
    4.1360   52.6999   28.6068 C   0  0  0  0  0  0  0  0  0  0  0  0
    2.8514   50.9852   27.5341 C   0  0  0  0  0  0  0  0  0  0  0  0
    3.7662   48.7430   27.2038 N   0  0  0  0  0  0  0  0  0  0  0  0
    4.0002   54.0229   28.9814 O   0  0  0  0  0  0  0  0  0  0  0  0
    2.9969   52.2798   28.0118 C   0  0  0  0  0  0  0  0  0  0  0  0
    3.8779   47.6805   28.0688 O   0  0  0  0  0  0  0  0  0  0  0  0
    3.2681   48.5496   26.0757 O   0  0  0  0  0  0  0  0  0  0  0  0
    2.6895   54.4593   28.5963 C   0  0  0  0  0  0  0  0  0  0  0  0
    2.0826   53.3152   27.9805 O   0  0  0  0  0  0  0  0  0  0  0  0
    8.8122   40.1850   34.2131 O   0  0  0  0  0  0  0  0  0  0  0  0
   11.2407   40.7940   33.3694 O   0  0  0  0  0  0  0  0  0  0  0  0
   10.9152   40.6905   31.9974 C   0  0  0  0  0  0  0  0  0  0  0  0
   11.5253   39.3886   31.4375 C   0  0  0  0  0  0  0  0  0  0  0  0
   12.7500   39.0874   32.0799 O   0  0  0  0  0  0  0  0  0  0  0  0
   10.6092   38.1926   31.6470 C   0  0  0  0  0  0  0  0  0  0  0  0
   12.9332   37.6792   32.0294 C   0  0  0  0  0  0  0  0  0  0  0  0
    9.6122   38.0895   30.6542 O   0  0  0  0  0  0  0  0  0  0  0  0
   11.5743   37.0145   31.7024 C   0  0  0  0  0  0  0  0  0  0  0  0
   13.4844   37.2107   33.3241 N   0  0  0  0  0  0  0  0  0  0  0  0
   11.6297   36.3239   30.4740 O   0  0  0  0  0  0  0  0  0  0  0  0
   14.4802   36.3313   33.5727 C   0  0  0  0  0  0  0  0  0  0  0  0
   13.1139   37.6266   34.5692 C   0  0  0  0  0  0  0  0  0  0  0  0
   15.2075   35.6149   32.6739 N   0  0  0  0  0  0  0  0  0  0  0  0
   14.6761   36.2303   34.9182 C   0  0  0  0  0  0  0  0  0  0  0  0
   13.8220   37.0447   35.5785 N   0  0  0  0  0  0  0  0  0  0  0  0
   16.1643   34.7600   33.1547 C   0  0  0  0  0  0  0  0  0  0  0  0
   15.6529   35.3505   35.4130 C   0  0  0  0  0  0  0  0  0  0  0  0
   16.3798   34.6315   34.5042 N   0  0  0  0  0  0  0  0  0  0  0  0
   15.9003   35.1932   36.8090 N   0  0  0  0  0  0  0  0  0  0  0  0
    9.0120   45.4317   33.6712 H   0  0  0  0  0  0  0  0  0  0  0  0
   10.7259   46.9687   33.1213 H   0  0  0  0  0  0  0  0  0  0  0  0
   11.8906   45.7658   32.9469 H   0  0  0  0  0  0  0  0  0  0  0  0
   10.7231   44.8813   31.1556 H   0  0  0  0  0  0  0  0  0  0  0  0
    9.3417   43.8326   31.4762 H   0  0  0  0  0  0  0  0  0  0  0  0
    7.0085   44.7172   31.5820 H   0  0  0  0  0  0  0  0  0  0  0  0
   10.3465   47.1858   30.4144 H   0  0  0  0  0  0  0  0  0  0  0  0
    5.4625   46.3077   30.5044 H   0  0  0  0  0  0  0  0  0  0  0  0
    8.8210   48.7677   29.3610 H   0  0  0  0  0  0  0  0  0  0  0  0
    7.1867   50.2415   28.9253 H   0  0  0  0  0  0  0  0  0  0  0  0
    7.0114   50.0958   26.3901 H   0  0  0  0  0  0  0  0  0  0  0  0
    7.9045   48.7398   27.1559 H   0  0  0  0  0  0  0  0  0  0  0  0
    6.2294   48.4771   26.5824 H   0  0  0  0  0  0  0  0  0  0  0  0
    6.1295   52.2487   29.2416 H   0  0  0  0  0  0  0  0  0  0  0  0
    1.9230   50.6776   27.0700 H   0  0  0  0  0  0  0  0  0  0  0  0
    2.1084   54.7661   29.4912 H   0  0  0  0  0  0  0  0  0  0  0  0
    2.7612   55.2938   27.8676 H   0  0  0  0  0  0  0  0  0  0  0  0
   11.3803   41.5529   31.4734 H   0  0  0  0  0  0  0  0  0  0  0  0
    9.8243   40.7216   31.7643 H   0  0  0  0  0  0  0  0  0  0  0  0
   11.7266   39.5311   30.3513 H   0  0  0  0  0  0  0  0  0  0  0  0
   10.1110   38.2747   32.6387 H   0  0  0  0  0  0  0  0  0  0  0  0
   13.6652   37.4519   31.2226 H   0  0  0  0  0  0  0  0  0  0  0  0
   10.0512   38.1143   29.7645 H   0  0  0  0  0  0  0  0  0  0  0  0
   11.2762   36.3142   32.5190 H   0  0  0  0  0  0  0  0  0  0  0  0
   10.8593   35.6978   30.4640 H   0  0  0  0  0  0  0  0  0  0  0  0
   12.3295   38.3518   34.7449 H   0  0  0  0  0  0  0  0  0  0  0  0
   16.7564   34.1779   32.4620 H   0  0  0  0  0  0  0  0  0  0  0  0
   16.6349   34.5300   37.1416 H   0  0  0  0  0  0  0  0  0  0  0  0
   15.3534   35.7359   37.5138 H   0  0  0  0  0  0  0  0  0  0  0  0
  1  2  2  0
  1  3  1  0
  3  4  1  0
  4  5  1  0
  6  1  1  0
  7  6  1  0
  6  8  1  0
  8  9  1  0
  9 10  2  0
 11  9  1  0
 10 12  1  0
 13 11  2  0
 12 14  2  0
 14 13  1  0
 14 15  1  0
 15 16  1  0
 16 17  1  0
 16 18  1  0
 18 19  2  0
 20 18  1  0
 19 21  1  0
 22 20  2  0
 20 23  1  0
 21 24  1  0
 21 25  2  0
 25 22  1  0
 23 26  1  0
 23 27  2  0
 24 28  1  0
 25 29  1  0
 28 29  1  0
  4 30  2  0
  4 31  1  0
 32 31  1  0
 32 33  1  0
 33 34  1  0
 33 35  1  0
 34 36  1  0
 35 37  1  0
 35 38  1  0
 38 36  1  0
 36 39  1  0
 38 40  1  0
 41 39  1  0
 42 39  1  0
 43 41  2  0
 41 44  1  0
 45 42  2  0
 46 43  1  0
 44 47  2  0
 44 45  1  0
 48 46  2  0
 48 47  1  0
 47 49  1  0
  6 50  1  1
  7 51  1  0
  7 52  1  0
  8 53  1  0
  8 54  1  0
 10 55  1  0
 11 56  1  0
 12 57  1  0
 13 58  1  0
 16 59  1  1
 17 60  1  0
 17 61  1  0
 17 62  1  0
 19 63  1  0
 22 64  1  0
 28 65  1  0
 28 66  1  0
 32 67  1  0
 32 68  1  0
 33 69  1  0
 35 70  1  0
 36 71  1  0
 37 72  1  0
 38 73  1  0
 40 74  1  0
 42 75  1  0
 46 76  1  0
 49 77  1  0
 49 78  1  0
M  CHG  3   5  -1  23   1  26  -1
M  END
>  <EmbedRMS>  (178) 
0.0818221959361

$$$$

     RDKit          3D

 78 83  0  0  0  0  0  0  0  0999 V2000
   10.2839   43.7626   33.8276 C   0  0  0  0  0  0  0  0  0  0  0  0
   11.4103   43.5863   34.3766 O   0  0  0  0  0  0  0  0  0  0  0  0
    9.3631   42.7236   33.7355 O   0  0  0  0  0  0  0  0  0  0  0  0
    9.8895   41.2250   34.2948 P   0  0  0  0  0  0  0  0  0  0  0  0
   10.3720   41.4547   35.8844 O   0  0  0  0  0  0  0  0  0  0  0  0
    9.9549   45.0699   33.2063 C   0  0  1  0  0  0  0  0  0  0  0  0
   11.0198   46.0481   33.4570 N   0  0  0  0  0  0  0  0  0  0  0  0
    9.7506   44.8510   31.6921 C   0  0  0  0  0  0  0  0  0  0  0  0
    8.7944   45.8417   31.0867 C   0  0  0  0  0  0  0  0  0  0  0  0
    7.4076   45.6006   31.1007 C   0  0  0  0  0  0  0  0  0  0  0  0
    9.2826   46.9895   30.4450 C   0  0  0  0  0  0  0  0  0  0  0  0
    6.5257   46.5001   30.4862 C   0  0  0  0  0  0  0  0  0  0  0  0
    8.4008   47.8886   29.8338 C   0  0  0  0  0  0  0  0  0  0  0  0
    7.0196   47.6543   29.8441 C   0  0  0  0  0  0  0  0  0  0  0  0
    6.1829   48.5858   29.2076 O   0  0  0  0  0  0  0  0  0  0  0  0
    4.7684   48.4502   29.0442 C   0  0  1  0  0  0  0  0  0  0  0  0
    4.2075   49.7668   28.5096 C   0  0  0  0  0  0  0  0  0  0  0  0
    4.4491   47.3195   28.0809 C   0  0  0  0  0  0  0  0  0  0  0  0
    5.2087   47.2104   26.8902 C   0  0  0  0  0  0  0  0  0  0  0  0
    3.4479   46.3337   28.3669 C   0  0  0  0  0  0  0  0  0  0  0  0
    4.9803   46.1253   26.0546 C   0  0  0  0  0  0  0  0  0  0  0  0
    3.2710   45.2420   27.4858 C   0  0  0  0  0  0  0  0  0  0  0  0
    2.6013   46.4342   29.5226 N   0  0  0  0  0  0  0  0  0  0  0  0
    5.6049   45.8127   24.8625 O   0  0  0  0  0  0  0  0  0  0  0  0
    4.0563   45.1801   26.3423 C   0  0  0  0  0  0  0  0  0  0  0  0
    1.9641   47.6189   29.8103 O   0  0  0  0  0  0  0  0  0  0  0  0
    2.2624   45.4029   30.1390 O   0  0  0  0  0  0  0  0  0  0  0  0
    5.0341   44.5924   24.3709 C   0  0  0  0  0  0  0  0  0  0  0  0
    4.0492   44.2230   25.3459 O   0  0  0  0  0  0  0  0  0  0  0  0
    8.8117   40.1832   34.2124 O   0  0  0  0  0  0  0  0  0  0  0  0
   11.2411   40.7939   33.3709 O   0  0  0  0  0  0  0  0  0  0  0  0
   10.9179   40.6920   31.9985 C   0  0  0  0  0  0  0  0  0  0  0  0
   11.5175   39.3837   31.4422 C   0  0  0  0  0  0  0  0  0  0  0  0
   12.7508   39.0887   32.0751 O   0  0  0  0  0  0  0  0  0  0  0  0
   10.6028   38.1915   31.6658 C   0  0  0  0  0  0  0  0  0  0  0  0
   12.9384   37.6818   32.0278 C   0  0  0  0  0  0  0  0  0  0  0  0
    9.6371   38.0805   30.6470 O   0  0  0  0  0  0  0  0  0  0  0  0
   11.5780   37.0215   31.6934 C   0  0  0  0  0  0  0  0  0  0  0  0
   13.4844   37.2119   33.3241 N   0  0  0  0  0  0  0  0  0  0  0  0
   11.6095   36.3201   30.4679 O   0  0  0  0  0  0  0  0  0  0  0  0
   14.4797   36.3318   33.5730 C   0  0  0  0  0  0  0  0  0  0  0  0
   13.1135   37.6278   34.5691 C   0  0  0  0  0  0  0  0  0  0  0  0
   15.2073   35.6155   32.6742 N   0  0  0  0  0  0  0  0  0  0  0  0
   14.6754   36.2305   34.9184 C   0  0  0  0  0  0  0  0  0  0  0  0
   13.8213   37.0452   35.5785 N   0  0  0  0  0  0  0  0  0  0  0  0
   16.1640   34.7604   33.1549 C   0  0  0  0  0  0  0  0  0  0  0  0
   15.6524   35.3507   35.4132 C   0  0  0  0  0  0  0  0  0  0  0  0
   16.3794   34.6318   34.5044 N   0  0  0  0  0  0  0  0  0  0  0  0
   15.8999   35.1934   36.8091 N   0  0  0  0  0  0  0  0  0  0  0  0
    9.0098   45.4348   33.6668 H   0  0  0  0  0  0  0  0  0  0  0  0
   11.9349   45.6933   33.0928 H   0  0  0  0  0  0  0  0  0  0  0  0
   11.1132   46.1992   34.4883 H   0  0  0  0  0  0  0  0  0  0  0  0
    9.3518   43.8344   31.4758 H   0  0  0  0  0  0  0  0  0  0  0  0
   10.7309   44.8930   31.1674 H   0  0  0  0  0  0  0  0  0  0  0  0
    7.0124   44.7157   31.5844 H   0  0  0  0  0  0  0  0  0  0  0  0
   10.3466   47.1898   30.4156 H   0  0  0  0  0  0  0  0  0  0  0  0
    5.4674   46.2866   30.5207 H   0  0  0  0  0  0  0  0  0  0  0  0
    8.7938   48.7701   29.3432 H   0  0  0  0  0  0  0  0  0  0  0  0
    4.3207   48.2781   30.0445 H   0  0  0  0  0  0  0  0  0  0  0  0
    4.6804   50.0289   27.5390 H   0  0  0  0  0  0  0  0  0  0  0  0
    4.4129   50.5830   29.2343 H   0  0  0  0  0  0  0  0  0  0  0  0
    3.1086   49.6903   28.3673 H   0  0  0  0  0  0  0  0  0  0  0  0
    5.9701   47.9370   26.6361 H   0  0  0  0  0  0  0  0  0  0  0  0
    2.5271   44.4790   27.6758 H   0  0  0  0  0  0  0  0  0  0  0  0
    5.8141   43.8058   24.2974 H   0  0  0  0  0  0  0  0  0  0  0  0
    4.5524   44.7633   23.3854 H   0  0  0  0  0  0  0  0  0  0  0  0
   11.3955   41.5477   31.4750 H   0  0  0  0  0  0  0  0  0  0  0  0
    9.8292   40.7410   31.7624 H   0  0  0  0  0  0  0  0  0  0  0  0
   11.6981   39.5116   30.3500 H   0  0  0  0  0  0  0  0  0  0  0  0
   10.1117   38.2603   32.6660 H   0  0  0  0  0  0  0  0  0  0  0  0
   13.6767   37.4555   31.2267 H   0  0  0  0  0  0  0  0  0  0  0  0
    8.8961   38.6952   30.8871 H   0  0  0  0  0  0  0  0  0  0  0  0
   11.2791   36.3072   32.4922 H   0  0  0  0  0  0  0  0  0  0  0  0
   11.8828   36.9598   29.7588 H   0  0  0  0  0  0  0  0  0  0  0  0
   12.3300   38.3539   34.7446 H   0  0  0  0  0  0  0  0  0  0  0  0
   16.7561   34.1785   32.4622 H   0  0  0  0  0  0  0  0  0  0  0  0
   15.3531   35.7360   37.5140 H   0  0  0  0  0  0  0  0  0  0  0  0
   16.6347   34.5303   37.1416 H   0  0  0  0  0  0  0  0  0  0  0  0
  1  2  2  0
  1  3  1  0
  3  4  1  0
  4  5  1  0
  6  1  1  0
  7  6  1  0
  6  8  1  0
  8  9  1  0
  9 10  2  0
 11  9  1  0
 10 12  1  0
 13 11  2  0
 12 14  2  0
 14 13  1  0
 14 15  1  0
 15 16  1  0
 16 17  1  0
 16 18  1  0
 18 19  2  0
 20 18  1  0
 19 21  1  0
 22 20  2  0
 20 23  1  0
 21 24  1  0
 21 25  2  0
 25 22  1  0
 23 26  1  0
 23 27  2  0
 24 28  1  0
 25 29  1  0
 28 29  1  0
  4 30  2  0
  4 31  1  0
 32 31  1  0
 32 33  1  0
 33 34  1  0
 33 35  1  0
 34 36  1  0
 35 37  1  0
 35 38  1  0
 38 36  1  0
 36 39  1  0
 38 40  1  0
 41 39  1  0
 42 39  1  0
 43 41  2  0
 41 44  1  0
 45 42  2  0
 46 43  1  0
 44 47  2  0
 44 45  1  0
 48 46  2  0
 48 47  1  0
 47 49  1  0
  6 50  1  1
  7 51  1  0
  7 52  1  0
  8 53  1  0
  8 54  1  0
 10 55  1  0
 11 56  1  0
 12 57  1  0
 13 58  1  0
 16 59  1  1
 17 60  1  0
 17 61  1  0
 17 62  1  0
 19 63  1  0
 22 64  1  0
 28 65  1  0
 28 66  1  0
 32 67  1  0
 32 68  1  0
 33 69  1  0
 35 70  1  0
 36 71  1  0
 37 72  1  0
 38 73  1  0
 40 74  1  0
 42 75  1  0
 46 76  1  0
 49 77  1  0
 49 78  1  0
M  CHG  3   5  -1  23   1  26  -1
M  END
>  <EmbedRMS>  (179) 
0.0828715894305

$$$$

     RDKit          3D

 78 83  0  0  0  0  0  0  0  0999 V2000
   10.2833   43.7661   33.8256 C   0  0  0  0  0  0  0  0  0  0  0  0
   11.4101   43.5929   34.3751 O   0  0  0  0  0  0  0  0  0  0  0  0
    9.3635   42.7255   33.7349 O   0  0  0  0  0  0  0  0  0  0  0  0
    9.8905   41.2266   34.2934 P   0  0  0  0  0  0  0  0  0  0  0  0
   10.3745   41.4558   35.8827 O   0  0  0  0  0  0  0  0  0  0  0  0
    9.9547   45.0695   33.2035 C   0  0  1  0  0  0  0  0  0  0  0  0
   11.0274   46.0320   33.4759 N   0  0  0  0  0  0  0  0  0  0  0  0
    9.7469   44.8481   31.6875 C   0  0  0  0  0  0  0  0  0  0  0  0
    8.7925   45.8406   31.0842 C   0  0  0  0  0  0  0  0  0  0  0  0
    7.4058   45.6016   31.1001 C   0  0  0  0  0  0  0  0  0  0  0  0
    9.2817   46.9880   30.4426 C   0  0  0  0  0  0  0  0  0  0  0  0
    6.5245   46.5021   30.4863 C   0  0  0  0  0  0  0  0  0  0  0  0
    8.4005   47.8882   29.8331 C   0  0  0  0  0  0  0  0  0  0  0  0
    7.0189   47.6550   29.8428 C   0  0  0  0  0  0  0  0  0  0  0  0
    6.1851   48.5882   29.2046 O   0  0  0  0  0  0  0  0  0  0  0  0
    4.7723   48.4634   29.0379 C   0  0  1  0  0  0  0  0  0  0  0  0
    4.1951   49.8022   28.5775 C   0  0  0  0  0  0  0  0  0  0  0  0
    4.4231   47.3543   28.0565 C   0  0  0  0  0  0  0  0  0  0  0  0
    3.5152   46.3525   28.4795 C   0  0  0  0  0  0  0  0  0  0  0  0
    4.9250   47.3161   26.7123 C   0  0  0  0  0  0  0  0  0  0  0  0
    3.1456   45.3642   27.5765 C   0  0  0  0  0  0  0  0  0  0  0  0
    4.5034   46.2939   25.8337 C   0  0  0  0  0  0  0  0  0  0  0  0
    5.8375   48.3039   26.2195 N   0  0  0  0  0  0  0  0  0  0  0  0
    2.2852   44.3009   27.7714 O   0  0  0  0  0  0  0  0  0  0  0  0
    3.6177   45.3368   26.3092 C   0  0  0  0  0  0  0  0  0  0  0  0
    7.1241   48.3442   26.7017 O   0  0  0  0  0  0  0  0  0  0  0  0
    5.5714   48.9124   25.1628 O   0  0  0  0  0  0  0  0  0  0  0  0
    2.2151   43.5583   26.5465 C   0  0  0  0  0  0  0  0  0  0  0  0
    3.0808   44.2542   25.6394 O   0  0  0  0  0  0  0  0  0  0  0  0
    8.8121   40.1850   34.2129 O   0  0  0  0  0  0  0  0  0  0  0  0
   11.2403   40.7947   33.3669 O   0  0  0  0  0  0  0  0  0  0  0  0
   10.9127   40.6861   31.9953 C   0  0  0  0  0  0  0  0  0  0  0  0
   11.5175   39.3788   31.4405 C   0  0  0  0  0  0  0  0  0  0  0  0
   12.7490   39.0864   32.0753 O   0  0  0  0  0  0  0  0  0  0  0  0
   10.6060   38.1869   31.6656 C   0  0  0  0  0  0  0  0  0  0  0  0
   12.9355   37.6796   32.0292 C   0  0  0  0  0  0  0  0  0  0  0  0
    9.6399   38.0903   30.6471 O   0  0  0  0  0  0  0  0  0  0  0  0
   11.5765   37.0146   31.7044 C   0  0  0  0  0  0  0  0  0  0  0  0
   13.4857   37.2125   33.3244 N   0  0  0  0  0  0  0  0  0  0  0  0
   11.6102   36.3397   30.4673 O   0  0  0  0  0  0  0  0  0  0  0  0
   14.4804   36.3318   33.5729 C   0  0  0  0  0  0  0  0  0  0  0  0
   13.1143   37.6277   34.5694 C   0  0  0  0  0  0  0  0  0  0  0  0
   15.2076   35.6154   32.6740 N   0  0  0  0  0  0  0  0  0  0  0  0
   14.6759   36.2303   34.9183 C   0  0  0  0  0  0  0  0  0  0  0  0
   13.8218   37.0449   35.5786 N   0  0  0  0  0  0  0  0  0  0  0  0
   16.1643   34.7602   33.1547 C   0  0  0  0  0  0  0  0  0  0  0  0
   15.6527   35.3504   35.4131 C   0  0  0  0  0  0  0  0  0  0  0  0
   16.3796   34.6315   34.5042 N   0  0  0  0  0  0  0  0  0  0  0  0
   15.9001   35.1932   36.8090 N   0  0  0  0  0  0  0  0  0  0  0  0
    9.0121   45.4318   33.6714 H   0  0  0  0  0  0  0  0  0  0  0  0
   11.8908   45.7657   32.9473 H   0  0  0  0  0  0  0  0  0  0  0  0
   10.7262   46.9687   33.1216 H   0  0  0  0  0  0  0  0  0  0  0  0
   10.7233   44.8820   31.1557 H   0  0  0  0  0  0  0  0  0  0  0  0
    9.3420   43.8329   31.4760 H   0  0  0  0  0  0  0  0  0  0  0  0
    7.0097   44.7177   31.5848 H   0  0  0  0  0  0  0  0  0  0  0  0
   10.3460   47.1865   30.4110 H   0  0  0  0  0  0  0  0  0  0  0  0
    5.4668   46.2911   30.5257 H   0  0  0  0  0  0  0  0  0  0  0  0
    8.7943   48.7691   29.3421 H   0  0  0  0  0  0  0  0  0  0  0  0
    4.3179   48.2604   30.0333 H   0  0  0  0  0  0  0  0  0  0  0  0
    4.6727   50.1466   27.6380 H   0  0  0  0  0  0  0  0  0  0  0  0
    4.3732   50.5724   29.3577 H   0  0  0  0  0  0  0  0  0  0  0  0
    3.0993   49.7129   28.4168 H   0  0  0  0  0  0  0  0  0  0  0  0
    3.0997   46.3476   29.4793 H   0  0  0  0  0  0  0  0  0  0  0  0
    4.8651   46.2454   24.8145 H   0  0  0  0  0  0  0  0  0  0  0  0
    2.5792   42.5215   26.7046 H   0  0  0  0  0  0  0  0  0  0  0  0
    1.1751   43.5559   26.1579 H   0  0  0  0  0  0  0  0  0  0  0  0
    9.8217   40.7205   31.7635 H   0  0  0  0  0  0  0  0  0  0  0  0
   11.3809   41.5438   31.4665 H   0  0  0  0  0  0  0  0  0  0  0  0
   11.7000   39.5043   30.3482 H   0  0  0  0  0  0  0  0  0  0  0  0
   10.1085   38.2769   32.6602 H   0  0  0  0  0  0  0  0  0  0  0  0
   13.6679   37.4520   31.2230 H   0  0  0  0  0  0  0  0  0  0  0  0
    9.0016   37.3868   30.9350 H   0  0  0  0  0  0  0  0  0  0  0  0
   11.2667   36.3062   32.5083 H   0  0  0  0  0  0  0  0  0  0  0  0
   12.1389   35.5126   30.6151 H   0  0  0  0  0  0  0  0  0  0  0  0
   12.3302   38.3531   34.7449 H   0  0  0  0  0  0  0  0  0  0  0  0
   16.7564   34.1783   32.4619 H   0  0  0  0  0  0  0  0  0  0  0  0
   15.3533   35.7360   37.5138 H   0  0  0  0  0  0  0  0  0  0  0  0
   16.6346   34.5298   37.1417 H   0  0  0  0  0  0  0  0  0  0  0  0
  1  2  2  0
  1  3  1  0
  3  4  1  0
  4  5  1  0
  6  1  1  0
  7  6  1  0
  6  8  1  0
  8  9  1  0
  9 10  2  0
 11  9  1  0
 10 12  1  0
 13 11  2  0
 12 14  2  0
 14 13  1  0
 14 15  1  0
 15 16  1  0
 16 17  1  0
 16 18  1  0
 18 19  2  0
 20 18  1  0
 19 21  1  0
 22 20  2  0
 20 23  1  0
 21 24  1  0
 21 25  2  0
 25 22  1  0
 23 26  1  0
 23 27  2  0
 24 28  1  0
 25 29  1  0
 28 29  1  0
  4 30  2  0
  4 31  1  0
 32 31  1  0
 32 33  1  0
 33 34  1  0
 33 35  1  0
 34 36  1  0
 35 37  1  0
 35 38  1  0
 38 36  1  0
 36 39  1  0
 38 40  1  0
 41 39  1  0
 42 39  1  0
 43 41  2  0
 41 44  1  0
 45 42  2  0
 46 43  1  0
 44 47  2  0
 44 45  1  0
 48 46  2  0
 48 47  1  0
 47 49  1  0
  6 50  1  1
  7 51  1  0
  7 52  1  0
  8 53  1  0
  8 54  1  0
 10 55  1  0
 11 56  1  0
 12 57  1  0
 13 58  1  0
 16 59  1  1
 17 60  1  0
 17 61  1  0
 17 62  1  0
 19 63  1  0
 22 64  1  0
 28 65  1  0
 28 66  1  0
 32 67  1  0
 32 68  1  0
 33 69  1  0
 35 70  1  0
 36 71  1  0
 37 72  1  0
 38 73  1  0
 40 74  1  0
 42 75  1  0
 46 76  1  0
 49 77  1  0
 49 78  1  0
M  CHG  3   5  -1  23   1  26  -1
M  END
>  <EmbedRMS>  (180) 
0.0823714065082

$$$$

     RDKit          3D

 78 83  0  0  0  0  0  0  0  0999 V2000
   10.2835   43.7662   33.8256 C   0  0  0  0  0  0  0  0  0  0  0  0
   11.4102   43.5930   34.3752 O   0  0  0  0  0  0  0  0  0  0  0  0
    9.3637   42.7255   33.7350 O   0  0  0  0  0  0  0  0  0  0  0  0
    9.8903   41.2268   34.2946 P   0  0  0  0  0  0  0  0  0  0  0  0
   10.3728   41.4561   35.8842 O   0  0  0  0  0  0  0  0  0  0  0  0
    9.9547   45.0695   33.2035 C   0  0  1  0  0  0  0  0  0  0  0  0
   11.0273   46.0322   33.4758 N   0  0  0  0  0  0  0  0  0  0  0  0
    9.7471   44.8483   31.6875 C   0  0  0  0  0  0  0  0  0  0  0  0
    8.7925   45.8408   31.0843 C   0  0  0  0  0  0  0  0  0  0  0  0
    7.4058   45.6011   31.0996 C   0  0  0  0  0  0  0  0  0  0  0  0
    9.2817   46.9881   30.4423 C   0  0  0  0  0  0  0  0  0  0  0  0
    6.5246   46.5014   30.4855 C   0  0  0  0  0  0  0  0  0  0  0  0
    8.4003   47.8884   29.8326 C   0  0  0  0  0  0  0  0  0  0  0  0
    7.0187   47.6557   29.8449 C   0  0  0  0  0  0  0  0  0  0  0  0
    6.1823   48.5887   29.2104 O   0  0  0  0  0  0  0  0  0  0  0  0
    4.7605   48.4819   29.0914 C   0  0  1  0  0  0  0  0  0  0  0  0
    4.2146   49.7973   28.5410 C   0  0  0  0  0  0  0  0  0  0  0  0
    4.3712   47.3416   28.1650 C   0  0  0  0  0  0  0  0  0  0  0  0
    5.1654   47.0909   27.0183 C   0  0  0  0  0  0  0  0  0  0  0  0
    3.1717   46.5825   28.3633 C   0  0  0  0  0  0  0  0  0  0  0  0
    4.7612   46.0987   26.1347 C   0  0  0  0  0  0  0  0  0  0  0  0
    2.8025   45.5952   27.4227 C   0  0  0  0  0  0  0  0  0  0  0  0
    2.3147   46.8141   29.4892 N   0  0  0  0  0  0  0  0  0  0  0  0
    5.3768   45.6833   24.9696 O   0  0  0  0  0  0  0  0  0  0  0  0
    3.6297   45.3826   26.3281 C   0  0  0  0  0  0  0  0  0  0  0  0
    2.7897   46.6127   30.7640 O   0  0  0  0  0  0  0  0  0  0  0  0
    1.0836   46.9236   29.3155 O   0  0  0  0  0  0  0  0  0  0  0  0
    4.5804   44.6368   24.3974 C   0  0  0  0  0  0  0  0  0  0  0  0
    3.4742   44.4771   25.2962 O   0  0  0  0  0  0  0  0  0  0  0  0
    8.8125   40.1848   34.2125 O   0  0  0  0  0  0  0  0  0  0  0  0
   11.2416   40.7948   33.3707 O   0  0  0  0  0  0  0  0  0  0  0  0
   10.9179   40.6922   31.9984 C   0  0  0  0  0  0  0  0  0  0  0  0
   11.5175   39.3838   31.4423 C   0  0  0  0  0  0  0  0  0  0  0  0
   12.7508   39.0887   32.0752 O   0  0  0  0  0  0  0  0  0  0  0  0
   10.6028   38.1916   31.6658 C   0  0  0  0  0  0  0  0  0  0  0  0
   12.9384   37.6818   32.0278 C   0  0  0  0  0  0  0  0  0  0  0  0
    9.6371   38.0806   30.6470 O   0  0  0  0  0  0  0  0  0  0  0  0
   11.5780   37.0215   31.6935 C   0  0  0  0  0  0  0  0  0  0  0  0
   13.4844   37.2119   33.3242 N   0  0  0  0  0  0  0  0  0  0  0  0
   11.6095   36.3202   30.4679 O   0  0  0  0  0  0  0  0  0  0  0  0
   14.4797   36.3318   33.5730 C   0  0  0  0  0  0  0  0  0  0  0  0
   13.1135   37.6278   34.5691 C   0  0  0  0  0  0  0  0  0  0  0  0
   15.2073   35.6155   32.6742 N   0  0  0  0  0  0  0  0  0  0  0  0
   14.6754   36.2305   34.9184 C   0  0  0  0  0  0  0  0  0  0  0  0
   13.8213   37.0452   35.5785 N   0  0  0  0  0  0  0  0  0  0  0  0
   16.1640   34.7604   33.1549 C   0  0  0  0  0  0  0  0  0  0  0  0
   15.6524   35.3507   35.4132 C   0  0  0  0  0  0  0  0  0  0  0  0
   16.3794   34.6318   34.5044 N   0  0  0  0  0  0  0  0  0  0  0  0
   15.8999   35.1934   36.8091 N   0  0  0  0  0  0  0  0  0  0  0  0
    9.0121   45.4317   33.6712 H   0  0  0  0  0  0  0  0  0  0  0  0
   11.8908   45.7659   32.9475 H   0  0  0  0  0  0  0  0  0  0  0  0
   10.7260   46.9688   33.1214 H   0  0  0  0  0  0  0  0  0  0  0  0
   10.7235   44.8823   31.1556 H   0  0  0  0  0  0  0  0  0  0  0  0
    9.3424   43.8330   31.4758 H   0  0  0  0  0  0  0  0  0  0  0  0
    7.0100   44.7159   31.5822 H   0  0  0  0  0  0  0  0  0  0  0  0
   10.3459   47.1865   30.4105 H   0  0  0  0  0  0  0  0  0  0  0  0
    5.4669   46.2873   30.5154 H   0  0  0  0  0  0  0  0  0  0  0  0
    8.7936   48.7696   29.3418 H   0  0  0  0  0  0  0  0  0  0  0  0
    4.3363   48.3525   30.1060 H   0  0  0  0  0  0  0  0  0  0  0  0
    4.4864   50.6313   29.2223 H   0  0  0  0  0  0  0  0  0  0  0  0
    4.6406   50.0063   27.5362 H   0  0  0  0  0  0  0  0  0  0  0  0
    3.1070   49.7520   28.4643 H   0  0  0  0  0  0  0  0  0  0  0  0
    6.0636   47.6595   26.8140 H   0  0  0  0  0  0  0  0  0  0  0  0
    1.9017   45.0081   27.5485 H   0  0  0  0  0  0  0  0  0  0  0  0
    4.2171   44.9366   23.3922 H   0  0  0  0  0  0  0  0  0  0  0  0
    5.1665   43.6957   24.3403 H   0  0  0  0  0  0  0  0  0  0  0  0
   11.3952   41.5478   31.4744 H   0  0  0  0  0  0  0  0  0  0  0  0
    9.8291   40.7409   31.7626 H   0  0  0  0  0  0  0  0  0  0  0  0
   11.6982   39.5115   30.3500 H   0  0  0  0  0  0  0  0  0  0  0  0
   10.1117   38.2604   32.6660 H   0  0  0  0  0  0  0  0  0  0  0  0
   13.6767   37.4556   31.2267 H   0  0  0  0  0  0  0  0  0  0  0  0
    8.8961   38.6952   30.8871 H   0  0  0  0  0  0  0  0  0  0  0  0
   11.2791   36.3072   32.4922 H   0  0  0  0  0  0  0  0  0  0  0  0
   11.8828   36.9598   29.7588 H   0  0  0  0  0  0  0  0  0  0  0  0
   12.3300   38.3539   34.7446 H   0  0  0  0  0  0  0  0  0  0  0  0
   16.7561   34.1785   32.4622 H   0  0  0  0  0  0  0  0  0  0  0  0
   15.3531   35.7360   37.5140 H   0  0  0  0  0  0  0  0  0  0  0  0
   16.6347   34.5303   37.1416 H   0  0  0  0  0  0  0  0  0  0  0  0
  1  2  2  0
  1  3  1  0
  3  4  1  0
  4  5  1  0
  6  1  1  0
  7  6  1  0
  6  8  1  0
  8  9  1  0
  9 10  2  0
 11  9  1  0
 10 12  1  0
 13 11  2  0
 12 14  2  0
 14 13  1  0
 14 15  1  0
 15 16  1  0
 16 17  1  0
 16 18  1  0
 18 19  2  0
 20 18  1  0
 19 21  1  0
 22 20  2  0
 20 23  1  0
 21 24  1  0
 21 25  2  0
 25 22  1  0
 23 26  1  0
 23 27  2  0
 24 28  1  0
 25 29  1  0
 28 29  1  0
  4 30  2  0
  4 31  1  0
 32 31  1  0
 32 33  1  0
 33 34  1  0
 33 35  1  0
 34 36  1  0
 35 37  1  0
 35 38  1  0
 38 36  1  0
 36 39  1  0
 38 40  1  0
 41 39  1  0
 42 39  1  0
 43 41  2  0
 41 44  1  0
 45 42  2  0
 46 43  1  0
 44 47  2  0
 44 45  1  0
 48 46  2  0
 48 47  1  0
 47 49  1  0
  6 50  1  1
  7 51  1  0
  7 52  1  0
  8 53  1  0
  8 54  1  0
 10 55  1  0
 11 56  1  0
 12 57  1  0
 13 58  1  0
 16 59  1  1
 17 60  1  0
 17 61  1  0
 17 62  1  0
 19 63  1  0
 22 64  1  0
 28 65  1  0
 28 66  1  0
 32 67  1  0
 32 68  1  0
 33 69  1  0
 35 70  1  0
 36 71  1  0
 37 72  1  0
 38 73  1  0
 40 74  1  0
 42 75  1  0
 46 76  1  0
 49 77  1  0
 49 78  1  0
M  CHG  3   5  -1  23   1  26  -1
M  END
>  <EmbedRMS>  (181) 
0.0819709400874

$$$$

     RDKit          3D

 78 83  0  0  0  0  0  0  0  0999 V2000
   10.2834   43.7662   33.8256 C   0  0  0  0  0  0  0  0  0  0  0  0
   11.4102   43.5930   34.3752 O   0  0  0  0  0  0  0  0  0  0  0  0
    9.3636   42.7256   33.7349 O   0  0  0  0  0  0  0  0  0  0  0  0
    9.8902   41.2268   34.2942 P   0  0  0  0  0  0  0  0  0  0  0  0
   10.3736   41.4561   35.8836 O   0  0  0  0  0  0  0  0  0  0  0  0
    9.9547   45.0696   33.2035 C   0  0  1  0  0  0  0  0  0  0  0  0
   11.0272   46.0323   33.4760 N   0  0  0  0  0  0  0  0  0  0  0  0
    9.7474   44.8483   31.6875 C   0  0  0  0  0  0  0  0  0  0  0  0
    8.7930   45.8406   31.0840 C   0  0  0  0  0  0  0  0  0  0  0  0
    7.4068   45.6012   31.0990 C   0  0  0  0  0  0  0  0  0  0  0  0
    9.2816   46.9873   30.4420 C   0  0  0  0  0  0  0  0  0  0  0  0
    6.5251   46.5009   30.4848 C   0  0  0  0  0  0  0  0  0  0  0  0
    8.3999   47.8874   29.8333 C   0  0  0  0  0  0  0  0  0  0  0  0
    7.0173   47.6579   29.8455 C   0  0  0  0  0  0  0  0  0  0  0  0
    6.1915   48.6114   29.2216 O   0  0  0  0  0  0  0  0  0  0  0  0
    4.7640   48.5813   29.0880 C   0  0  1  0  0  0  0  0  0  0  0  0
    4.3535   47.5079   28.0674 C   0  0  0  0  0  0  0  0  0  0  0  0
    4.0700   48.5294   30.4504 C   0  0  0  0  0  0  0  0  0  0  0  0
    3.0420   47.5818   30.7099 C   0  0  0  0  0  0  0  0  0  0  0  0
    4.4664   49.4235   31.5043 C   0  0  0  0  0  0  0  0  0  0  0  0
    2.4901   47.5274   31.9825 C   0  0  0  0  0  0  0  0  0  0  0  0
    3.8757   49.3082   32.7837 C   0  0  0  0  0  0  0  0  0  0  0  0
    5.4646   50.4379   31.2989 N   0  0  0  0  0  0  0  0  0  0  0  0
    1.5021   46.6839   32.4533 O   0  0  0  0  0  0  0  0  0  0  0  0
    2.8922   48.3499   32.9762 C   0  0  0  0  0  0  0  0  0  0  0  0
    5.4272   51.2372   30.1802 O   0  0  0  0  0  0  0  0  0  0  0  0
    6.2586   50.7272   32.2178 O   0  0  0  0  0  0  0  0  0  0  0  0
    1.2709   46.9997   33.8328 C   0  0  0  0  0  0  0  0  0  0  0  0
    2.1794   48.0696   34.1261 O   0  0  0  0  0  0  0  0  0  0  0  0
    8.8121   40.1851   34.2131 O   0  0  0  0  0  0  0  0  0  0  0  0
   11.2404   40.7941   33.3690 O   0  0  0  0  0  0  0  0  0  0  0  0
   10.9143   40.6898   31.9972 C   0  0  0  0  0  0  0  0  0  0  0  0
   11.5261   39.3885   31.4376 C   0  0  0  0  0  0  0  0  0  0  0  0
   12.7504   39.0888   32.0816 O   0  0  0  0  0  0  0  0  0  0  0  0
   10.6115   38.1910   31.6460 C   0  0  0  0  0  0  0  0  0  0  0  0
   12.9357   37.6812   32.0303 C   0  0  0  0  0  0  0  0  0  0  0  0
    9.6145   38.0858   30.6534 O   0  0  0  0  0  0  0  0  0  0  0  0
   11.5769   37.0148   31.7012 C   0  0  0  0  0  0  0  0  0  0  0  0
   13.4849   37.2112   33.3247 N   0  0  0  0  0  0  0  0  0  0  0  0
   11.6193   36.3261   30.4724 O   0  0  0  0  0  0  0  0  0  0  0  0
   14.4802   36.3313   33.5730 C   0  0  0  0  0  0  0  0  0  0  0  0
   13.1141   37.6268   34.5698 C   0  0  0  0  0  0  0  0  0  0  0  0
   15.2074   35.6151   32.6741 N   0  0  0  0  0  0  0  0  0  0  0  0
   14.6761   36.2300   34.9184 C   0  0  0  0  0  0  0  0  0  0  0  0
   13.8220   37.0445   35.5789 N   0  0  0  0  0  0  0  0  0  0  0  0
   16.1642   34.7600   33.1547 C   0  0  0  0  0  0  0  0  0  0  0  0
   15.6529   35.3503   35.4132 C   0  0  0  0  0  0  0  0  0  0  0  0
   16.3797   34.6314   34.5042 N   0  0  0  0  0  0  0  0  0  0  0  0
   15.9004   35.1930   36.8090 N   0  0  0  0  0  0  0  0  0  0  0  0
    9.0119   45.4317   33.6710 H   0  0  0  0  0  0  0  0  0  0  0  0
   10.7258   46.9689   33.1215 H   0  0  0  0  0  0  0  0  0  0  0  0
   11.8907   45.7661   32.9477 H   0  0  0  0  0  0  0  0  0  0  0  0
   10.7240   44.8824   31.1559 H   0  0  0  0  0  0  0  0  0  0  0  0
    9.3430   43.8330   31.4756 H   0  0  0  0  0  0  0  0  0  0  0  0
    7.0112   44.7165   31.5828 H   0  0  0  0  0  0  0  0  0  0  0  0
   10.3458   47.1864   30.4106 H   0  0  0  0  0  0  0  0  0  0  0  0
    5.4718   46.2794   30.5241 H   0  0  0  0  0  0  0  0  0  0  0  0
    8.7940   48.7708   29.3469 H   0  0  0  0  0  0  0  0  0  0  0  0
    4.4648   49.5444   28.6241 H   0  0  0  0  0  0  0  0  0  0  0  0
    4.5381   46.4834   28.4470 H   0  0  0  0  0  0  0  0  0  0  0  0
    3.2792   47.6153   27.8061 H   0  0  0  0  0  0  0  0  0  0  0  0
    4.9420   47.6405   27.1348 H   0  0  0  0  0  0  0  0  0  0  0  0
    2.6853   46.8876   29.9633 H   0  0  0  0  0  0  0  0  0  0  0  0
    4.1619   49.9615   33.5979 H   0  0  0  0  0  0  0  0  0  0  0  0
    1.4962   46.1198   34.4712 H   0  0  0  0  0  0  0  0  0  0  0  0
    0.2230   47.3356   33.9796 H   0  0  0  0  0  0  0  0  0  0  0  0
   11.3778   41.5526   31.4726 H   0  0  0  0  0  0  0  0  0  0  0  0
    9.8232   40.7190   31.7647 H   0  0  0  0  0  0  0  0  0  0  0  0
   11.7283   39.5312   30.3515 H   0  0  0  0  0  0  0  0  0  0  0  0
   10.1127   38.2734   32.6376 H   0  0  0  0  0  0  0  0  0  0  0  0
   13.6692   37.4566   31.2242 H   0  0  0  0  0  0  0  0  0  0  0  0
   10.0533   38.1120   29.7636 H   0  0  0  0  0  0  0  0  0  0  0  0
   11.2607   36.3148   32.5102 H   0  0  0  0  0  0  0  0  0  0  0  0
   12.1495   35.5023   30.6324 H   0  0  0  0  0  0  0  0  0  0  0  0
   12.3301   38.3524   34.7455 H   0  0  0  0  0  0  0  0  0  0  0  0
   16.7562   34.1781   32.4619 H   0  0  0  0  0  0  0  0  0  0  0  0
   15.3536   35.7357   37.5139 H   0  0  0  0  0  0  0  0  0  0  0  0
   16.6351   34.5298   37.1416 H   0  0  0  0  0  0  0  0  0  0  0  0
  1  2  2  0
  1  3  1  0
  3  4  1  0
  4  5  1  0
  6  1  1  0
  7  6  1  0
  6  8  1  0
  8  9  1  0
  9 10  2  0
 11  9  1  0
 10 12  1  0
 13 11  2  0
 12 14  2  0
 14 13  1  0
 14 15  1  0
 15 16  1  0
 16 17  1  0
 16 18  1  0
 18 19  2  0
 20 18  1  0
 19 21  1  0
 22 20  2  0
 20 23  1  0
 21 24  1  0
 21 25  2  0
 25 22  1  0
 23 26  1  0
 23 27  2  0
 24 28  1  0
 25 29  1  0
 28 29  1  0
  4 30  2  0
  4 31  1  0
 32 31  1  0
 32 33  1  0
 33 34  1  0
 33 35  1  0
 34 36  1  0
 35 37  1  0
 35 38  1  0
 38 36  1  0
 36 39  1  0
 38 40  1  0
 41 39  1  0
 42 39  1  0
 43 41  2  0
 41 44  1  0
 45 42  2  0
 46 43  1  0
 44 47  2  0
 44 45  1  0
 48 46  2  0
 48 47  1  0
 47 49  1  0
  6 50  1  1
  7 51  1  0
  7 52  1  0
  8 53  1  0
  8 54  1  0
 10 55  1  0
 11 56  1  0
 12 57  1  0
 13 58  1  0
 16 59  1  6
 17 60  1  0
 17 61  1  0
 17 62  1  0
 19 63  1  0
 22 64  1  0
 28 65  1  0
 28 66  1  0
 32 67  1  0
 32 68  1  0
 33 69  1  0
 35 70  1  0
 36 71  1  0
 37 72  1  0
 38 73  1  0
 40 74  1  0
 42 75  1  0
 46 76  1  0
 49 77  1  0
 49 78  1  0
M  CHG  3   5  -1  23   1  26  -1
M  END
>  <EmbedRMS>  (182) 
0.0816116937966

$$$$

     RDKit          3D

 78 83  0  0  0  0  0  0  0  0999 V2000
   10.2838   43.7627   33.8277 C   0  0  0  0  0  0  0  0  0  0  0  0
   11.4103   43.5863   34.3767 O   0  0  0  0  0  0  0  0  0  0  0  0
    9.3630   42.7236   33.7354 O   0  0  0  0  0  0  0  0  0  0  0  0
    9.8897   41.2248   34.2935 P   0  0  0  0  0  0  0  0  0  0  0  0
   10.3735   41.4542   35.8829 O   0  0  0  0  0  0  0  0  0  0  0  0
    9.9547   45.0700   33.2066 C   0  0  1  0  0  0  0  0  0  0  0  0
   11.0198   46.0481   33.4569 N   0  0  0  0  0  0  0  0  0  0  0  0
    9.7500   44.8509   31.6926 C   0  0  0  0  0  0  0  0  0  0  0  0
    8.7941   45.8420   31.0874 C   0  0  0  0  0  0  0  0  0  0  0  0
    7.4075   45.6007   31.0994 C   0  0  0  0  0  0  0  0  0  0  0  0
    9.2831   46.9886   30.4443 C   0  0  0  0  0  0  0  0  0  0  0  0
    6.5284   46.5013   30.4829 C   0  0  0  0  0  0  0  0  0  0  0  0
    8.4037   47.8890   29.8313 C   0  0  0  0  0  0  0  0  0  0  0  0
    7.0144   47.6537   29.8499 C   0  0  0  0  0  0  0  0  0  0  0  0
    6.0861   48.5252   29.2570 O   0  0  0  0  0  0  0  0  0  0  0  0
    6.3845   49.8065   28.7013 C   0  0  1  0  0  0  0  0  0  0  0  0
    5.1777   50.3144   27.9113 C   0  0  0  0  0  0  0  0  0  0  0  0
    6.7918   50.8016   29.7800 C   0  0  0  0  0  0  0  0  0  0  0  0
    8.0412   51.4547   29.6377 C   0  0  0  0  0  0  0  0  0  0  0  0
    5.9477   51.1486   30.8913 C   0  0  0  0  0  0  0  0  0  0  0  0
    8.4084   52.4059   30.5801 C   0  0  0  0  0  0  0  0  0  0  0  0
    6.3688   52.1369   31.8085 C   0  0  0  0  0  0  0  0  0  0  0  0
    4.6627   50.5450   31.0924 N   0  0  0  0  0  0  0  0  0  0  0  0
    9.5682   53.1546   30.6376 O   0  0  0  0  0  0  0  0  0  0  0  0
    7.6071   52.7335   31.6186 C   0  0  0  0  0  0  0  0  0  0  0  0
    3.5866   51.3399   31.4125 O   0  0  0  0  0  0  0  0  0  0  0  0
    4.5679   49.3125   31.2573 O   0  0  0  0  0  0  0  0  0  0  0  0
    9.4884   54.0057   31.7891 C   0  0  0  0  0  0  0  0  0  0  0  0
    8.2198   53.7051   32.3865 O   0  0  0  0  0  0  0  0  0  0  0  0
    8.8114   40.1834   34.2127 O   0  0  0  0  0  0  0  0  0  0  0  0
   11.2398   40.7938   33.3671 O   0  0  0  0  0  0  0  0  0  0  0  0
   10.9125   40.6857   31.9955 C   0  0  0  0  0  0  0  0  0  0  0  0
   11.5175   39.3786   31.4405 C   0  0  0  0  0  0  0  0  0  0  0  0
   12.7490   39.0863   32.0751 O   0  0  0  0  0  0  0  0  0  0  0  0
   10.6061   38.1867   31.6656 C   0  0  0  0  0  0  0  0  0  0  0  0
   12.9356   37.6795   32.0292 C   0  0  0  0  0  0  0  0  0  0  0  0
    9.6399   38.0902   30.6471 O   0  0  0  0  0  0  0  0  0  0  0  0
   11.5765   37.0145   31.7044 C   0  0  0  0  0  0  0  0  0  0  0  0
   13.4858   37.2124   33.3243 N   0  0  0  0  0  0  0  0  0  0  0  0
   11.6101   36.3396   30.4673 O   0  0  0  0  0  0  0  0  0  0  0  0
   14.4805   36.3319   33.5729 C   0  0  0  0  0  0  0  0  0  0  0  0
   13.1143   37.6276   34.5694 C   0  0  0  0  0  0  0  0  0  0  0  0
   15.2076   35.6153   32.6741 N   0  0  0  0  0  0  0  0  0  0  0  0
   14.6760   36.2304   34.9184 C   0  0  0  0  0  0  0  0  0  0  0  0
   13.8219   37.0449   35.5786 N   0  0  0  0  0  0  0  0  0  0  0  0
   16.1641   34.7600   33.1548 C   0  0  0  0  0  0  0  0  0  0  0  0
   15.6528   35.3505   35.4132 C   0  0  0  0  0  0  0  0  0  0  0  0
   16.3795   34.6314   34.5043 N   0  0  0  0  0  0  0  0  0  0  0  0
   15.9002   35.1931   36.8091 N   0  0  0  0  0  0  0  0  0  0  0  0
    9.0098   45.4350   33.6673 H   0  0  0  0  0  0  0  0  0  0  0  0
   11.1135   46.1993   34.4882 H   0  0  0  0  0  0  0  0  0  0  0  0
   11.9347   45.6933   33.0924 H   0  0  0  0  0  0  0  0  0  0  0  0
   10.7303   44.8924   31.1677 H   0  0  0  0  0  0  0  0  0  0  0  0
    9.3507   43.8344   31.4764 H   0  0  0  0  0  0  0  0  0  0  0  0
    7.0108   44.7154   31.5810 H   0  0  0  0  0  0  0  0  0  0  0  0
   10.3477   47.1859   30.4129 H   0  0  0  0  0  0  0  0  0  0  0  0
    5.4639   46.3047   30.5013 H   0  0  0  0  0  0  0  0  0  0  0  0
    8.8191   48.7547   29.3387 H   0  0  0  0  0  0  0  0  0  0  0  0
    7.2027   49.6823   27.9574 H   0  0  0  0  0  0  0  0  0  0  0  0
    5.3874   51.3240   27.4975 H   0  0  0  0  0  0  0  0  0  0  0  0
    4.2693   50.3636   28.5450 H   0  0  0  0  0  0  0  0  0  0  0  0
    4.9703   49.6252   27.0653 H   0  0  0  0  0  0  0  0  0  0  0  0
    8.7054   51.2380   28.8107 H   0  0  0  0  0  0  0  0  0  0  0  0
    5.7511   52.4211   32.6508 H   0  0  0  0  0  0  0  0  0  0  0  0
   10.3106   53.7715   32.4975 H   0  0  0  0  0  0  0  0  0  0  0  0
    9.5244   55.0719   31.4819 H   0  0  0  0  0  0  0  0  0  0  0  0
    9.8215   40.7200   31.7634 H   0  0  0  0  0  0  0  0  0  0  0  0
   11.3806   41.5436   31.4670 H   0  0  0  0  0  0  0  0  0  0  0  0
   11.6998   39.5042   30.3481 H   0  0  0  0  0  0  0  0  0  0  0  0
   10.1085   38.2766   32.6603 H   0  0  0  0  0  0  0  0  0  0  0  0
   13.6680   37.4519   31.2229 H   0  0  0  0  0  0  0  0  0  0  0  0
    9.0016   37.3867   30.9349 H   0  0  0  0  0  0  0  0  0  0  0  0
   11.2667   36.3061   32.5083 H   0  0  0  0  0  0  0  0  0  0  0  0
   12.1389   35.5126   30.6149 H   0  0  0  0  0  0  0  0  0  0  0  0
   12.3300   38.3529   34.7449 H   0  0  0  0  0  0  0  0  0  0  0  0
   16.7560   34.1779   32.4621 H   0  0  0  0  0  0  0  0  0  0  0  0
   15.3535   35.7359   37.5140 H   0  0  0  0  0  0  0  0  0  0  0  0
   16.6348   34.5298   37.1416 H   0  0  0  0  0  0  0  0  0  0  0  0
  1  2  2  0
  1  3  1  0
  3  4  1  0
  4  5  1  0
  6  1  1  0
  7  6  1  0
  6  8  1  0
  8  9  1  0
  9 10  2  0
 11  9  1  0
 10 12  1  0
 13 11  2  0
 12 14  2  0
 14 13  1  0
 14 15  1  0
 15 16  1  0
 16 17  1  0
 16 18  1  0
 18 19  2  0
 20 18  1  0
 19 21  1  0
 22 20  2  0
 20 23  1  0
 21 24  1  0
 21 25  2  0
 25 22  1  0
 23 26  1  0
 23 27  2  0
 24 28  1  0
 25 29  1  0
 28 29  1  0
  4 30  2  0
  4 31  1  0
 32 31  1  0
 32 33  1  0
 33 34  1  0
 33 35  1  0
 34 36  1  0
 35 37  1  0
 35 38  1  0
 38 36  1  0
 36 39  1  0
 38 40  1  0
 41 39  1  0
 42 39  1  0
 43 41  2  0
 41 44  1  0
 45 42  2  0
 46 43  1  0
 44 47  2  0
 44 45  1  0
 48 46  2  0
 48 47  1  0
 47 49  1  0
  6 50  1  1
  7 51  1  0
  7 52  1  0
  8 53  1  0
  8 54  1  0
 10 55  1  0
 11 56  1  0
 12 57  1  0
 13 58  1  0
 16 59  1  6
 17 60  1  0
 17 61  1  0
 17 62  1  0
 19 63  1  0
 22 64  1  0
 28 65  1  0
 28 66  1  0
 32 67  1  0
 32 68  1  0
 33 69  1  0
 35 70  1  0
 36 71  1  0
 37 72  1  0
 38 73  1  0
 40 74  1  0
 42 75  1  0
 46 76  1  0
 49 77  1  0
 49 78  1  0
M  CHG  3   5  -1  23   1  26  -1
M  END
>  <EmbedRMS>  (183) 
0.083283798278

$$$$

     RDKit          3D

 78 83  0  0  0  0  0  0  0  0999 V2000
   10.2834   43.7662   33.8257 C   0  0  0  0  0  0  0  0  0  0  0  0
   11.4102   43.5931   34.3753 O   0  0  0  0  0  0  0  0  0  0  0  0
    9.3638   42.7255   33.7349 O   0  0  0  0  0  0  0  0  0  0  0  0
    9.8907   41.2266   34.2933 P   0  0  0  0  0  0  0  0  0  0  0  0
   10.3743   41.4557   35.8828 O   0  0  0  0  0  0  0  0  0  0  0  0
    9.9546   45.0696   33.2036 C   0  0  1  0  0  0  0  0  0  0  0  0
   11.0272   46.0323   33.4756 N   0  0  0  0  0  0  0  0  0  0  0  0
    9.7465   44.8481   31.6878 C   0  0  0  0  0  0  0  0  0  0  0  0
    8.7923   45.8408   31.0845 C   0  0  0  0  0  0  0  0  0  0  0  0
    7.4055   45.6012   31.0984 C   0  0  0  0  0  0  0  0  0  0  0  0
    9.2824   46.9874   30.4420 C   0  0  0  0  0  0  0  0  0  0  0  0
    6.5267   46.5028   30.4831 C   0  0  0  0  0  0  0  0  0  0  0  0
    8.4035   47.8893   29.8309 C   0  0  0  0  0  0  0  0  0  0  0  0
    7.0138   47.6541   29.8494 C   0  0  0  0  0  0  0  0  0  0  0  0
    6.0879   48.5293   29.2581 O   0  0  0  0  0  0  0  0  0  0  0  0
    6.4071   49.7888   28.6600 C   0  0  1  0  0  0  0  0  0  0  0  0
    5.1662   50.3224   27.9465 C   0  0  0  0  0  0  0  0  0  0  0  0
    6.8660   50.7806   29.7160 C   0  0  0  0  0  0  0  0  0  0  0  0
    6.1546   50.8428   30.9395 C   0  0  0  0  0  0  0  0  0  0  0  0
    8.0230   51.6097   29.5347 C   0  0  0  0  0  0  0  0  0  0  0  0
    6.6288   51.6794   31.9409 C   0  0  0  0  0  0  0  0  0  0  0  0
    8.4676   52.4291   30.5966 C   0  0  0  0  0  0  0  0  0  0  0  0
    8.7429   51.6442   28.2927 N   0  0  0  0  0  0  0  0  0  0  0  0
    6.1101   51.8861   33.2046 O   0  0  0  0  0  0  0  0  0  0  0  0
    7.7394   52.4346   31.7789 C   0  0  0  0  0  0  0  0  0  0  0  0
   10.1094   51.8039   28.2995 O   0  0  0  0  0  0  0  0  0  0  0  0
    8.1283   51.7671   27.2134 O   0  0  0  0  0  0  0  0  0  0  0  0
    6.9502   52.8336   33.8779 C   0  0  0  0  0  0  0  0  0  0  0  0
    7.9779   53.1580   32.9316 O   0  0  0  0  0  0  0  0  0  0  0  0
    8.8123   40.1851   34.2127 O   0  0  0  0  0  0  0  0  0  0  0  0
   11.2407   40.7945   33.3670 O   0  0  0  0  0  0  0  0  0  0  0  0
   10.9134   40.6866   31.9954 C   0  0  0  0  0  0  0  0  0  0  0  0
   11.5167   39.3787   31.4404 C   0  0  0  0  0  0  0  0  0  0  0  0
   12.7486   39.0849   32.0735 O   0  0  0  0  0  0  0  0  0  0  0  0
   10.6039   38.1884   31.6669 C   0  0  0  0  0  0  0  0  0  0  0  0
   12.9329   37.6776   32.0284 C   0  0  0  0  0  0  0  0  0  0  0  0
    9.6374   38.0938   30.6484 O   0  0  0  0  0  0  0  0  0  0  0  0
   11.5737   37.0141   31.7055 C   0  0  0  0  0  0  0  0  0  0  0  0
   13.4853   37.2120   33.3238 N   0  0  0  0  0  0  0  0  0  0  0  0
   11.6210   36.3379   30.4683 O   0  0  0  0  0  0  0  0  0  0  0  0
   14.4804   36.3319   33.5726 C   0  0  0  0  0  0  0  0  0  0  0  0
   13.1141   37.6275   34.5689 C   0  0  0  0  0  0  0  0  0  0  0  0
   15.2076   35.6152   32.6740 N   0  0  0  0  0  0  0  0  0  0  0  0
   14.6761   36.2306   34.9181 C   0  0  0  0  0  0  0  0  0  0  0  0
   13.8218   37.0451   35.5783 N   0  0  0  0  0  0  0  0  0  0  0  0
   16.1642   34.7600   33.1548 C   0  0  0  0  0  0  0  0  0  0  0  0
   15.6528   35.3506   35.4131 C   0  0  0  0  0  0  0  0  0  0  0  0
   16.3795   34.6315   34.5043 N   0  0  0  0  0  0  0  0  0  0  0  0
   15.9001   35.1933   36.8090 N   0  0  0  0  0  0  0  0  0  0  0  0
    9.0120   45.4318   33.6715 H   0  0  0  0  0  0  0  0  0  0  0  0
   10.7257   46.9689   33.1214 H   0  0  0  0  0  0  0  0  0  0  0  0
   11.8904   45.7661   32.9468 H   0  0  0  0  0  0  0  0  0  0  0  0
   10.7229   44.8814   31.1558 H   0  0  0  0  0  0  0  0  0  0  0  0
    9.3413   43.8329   31.4764 H   0  0  0  0  0  0  0  0  0  0  0  0
    7.0083   44.7164   31.5804 H   0  0  0  0  0  0  0  0  0  0  0  0
   10.3471   47.1838   30.4101 H   0  0  0  0  0  0  0  0  0  0  0  0
    5.4620   46.3075   30.5025 H   0  0  0  0  0  0  0  0  0  0  0  0
    8.8182   48.7598   29.3437 H   0  0  0  0  0  0  0  0  0  0  0  0
    7.1868   49.6157   27.8901 H   0  0  0  0  0  0  0  0  0  0  0  0
    4.8531   49.6087   27.1552 H   0  0  0  0  0  0  0  0  0  0  0  0
    4.3260   50.4472   28.6627 H   0  0  0  0  0  0  0  0  0  0  0  0
    5.3849   51.3021   27.4709 H   0  0  0  0  0  0  0  0  0  0  0  0
    5.2728   50.2389   31.1129 H   0  0  0  0  0  0  0  0  0  0  0  0
    9.3402   53.0612   30.4938 H   0  0  0  0  0  0  0  0  0  0  0  0
    6.3700   53.7430   34.1402 H   0  0  0  0  0  0  0  0  0  0  0  0
    7.3959   52.3749   34.7853 H   0  0  0  0  0  0  0  0  0  0  0  0
   11.3827   41.5438   31.4669 H   0  0  0  0  0  0  0  0  0  0  0  0
    9.8225   40.7225   31.7631 H   0  0  0  0  0  0  0  0  0  0  0  0
   11.6979   39.5037   30.3478 H   0  0  0  0  0  0  0  0  0  0  0  0
   10.1084   38.2787   32.6627 H   0  0  0  0  0  0  0  0  0  0  0  0
   13.6638   37.4472   31.2214 H   0  0  0  0  0  0  0  0  0  0  0  0
    8.9763   37.4191   30.9532 H   0  0  0  0  0  0  0  0  0  0  0  0
   11.2821   36.3054   32.5171 H   0  0  0  0  0  0  0  0  0  0  0  0
   10.8658   35.6935   30.4652 H   0  0  0  0  0  0  0  0  0  0  0  0
   12.3293   38.3523   34.7445 H   0  0  0  0  0  0  0  0  0  0  0  0
   16.7561   34.1778   32.4621 H   0  0  0  0  0  0  0  0  0  0  0  0
   16.6345   34.5300   37.1416 H   0  0  0  0  0  0  0  0  0  0  0  0
   15.3533   35.7361   37.5138 H   0  0  0  0  0  0  0  0  0  0  0  0
  1  2  2  0
  1  3  1  0
  3  4  1  0
  4  5  1  0
  6  1  1  0
  7  6  1  0
  6  8  1  0
  8  9  1  0
  9 10  2  0
 11  9  1  0
 10 12  1  0
 13 11  2  0
 12 14  2  0
 14 13  1  0
 14 15  1  0
 15 16  1  0
 16 17  1  0
 16 18  1  0
 18 19  2  0
 20 18  1  0
 19 21  1  0
 22 20  2  0
 20 23  1  0
 21 24  1  0
 21 25  2  0
 25 22  1  0
 23 26  1  0
 23 27  2  0
 24 28  1  0
 25 29  1  0
 28 29  1  0
  4 30  2  0
  4 31  1  0
 32 31  1  0
 32 33  1  0
 33 34  1  0
 33 35  1  0
 34 36  1  0
 35 37  1  0
 35 38  1  0
 38 36  1  0
 36 39  1  0
 38 40  1  0
 41 39  1  0
 42 39  1  0
 43 41  2  0
 41 44  1  0
 45 42  2  0
 46 43  1  0
 44 47  2  0
 44 45  1  0
 48 46  2  0
 48 47  1  0
 47 49  1  0
  6 50  1  1
  7 51  1  0
  7 52  1  0
  8 53  1  0
  8 54  1  0
 10 55  1  0
 11 56  1  0
 12 57  1  0
 13 58  1  0
 16 59  1  6
 17 60  1  0
 17 61  1  0
 17 62  1  0
 19 63  1  0
 22 64  1  0
 28 65  1  0
 28 66  1  0
 32 67  1  0
 32 68  1  0
 33 69  1  0
 35 70  1  0
 36 71  1  0
 37 72  1  0
 38 73  1  0
 40 74  1  0
 42 75  1  0
 46 76  1  0
 49 77  1  0
 49 78  1  0
M  CHG  3   5  -1  23   1  26  -1
M  END
>  <EmbedRMS>  (184) 
0.0825613466848

$$$$

     RDKit          3D

 78 83  0  0  0  0  0  0  0  0999 V2000
   10.2803   43.7665   33.8251 C   0  0  0  0  0  0  0  0  0  0  0  0
   11.4111   43.5918   34.3667 O   0  0  0  0  0  0  0  0  0  0  0  0
    9.3616   42.7251   33.7349 O   0  0  0  0  0  0  0  0  0  0  0  0
    9.8899   41.2268   34.2940 P   0  0  0  0  0  0  0  0  0  0  0  0
   10.3739   41.4565   35.8831 O   0  0  0  0  0  0  0  0  0  0  0  0
    9.9459   45.0735   33.2112 C   0  0  1  0  0  0  0  0  0  0  0  0
   11.0267   46.0291   33.4706 N   0  0  0  0  0  0  0  0  0  0  0  0
    9.7537   44.8536   31.6950 C   0  0  0  0  0  0  0  0  0  0  0  0
    8.7955   45.8406   31.0849 C   0  0  0  0  0  0  0  0  0  0  0  0
    7.4095   45.6005   31.1010 C   0  0  0  0  0  0  0  0  0  0  0  0
    9.2819   46.9870   30.4403 C   0  0  0  0  0  0  0  0  0  0  0  0
    6.5300   46.5015   30.4855 C   0  0  0  0  0  0  0  0  0  0  0  0
    8.4014   47.8886   29.8310 C   0  0  0  0  0  0  0  0  0  0  0  0
    7.0125   47.6528   29.8462 C   0  0  0  0  0  0  0  0  0  0  0  0
    6.0678   48.5065   29.2473 O   0  0  0  0  0  0  0  0  0  0  0  0
    6.2953   49.7224   28.5236 C   0  0  1  0  0  0  0  0  0  0  0  0
    6.7269   50.8454   29.4796 C   0  0  0  0  0  0  0  0  0  0  0  0
    7.1710   49.5091   27.2884 C   0  0  0  0  0  0  0  0  0  0  0  0
    8.4374   50.1448   27.1684 C   0  0  0  0  0  0  0  0  0  0  0  0
    6.6846   48.7321   26.1826 C   0  0  0  0  0  0  0  0  0  0  0  0
    9.1692   49.9622   26.0027 C   0  0  0  0  0  0  0  0  0  0  0  0
    7.4696   48.5947   25.0159 C   0  0  0  0  0  0  0  0  0  0  0  0
    5.3831   48.1276   26.2034 N   0  0  0  0  0  0  0  0  0  0  0  0
   10.4143   50.4691   25.6833 O   0  0  0  0  0  0  0  0  0  0  0  0
    8.7068   49.2194   24.9729 C   0  0  0  0  0  0  0  0  0  0  0  0
    5.0654   47.2034   27.1699 O   0  0  0  0  0  0  0  0  0  0  0  0
    4.6339   48.2409   25.2114 O   0  0  0  0  0  0  0  0  0  0  0  0
   10.7540   50.0116   24.3673 C   0  0  0  0  0  0  0  0  0  0  0  0
    9.6354   49.2174   23.9499 O   0  0  0  0  0  0  0  0  0  0  0  0
    8.8123   40.1845   34.2134 O   0  0  0  0  0  0  0  0  0  0  0  0
   11.2400   40.7954   33.3680 O   0  0  0  0  0  0  0  0  0  0  0  0
   10.9124   40.6877   31.9967 C   0  0  0  0  0  0  0  0  0  0  0  0
   11.5169   39.3811   31.4420 C   0  0  0  0  0  0  0  0  0  0  0  0
   12.7500   39.0881   32.0760 O   0  0  0  0  0  0  0  0  0  0  0  0
   10.6042   38.1893   31.6659 C   0  0  0  0  0  0  0  0  0  0  0  0
   12.9395   37.6814   32.0280 C   0  0  0  0  0  0  0  0  0  0  0  0
    9.6353   38.0951   30.6499 O   0  0  0  0  0  0  0  0  0  0  0  0
   11.5804   37.0191   31.6934 C   0  0  0  0  0  0  0  0  0  0  0  0
   13.4851   37.2119   33.3244 N   0  0  0  0  0  0  0  0  0  0  0  0
   11.6118   36.3189   30.4673 O   0  0  0  0  0  0  0  0  0  0  0  0
   14.4801   36.3317   33.5732 C   0  0  0  0  0  0  0  0  0  0  0  0
   13.1139   37.6277   34.5692 C   0  0  0  0  0  0  0  0  0  0  0  0
   15.2076   35.6154   32.6744 N   0  0  0  0  0  0  0  0  0  0  0  0
   14.6756   36.2303   34.9186 C   0  0  0  0  0  0  0  0  0  0  0  0
   13.8215   37.0451   35.5786 N   0  0  0  0  0  0  0  0  0  0  0  0
   16.1642   34.7602   33.1551 C   0  0  0  0  0  0  0  0  0  0  0  0
   15.6526   35.3505   35.4134 C   0  0  0  0  0  0  0  0  0  0  0  0
   16.3795   34.6316   34.5045 N   0  0  0  0  0  0  0  0  0  0  0  0
   15.9000   35.1933   36.8093 N   0  0  0  0  0  0  0  0  0  0  0  0
    8.9996   45.4382   33.6722 H   0  0  0  0  0  0  0  0  0  0  0  0
   10.7765   46.9367   33.0155 H   0  0  0  0  0  0  0  0  0  0  0  0
   11.0504   46.2278   34.4979 H   0  0  0  0  0  0  0  0  0  0  0  0
   10.7408   44.9069   31.1835 H   0  0  0  0  0  0  0  0  0  0  0  0
    9.3639   43.8349   31.4716 H   0  0  0  0  0  0  0  0  0  0  0  0
    7.0134   44.7162   31.5848 H   0  0  0  0  0  0  0  0  0  0  0  0
   10.3461   47.1860   30.4075 H   0  0  0  0  0  0  0  0  0  0  0  0
    5.4660   46.3022   30.5041 H   0  0  0  0  0  0  0  0  0  0  0  0
    8.8225   48.7554   29.3566 H   0  0  0  0  0  0  0  0  0  0  0  0
    5.3049   50.0497   28.1389 H   0  0  0  0  0  0  0  0  0  0  0  0
    6.8267   51.8035   28.9261 H   0  0  0  0  0  0  0  0  0  0  0  0
    7.6827   50.6159   29.9896 H   0  0  0  0  0  0  0  0  0  0  0  0
    5.9506   50.9812   30.2622 H   0  0  0  0  0  0  0  0  0  0  0  0
    8.8552   50.7624   27.9502 H   0  0  0  0  0  0  0  0  0  0  0  0
    7.1221   48.0158   24.1697 H   0  0  0  0  0  0  0  0  0  0  0  0
   10.8874   50.8755   23.6829 H   0  0  0  0  0  0  0  0  0  0  0  0
   11.6734   49.3903   24.4021 H   0  0  0  0  0  0  0  0  0  0  0  0
    9.8214   40.7221   31.7645 H   0  0  0  0  0  0  0  0  0  0  0  0
   11.3806   41.5456   31.4682 H   0  0  0  0  0  0  0  0  0  0  0  0
   11.6986   39.5088   30.3499 H   0  0  0  0  0  0  0  0  0  0  0  0
   10.1109   38.2737   32.6630 H   0  0  0  0  0  0  0  0  0  0  0  0
   13.6783   37.4562   31.2271 H   0  0  0  0  0  0  0  0  0  0  0  0
    9.0020   37.3860   30.9348 H   0  0  0  0  0  0  0  0  0  0  0  0
   11.2808   36.3052   32.4921 H   0  0  0  0  0  0  0  0  0  0  0  0
   11.8818   36.9600   29.7584 H   0  0  0  0  0  0  0  0  0  0  0  0
   12.3303   38.3538   34.7446 H   0  0  0  0  0  0  0  0  0  0  0  0
   16.7563   34.1783   32.4624 H   0  0  0  0  0  0  0  0  0  0  0  0
   15.3532   35.7359   37.5142 H   0  0  0  0  0  0  0  0  0  0  0  0
   16.6347   34.5302   37.1418 H   0  0  0  0  0  0  0  0  0  0  0  0
  1  2  2  0
  1  3  1  0
  3  4  1  0
  4  5  1  0
  6  1  1  0
  7  6  1  0
  6  8  1  0
  8  9  1  0
  9 10  2  0
 11  9  1  0
 10 12  1  0
 13 11  2  0
 12 14  2  0
 14 13  1  0
 14 15  1  0
 15 16  1  0
 16 17  1  0
 16 18  1  0
 18 19  2  0
 20 18  1  0
 19 21  1  0
 22 20  2  0
 20 23  1  0
 21 24  1  0
 21 25  2  0
 25 22  1  0
 23 26  1  0
 23 27  2  0
 24 28  1  0
 25 29  1  0
 28 29  1  0
  4 30  2  0
  4 31  1  0
 32 31  1  0
 32 33  1  0
 33 34  1  0
 33 35  1  0
 34 36  1  0
 35 37  1  0
 35 38  1  0
 38 36  1  0
 36 39  1  0
 38 40  1  0
 41 39  1  0
 42 39  1  0
 43 41  2  0
 41 44  1  0
 45 42  2  0
 46 43  1  0
 44 47  2  0
 44 45  1  0
 48 46  2  0
 48 47  1  0
 47 49  1  0
  6 50  1  1
  7 51  1  0
  7 52  1  0
  8 53  1  0
  8 54  1  0
 10 55  1  0
 11 56  1  0
 12 57  1  0
 13 58  1  0
 16 59  1  6
 17 60  1  0
 17 61  1  0
 17 62  1  0
 19 63  1  0
 22 64  1  0
 28 65  1  0
 28 66  1  0
 32 67  1  0
 32 68  1  0
 33 69  1  0
 35 70  1  0
 36 71  1  0
 37 72  1  0
 38 73  1  0
 40 74  1  0
 42 75  1  0
 46 76  1  0
 49 77  1  0
 49 78  1  0
M  CHG  3   5  -1  23   1  26  -1
M  END
>  <EmbedRMS>  (185) 
0.0813794782386

$$$$

     RDKit          3D

 78 83  0  0  0  0  0  0  0  0999 V2000
   10.2836   43.7661   33.8257 C   0  0  0  0  0  0  0  0  0  0  0  0
   11.4103   43.5929   34.3753 O   0  0  0  0  0  0  0  0  0  0  0  0
    9.3638   42.7255   33.7350 O   0  0  0  0  0  0  0  0  0  0  0  0
    9.8903   41.2267   34.2943 P   0  0  0  0  0  0  0  0  0  0  0  0
   10.3735   41.4560   35.8837 O   0  0  0  0  0  0  0  0  0  0  0  0
    9.9548   45.0694   33.2039 C   0  0  1  0  0  0  0  0  0  0  0  0
   11.0275   46.0321   33.4757 N   0  0  0  0  0  0  0  0  0  0  0  0
    9.7464   44.8482   31.6881 C   0  0  0  0  0  0  0  0  0  0  0  0
    8.7922   45.8415   31.0858 C   0  0  0  0  0  0  0  0  0  0  0  0
    7.4059   45.6014   31.0986 C   0  0  0  0  0  0  0  0  0  0  0  0
    9.2820   46.9868   30.4416 C   0  0  0  0  0  0  0  0  0  0  0  0
    6.5277   46.5022   30.4817 C   0  0  0  0  0  0  0  0  0  0  0  0
    8.4031   47.8883   29.8301 C   0  0  0  0  0  0  0  0  0  0  0  0
    7.0128   47.6560   29.8500 C   0  0  0  0  0  0  0  0  0  0  0  0
    6.0767   48.5198   29.2477 O   0  0  0  0  0  0  0  0  0  0  0  0
    6.2881   49.8711   28.8048 C   0  0  1  0  0  0  0  0  0  0  0  0
    6.8994   50.7217   29.9373 C   0  0  0  0  0  0  0  0  0  0  0  0
    7.0621   49.9626   27.4866 C   0  0  0  0  0  0  0  0  0  0  0  0
    7.4955   48.7797   26.8292 C   0  0  0  0  0  0  0  0  0  0  0  0
    7.3551   51.2319   26.8763 C   0  0  0  0  0  0  0  0  0  0  0  0
    8.2637   48.8962   25.6788 C   0  0  0  0  0  0  0  0  0  0  0  0
    8.1579   51.2875   25.7152 C   0  0  0  0  0  0  0  0  0  0  0  0
    6.8220   52.4609   27.3902 N   0  0  0  0  0  0  0  0  0  0  0  0
    8.8055   47.8890   24.9035 O   0  0  0  0  0  0  0  0  0  0  0  0
    8.5899   50.0966   25.1514 C   0  0  0  0  0  0  0  0  0  0  0  0
    7.5926   53.6004   27.3696 O   0  0  0  0  0  0  0  0  0  0  0  0
    5.5993   52.5649   27.6178 O   0  0  0  0  0  0  0  0  0  0  0  0
    9.5207   48.5000   23.8211 C   0  0  0  0  0  0  0  0  0  0  0  0
    9.3563   49.9110   24.0169 O   0  0  0  0  0  0  0  0  0  0  0  0
    8.8122   40.1850   34.2130 O   0  0  0  0  0  0  0  0  0  0  0  0
   11.2407   40.7939   33.3694 O   0  0  0  0  0  0  0  0  0  0  0  0
   10.9152   40.6905   31.9974 C   0  0  0  0  0  0  0  0  0  0  0  0
   11.5253   39.3886   31.4375 C   0  0  0  0  0  0  0  0  0  0  0  0
   12.7500   39.0874   32.0799 O   0  0  0  0  0  0  0  0  0  0  0  0
   10.6092   38.1926   31.6469 C   0  0  0  0  0  0  0  0  0  0  0  0
   12.9332   37.6793   32.0294 C   0  0  0  0  0  0  0  0  0  0  0  0
    9.6122   38.0895   30.6542 O   0  0  0  0  0  0  0  0  0  0  0  0
   11.5743   37.0145   31.7024 C   0  0  0  0  0  0  0  0  0  0  0  0
   13.4844   37.2108   33.3241 N   0  0  0  0  0  0  0  0  0  0  0  0
   11.6297   36.3239   30.4740 O   0  0  0  0  0  0  0  0  0  0  0  0
   14.4802   36.3313   33.5727 C   0  0  0  0  0  0  0  0  0  0  0  0
   13.1138   37.6266   34.5692 C   0  0  0  0  0  0  0  0  0  0  0  0
   15.2075   35.6149   32.6739 N   0  0  0  0  0  0  0  0  0  0  0  0
   14.6761   36.2303   34.9181 C   0  0  0  0  0  0  0  0  0  0  0  0
   13.8220   37.0447   35.5785 N   0  0  0  0  0  0  0  0  0  0  0  0
   16.1643   34.7600   33.1547 C   0  0  0  0  0  0  0  0  0  0  0  0
   15.6529   35.3505   35.4130 C   0  0  0  0  0  0  0  0  0  0  0  0
   16.3798   34.6315   34.5042 N   0  0  0  0  0  0  0  0  0  0  0  0
   15.9002   35.1932   36.8090 N   0  0  0  0  0  0  0  0  0  0  0  0
    9.0123   45.4317   33.6720 H   0  0  0  0  0  0  0  0  0  0  0  0
   10.7262   46.9686   33.1211 H   0  0  0  0  0  0  0  0  0  0  0  0
   11.8908   45.7656   32.9471 H   0  0  0  0  0  0  0  0  0  0  0  0
   10.7227   44.8815   31.1559 H   0  0  0  0  0  0  0  0  0  0  0  0
    9.3410   43.8332   31.4766 H   0  0  0  0  0  0  0  0  0  0  0  0
    7.0086   44.7160   31.5794 H   0  0  0  0  0  0  0  0  0  0  0  0
   10.3472   47.1790   30.4024 H   0  0  0  0  0  0  0  0  0  0  0  0
    5.4634   46.3041   30.4979 H   0  0  0  0  0  0  0  0  0  0  0  0
    8.8230   48.7389   29.3168 H   0  0  0  0  0  0  0  0  0  0  0  0
    5.2741   50.2764   28.6063 H   0  0  0  0  0  0  0  0  0  0  0  0
    8.0062   50.7525   29.8800 H   0  0  0  0  0  0  0  0  0  0  0  0
    6.6020   50.3156   30.9274 H   0  0  0  0  0  0  0  0  0  0  0  0
    6.5279   51.7651   29.8938 H   0  0  0  0  0  0  0  0  0  0  0  0
    7.2542   47.7914   27.1914 H   0  0  0  0  0  0  0  0  0  0  0  0
    8.4037   52.2308   25.2446 H   0  0  0  0  0  0  0  0  0  0  0  0
   10.5962   48.2290   23.8699 H   0  0  0  0  0  0  0  0  0  0  0  0
    9.0807   48.1941   22.8488 H   0  0  0  0  0  0  0  0  0  0  0  0
    9.8243   40.7216   31.7643 H   0  0  0  0  0  0  0  0  0  0  0  0
   11.3802   41.5529   31.4734 H   0  0  0  0  0  0  0  0  0  0  0  0
   11.7266   39.5311   30.3513 H   0  0  0  0  0  0  0  0  0  0  0  0
   10.1110   38.2747   32.6387 H   0  0  0  0  0  0  0  0  0  0  0  0
   13.6652   37.4519   31.2226 H   0  0  0  0  0  0  0  0  0  0  0  0
   10.0511   38.1143   29.7645 H   0  0  0  0  0  0  0  0  0  0  0  0
   11.2762   36.3141   32.5189 H   0  0  0  0  0  0  0  0  0  0  0  0
   10.8593   35.6978   30.4640 H   0  0  0  0  0  0  0  0  0  0  0  0
   12.3295   38.3518   34.7449 H   0  0  0  0  0  0  0  0  0  0  0  0
   16.7564   34.1780   32.4620 H   0  0  0  0  0  0  0  0  0  0  0  0
   15.3534   35.7359   37.5138 H   0  0  0  0  0  0  0  0  0  0  0  0
   16.6348   34.5300   37.1416 H   0  0  0  0  0  0  0  0  0  0  0  0
  1  2  2  0
  1  3  1  0
  3  4  1  0
  4  5  1  0
  6  1  1  0
  7  6  1  0
  6  8  1  0
  8  9  1  0
  9 10  2  0
 11  9  1  0
 10 12  1  0
 13 11  2  0
 12 14  2  0
 14 13  1  0
 14 15  1  0
 15 16  1  0
 16 17  1  0
 16 18  1  0
 18 19  2  0
 20 18  1  0
 19 21  1  0
 22 20  2  0
 20 23  1  0
 21 24  1  0
 21 25  2  0
 25 22  1  0
 23 26  1  0
 23 27  2  0
 24 28  1  0
 25 29  1  0
 28 29  1  0
  4 30  2  0
  4 31  1  0
 32 31  1  0
 32 33  1  0
 33 34  1  0
 33 35  1  0
 34 36  1  0
 35 37  1  0
 35 38  1  0
 38 36  1  0
 36 39  1  0
 38 40  1  0
 41 39  1  0
 42 39  1  0
 43 41  2  0
 41 44  1  0
 45 42  2  0
 46 43  1  0
 44 47  2  0
 44 45  1  0
 48 46  2  0
 48 47  1  0
 47 49  1  0
  6 50  1  1
  7 51  1  0
  7 52  1  0
  8 53  1  0
  8 54  1  0
 10 55  1  0
 11 56  1  0
 12 57  1  0
 13 58  1  0
 16 59  1  6
 17 60  1  0
 17 61  1  0
 17 62  1  0
 19 63  1  0
 22 64  1  0
 28 65  1  0
 28 66  1  0
 32 67  1  0
 32 68  1  0
 33 69  1  0
 35 70  1  0
 36 71  1  0
 37 72  1  0
 38 73  1  0
 40 74  1  0
 42 75  1  0
 46 76  1  0
 49 77  1  0
 49 78  1  0
M  CHG  3   5  -1  23   1  26  -1
M  END
>  <EmbedRMS>  (186) 
0.0817978949224

$$$$

     RDKit          3D

 78 83  0  0  0  0  0  0  0  0999 V2000
   10.2838   43.7627   33.8277 C   0  0  0  0  0  0  0  0  0  0  0  0
   11.4103   43.5863   34.3766 O   0  0  0  0  0  0  0  0  0  0  0  0
    9.3628   42.7238   33.7357 O   0  0  0  0  0  0  0  0  0  0  0  0
    9.8891   41.2251   34.2949 P   0  0  0  0  0  0  0  0  0  0  0  0
   10.3724   41.4548   35.8843 O   0  0  0  0  0  0  0  0  0  0  0  0
    9.9548   45.0700   33.2063 C   0  0  1  0  0  0  0  0  0  0  0  0
   11.0198   46.0480   33.4567 N   0  0  0  0  0  0  0  0  0  0  0  0
    9.7502   44.8506   31.6923 C   0  0  0  0  0  0  0  0  0  0  0  0
    8.7943   45.8414   31.0866 C   0  0  0  0  0  0  0  0  0  0  0  0
    7.4077   45.6011   31.1004 C   0  0  0  0  0  0  0  0  0  0  0  0
    9.2829   46.9890   30.4452 C   0  0  0  0  0  0  0  0  0  0  0  0
    6.5284   46.5024   30.4853 C   0  0  0  0  0  0  0  0  0  0  0  0
    8.4036   47.8907   29.8334 C   0  0  0  0  0  0  0  0  0  0  0  0
    7.0141   47.6512   29.8453 C   0  0  0  0  0  0  0  0  0  0  0  0
    6.0816   48.5179   29.2511 O   0  0  0  0  0  0  0  0  0  0  0  0
    6.3835   49.6458   28.4280 C   0  0  1  0  0  0  0  0  0  0  0  0
    6.9098   49.2071   27.0542 C   0  0  0  0  0  0  0  0  0  0  0  0
    5.1492   50.5245   28.2911 C   0  0  0  0  0  0  0  0  0  0  0  0
    5.2330   51.8593   28.7620 C   0  0  0  0  0  0  0  0  0  0  0  0
    3.9280   50.0812   27.6714 C   0  0  0  0  0  0  0  0  0  0  0  0
    4.1398   52.6980   28.5910 C   0  0  0  0  0  0  0  0  0  0  0  0
    2.8559   50.9876   27.5113 C   0  0  0  0  0  0  0  0  0  0  0  0
    3.7572   48.7424   27.1841 N   0  0  0  0  0  0  0  0  0  0  0  0
    4.0066   54.0217   28.9641 O   0  0  0  0  0  0  0  0  0  0  0  0
    3.0032   52.2818   27.9894 C   0  0  0  0  0  0  0  0  0  0  0  0
    3.1289   48.5357   25.9778 O   0  0  0  0  0  0  0  0  0  0  0  0
    3.9325   47.7687   27.9436 O   0  0  0  0  0  0  0  0  0  0  0  0
    2.6999   54.4627   28.5708 C   0  0  0  0  0  0  0  0  0  0  0  0
    2.0928   53.3204   27.9519 O   0  0  0  0  0  0  0  0  0  0  0  0
    8.8113   40.1834   34.2131 O   0  0  0  0  0  0  0  0  0  0  0  0
   11.2398   40.7937   33.3702 O   0  0  0  0  0  0  0  0  0  0  0  0
   10.9144   40.6911   31.9983 C   0  0  0  0  0  0  0  0  0  0  0  0
   11.5270   39.3911   31.4385 C   0  0  0  0  0  0  0  0  0  0  0  0
   12.7520   39.0911   32.0835 O   0  0  0  0  0  0  0  0  0  0  0  0
   10.6114   38.1931   31.6451 C   0  0  0  0  0  0  0  0  0  0  0  0
   12.9413   37.6837   32.0297 C   0  0  0  0  0  0  0  0  0  0  0  0
    9.6064   38.0878   30.6599 O   0  0  0  0  0  0  0  0  0  0  0  0
   11.5822   37.0197   31.6876 C   0  0  0  0  0  0  0  0  0  0  0  0
   13.4840   37.2105   33.3254 N   0  0  0  0  0  0  0  0  0  0  0  0
   11.6179   36.3071   30.4690 O   0  0  0  0  0  0  0  0  0  0  0  0
   14.4797   36.3310   33.5738 C   0  0  0  0  0  0  0  0  0  0  0  0
   13.1136   37.6269   34.5702 C   0  0  0  0  0  0  0  0  0  0  0  0
   15.2074   35.6152   32.6747 N   0  0  0  0  0  0  0  0  0  0  0  0
   14.6756   36.2298   34.9190 C   0  0  0  0  0  0  0  0  0  0  0  0
   13.8217   37.0445   35.5793 N   0  0  0  0  0  0  0  0  0  0  0  0
   16.1643   34.7602   33.1552 C   0  0  0  0  0  0  0  0  0  0  0  0
   15.6528   35.3503   35.4136 C   0  0  0  0  0  0  0  0  0  0  0  0
   16.3798   34.6316   34.5046 N   0  0  0  0  0  0  0  0  0  0  0  0
   15.9003   35.1930   36.8095 N   0  0  0  0  0  0  0  0  0  0  0  0
    9.0098   45.4350   33.6669 H   0  0  0  0  0  0  0  0  0  0  0  0
   11.1134   46.1994   34.4880 H   0  0  0  0  0  0  0  0  0  0  0  0
   11.9348   45.6931   33.0923 H   0  0  0  0  0  0  0  0  0  0  0  0
    9.3510   43.8341   31.4763 H   0  0  0  0  0  0  0  0  0  0  0  0
   10.7305   44.8920   31.1674 H   0  0  0  0  0  0  0  0  0  0  0  0
    7.0109   44.7164   31.5829 H   0  0  0  0  0  0  0  0  0  0  0  0
   10.3472   47.1890   30.4191 H   0  0  0  0  0  0  0  0  0  0  0  0
    5.4640   46.3053   30.5038 H   0  0  0  0  0  0  0  0  0  0  0  0
    8.8208   48.7680   29.3618 H   0  0  0  0  0  0  0  0  0  0  0  0
    7.1854   50.2382   28.9194 H   0  0  0  0  0  0  0  0  0  0  0  0
    7.0246   50.0897   26.3893 H   0  0  0  0  0  0  0  0  0  0  0  0
    7.9031   48.7250   27.1563 H   0  0  0  0  0  0  0  0  0  0  0  0
    6.2293   48.4773   26.5727 H   0  0  0  0  0  0  0  0  0  0  0  0
    6.1280   52.2413   29.2366 H   0  0  0  0  0  0  0  0  0  0  0  0
    1.9286   50.6844   27.0424 H   0  0  0  0  0  0  0  0  0  0  0  0
    2.1144   54.7720   29.4620 H   0  0  0  0  0  0  0  0  0  0  0  0
    2.7791   55.2965   27.8421 H   0  0  0  0  0  0  0  0  0  0  0  0
    9.8234   40.7201   31.7652 H   0  0  0  0  0  0  0  0  0  0  0  0
   11.3780   41.5547   31.4751 H   0  0  0  0  0  0  0  0  0  0  0  0
   11.7311   39.5363   30.3531 H   0  0  0  0  0  0  0  0  0  0  0  0
   10.1203   38.2695   32.6409 H   0  0  0  0  0  0  0  0  0  0  0  0
   13.6850   37.4638   31.2321 H   0  0  0  0  0  0  0  0  0  0  0  0
   10.0251   38.1792   29.7654 H   0  0  0  0  0  0  0  0  0  0  0  0
   11.2757   36.3135   32.4907 H   0  0  0  0  0  0  0  0  0  0  0  0
   11.9838   36.9110   29.7708 H   0  0  0  0  0  0  0  0  0  0  0  0
   12.3307   38.3536   34.7457 H   0  0  0  0  0  0  0  0  0  0  0  0
   16.7566   34.1787   32.4623 H   0  0  0  0  0  0  0  0  0  0  0  0
   15.3534   35.7356   37.5144 H   0  0  0  0  0  0  0  0  0  0  0  0
   16.6353   34.5301   37.1419 H   0  0  0  0  0  0  0  0  0  0  0  0
  1  2  2  0
  1  3  1  0
  3  4  1  0
  4  5  1  0
  6  1  1  0
  7  6  1  0
  6  8  1  0
  8  9  1  0
  9 10  2  0
 11  9  1  0
 10 12  1  0
 13 11  2  0
 12 14  2  0
 14 13  1  0
 14 15  1  0
 15 16  1  0
 16 17  1  0
 16 18  1  0
 18 19  2  0
 20 18  1  0
 19 21  1  0
 22 20  2  0
 20 23  1  0
 21 24  1  0
 21 25  2  0
 25 22  1  0
 23 26  1  0
 23 27  2  0
 24 28  1  0
 25 29  1  0
 28 29  1  0
  4 30  2  0
  4 31  1  0
 32 31  1  0
 32 33  1  0
 33 34  1  0
 33 35  1  0
 34 36  1  0
 35 37  1  0
 35 38  1  0
 38 36  1  0
 36 39  1  0
 38 40  1  0
 41 39  1  0
 42 39  1  0
 43 41  2  0
 41 44  1  0
 45 42  2  0
 46 43  1  0
 44 47  2  0
 44 45  1  0
 48 46  2  0
 48 47  1  0
 47 49  1  0
  6 50  1  1
  7 51  1  0
  7 52  1  0
  8 53  1  0
  8 54  1  0
 10 55  1  0
 11 56  1  0
 12 57  1  0
 13 58  1  0
 16 59  1  1
 17 60  1  0
 17 61  1  0
 17 62  1  0
 19 63  1  0
 22 64  1  0
 28 65  1  0
 28 66  1  0
 32 67  1  0
 32 68  1  0
 33 69  1  0
 35 70  1  0
 36 71  1  0
 37 72  1  0
 38 73  1  0
 40 74  1  0
 42 75  1  0
 46 76  1  0
 49 77  1  0
 49 78  1  0
M  CHG  3   5  -1  23   1  26  -1
M  END
>  <EmbedRMS>  (187) 
0.0817464549813

$$$$

     RDKit          3D

 78 83  0  0  0  0  0  0  0  0999 V2000
   10.2839   43.7627   33.8278 C   0  0  0  0  0  0  0  0  0  0  0  0
   11.4104   43.5864   34.3767 O   0  0  0  0  0  0  0  0  0  0  0  0
    9.3631   42.7236   33.7356 O   0  0  0  0  0  0  0  0  0  0  0  0
    9.8895   41.2250   34.2948 P   0  0  0  0  0  0  0  0  0  0  0  0
   10.3720   41.4546   35.8844 O   0  0  0  0  0  0  0  0  0  0  0  0
    9.9548   45.0700   33.2066 C   0  0  1  0  0  0  0  0  0  0  0  0
   11.0198   46.0481   33.4569 N   0  0  0  0  0  0  0  0  0  0  0  0
    9.7500   44.8508   31.6926 C   0  0  0  0  0  0  0  0  0  0  0  0
    8.7941   45.8419   31.0874 C   0  0  0  0  0  0  0  0  0  0  0  0
    7.4075   45.6007   31.0994 C   0  0  0  0  0  0  0  0  0  0  0  0
    9.2831   46.9886   30.4444 C   0  0  0  0  0  0  0  0  0  0  0  0
    6.5284   46.5013   30.4830 C   0  0  0  0  0  0  0  0  0  0  0  0
    8.4037   47.8891   29.8315 C   0  0  0  0  0  0  0  0  0  0  0  0
    7.0143   47.6535   29.8496 C   0  0  0  0  0  0  0  0  0  0  0  0
    6.0859   48.5252   29.2566 O   0  0  0  0  0  0  0  0  0  0  0  0
    6.3911   49.7911   28.6704 C   0  0  1  0  0  0  0  0  0  0  0  0
    5.1833   50.2886   27.8758 C   0  0  0  0  0  0  0  0  0  0  0  0
    6.8062   50.8063   29.7256 C   0  0  0  0  0  0  0  0  0  0  0  0
    8.0463   51.4704   29.5580 C   0  0  0  0  0  0  0  0  0  0  0  0
    5.9745   51.1562   30.8424 C   0  0  0  0  0  0  0  0  0  0  0  0
    8.4158   52.4358   30.4854 C   0  0  0  0  0  0  0  0  0  0  0  0
    6.3964   52.1566   31.7459 C   0  0  0  0  0  0  0  0  0  0  0  0
    4.7050   50.5307   31.0643 N   0  0  0  0  0  0  0  0  0  0  0  0
    9.5679   53.1976   30.5193 O   0  0  0  0  0  0  0  0  0  0  0  0
    7.6254   52.7653   31.5323 C   0  0  0  0  0  0  0  0  0  0  0  0
    4.6495   49.2015   31.4096 O   0  0  0  0  0  0  0  0  0  0  0  0
    3.6930   51.2402   31.2386 O   0  0  0  0  0  0  0  0  0  0  0  0
    9.4949   54.0594   31.6633 C   0  0  0  0  0  0  0  0  0  0  0  0
    8.2381   53.7511   32.2816 O   0  0  0  0  0  0  0  0  0  0  0  0
    8.8117   40.1832   34.2125 O   0  0  0  0  0  0  0  0  0  0  0  0
   11.2411   40.7939   33.3710 O   0  0  0  0  0  0  0  0  0  0  0  0
   10.9179   40.6920   31.9985 C   0  0  0  0  0  0  0  0  0  0  0  0
   11.5175   39.3837   31.4423 C   0  0  0  0  0  0  0  0  0  0  0  0
   12.7508   39.0887   32.0751 O   0  0  0  0  0  0  0  0  0  0  0  0
   10.6028   38.1915   31.6658 C   0  0  0  0  0  0  0  0  0  0  0  0
   12.9385   37.6818   32.0278 C   0  0  0  0  0  0  0  0  0  0  0  0
    9.6371   38.0805   30.6470 O   0  0  0  0  0  0  0  0  0  0  0  0
   11.5780   37.0215   31.6934 C   0  0  0  0  0  0  0  0  0  0  0  0
   13.4844   37.2119   33.3241 N   0  0  0  0  0  0  0  0  0  0  0  0
   11.6095   36.3201   30.4678 O   0  0  0  0  0  0  0  0  0  0  0  0
   14.4797   36.3318   33.5730 C   0  0  0  0  0  0  0  0  0  0  0  0
   13.1135   37.6278   34.5691 C   0  0  0  0  0  0  0  0  0  0  0  0
   15.2073   35.6155   32.6742 N   0  0  0  0  0  0  0  0  0  0  0  0
   14.6754   36.2305   34.9184 C   0  0  0  0  0  0  0  0  0  0  0  0
   13.8213   37.0452   35.5785 N   0  0  0  0  0  0  0  0  0  0  0  0
   16.1640   34.7604   33.1549 C   0  0  0  0  0  0  0  0  0  0  0  0
   15.6524   35.3507   35.4132 C   0  0  0  0  0  0  0  0  0  0  0  0
   16.3794   34.6318   34.5044 N   0  0  0  0  0  0  0  0  0  0  0  0
   15.8999   35.1934   36.8091 N   0  0  0  0  0  0  0  0  0  0  0  0
    9.0099   45.4349   33.6673 H   0  0  0  0  0  0  0  0  0  0  0  0
   11.9348   45.6933   33.0924 H   0  0  0  0  0  0  0  0  0  0  0  0
   11.1134   46.1994   34.4882 H   0  0  0  0  0  0  0  0  0  0  0  0
   10.7302   44.8921   31.1677 H   0  0  0  0  0  0  0  0  0  0  0  0
    9.3506   43.8344   31.4766 H   0  0  0  0  0  0  0  0  0  0  0  0
    7.0108   44.7154   31.5810 H   0  0  0  0  0  0  0  0  0  0  0  0
   10.3476   47.1861   30.4134 H   0  0  0  0  0  0  0  0  0  0  0  0
    5.4639   46.3044   30.5013 H   0  0  0  0  0  0  0  0  0  0  0  0
    8.8192   48.7559   29.3408 H   0  0  0  0  0  0  0  0  0  0  0  0
    7.2063   49.6465   27.9268 H   0  0  0  0  0  0  0  0  0  0  0  0
    5.3963   51.2879   27.4391 H   0  0  0  0  0  0  0  0  0  0  0  0
    4.9675   49.5825   27.0461 H   0  0  0  0  0  0  0  0  0  0  0  0
    4.2790   50.3565   28.5137 H   0  0  0  0  0  0  0  0  0  0  0  0
    8.7011   51.2498   28.7246 H   0  0  0  0  0  0  0  0  0  0  0  0
    5.7861   52.4409   32.5936 H   0  0  0  0  0  0  0  0  0  0  0  0
   10.3295   53.8414   32.3622 H   0  0  0  0  0  0  0  0  0  0  0  0
    9.5146   55.1228   31.3450 H   0  0  0  0  0  0  0  0  0  0  0  0
    9.8291   40.7409   31.7625 H   0  0  0  0  0  0  0  0  0  0  0  0
   11.3954   41.5477   31.4750 H   0  0  0  0  0  0  0  0  0  0  0  0
   11.6981   39.5116   30.3500 H   0  0  0  0  0  0  0  0  0  0  0  0
   10.1117   38.2603   32.6660 H   0  0  0  0  0  0  0  0  0  0  0  0
   13.6767   37.4556   31.2267 H   0  0  0  0  0  0  0  0  0  0  0  0
    8.8961   38.6951   30.8872 H   0  0  0  0  0  0  0  0  0  0  0  0
   11.2791   36.3072   32.4922 H   0  0  0  0  0  0  0  0  0  0  0  0
   11.8828   36.9598   29.7588 H   0  0  0  0  0  0  0  0  0  0  0  0
   12.3300   38.3538   34.7446 H   0  0  0  0  0  0  0  0  0  0  0  0
   16.7562   34.1785   32.4622 H   0  0  0  0  0  0  0  0  0  0  0  0
   16.6347   34.5303   37.1416 H   0  0  0  0  0  0  0  0  0  0  0  0
   15.3531   35.7360   37.5140 H   0  0  0  0  0  0  0  0  0  0  0  0
  1  2  2  0
  1  3  1  0
  3  4  1  0
  4  5  1  0
  6  1  1  0
  7  6  1  0
  6  8  1  0
  8  9  1  0
  9 10  2  0
 11  9  1  0
 10 12  1  0
 13 11  2  0
 12 14  2  0
 14 13  1  0
 14 15  1  0
 15 16  1  0
 16 17  1  0
 16 18  1  0
 18 19  2  0
 20 18  1  0
 19 21  1  0
 22 20  2  0
 20 23  1  0
 21 24  1  0
 21 25  2  0
 25 22  1  0
 23 26  1  0
 23 27  2  0
 24 28  1  0
 25 29  1  0
 28 29  1  0
  4 30  2  0
  4 31  1  0
 32 31  1  0
 32 33  1  0
 33 34  1  0
 33 35  1  0
 34 36  1  0
 35 37  1  0
 35 38  1  0
 38 36  1  0
 36 39  1  0
 38 40  1  0
 41 39  1  0
 42 39  1  0
 43 41  2  0
 41 44  1  0
 45 42  2  0
 46 43  1  0
 44 47  2  0
 44 45  1  0
 48 46  2  0
 48 47  1  0
 47 49  1  0
  6 50  1  1
  7 51  1  0
  7 52  1  0
  8 53  1  0
  8 54  1  0
 10 55  1  0
 11 56  1  0
 12 57  1  0
 13 58  1  0
 16 59  1  6
 17 60  1  0
 17 61  1  0
 17 62  1  0
 19 63  1  0
 22 64  1  0
 28 65  1  0
 28 66  1  0
 32 67  1  0
 32 68  1  0
 33 69  1  0
 35 70  1  0
 36 71  1  0
 37 72  1  0
 38 73  1  0
 40 74  1  0
 42 75  1  0
 46 76  1  0
 49 77  1  0
 49 78  1  0
M  CHG  3   5  -1  23   1  26  -1
M  END
>  <EmbedRMS>  (188) 
0.0828691273683

$$$$

     RDKit          3D

 78 83  0  0  0  0  0  0  0  0999 V2000
   10.2803   43.7664   33.8246 C   0  0  0  0  0  0  0  0  0  0  0  0
   11.4109   43.5920   34.3664 O   0  0  0  0  0  0  0  0  0  0  0  0
    9.3617   42.7250   33.7343 O   0  0  0  0  0  0  0  0  0  0  0  0
    9.8898   41.2267   34.2939 P   0  0  0  0  0  0  0  0  0  0  0  0
   10.3735   41.4567   35.8831 O   0  0  0  0  0  0  0  0  0  0  0  0
    9.9458   45.0736   33.2106 C   0  0  1  0  0  0  0  0  0  0  0  0
   11.0265   46.0292   33.4703 N   0  0  0  0  0  0  0  0  0  0  0  0
    9.7534   44.8541   31.6942 C   0  0  0  0  0  0  0  0  0  0  0  0
    8.7952   45.8411   31.0838 C   0  0  0  0  0  0  0  0  0  0  0  0
    7.4072   45.6007   31.1024 C   0  0  0  0  0  0  0  0  0  0  0  0
    9.2829   46.9900   30.4402 C   0  0  0  0  0  0  0  0  0  0  0  0
    6.5258   46.5020   30.4890 C   0  0  0  0  0  0  0  0  0  0  0  0
    8.4000   47.8911   29.8332 C   0  0  0  0  0  0  0  0  0  0  0  0
    7.0212   47.6450   29.8433 C   0  0  0  0  0  0  0  0  0  0  0  0
    6.1477   48.5518   29.2376 O   0  0  0  0  0  0  0  0  0  0  0  0
    5.5886   48.3716   27.9325 C   0  0  1  0  0  0  0  0  0  0  0  0
    6.6380   48.6110   26.8392 C   0  0  0  0  0  0  0  0  0  0  0  0
    4.7963   47.0690   27.8292 C   0  0  0  0  0  0  0  0  0  0  0  0
    3.4675   47.0969   28.3217 C   0  0  0  0  0  0  0  0  0  0  0  0
    5.3044   45.8366   27.2872 C   0  0  0  0  0  0  0  0  0  0  0  0
    2.6951   45.9464   28.2346 C   0  0  0  0  0  0  0  0  0  0  0  0
    4.4676   44.7027   27.2111 C   0  0  0  0  0  0  0  0  0  0  0  0
    6.6485   45.7026   26.8214 N   0  0  0  0  0  0  0  0  0  0  0  0
    1.3890   45.7556   28.6429 O   0  0  0  0  0  0  0  0  0  0  0  0
    3.1728   44.8010   27.6989 C   0  0  0  0  0  0  0  0  0  0  0  0
    6.8707   45.3466   25.5118 O   0  0  0  0  0  0  0  0  0  0  0  0
    7.5747   45.5743   27.6469 O   0  0  0  0  0  0  0  0  0  0  0  0
    1.0252   44.4013   28.3424 C   0  0  0  0  0  0  0  0  0  0  0  0
    2.1935   43.8273   27.7404 O   0  0  0  0  0  0  0  0  0  0  0  0
    8.8122   40.1844   34.2133 O   0  0  0  0  0  0  0  0  0  0  0  0
   11.2402   40.7944   33.3688 O   0  0  0  0  0  0  0  0  0  0  0  0
   10.9142   40.6898   31.9970 C   0  0  0  0  0  0  0  0  0  0  0  0
   11.5260   39.3884   31.4376 C   0  0  0  0  0  0  0  0  0  0  0  0
   12.7504   39.0888   32.0816 O   0  0  0  0  0  0  0  0  0  0  0  0
   10.6114   38.1910   31.6460 C   0  0  0  0  0  0  0  0  0  0  0  0
   12.9357   37.6812   32.0303 C   0  0  0  0  0  0  0  0  0  0  0  0
    9.6145   38.0859   30.6534 O   0  0  0  0  0  0  0  0  0  0  0  0
   11.5769   37.0148   31.7012 C   0  0  0  0  0  0  0  0  0  0  0  0
   13.4849   37.2112   33.3247 N   0  0  0  0  0  0  0  0  0  0  0  0
   11.6193   36.3261   30.4724 O   0  0  0  0  0  0  0  0  0  0  0  0
   14.4802   36.3313   33.5730 C   0  0  0  0  0  0  0  0  0  0  0  0
   13.1141   37.6268   34.5698 C   0  0  0  0  0  0  0  0  0  0  0  0
   15.2075   35.6151   32.6741 N   0  0  0  0  0  0  0  0  0  0  0  0
   14.6761   36.2301   34.9184 C   0  0  0  0  0  0  0  0  0  0  0  0
   13.8220   37.0445   35.5789 N   0  0  0  0  0  0  0  0  0  0  0  0
   16.1642   34.7600   33.1547 C   0  0  0  0  0  0  0  0  0  0  0  0
   15.6530   35.3503   35.4131 C   0  0  0  0  0  0  0  0  0  0  0  0
   16.3798   34.6314   34.5042 N   0  0  0  0  0  0  0  0  0  0  0  0
   15.9004   35.1930   36.8090 N   0  0  0  0  0  0  0  0  0  0  0  0
    8.9994   45.4382   33.6716 H   0  0  0  0  0  0  0  0  0  0  0  0
   10.7763   46.9368   33.0152 H   0  0  0  0  0  0  0  0  0  0  0  0
   11.0500   46.2277   34.4976 H   0  0  0  0  0  0  0  0  0  0  0  0
    9.3636   43.8355   31.4706 H   0  0  0  0  0  0  0  0  0  0  0  0
   10.7404   44.9077   31.1826 H   0  0  0  0  0  0  0  0  0  0  0  0
    7.0117   44.7180   31.5896 H   0  0  0  0  0  0  0  0  0  0  0  0
   10.3466   47.1906   30.4077 H   0  0  0  0  0  0  0  0  0  0  0  0
    5.4609   46.3117   30.5191 H   0  0  0  0  0  0  0  0  0  0  0  0
    8.7878   48.7759   29.3447 H   0  0  0  0  0  0  0  0  0  0  0  0
    4.8581   49.1991   27.7906 H   0  0  0  0  0  0  0  0  0  0  0  0
    7.5742   48.0546   27.0375 H   0  0  0  0  0  0  0  0  0  0  0  0
    6.9035   49.6894   26.8131 H   0  0  0  0  0  0  0  0  0  0  0  0
    6.2335   48.3308   25.8433 H   0  0  0  0  0  0  0  0  0  0  0  0
    3.0452   47.9936   28.7582 H   0  0  0  0  0  0  0  0  0  0  0  0
    4.8274   43.7677   26.8009 H   0  0  0  0  0  0  0  0  0  0  0  0
    0.7679   43.8568   29.2750 H   0  0  0  0  0  0  0  0  0  0  0  0
    0.1764   44.3813   27.6271 H   0  0  0  0  0  0  0  0  0  0  0  0
   11.3778   41.5526   31.4723 H   0  0  0  0  0  0  0  0  0  0  0  0
    9.8232   40.7191   31.7644 H   0  0  0  0  0  0  0  0  0  0  0  0
   11.7283   39.5311   30.3515 H   0  0  0  0  0  0  0  0  0  0  0  0
   10.1127   38.2734   32.6376 H   0  0  0  0  0  0  0  0  0  0  0  0
   13.6692   37.4566   31.2242 H   0  0  0  0  0  0  0  0  0  0  0  0
   10.0533   38.1118   29.7636 H   0  0  0  0  0  0  0  0  0  0  0  0
   11.2606   36.3148   32.5102 H   0  0  0  0  0  0  0  0  0  0  0  0
   12.1496   35.5023   30.6324 H   0  0  0  0  0  0  0  0  0  0  0  0
   12.3300   38.3523   34.7455 H   0  0  0  0  0  0  0  0  0  0  0  0
   16.7563   34.1781   32.4619 H   0  0  0  0  0  0  0  0  0  0  0  0
   15.3536   35.7357   37.5139 H   0  0  0  0  0  0  0  0  0  0  0  0
   16.6351   34.5298   37.1415 H   0  0  0  0  0  0  0  0  0  0  0  0
  1  2  2  0
  1  3  1  0
  3  4  1  0
  4  5  1  0
  6  1  1  0
  7  6  1  0
  6  8  1  0
  8  9  1  0
  9 10  2  0
 11  9  1  0
 10 12  1  0
 13 11  2  0
 12 14  2  0
 14 13  1  0
 14 15  1  0
 15 16  1  0
 16 17  1  0
 16 18  1  0
 18 19  2  0
 20 18  1  0
 19 21  1  0
 22 20  2  0
 20 23  1  0
 21 24  1  0
 21 25  2  0
 25 22  1  0
 23 26  1  0
 23 27  2  0
 24 28  1  0
 25 29  1  0
 28 29  1  0
  4 30  2  0
  4 31  1  0
 32 31  1  0
 32 33  1  0
 33 34  1  0
 33 35  1  0
 34 36  1  0
 35 37  1  0
 35 38  1  0
 38 36  1  0
 36 39  1  0
 38 40  1  0
 41 39  1  0
 42 39  1  0
 43 41  2  0
 41 44  1  0
 45 42  2  0
 46 43  1  0
 44 47  2  0
 44 45  1  0
 48 46  2  0
 48 47  1  0
 47 49  1  0
  6 50  1  1
  7 51  1  0
  7 52  1  0
  8 53  1  0
  8 54  1  0
 10 55  1  0
 11 56  1  0
 12 57  1  0
 13 58  1  0
 16 59  1  6
 17 60  1  0
 17 61  1  0
 17 62  1  0
 19 63  1  0
 22 64  1  0
 28 65  1  0
 28 66  1  0
 32 67  1  0
 32 68  1  0
 33 69  1  0
 35 70  1  0
 36 71  1  0
 37 72  1  0
 38 73  1  0
 40 74  1  0
 42 75  1  0
 46 76  1  0
 49 77  1  0
 49 78  1  0
M  CHG  3   5  -1  23   1  26  -1
M  END
>  <EmbedRMS>  (189) 
0.081565346292

$$$$

     RDKit          3D

 78 83  0  0  0  0  0  0  0  0999 V2000
   10.2834   43.7662   33.8257 C   0  0  0  0  0  0  0  0  0  0  0  0
   11.4102   43.5930   34.3752 O   0  0  0  0  0  0  0  0  0  0  0  0
    9.3635   42.7257   33.7352 O   0  0  0  0  0  0  0  0  0  0  0  0
    9.8899   41.2270   34.2947 P   0  0  0  0  0  0  0  0  0  0  0  0
   10.3732   41.4562   35.8841 O   0  0  0  0  0  0  0  0  0  0  0  0
    9.9548   45.0696   33.2036 C   0  0  1  0  0  0  0  0  0  0  0  0
   11.0274   46.0322   33.4759 N   0  0  0  0  0  0  0  0  0  0  0  0
    9.7471   44.8484   31.6876 C   0  0  0  0  0  0  0  0  0  0  0  0
    8.7926   45.8410   31.0846 C   0  0  0  0  0  0  0  0  0  0  0  0
    7.4061   45.6012   31.0993 C   0  0  0  0  0  0  0  0  0  0  0  0
    9.2817   46.9876   30.4421 C   0  0  0  0  0  0  0  0  0  0  0  0
    6.5243   46.5007   30.4845 C   0  0  0  0  0  0  0  0  0  0  0  0
    8.4004   47.8875   29.8321 C   0  0  0  0  0  0  0  0  0  0  0  0
    7.0183   47.6576   29.8461 C   0  0  0  0  0  0  0  0  0  0  0  0
    6.1882   48.5946   29.2079 O   0  0  0  0  0  0  0  0  0  0  0  0
    4.7582   48.5668   29.1683 C   0  0  1  0  0  0  0  0  0  0  0  0
    4.2085   49.0380   30.5240 C   0  0  0  0  0  0  0  0  0  0  0  0
    4.2949   49.3892   27.9668 C   0  0  0  0  0  0  0  0  0  0  0  0
    3.4006   50.4864   28.1167 C   0  0  0  0  0  0  0  0  0  0  0  0
    4.7955   49.0848   26.6527 C   0  0  0  0  0  0  0  0  0  0  0  0
    3.0603   51.2297   26.9945 C   0  0  0  0  0  0  0  0  0  0  0  0
    4.4220   49.8898   25.5521 C   0  0  0  0  0  0  0  0  0  0  0  0
    5.6919   47.9841   26.4215 N   0  0  0  0  0  0  0  0  0  0  0  0
    2.2222   52.3254   26.9138 O   0  0  0  0  0  0  0  0  0  0  0  0
    3.5511   50.9464   25.7682 C   0  0  0  0  0  0  0  0  0  0  0  0
    5.4178   46.7394   26.9380 O   0  0  0  0  0  0  0  0  0  0  0  0
    6.6165   48.0984   25.5905 O   0  0  0  0  0  0  0  0  0  0  0  0
    2.1860   52.7555   25.5463 C   0  0  0  0  0  0  0  0  0  0  0  0
    3.0489   51.8472   24.8488 O   0  0  0  0  0  0  0  0  0  0  0  0
    8.8120   40.1851   34.2133 O   0  0  0  0  0  0  0  0  0  0  0  0
   11.2403   40.7947   33.3700 O   0  0  0  0  0  0  0  0  0  0  0  0
   10.9144   40.6914   31.9982 C   0  0  0  0  0  0  0  0  0  0  0  0
   11.5270   39.3912   31.4385 C   0  0  0  0  0  0  0  0  0  0  0  0
   12.7520   39.0911   32.0836 O   0  0  0  0  0  0  0  0  0  0  0  0
   10.6113   38.1932   31.6451 C   0  0  0  0  0  0  0  0  0  0  0  0
   12.9413   37.6838   32.0297 C   0  0  0  0  0  0  0  0  0  0  0  0
    9.6064   38.0878   30.6599 O   0  0  0  0  0  0  0  0  0  0  0  0
   11.5822   37.0198   31.6877 C   0  0  0  0  0  0  0  0  0  0  0  0
   13.4840   37.2104   33.3254 N   0  0  0  0  0  0  0  0  0  0  0  0
   11.6179   36.3072   30.4690 O   0  0  0  0  0  0  0  0  0  0  0  0
   14.4797   36.3309   33.5738 C   0  0  0  0  0  0  0  0  0  0  0  0
   13.1136   37.6269   34.5702 C   0  0  0  0  0  0  0  0  0  0  0  0
   15.2074   35.6152   32.6747 N   0  0  0  0  0  0  0  0  0  0  0  0
   14.6756   36.2298   34.9190 C   0  0  0  0  0  0  0  0  0  0  0  0
   13.8217   37.0445   35.5793 N   0  0  0  0  0  0  0  0  0  0  0  0
   16.1643   34.7603   33.1551 C   0  0  0  0  0  0  0  0  0  0  0  0
   15.6528   35.3503   35.4136 C   0  0  0  0  0  0  0  0  0  0  0  0
   16.3798   34.6316   34.5046 N   0  0  0  0  0  0  0  0  0  0  0  0
   15.9004   35.1930   36.8094 N   0  0  0  0  0  0  0  0  0  0  0  0
    9.0121   45.4318   33.6713 H   0  0  0  0  0  0  0  0  0  0  0  0
   10.7262   46.9688   33.1214 H   0  0  0  0  0  0  0  0  0  0  0  0
   11.8909   45.7658   32.9476 H   0  0  0  0  0  0  0  0  0  0  0  0
   10.7236   44.8824   31.1558 H   0  0  0  0  0  0  0  0  0  0  0  0
    9.3425   43.8331   31.4759 H   0  0  0  0  0  0  0  0  0  0  0  0
    7.0107   44.7155   31.5814 H   0  0  0  0  0  0  0  0  0  0  0  0
   10.3460   47.1857   30.4096 H   0  0  0  0  0  0  0  0  0  0  0  0
    5.4677   46.2796   30.5148 H   0  0  0  0  0  0  0  0  0  0  0  0
    8.7944   48.7682   29.3408 H   0  0  0  0  0  0  0  0  0  0  0  0
    4.3942   47.5321   29.0067 H   0  0  0  0  0  0  0  0  0  0  0  0
    4.5938   48.3957   31.3420 H   0  0  0  0  0  0  0  0  0  0  0  0
    3.1002   48.9677   30.5390 H   0  0  0  0  0  0  0  0  0  0  0  0
    4.5279   50.0815   30.7321 H   0  0  0  0  0  0  0  0  0  0  0  0
    2.9788   50.7760   29.0675 H   0  0  0  0  0  0  0  0  0  0  0  0
    4.7890   49.6857   24.5544 H   0  0  0  0  0  0  0  0  0  0  0  0
    2.5712   53.7931   25.4596 H   0  0  0  0  0  0  0  0  0  0  0  0
    1.1521   52.6839   25.1484 H   0  0  0  0  0  0  0  0  0  0  0  0
   11.3777   41.5549   31.4744 H   0  0  0  0  0  0  0  0  0  0  0  0
    9.8235   40.7201   31.7654 H   0  0  0  0  0  0  0  0  0  0  0  0
   11.7312   39.5363   30.3532 H   0  0  0  0  0  0  0  0  0  0  0  0
   10.1203   38.2696   32.6410 H   0  0  0  0  0  0  0  0  0  0  0  0
   13.6850   37.4639   31.2321 H   0  0  0  0  0  0  0  0  0  0  0  0
   10.0251   38.1793   29.7654 H   0  0  0  0  0  0  0  0  0  0  0  0
   11.2757   36.3135   32.4907 H   0  0  0  0  0  0  0  0  0  0  0  0
   11.9838   36.9111   29.7708 H   0  0  0  0  0  0  0  0  0  0  0  0
   12.3307   38.3536   34.7457 H   0  0  0  0  0  0  0  0  0  0  0  0
   16.7566   34.1787   32.4623 H   0  0  0  0  0  0  0  0  0  0  0  0
   16.6353   34.5301   37.1419 H   0  0  0  0  0  0  0  0  0  0  0  0
   15.3535   35.7355   37.5144 H   0  0  0  0  0  0  0  0  0  0  0  0
  1  2  2  0
  1  3  1  0
  3  4  1  0
  4  5  1  0
  6  1  1  0
  7  6  1  0
  6  8  1  0
  8  9  1  0
  9 10  2  0
 11  9  1  0
 10 12  1  0
 13 11  2  0
 12 14  2  0
 14 13  1  0
 14 15  1  0
 15 16  1  0
 16 17  1  0
 16 18  1  0
 18 19  2  0
 20 18  1  0
 19 21  1  0
 22 20  2  0
 20 23  1  0
 21 24  1  0
 21 25  2  0
 25 22  1  0
 23 26  1  0
 23 27  2  0
 24 28  1  0
 25 29  1  0
 28 29  1  0
  4 30  2  0
  4 31  1  0
 32 31  1  0
 32 33  1  0
 33 34  1  0
 33 35  1  0
 34 36  1  0
 35 37  1  0
 35 38  1  0
 38 36  1  0
 36 39  1  0
 38 40  1  0
 41 39  1  0
 42 39  1  0
 43 41  2  0
 41 44  1  0
 45 42  2  0
 46 43  1  0
 44 47  2  0
 44 45  1  0
 48 46  2  0
 48 47  1  0
 47 49  1  0
  6 50  1  1
  7 51  1  0
  7 52  1  0
  8 53  1  0
  8 54  1  0
 10 55  1  0
 11 56  1  0
 12 57  1  0
 13 58  1  0
 16 59  1  6
 17 60  1  0
 17 61  1  0
 17 62  1  0
 19 63  1  0
 22 64  1  0
 28 65  1  0
 28 66  1  0
 32 67  1  0
 32 68  1  0
 33 69  1  0
 35 70  1  0
 36 71  1  0
 37 72  1  0
 38 73  1  0
 40 74  1  0
 42 75  1  0
 46 76  1  0
 49 77  1  0
 49 78  1  0
M  CHG  3   5  -1  23   1  26  -1
M  END
>  <EmbedRMS>  (190) 
0.0808070526586

$$$$

     RDKit          3D

 78 83  0  0  0  0  0  0  0  0999 V2000
   10.2804   43.7664   33.8249 C   0  0  0  0  0  0  0  0  0  0  0  0
   11.4110   43.5919   34.3666 O   0  0  0  0  0  0  0  0  0  0  0  0
    9.3619   42.7249   33.7343 O   0  0  0  0  0  0  0  0  0  0  0  0
    9.8903   41.2265   34.2931 P   0  0  0  0  0  0  0  0  0  0  0  0
   10.3742   41.4563   35.8823 O   0  0  0  0  0  0  0  0  0  0  0  0
    9.9460   45.0736   33.2111 C   0  0  1  0  0  0  0  0  0  0  0  0
   11.0267   46.0292   33.4708 N   0  0  0  0  0  0  0  0  0  0  0  0
    9.7540   44.8541   31.6947 C   0  0  0  0  0  0  0  0  0  0  0  0
    8.7957   45.8411   31.0846 C   0  0  0  0  0  0  0  0  0  0  0  0
    7.4089   45.6001   31.1015 C   0  0  0  0  0  0  0  0  0  0  0  0
    9.2823   46.9882   30.4400 C   0  0  0  0  0  0  0  0  0  0  0  0
    6.5259   46.4992   30.4875 C   0  0  0  0  0  0  0  0  0  0  0  0
    8.3996   47.8879   29.8316 C   0  0  0  0  0  0  0  0  0  0  0  0
    7.0185   47.6536   29.8446 C   0  0  0  0  0  0  0  0  0  0  0  0
    6.1804   48.5850   29.2097 O   0  0  0  0  0  0  0  0  0  0  0  0
    4.7650   48.4510   29.0536 C   0  0  1  0  0  0  0  0  0  0  0  0
    4.2032   49.7667   28.5180 C   0  0  0  0  0  0  0  0  0  0  0  0
    4.4380   47.3181   28.0949 C   0  0  0  0  0  0  0  0  0  0  0  0
    5.2025   47.1946   26.9087 C   0  0  0  0  0  0  0  0  0  0  0  0
    3.4227   46.3450   28.3794 C   0  0  0  0  0  0  0  0  0  0  0  0
    4.9675   46.1070   26.0782 C   0  0  0  0  0  0  0  0  0  0  0  0
    3.2409   45.2501   27.5047 C   0  0  0  0  0  0  0  0  0  0  0  0
    2.5678   46.4558   29.5279 N   0  0  0  0  0  0  0  0  0  0  0  0
    5.5955   45.7809   24.8916 O   0  0  0  0  0  0  0  0  0  0  0  0
    4.0323   45.1730   26.3664 C   0  0  0  0  0  0  0  0  0  0  0  0
    2.1550   45.3193   30.1842 O   0  0  0  0  0  0  0  0  0  0  0  0
    2.0097   47.5402   29.7934 O   0  0  0  0  0  0  0  0  0  0  0  0
    5.0151   44.5634   24.4042 C   0  0  0  0  0  0  0  0  0  0  0  0
    4.0210   44.2100   25.3757 O   0  0  0  0  0  0  0  0  0  0  0  0
    8.8124   40.1844   34.2129 O   0  0  0  0  0  0  0  0  0  0  0  0
   11.2404   40.7948   33.3668 O   0  0  0  0  0  0  0  0  0  0  0  0
   10.9133   40.6866   31.9952 C   0  0  0  0  0  0  0  0  0  0  0  0
   11.5166   39.3787   31.4404 C   0  0  0  0  0  0  0  0  0  0  0  0
   12.7485   39.0849   32.0735 O   0  0  0  0  0  0  0  0  0  0  0  0
   10.6039   38.1884   31.6669 C   0  0  0  0  0  0  0  0  0  0  0  0
   12.9329   37.6776   32.0284 C   0  0  0  0  0  0  0  0  0  0  0  0
    9.6373   38.0938   30.6484 O   0  0  0  0  0  0  0  0  0  0  0  0
   11.5737   37.0141   31.7055 C   0  0  0  0  0  0  0  0  0  0  0  0
   13.4853   37.2120   33.3238 N   0  0  0  0  0  0  0  0  0  0  0  0
   11.6210   36.3379   30.4683 O   0  0  0  0  0  0  0  0  0  0  0  0
   14.4804   36.3319   33.5726 C   0  0  0  0  0  0  0  0  0  0  0  0
   13.1141   37.6275   34.5689 C   0  0  0  0  0  0  0  0  0  0  0  0
   15.2076   35.6152   32.6740 N   0  0  0  0  0  0  0  0  0  0  0  0
   14.6761   36.2306   34.9181 C   0  0  0  0  0  0  0  0  0  0  0  0
   13.8218   37.0451   35.5783 N   0  0  0  0  0  0  0  0  0  0  0  0
   16.1642   34.7600   33.1548 C   0  0  0  0  0  0  0  0  0  0  0  0
   15.6528   35.3507   35.4131 C   0  0  0  0  0  0  0  0  0  0  0  0
   16.3796   34.6315   34.5043 N   0  0  0  0  0  0  0  0  0  0  0  0
   15.9001   35.1933   36.8090 N   0  0  0  0  0  0  0  0  0  0  0  0
    8.9995   45.4381   33.6720 H   0  0  0  0  0  0  0  0  0  0  0  0
   11.0502   46.2277   34.4982 H   0  0  0  0  0  0  0  0  0  0  0  0
   10.7765   46.9369   33.0158 H   0  0  0  0  0  0  0  0  0  0  0  0
    9.3646   43.8354   31.4709 H   0  0  0  0  0  0  0  0  0  0  0  0
   10.7412   44.9080   31.1834 H   0  0  0  0  0  0  0  0  0  0  0  0
    7.0147   44.7160   31.5874 H   0  0  0  0  0  0  0  0  0  0  0  0
   10.3462   47.1882   30.4058 H   0  0  0  0  0  0  0  0  0  0  0  0
    5.4675   46.2857   30.5238 H   0  0  0  0  0  0  0  0  0  0  0  0
    8.7916   48.7691   29.3398 H   0  0  0  0  0  0  0  0  0  0  0  0
    4.3230   48.2828   30.0571 H   0  0  0  0  0  0  0  0  0  0  0  0
    3.1027   49.6924   28.3866 H   0  0  0  0  0  0  0  0  0  0  0  0
    4.4175   50.5858   29.2369 H   0  0  0  0  0  0  0  0  0  0  0  0
    4.6677   50.0225   27.5417 H   0  0  0  0  0  0  0  0  0  0  0  0
    5.9725   47.9119   26.6542 H   0  0  0  0  0  0  0  0  0  0  0  0
    2.4879   44.4960   27.6943 H   0  0  0  0  0  0  0  0  0  0  0  0
    4.5407   44.7332   23.4149 H   0  0  0  0  0  0  0  0  0  0  0  0
    5.7875   43.7685   24.3398 H   0  0  0  0  0  0  0  0  0  0  0  0
   11.3826   41.5438   31.4666 H   0  0  0  0  0  0  0  0  0  0  0  0
    9.8224   40.7224   31.7629 H   0  0  0  0  0  0  0  0  0  0  0  0
   11.6979   39.5035   30.3478 H   0  0  0  0  0  0  0  0  0  0  0  0
   10.1084   38.2786   32.6627 H   0  0  0  0  0  0  0  0  0  0  0  0
   13.6638   37.4473   31.2215 H   0  0  0  0  0  0  0  0  0  0  0  0
    8.9763   37.4191   30.9532 H   0  0  0  0  0  0  0  0  0  0  0  0
   11.2821   36.3054   32.5171 H   0  0  0  0  0  0  0  0  0  0  0  0
   10.8658   35.6935   30.4652 H   0  0  0  0  0  0  0  0  0  0  0  0
   12.3293   38.3523   34.7445 H   0  0  0  0  0  0  0  0  0  0  0  0
   16.7561   34.1778   32.4621 H   0  0  0  0  0  0  0  0  0  0  0  0
   16.6345   34.5300   37.1416 H   0  0  0  0  0  0  0  0  0  0  0  0
   15.3533   35.7361   37.5138 H   0  0  0  0  0  0  0  0  0  0  0  0
  1  2  2  0
  1  3  1  0
  3  4  1  0
  4  5  1  0
  6  1  1  0
  7  6  1  0
  6  8  1  0
  8  9  1  0
  9 10  2  0
 11  9  1  0
 10 12  1  0
 13 11  2  0
 12 14  2  0
 14 13  1  0
 14 15  1  0
 15 16  1  0
 16 17  1  0
 16 18  1  0
 18 19  2  0
 20 18  1  0
 19 21  1  0
 22 20  2  0
 20 23  1  0
 21 24  1  0
 21 25  2  0
 25 22  1  0
 23 26  1  0
 23 27  2  0
 24 28  1  0
 25 29  1  0
 28 29  1  0
  4 30  2  0
  4 31  1  0
 32 31  1  0
 32 33  1  0
 33 34  1  0
 33 35  1  0
 34 36  1  0
 35 37  1  0
 35 38  1  0
 38 36  1  0
 36 39  1  0
 38 40  1  0
 41 39  1  0
 42 39  1  0
 43 41  2  0
 41 44  1  0
 45 42  2  0
 46 43  1  0
 44 47  2  0
 44 45  1  0
 48 46  2  0
 48 47  1  0
 47 49  1  0
  6 50  1  1
  7 51  1  0
  7 52  1  0
  8 53  1  0
  8 54  1  0
 10 55  1  0
 11 56  1  0
 12 57  1  0
 13 58  1  0
 16 59  1  1
 17 60  1  0
 17 61  1  0
 17 62  1  0
 19 63  1  0
 22 64  1  0
 28 65  1  0
 28 66  1  0
 32 67  1  0
 32 68  1  0
 33 69  1  0
 35 70  1  0
 36 71  1  0
 37 72  1  0
 38 73  1  0
 40 74  1  0
 42 75  1  0
 46 76  1  0
 49 77  1  0
 49 78  1  0
M  CHG  3   5  -1  23   1  26  -1
M  END
>  <EmbedRMS>  (191) 
0.0823780329921

$$$$

     RDKit          3D

 78 83  0  0  0  0  0  0  0  0999 V2000
   10.2838   43.7627   33.8277 C   0  0  0  0  0  0  0  0  0  0  0  0
   11.4103   43.5863   34.3767 O   0  0  0  0  0  0  0  0  0  0  0  0
    9.3630   42.7236   33.7354 O   0  0  0  0  0  0  0  0  0  0  0  0
    9.8897   41.2248   34.2935 P   0  0  0  0  0  0  0  0  0  0  0  0
   10.3735   41.4542   35.8829 O   0  0  0  0  0  0  0  0  0  0  0  0
    9.9548   45.0700   33.2066 C   0  0  1  0  0  0  0  0  0  0  0  0
   11.0198   46.0481   33.4569 N   0  0  0  0  0  0  0  0  0  0  0  0
    9.7500   44.8509   31.6926 C   0  0  0  0  0  0  0  0  0  0  0  0
    8.7941   45.8419   31.0874 C   0  0  0  0  0  0  0  0  0  0  0  0
    7.4075   45.6006   31.0993 C   0  0  0  0  0  0  0  0  0  0  0  0
    9.2831   46.9886   30.4443 C   0  0  0  0  0  0  0  0  0  0  0  0
    6.5284   46.5012   30.4828 C   0  0  0  0  0  0  0  0  0  0  0  0
    8.4036   47.8890   29.8314 C   0  0  0  0  0  0  0  0  0  0  0  0
    7.0144   47.6537   29.8501 C   0  0  0  0  0  0  0  0  0  0  0  0
    6.0860   48.5256   29.2578 O   0  0  0  0  0  0  0  0  0  0  0  0
    6.3838   49.8087   28.7059 C   0  0  1  0  0  0  0  0  0  0  0  0
    5.1768   50.3184   27.9174 C   0  0  0  0  0  0  0  0  0  0  0  0
    6.7907   50.8006   29.7876 C   0  0  0  0  0  0  0  0  0  0  0  0
    8.0403   51.4540   29.6478 C   0  0  0  0  0  0  0  0  0  0  0  0
    5.9463   51.1443   30.8998 C   0  0  0  0  0  0  0  0  0  0  0  0
    8.4075   52.4019   30.5934 C   0  0  0  0  0  0  0  0  0  0  0  0
    6.3674   52.1294   31.8203 C   0  0  0  0  0  0  0  0  0  0  0  0
    4.6611   50.5403   31.0987 N   0  0  0  0  0  0  0  0  0  0  0  0
    9.5675   53.1500   30.6537 O   0  0  0  0  0  0  0  0  0  0  0  0
    7.6060   52.7263   31.6328 C   0  0  0  0  0  0  0  0  0  0  0  0
    3.5853   51.3344   31.4215 O   0  0  0  0  0  0  0  0  0  0  0  0
    4.5659   49.3072   31.2590 O   0  0  0  0  0  0  0  0  0  0  0  0
    9.4877   53.9973   31.8081 C   0  0  0  0  0  0  0  0  0  0  0  0
    8.2188   53.6951   32.4041 O   0  0  0  0  0  0  0  0  0  0  0  0
    8.8114   40.1834   34.2127 O   0  0  0  0  0  0  0  0  0  0  0  0
   11.2399   40.7937   33.3671 O   0  0  0  0  0  0  0  0  0  0  0  0
   10.9125   40.6857   31.9955 C   0  0  0  0  0  0  0  0  0  0  0  0
   11.5175   39.3786   31.4405 C   0  0  0  0  0  0  0  0  0  0  0  0
   12.7490   39.0863   32.0751 O   0  0  0  0  0  0  0  0  0  0  0  0
   10.6061   38.1867   31.6656 C   0  0  0  0  0  0  0  0  0  0  0  0
   12.9356   37.6796   32.0292 C   0  0  0  0  0  0  0  0  0  0  0  0
    9.6399   38.0902   30.6471 O   0  0  0  0  0  0  0  0  0  0  0  0
   11.5765   37.0145   31.7043 C   0  0  0  0  0  0  0  0  0  0  0  0
   13.4858   37.2125   33.3244 N   0  0  0  0  0  0  0  0  0  0  0  0
   11.6101   36.3396   30.4672 O   0  0  0  0  0  0  0  0  0  0  0  0
   14.4805   36.3319   33.5729 C   0  0  0  0  0  0  0  0  0  0  0  0
   13.1143   37.6276   34.5694 C   0  0  0  0  0  0  0  0  0  0  0  0
   15.2076   35.6153   32.6741 N   0  0  0  0  0  0  0  0  0  0  0  0
   14.6760   36.2304   34.9184 C   0  0  0  0  0  0  0  0  0  0  0  0
   13.8219   37.0449   35.5786 N   0  0  0  0  0  0  0  0  0  0  0  0
   16.1641   34.7600   33.1548 C   0  0  0  0  0  0  0  0  0  0  0  0
   15.6528   35.3505   35.4132 C   0  0  0  0  0  0  0  0  0  0  0  0
   16.3795   34.6314   34.5043 N   0  0  0  0  0  0  0  0  0  0  0  0
   15.9002   35.1932   36.8091 N   0  0  0  0  0  0  0  0  0  0  0  0
    9.0098   45.4350   33.6673 H   0  0  0  0  0  0  0  0  0  0  0  0
   11.1135   46.1993   34.4882 H   0  0  0  0  0  0  0  0  0  0  0  0
   11.9348   45.6933   33.0925 H   0  0  0  0  0  0  0  0  0  0  0  0
    9.3507   43.8344   31.4765 H   0  0  0  0  0  0  0  0  0  0  0  0
   10.7303   44.8923   31.1677 H   0  0  0  0  0  0  0  0  0  0  0  0
    7.0108   44.7153   31.5809 H   0  0  0  0  0  0  0  0  0  0  0  0
   10.3477   47.1858   30.4128 H   0  0  0  0  0  0  0  0  0  0  0  0
    5.4639   46.3046   30.5013 H   0  0  0  0  0  0  0  0  0  0  0  0
    8.8190   48.7547   29.3388 H   0  0  0  0  0  0  0  0  0  0  0  0
    7.2021   49.6870   27.9617 H   0  0  0  0  0  0  0  0  0  0  0  0
    4.9700   49.6319   27.0690 H   0  0  0  0  0  0  0  0  0  0  0  0
    5.3859   51.3295   27.5069 H   0  0  0  0  0  0  0  0  0  0  0  0
    4.2683   50.3649   28.5510 H   0  0  0  0  0  0  0  0  0  0  0  0
    8.7047   51.2398   28.8203 H   0  0  0  0  0  0  0  0  0  0  0  0
    5.7497   52.4110   32.6634 H   0  0  0  0  0  0  0  0  0  0  0  0
    9.5241   55.0645   31.5045 H   0  0  0  0  0  0  0  0  0  0  0  0
   10.3096   53.7604   32.5159 H   0  0  0  0  0  0  0  0  0  0  0  0
    9.8215   40.7200   31.7634 H   0  0  0  0  0  0  0  0  0  0  0  0
   11.3806   41.5436   31.4670 H   0  0  0  0  0  0  0  0  0  0  0  0
   11.6998   39.5042   30.3481 H   0  0  0  0  0  0  0  0  0  0  0  0
   10.1086   38.2766   32.6603 H   0  0  0  0  0  0  0  0  0  0  0  0
   13.6680   37.4519   31.2229 H   0  0  0  0  0  0  0  0  0  0  0  0
    9.0016   37.3867   30.9349 H   0  0  0  0  0  0  0  0  0  0  0  0
   11.2667   36.3061   32.5083 H   0  0  0  0  0  0  0  0  0  0  0  0
   12.1389   35.5126   30.6150 H   0  0  0  0  0  0  0  0  0  0  0  0
   12.3300   38.3529   34.7449 H   0  0  0  0  0  0  0  0  0  0  0  0
   16.7560   34.1779   32.4621 H   0  0  0  0  0  0  0  0  0  0  0  0
   16.6347   34.5299   37.1416 H   0  0  0  0  0  0  0  0  0  0  0  0
   15.3534   35.7359   37.5140 H   0  0  0  0  0  0  0  0  0  0  0  0
  1  2  2  0
  1  3  1  0
  3  4  1  0
  4  5  1  0
  6  1  1  0
  7  6  1  0
  6  8  1  0
  8  9  1  0
  9 10  2  0
 11  9  1  0
 10 12  1  0
 13 11  2  0
 12 14  2  0
 14 13  1  0
 14 15  1  0
 15 16  1  0
 16 17  1  0
 16 18  1  0
 18 19  2  0
 20 18  1  0
 19 21  1  0
 22 20  2  0
 20 23  1  0
 21 24  1  0
 21 25  2  0
 25 22  1  0
 23 26  1  0
 23 27  2  0
 24 28  1  0
 25 29  1  0
 28 29  1  0
  4 30  2  0
  4 31  1  0
 32 31  1  0
 32 33  1  0
 33 34  1  0
 33 35  1  0
 34 36  1  0
 35 37  1  0
 35 38  1  0
 38 36  1  0
 36 39  1  0
 38 40  1  0
 41 39  1  0
 42 39  1  0
 43 41  2  0
 41 44  1  0
 45 42  2  0
 46 43  1  0
 44 47  2  0
 44 45  1  0
 48 46  2  0
 48 47  1  0
 47 49  1  0
  6 50  1  1
  7 51  1  0
  7 52  1  0
  8 53  1  0
  8 54  1  0
 10 55  1  0
 11 56  1  0
 12 57  1  0
 13 58  1  0
 16 59  1  6
 17 60  1  0
 17 61  1  0
 17 62  1  0
 19 63  1  0
 22 64  1  0
 28 65  1  0
 28 66  1  0
 32 67  1  0
 32 68  1  0
 33 69  1  0
 35 70  1  0
 36 71  1  0
 37 72  1  0
 38 73  1  0
 40 74  1  0
 42 75  1  0
 46 76  1  0
 49 77  1  0
 49 78  1  0
M  CHG  3   5  -1  23   1  26  -1
M  END
>  <EmbedRMS>  (192) 
0.0832856264454

$$$$

     RDKit          3D

 78 83  0  0  0  0  0  0  0  0999 V2000
   10.2834   43.7663   33.8255 C   0  0  0  0  0  0  0  0  0  0  0  0
   11.4102   43.5930   34.3751 O   0  0  0  0  0  0  0  0  0  0  0  0
    9.3635   42.7258   33.7351 O   0  0  0  0  0  0  0  0  0  0  0  0
    9.8902   41.2269   34.2941 P   0  0  0  0  0  0  0  0  0  0  0  0
   10.3739   41.4560   35.8834 O   0  0  0  0  0  0  0  0  0  0  0  0
    9.9548   45.0696   33.2034 C   0  0  1  0  0  0  0  0  0  0  0  0
   11.0274   46.0323   33.4758 N   0  0  0  0  0  0  0  0  0  0  0  0
    9.7472   44.8485   31.6874 C   0  0  0  0  0  0  0  0  0  0  0  0
    8.7925   45.8410   31.0844 C   0  0  0  0  0  0  0  0  0  0  0  0
    7.4058   45.6011   31.0999 C   0  0  0  0  0  0  0  0  0  0  0  0
    9.2816   46.9883   30.4424 C   0  0  0  0  0  0  0  0  0  0  0  0
    6.5244   46.5010   30.4859 C   0  0  0  0  0  0  0  0  0  0  0  0
    8.4002   47.8885   29.8328 C   0  0  0  0  0  0  0  0  0  0  0  0
    7.0189   47.6553   29.8444 C   0  0  0  0  0  0  0  0  0  0  0  0
    6.1829   48.5852   29.2043 O   0  0  0  0  0  0  0  0  0  0  0  0
    4.7665   48.4592   29.0587 C   0  0  1  0  0  0  0  0  0  0  0  0
    4.1778   49.7736   28.5474 C   0  0  0  0  0  0  0  0  0  0  0  0
    4.3806   47.3074   28.1416 C   0  0  0  0  0  0  0  0  0  0  0  0
    3.1790   46.6197   28.4388 C   0  0  0  0  0  0  0  0  0  0  0  0
    5.1877   46.8601   27.0372 C   0  0  0  0  0  0  0  0  0  0  0  0
    2.8340   45.5168   27.6696 C   0  0  0  0  0  0  0  0  0  0  0  0
    4.7916   45.7200   26.3021 C   0  0  0  0  0  0  0  0  0  0  0  0
    6.4027   47.5233   26.6552 N   0  0  0  0  0  0  0  0  0  0  0  0
    1.7249   44.7013   27.7864 O   0  0  0  0  0  0  0  0  0  0  0  0
    3.6082   45.0835   26.6494 C   0  0  0  0  0  0  0  0  0  0  0  0
    7.4829   46.7798   26.2388 O   0  0  0  0  0  0  0  0  0  0  0  0
    6.4214   48.7585   26.4832 O   0  0  0  0  0  0  0  0  0  0  0  0
    1.8101   43.6911   26.7719 C   0  0  0  0  0  0  0  0  0  0  0  0
    3.0279   43.9723   26.0686 O   0  0  0  0  0  0  0  0  0  0  0  0
    8.8120   40.1852   34.2131 O   0  0  0  0  0  0  0  0  0  0  0  0
   11.2402   40.7952   33.3681 O   0  0  0  0  0  0  0  0  0  0  0  0
   10.9125   40.6877   31.9968 C   0  0  0  0  0  0  0  0  0  0  0  0
   11.5170   39.3811   31.4420 C   0  0  0  0  0  0  0  0  0  0  0  0
   12.7500   39.0881   32.0759 O   0  0  0  0  0  0  0  0  0  0  0  0
   10.6043   38.1893   31.6658 C   0  0  0  0  0  0  0  0  0  0  0  0
   12.9396   37.6814   32.0280 C   0  0  0  0  0  0  0  0  0  0  0  0
    9.6354   38.0952   30.6497 O   0  0  0  0  0  0  0  0  0  0  0  0
   11.5804   37.0191   31.6934 C   0  0  0  0  0  0  0  0  0  0  0  0
   13.4851   37.2118   33.3244 N   0  0  0  0  0  0  0  0  0  0  0  0
   11.6118   36.3189   30.4673 O   0  0  0  0  0  0  0  0  0  0  0  0
   14.4800   36.3316   33.5733 C   0  0  0  0  0  0  0  0  0  0  0  0
   13.1139   37.6277   34.5693 C   0  0  0  0  0  0  0  0  0  0  0  0
   15.2076   35.6154   32.6745 N   0  0  0  0  0  0  0  0  0  0  0  0
   14.6756   36.2303   34.9186 C   0  0  0  0  0  0  0  0  0  0  0  0
   13.8215   37.0451   35.5787 N   0  0  0  0  0  0  0  0  0  0  0  0
   16.1642   34.7602   33.1551 C   0  0  0  0  0  0  0  0  0  0  0  0
   15.6526   35.3505   35.4134 C   0  0  0  0  0  0  0  0  0  0  0  0
   16.3795   34.6315   34.5046 N   0  0  0  0  0  0  0  0  0  0  0  0
   15.9001   35.1932   36.8093 N   0  0  0  0  0  0  0  0  0  0  0  0
    9.0121   45.4318   33.6711 H   0  0  0  0  0  0  0  0  0  0  0  0
   11.8909   45.7660   32.9475 H   0  0  0  0  0  0  0  0  0  0  0  0
   10.7261   46.9688   33.1212 H   0  0  0  0  0  0  0  0  0  0  0  0
   10.7236   44.8825   31.1555 H   0  0  0  0  0  0  0  0  0  0  0  0
    9.3425   43.8332   31.4758 H   0  0  0  0  0  0  0  0  0  0  0  0
    7.0102   44.7159   31.5826 H   0  0  0  0  0  0  0  0  0  0  0  0
   10.3459   47.1865   30.4102 H   0  0  0  0  0  0  0  0  0  0  0  0
    5.4658   46.2861   30.5168 H   0  0  0  0  0  0  0  0  0  0  0  0
    8.7934   48.7686   29.3399 H   0  0  0  0  0  0  0  0  0  0  0  0
    4.3334   48.2952   30.0712 H   0  0  0  0  0  0  0  0  0  0  0  0
    4.5283   50.0040   27.5217 H   0  0  0  0  0  0  0  0  0  0  0  0
    3.0683   49.7150   28.5372 H   0  0  0  0  0  0  0  0  0  0  0  0
    4.4775   50.6051   29.2198 H   0  0  0  0  0  0  0  0  0  0  0  0
    2.5393   46.9266   29.2568 H   0  0  0  0  0  0  0  0  0  0  0  0
    5.3809   45.3531   25.4716 H   0  0  0  0  0  0  0  0  0  0  0  0
    0.9434   43.7654   26.0821 H   0  0  0  0  0  0  0  0  0  0  0  0
    1.8595   42.6838   27.2361 H   0  0  0  0  0  0  0  0  0  0  0  0
    9.8215   40.7219   31.7648 H   0  0  0  0  0  0  0  0  0  0  0  0
   11.3806   41.5457   31.4684 H   0  0  0  0  0  0  0  0  0  0  0  0
   11.6987   39.5089   30.3498 H   0  0  0  0  0  0  0  0  0  0  0  0
   10.1110   38.2737   32.6629 H   0  0  0  0  0  0  0  0  0  0  0  0
   13.6784   37.4563   31.2271 H   0  0  0  0  0  0  0  0  0  0  0  0
    9.0019   37.3862   30.9346 H   0  0  0  0  0  0  0  0  0  0  0  0
   11.2807   36.3054   32.4921 H   0  0  0  0  0  0  0  0  0  0  0  0
   11.8818   36.9601   29.7584 H   0  0  0  0  0  0  0  0  0  0  0  0
   12.3303   38.3539   34.7446 H   0  0  0  0  0  0  0  0  0  0  0  0
   16.7563   34.1783   32.4623 H   0  0  0  0  0  0  0  0  0  0  0  0
   15.3532   35.7358   37.5142 H   0  0  0  0  0  0  0  0  0  0  0  0
   16.6348   34.5300   37.1417 H   0  0  0  0  0  0  0  0  0  0  0  0
  1  2  2  0
  1  3  1  0
  3  4  1  0
  4  5  1  0
  6  1  1  0
  7  6  1  0
  6  8  1  0
  8  9  1  0
  9 10  2  0
 11  9  1  0
 10 12  1  0
 13 11  2  0
 12 14  2  0
 14 13  1  0
 14 15  1  0
 15 16  1  0
 16 17  1  0
 16 18  1  0
 18 19  2  0
 20 18  1  0
 19 21  1  0
 22 20  2  0
 20 23  1  0
 21 24  1  0
 21 25  2  0
 25 22  1  0
 23 26  1  0
 23 27  2  0
 24 28  1  0
 25 29  1  0
 28 29  1  0
  4 30  2  0
  4 31  1  0
 32 31  1  0
 32 33  1  0
 33 34  1  0
 33 35  1  0
 34 36  1  0
 35 37  1  0
 35 38  1  0
 38 36  1  0
 36 39  1  0
 38 40  1  0
 41 39  1  0
 42 39  1  0
 43 41  2  0
 41 44  1  0
 45 42  2  0
 46 43  1  0
 44 47  2  0
 44 45  1  0
 48 46  2  0
 48 47  1  0
 47 49  1  0
  6 50  1  1
  7 51  1  0
  7 52  1  0
  8 53  1  0
  8 54  1  0
 10 55  1  0
 11 56  1  0
 12 57  1  0
 13 58  1  0
 16 59  1  1
 17 60  1  0
 17 61  1  0
 17 62  1  0
 19 63  1  0
 22 64  1  0
 28 65  1  0
 28 66  1  0
 32 67  1  0
 32 68  1  0
 33 69  1  0
 35 70  1  0
 36 71  1  0
 37 72  1  0
 38 73  1  0
 40 74  1  0
 42 75  1  0
 46 76  1  0
 49 77  1  0
 49 78  1  0
M  CHG  3   5  -1  23   1  26  -1
M  END
>  <EmbedRMS>  (193) 
0.0815524664458

$$$$

     RDKit          3D

 78 83  0  0  0  0  0  0  0  0999 V2000
   10.2835   43.7662   33.8258 C   0  0  0  0  0  0  0  0  0  0  0  0
   11.4102   43.5930   34.3753 O   0  0  0  0  0  0  0  0  0  0  0  0
    9.3638   42.7255   33.7351 O   0  0  0  0  0  0  0  0  0  0  0  0
    9.8903   41.2268   34.2946 P   0  0  0  0  0  0  0  0  0  0  0  0
   10.3728   41.4561   35.8842 O   0  0  0  0  0  0  0  0  0  0  0  0
    9.9548   45.0695   33.2036 C   0  0  1  0  0  0  0  0  0  0  0  0
   11.0273   46.0323   33.4761 N   0  0  0  0  0  0  0  0  0  0  0  0
    9.7474   44.8482   31.6877 C   0  0  0  0  0  0  0  0  0  0  0  0
    8.7931   45.8408   31.0845 C   0  0  0  0  0  0  0  0  0  0  0  0
    7.4070   45.6015   31.0987 C   0  0  0  0  0  0  0  0  0  0  0  0
    9.2817   46.9870   30.4419 C   0  0  0  0  0  0  0  0  0  0  0  0
    6.5256   46.5015   30.4842 C   0  0  0  0  0  0  0  0  0  0  0  0
    8.3997   47.8863   29.8326 C   0  0  0  0  0  0  0  0  0  0  0  0
    7.0164   47.6585   29.8463 C   0  0  0  0  0  0  0  0  0  0  0  0
    6.1958   48.6133   29.2182 O   0  0  0  0  0  0  0  0  0  0  0  0
    4.7645   48.6539   29.1442 C   0  0  1  0  0  0  0  0  0  0  0  0
    4.2458   47.5870   28.1673 C   0  0  0  0  0  0  0  0  0  0  0  0
    4.1097   48.6855   30.5265 C   0  0  0  0  0  0  0  0  0  0  0  0
    3.2785   47.6167   30.9624 C   0  0  0  0  0  0  0  0  0  0  0  0
    4.2501   49.8383   31.3771 C   0  0  0  0  0  0  0  0  0  0  0  0
    2.6660   47.7080   32.2044 C   0  0  0  0  0  0  0  0  0  0  0  0
    3.5881   49.8762   32.6250 C   0  0  0  0  0  0  0  0  0  0  0  0
    4.9972   50.9985   30.9737 N   0  0  0  0  0  0  0  0  0  0  0  0
    1.8402   46.7890   32.8230 O   0  0  0  0  0  0  0  0  0  0  0  0
    2.8154   48.7884   33.0010 C   0  0  0  0  0  0  0  0  0  0  0  0
    4.5347   52.2521   31.3017 O   0  0  0  0  0  0  0  0  0  0  0  0
    6.1576   50.8864   30.5313 O   0  0  0  0  0  0  0  0  0  0  0  0
    1.4488   47.3299   34.0921 C   0  0  0  0  0  0  0  0  0  0  0  0
    2.0932   48.6088   34.1651 O   0  0  0  0  0  0  0  0  0  0  0  0
    8.8125   40.1848   34.2125 O   0  0  0  0  0  0  0  0  0  0  0  0
   11.2416   40.7948   33.3707 O   0  0  0  0  0  0  0  0  0  0  0  0
   10.9179   40.6921   31.9984 C   0  0  0  0  0  0  0  0  0  0  0  0
   11.5175   39.3837   31.4423 C   0  0  0  0  0  0  0  0  0  0  0  0
   12.7508   39.0887   32.0752 O   0  0  0  0  0  0  0  0  0  0  0  0
   10.6028   38.1916   31.6659 C   0  0  0  0  0  0  0  0  0  0  0  0
   12.9385   37.6819   32.0278 C   0  0  0  0  0  0  0  0  0  0  0  0
    9.6371   38.0806   30.6470 O   0  0  0  0  0  0  0  0  0  0  0  0
   11.5780   37.0215   31.6935 C   0  0  0  0  0  0  0  0  0  0  0  0
   13.4844   37.2120   33.3242 N   0  0  0  0  0  0  0  0  0  0  0  0
   11.6095   36.3201   30.4679 O   0  0  0  0  0  0  0  0  0  0  0  0
   14.4797   36.3318   33.5730 C   0  0  0  0  0  0  0  0  0  0  0  0
   13.1136   37.6278   34.5691 C   0  0  0  0  0  0  0  0  0  0  0  0
   15.2073   35.6155   32.6742 N   0  0  0  0  0  0  0  0  0  0  0  0
   14.6754   36.2305   34.9184 C   0  0  0  0  0  0  0  0  0  0  0  0
   13.8213   37.0452   35.5785 N   0  0  0  0  0  0  0  0  0  0  0  0
   16.1640   34.7604   33.1549 C   0  0  0  0  0  0  0  0  0  0  0  0
   15.6524   35.3507   35.4132 C   0  0  0  0  0  0  0  0  0  0  0  0
   16.3794   34.6317   34.5044 N   0  0  0  0  0  0  0  0  0  0  0  0
   15.8999   35.1934   36.8091 N   0  0  0  0  0  0  0  0  0  0  0  0
    9.0120   45.4316   33.6712 H   0  0  0  0  0  0  0  0  0  0  0  0
   11.8908   45.7660   32.9478 H   0  0  0  0  0  0  0  0  0  0  0  0
   10.7259   46.9688   33.1216 H   0  0  0  0  0  0  0  0  0  0  0  0
    9.3426   43.8330   31.4759 H   0  0  0  0  0  0  0  0  0  0  0  0
   10.7239   44.8821   31.1560 H   0  0  0  0  0  0  0  0  0  0  0  0
    7.0114   44.7154   31.5799 H   0  0  0  0  0  0  0  0  0  0  0  0
   10.3459   47.1859   30.4100 H   0  0  0  0  0  0  0  0  0  0  0  0
    5.4768   46.2732   30.5140 H   0  0  0  0  0  0  0  0  0  0  0  0
    8.7942   48.7689   29.3450 H   0  0  0  0  0  0  0  0  0  0  0  0
    4.5003   49.6203   28.6623 H   0  0  0  0  0  0  0  0  0  0  0  0
    4.5116   46.5611   28.4880 H   0  0  0  0  0  0  0  0  0  0  0  0
    4.6971   47.7542   27.1663 H   0  0  0  0  0  0  0  0  0  0  0  0
    3.1426   47.6657   28.0631 H   0  0  0  0  0  0  0  0  0  0  0  0
    3.1063   46.7325   30.3661 H   0  0  0  0  0  0  0  0  0  0  0  0
    3.6762   50.7310   33.2833 H   0  0  0  0  0  0  0  0  0  0  0  0
    1.8037   46.6745   34.9149 H   0  0  0  0  0  0  0  0  0  0  0  0
    0.3463   47.4533   34.1336 H   0  0  0  0  0  0  0  0  0  0  0  0
   11.3951   41.5478   31.4744 H   0  0  0  0  0  0  0  0  0  0  0  0
    9.8291   40.7408   31.7627 H   0  0  0  0  0  0  0  0  0  0  0  0
   11.6981   39.5115   30.3501 H   0  0  0  0  0  0  0  0  0  0  0  0
   10.1117   38.2604   32.6660 H   0  0  0  0  0  0  0  0  0  0  0  0
   13.6767   37.4556   31.2267 H   0  0  0  0  0  0  0  0  0  0  0  0
    8.8961   38.6952   30.8872 H   0  0  0  0  0  0  0  0  0  0  0  0
   11.2792   36.3072   32.4922 H   0  0  0  0  0  0  0  0  0  0  0  0
   11.8827   36.9598   29.7588 H   0  0  0  0  0  0  0  0  0  0  0  0
   12.3300   38.3539   34.7446 H   0  0  0  0  0  0  0  0  0  0  0  0
   16.7562   34.1785   32.4622 H   0  0  0  0  0  0  0  0  0  0  0  0
   16.6347   34.5303   37.1417 H   0  0  0  0  0  0  0  0  0  0  0  0
   15.3531   35.7360   37.5140 H   0  0  0  0  0  0  0  0  0  0  0  0
  1  2  2  0
  1  3  1  0
  3  4  1  0
  4  5  1  0
  6  1  1  0
  7  6  1  0
  6  8  1  0
  8  9  1  0
  9 10  2  0
 11  9  1  0
 10 12  1  0
 13 11  2  0
 12 14  2  0
 14 13  1  0
 14 15  1  0
 15 16  1  0
 16 17  1  0
 16 18  1  0
 18 19  2  0
 20 18  1  0
 19 21  1  0
 22 20  2  0
 20 23  1  0
 21 24  1  0
 21 25  2  0
 25 22  1  0
 23 26  1  0
 23 27  2  0
 24 28  1  0
 25 29  1  0
 28 29  1  0
  4 30  2  0
  4 31  1  0
 32 31  1  0
 32 33  1  0
 33 34  1  0
 33 35  1  0
 34 36  1  0
 35 37  1  0
 35 38  1  0
 38 36  1  0
 36 39  1  0
 38 40  1  0
 41 39  1  0
 42 39  1  0
 43 41  2  0
 41 44  1  0
 45 42  2  0
 46 43  1  0
 44 47  2  0
 44 45  1  0
 48 46  2  0
 48 47  1  0
 47 49  1  0
  6 50  1  1
  7 51  1  0
  7 52  1  0
  8 53  1  0
  8 54  1  0
 10 55  1  0
 11 56  1  0
 12 57  1  0
 13 58  1  0
 16 59  1  6
 17 60  1  0
 17 61  1  0
 17 62  1  0
 19 63  1  0
 22 64  1  0
 28 65  1  0
 28 66  1  0
 32 67  1  0
 32 68  1  0
 33 69  1  0
 35 70  1  0
 36 71  1  0
 37 72  1  0
 38 73  1  0
 40 74  1  0
 42 75  1  0
 46 76  1  0
 49 77  1  0
 49 78  1  0
M  CHG  3   5  -1  23   1  26  -1
M  END
>  <EmbedRMS>  (194) 
0.0819583854822

$$$$

     RDKit          3D

 78 83  0  0  0  0  0  0  0  0999 V2000
   10.2803   43.7664   33.8246 C   0  0  0  0  0  0  0  0  0  0  0  0
   11.4109   43.5920   34.3664 O   0  0  0  0  0  0  0  0  0  0  0  0
    9.3618   42.7249   33.7343 O   0  0  0  0  0  0  0  0  0  0  0  0
    9.8899   41.2267   34.2939 P   0  0  0  0  0  0  0  0  0  0  0  0
   10.3734   41.4568   35.8832 O   0  0  0  0  0  0  0  0  0  0  0  0
    9.9458   45.0736   33.2106 C   0  0  1  0  0  0  0  0  0  0  0  0
   11.0265   46.0292   33.4703 N   0  0  0  0  0  0  0  0  0  0  0  0
    9.7536   44.8540   31.6942 C   0  0  0  0  0  0  0  0  0  0  0  0
    8.7953   45.8408   31.0836 C   0  0  0  0  0  0  0  0  0  0  0  0
    7.4074   45.6008   31.1023 C   0  0  0  0  0  0  0  0  0  0  0  0
    9.2828   46.9901   30.4409 C   0  0  0  0  0  0  0  0  0  0  0  0
    6.5264   46.5030   30.4899 C   0  0  0  0  0  0  0  0  0  0  0  0
    8.4004   47.8914   29.8335 C   0  0  0  0  0  0  0  0  0  0  0  0
    7.0200   47.6438   29.8420 C   0  0  0  0  0  0  0  0  0  0  0  0
    6.1267   48.5322   29.2346 O   0  0  0  0  0  0  0  0  0  0  0  0
    5.8832   48.6141   27.8233 C   0  0  1  0  0  0  0  0  0  0  0  0
    7.1204   49.0802   27.0468 C   0  0  0  0  0  0  0  0  0  0  0  0
    5.3148   47.3085   27.2745 C   0  0  0  0  0  0  0  0  0  0  0  0
    6.1368   46.1522   27.2400 C   0  0  0  0  0  0  0  0  0  0  0  0
    3.9474   47.1978   26.8522 C   0  0  0  0  0  0  0  0  0  0  0  0
    5.5770   44.9468   26.8396 C   0  0  0  0  0  0  0  0  0  0  0  0
    3.4292   45.9408   26.4670 C   0  0  0  0  0  0  0  0  0  0  0  0
    3.0867   48.3427   26.7833 N   0  0  0  0  0  0  0  0  0  0  0  0
    6.1818   43.7079   26.7485 O   0  0  0  0  0  0  0  0  0  0  0  0
    4.2792   44.8440   26.4749 C   0  0  0  0  0  0  0  0  0  0  0  0
    3.4374   49.4107   25.9901 O   0  0  0  0  0  0  0  0  0  0  0  0
    1.9149   48.2644   27.2063 O   0  0  0  0  0  0  0  0  0  0  0  0
    5.1978   42.7677   26.2964 C   0  0  0  0  0  0  0  0  0  0  0  0
    3.9974   43.5353   26.1332 O   0  0  0  0  0  0  0  0  0  0  0  0
    8.8123   40.1844   34.2133 O   0  0  0  0  0  0  0  0  0  0  0  0
   11.2405   40.7942   33.3691 O   0  0  0  0  0  0  0  0  0  0  0  0
   10.9150   40.6905   31.9972 C   0  0  0  0  0  0  0  0  0  0  0  0
   11.5252   39.3886   31.4375 C   0  0  0  0  0  0  0  0  0  0  0  0
   12.7499   39.0874   32.0799 O   0  0  0  0  0  0  0  0  0  0  0  0
   10.6092   38.1926   31.6469 C   0  0  0  0  0  0  0  0  0  0  0  0
   12.9332   37.6793   32.0294 C   0  0  0  0  0  0  0  0  0  0  0  0
    9.6121   38.0894   30.6542 O   0  0  0  0  0  0  0  0  0  0  0  0
   11.5743   37.0145   31.7024 C   0  0  0  0  0  0  0  0  0  0  0  0
   13.4844   37.2108   33.3241 N   0  0  0  0  0  0  0  0  0  0  0  0
   11.6297   36.3239   30.4740 O   0  0  0  0  0  0  0  0  0  0  0  0
   14.4802   36.3313   33.5726 C   0  0  0  0  0  0  0  0  0  0  0  0
   13.1138   37.6267   34.5692 C   0  0  0  0  0  0  0  0  0  0  0  0
   15.2075   35.6149   32.6739 N   0  0  0  0  0  0  0  0  0  0  0  0
   14.6761   36.2303   34.9181 C   0  0  0  0  0  0  0  0  0  0  0  0
   13.8220   37.0447   35.5785 N   0  0  0  0  0  0  0  0  0  0  0  0
   16.1643   34.7600   33.1547 C   0  0  0  0  0  0  0  0  0  0  0  0
   15.6529   35.3505   35.4130 C   0  0  0  0  0  0  0  0  0  0  0  0
   16.3798   34.6315   34.5042 N   0  0  0  0  0  0  0  0  0  0  0  0
   15.9003   35.1932   36.8090 N   0  0  0  0  0  0  0  0  0  0  0  0
    8.9993   45.4381   33.6716 H   0  0  0  0  0  0  0  0  0  0  0  0
   11.0501   46.2275   34.4977 H   0  0  0  0  0  0  0  0  0  0  0  0
   10.7762   46.9369   33.0155 H   0  0  0  0  0  0  0  0  0  0  0  0
    9.3639   43.8353   31.4706 H   0  0  0  0  0  0  0  0  0  0  0  0
   10.7406   44.9077   31.1827 H   0  0  0  0  0  0  0  0  0  0  0  0
    7.0119   44.7169   31.5872 H   0  0  0  0  0  0  0  0  0  0  0  0
   10.3462   47.1930   30.4128 H   0  0  0  0  0  0  0  0  0  0  0  0
    5.4615   46.3089   30.5065 H   0  0  0  0  0  0  0  0  0  0  0  0
    8.7919   48.7837   29.3637 H   0  0  0  0  0  0  0  0  0  0  0  0
    5.1416   49.4257   27.7080 H   0  0  0  0  0  0  0  0  0  0  0  0
    7.9393   48.3343   27.0896 H   0  0  0  0  0  0  0  0  0  0  0  0
    6.8539   49.2478   25.9814 H   0  0  0  0  0  0  0  0  0  0  0  0
    7.4896   50.0382   27.4701 H   0  0  0  0  0  0  0  0  0  0  0  0
    7.1764   46.1786   27.5360 H   0  0  0  0  0  0  0  0  0  0  0  0
    2.4004   45.8299   26.1491 H   0  0  0  0  0  0  0  0  0  0  0  0
    5.0453   41.9752   27.0587 H   0  0  0  0  0  0  0  0  0  0  0  0
    5.5057   42.3268   25.3252 H   0  0  0  0  0  0  0  0  0  0  0  0
    9.8241   40.7215   31.7640 H   0  0  0  0  0  0  0  0  0  0  0  0
   11.3800   41.5528   31.4730 H   0  0  0  0  0  0  0  0  0  0  0  0
   11.7266   39.5310   30.3512 H   0  0  0  0  0  0  0  0  0  0  0  0
   10.1110   38.2747   32.6387 H   0  0  0  0  0  0  0  0  0  0  0  0
   13.6652   37.4520   31.2226 H   0  0  0  0  0  0  0  0  0  0  0  0
   10.0511   38.1144   29.7644 H   0  0  0  0  0  0  0  0  0  0  0  0
   11.2762   36.3141   32.5189 H   0  0  0  0  0  0  0  0  0  0  0  0
   10.8592   35.6978   30.4639 H   0  0  0  0  0  0  0  0  0  0  0  0
   12.3295   38.3518   34.7449 H   0  0  0  0  0  0  0  0  0  0  0  0
   16.7564   34.1780   32.4620 H   0  0  0  0  0  0  0  0  0  0  0  0
   15.3534   35.7359   37.5138 H   0  0  0  0  0  0  0  0  0  0  0  0
   16.6349   34.5300   37.1415 H   0  0  0  0  0  0  0  0  0  0  0  0
  1  2  2  0
  1  3  1  0
  3  4  1  0
  4  5  1  0
  6  1  1  0
  7  6  1  0
  6  8  1  0
  8  9  1  0
  9 10  2  0
 11  9  1  0
 10 12  1  0
 13 11  2  0
 12 14  2  0
 14 13  1  0
 14 15  1  0
 15 16  1  0
 16 17  1  0
 16 18  1  0
 18 19  2  0
 20 18  1  0
 19 21  1  0
 22 20  2  0
 20 23  1  0
 21 24  1  0
 21 25  2  0
 25 22  1  0
 23 26  1  0
 23 27  2  0
 24 28  1  0
 25 29  1  0
 28 29  1  0
  4 30  2  0
  4 31  1  0
 32 31  1  0
 32 33  1  0
 33 34  1  0
 33 35  1  0
 34 36  1  0
 35 37  1  0
 35 38  1  0
 38 36  1  0
 36 39  1  0
 38 40  1  0
 41 39  1  0
 42 39  1  0
 43 41  2  0
 41 44  1  0
 45 42  2  0
 46 43  1  0
 44 47  2  0
 44 45  1  0
 48 46  2  0
 48 47  1  0
 47 49  1  0
  6 50  1  1
  7 51  1  0
  7 52  1  0
  8 53  1  0
  8 54  1  0
 10 55  1  0
 11 56  1  0
 12 57  1  0
 13 58  1  0
 16 59  1  1
 17 60  1  0
 17 61  1  0
 17 62  1  0
 19 63  1  0
 22 64  1  0
 28 65  1  0
 28 66  1  0
 32 67  1  0
 32 68  1  0
 33 69  1  0
 35 70  1  0
 36 71  1  0
 37 72  1  0
 38 73  1  0
 40 74  1  0
 42 75  1  0
 46 76  1  0
 49 77  1  0
 49 78  1  0
M  CHG  3   5  -1  23   1  26  -1
M  END
>  <EmbedRMS>  (195) 
0.081767840673

$$$$

     RDKit          3D

 78 83  0  0  0  0  0  0  0  0999 V2000
   10.2838   43.7627   33.8276 C   0  0  0  0  0  0  0  0  0  0  0  0
   11.4102   43.5864   34.3766 O   0  0  0  0  0  0  0  0  0  0  0  0
    9.3630   42.7236   33.7353 O   0  0  0  0  0  0  0  0  0  0  0  0
    9.8894   41.2249   34.2944 P   0  0  0  0  0  0  0  0  0  0  0  0
   10.3726   41.4547   35.8838 O   0  0  0  0  0  0  0  0  0  0  0  0
    9.9548   45.0700   33.2061 C   0  0  1  0  0  0  0  0  0  0  0  0
   11.0196   46.0482   33.4570 N   0  0  0  0  0  0  0  0  0  0  0  0
    9.7509   44.8507   31.6919 C   0  0  0  0  0  0  0  0  0  0  0  0
    8.7948   45.8409   31.0856 C   0  0  0  0  0  0  0  0  0  0  0  0
    7.4082   45.6010   31.1011 C   0  0  0  0  0  0  0  0  0  0  0  0
    9.2826   46.9890   30.4450 C   0  0  0  0  0  0  0  0  0  0  0  0
    6.5263   46.5008   30.4870 C   0  0  0  0  0  0  0  0  0  0  0  0
    8.4004   47.8888   29.8357 C   0  0  0  0  0  0  0  0  0  0  0  0
    7.0187   47.6544   29.8423 C   0  0  0  0  0  0  0  0  0  0  0  0
    6.1869   48.6020   29.2136 O   0  0  0  0  0  0  0  0  0  0  0  0
    4.8050   48.4500   28.8478 C   0  0  1  0  0  0  0  0  0  0  0  0
    4.6094   47.1774   27.9982 C   0  0  0  0  0  0  0  0  0  0  0  0
    3.8492   48.5421   30.0407 C   0  0  0  0  0  0  0  0  0  0  0  0
    4.3582   48.7742   31.3470 C   0  0  0  0  0  0  0  0  0  0  0  0
    2.4270   48.4145   29.8725 C   0  0  0  0  0  0  0  0  0  0  0  0
    3.4762   48.7751   32.4191 C   0  0  0  0  0  0  0  0  0  0  0  0
    1.5806   48.4063   31.0046 C   0  0  0  0  0  0  0  0  0  0  0  0
    1.8260   48.3371   28.5718 N   0  0  0  0  0  0  0  0  0  0  0  0
    3.7565   48.9536   33.7603 O   0  0  0  0  0  0  0  0  0  0  0  0
    2.1480   48.5886   32.2565 C   0  0  0  0  0  0  0  0  0  0  0  0
    2.1323   49.2787   27.6170 O   0  0  0  0  0  0  0  0  0  0  0  0
    0.8573   47.5742   28.3772 O   0  0  0  0  0  0  0  0  0  0  0  0
    2.5220   48.8699   34.4851 C   0  0  0  0  0  0  0  0  0  0  0  0
    1.5198   48.6373   33.4861 O   0  0  0  0  0  0  0  0  0  0  0  0
    8.8114   40.1834   34.2129 O   0  0  0  0  0  0  0  0  0  0  0  0
   11.2402   40.7931   33.3696 O   0  0  0  0  0  0  0  0  0  0  0  0
   10.9151   40.6903   31.9975 C   0  0  0  0  0  0  0  0  0  0  0  0
   11.5252   39.3885   31.4375 C   0  0  0  0  0  0  0  0  0  0  0  0
   12.7500   39.0873   32.0798 O   0  0  0  0  0  0  0  0  0  0  0  0
   10.6092   38.1925   31.6469 C   0  0  0  0  0  0  0  0  0  0  0  0
   12.9332   37.6792   32.0294 C   0  0  0  0  0  0  0  0  0  0  0  0
    9.6122   38.0894   30.6542 O   0  0  0  0  0  0  0  0  0  0  0  0
   11.5743   37.0144   31.7024 C   0  0  0  0  0  0  0  0  0  0  0  0
   13.4844   37.2108   33.3241 N   0  0  0  0  0  0  0  0  0  0  0  0
   11.6297   36.3238   30.4740 O   0  0  0  0  0  0  0  0  0  0  0  0
   14.4802   36.3313   33.5726 C   0  0  0  0  0  0  0  0  0  0  0  0
   13.1138   37.6266   34.5692 C   0  0  0  0  0  0  0  0  0  0  0  0
   15.2075   35.6149   32.6739 N   0  0  0  0  0  0  0  0  0  0  0  0
   14.6761   36.2303   34.9181 C   0  0  0  0  0  0  0  0  0  0  0  0
   13.8220   37.0447   35.5785 N   0  0  0  0  0  0  0  0  0  0  0  0
   16.1643   34.7600   33.1547 C   0  0  0  0  0  0  0  0  0  0  0  0
   15.6529   35.3505   35.4130 C   0  0  0  0  0  0  0  0  0  0  0  0
   16.3798   34.6315   34.5042 N   0  0  0  0  0  0  0  0  0  0  0  0
   15.9003   35.1932   36.8090 N   0  0  0  0  0  0  0  0  0  0  0  0
    9.0096   45.4349   33.6663 H   0  0  0  0  0  0  0  0  0  0  0  0
   11.9348   45.6934   33.0930 H   0  0  0  0  0  0  0  0  0  0  0  0
   11.1127   46.1994   34.4883 H   0  0  0  0  0  0  0  0  0  0  0  0
   10.7314   44.8927   31.1675 H   0  0  0  0  0  0  0  0  0  0  0  0
    9.3523   43.8340   31.4757 H   0  0  0  0  0  0  0  0  0  0  0  0
    7.0124   44.7203   31.5919 H   0  0  0  0  0  0  0  0  0  0  0  0
   10.3464   47.1902   30.4165 H   0  0  0  0  0  0  0  0  0  0  0  0
    5.4685   46.3006   30.5513 H   0  0  0  0  0  0  0  0  0  0  0  0
    8.7938   48.7722   29.3489 H   0  0  0  0  0  0  0  0  0  0  0  0
    4.5778   49.3158   28.1918 H   0  0  0  0  0  0  0  0  0  0  0  0
    3.8181   47.3278   27.2367 H   0  0  0  0  0  0  0  0  0  0  0  0
    5.5431   46.9346   27.4478 H   0  0  0  0  0  0  0  0  0  0  0  0
    4.3226   46.3052   28.6197 H   0  0  0  0  0  0  0  0  0  0  0  0
    5.4067   48.9468   31.5403 H   0  0  0  0  0  0  0  0  0  0  0  0
    0.5079   48.2997   30.9055 H   0  0  0  0  0  0  0  0  0  0  0  0
    2.5536   48.0218   35.2009 H   0  0  0  0  0  0  0  0  0  0  0  0
    2.3216   49.8252   35.0139 H   0  0  0  0  0  0  0  0  0  0  0  0
    9.8243   40.7216   31.7640 H   0  0  0  0  0  0  0  0  0  0  0  0
   11.3805   41.5528   31.4739 H   0  0  0  0  0  0  0  0  0  0  0  0
   11.7265   39.5311   30.3512 H   0  0  0  0  0  0  0  0  0  0  0  0
   10.1110   38.2746   32.6387 H   0  0  0  0  0  0  0  0  0  0  0  0
   13.6652   37.4519   31.2226 H   0  0  0  0  0  0  0  0  0  0  0  0
   10.0511   38.1142   29.7644 H   0  0  0  0  0  0  0  0  0  0  0  0
   11.2762   36.3141   32.5189 H   0  0  0  0  0  0  0  0  0  0  0  0
   10.8593   35.6977   30.4640 H   0  0  0  0  0  0  0  0  0  0  0  0
   12.3294   38.3518   34.7449 H   0  0  0  0  0  0  0  0  0  0  0  0
   16.7564   34.1779   32.4620 H   0  0  0  0  0  0  0  0  0  0  0  0
   15.3534   35.7359   37.5138 H   0  0  0  0  0  0  0  0  0  0  0  0
   16.6349   34.5300   37.1415 H   0  0  0  0  0  0  0  0  0  0  0  0
  1  2  2  0
  1  3  1  0
  3  4  1  0
  4  5  1  0
  6  1  1  0
  7  6  1  0
  6  8  1  0
  8  9  1  0
  9 10  2  0
 11  9  1  0
 10 12  1  0
 13 11  2  0
 12 14  2  0
 14 13  1  0
 14 15  1  0
 15 16  1  0
 16 17  1  0
 16 18  1  0
 18 19  2  0
 20 18  1  0
 19 21  1  0
 22 20  2  0
 20 23  1  0
 21 24  1  0
 21 25  2  0
 25 22  1  0
 23 26  1  0
 23 27  2  0
 24 28  1  0
 25 29  1  0
 28 29  1  0
  4 30  2  0
  4 31  1  0
 32 31  1  0
 32 33  1  0
 33 34  1  0
 33 35  1  0
 34 36  1  0
 35 37  1  0
 35 38  1  0
 38 36  1  0
 36 39  1  0
 38 40  1  0
 41 39  1  0
 42 39  1  0
 43 41  2  0
 41 44  1  0
 45 42  2  0
 46 43  1  0
 44 47  2  0
 44 45  1  0
 48 46  2  0
 48 47  1  0
 47 49  1  0
  6 50  1  1
  7 51  1  0
  7 52  1  0
  8 53  1  0
  8 54  1  0
 10 55  1  0
 11 56  1  0
 12 57  1  0
 13 58  1  0
 16 59  1  6
 17 60  1  0
 17 61  1  0
 17 62  1  0
 19 63  1  0
 22 64  1  0
 28 65  1  0
 28 66  1  0
 32 67  1  0
 32 68  1  0
 33 69  1  0
 35 70  1  0
 36 71  1  0
 37 72  1  0
 38 73  1  0
 40 74  1  0
 42 75  1  0
 46 76  1  0
 49 77  1  0
 49 78  1  0
M  CHG  3   5  -1  23   1  26  -1
M  END
>  <EmbedRMS>  (196) 
0.0827314378458

$$$$

     RDKit          3D

 78 83  0  0  0  0  0  0  0  0999 V2000
   10.2835   43.7661   33.8255 C   0  0  0  0  0  0  0  0  0  0  0  0
   11.4102   43.5930   34.3753 O   0  0  0  0  0  0  0  0  0  0  0  0
    9.3640   42.7253   33.7346 O   0  0  0  0  0  0  0  0  0  0  0  0
    9.8908   41.2265   34.2938 P   0  0  0  0  0  0  0  0  0  0  0  0
   10.3732   41.4559   35.8835 O   0  0  0  0  0  0  0  0  0  0  0  0
    9.9547   45.0694   33.2034 C   0  0  1  0  0  0  0  0  0  0  0  0
   11.0273   46.0322   33.4758 N   0  0  0  0  0  0  0  0  0  0  0  0
    9.7472   44.8482   31.6873 C   0  0  0  0  0  0  0  0  0  0  0  0
    8.7926   45.8406   31.0839 C   0  0  0  0  0  0  0  0  0  0  0  0
    7.4059   45.6014   31.0998 C   0  0  0  0  0  0  0  0  0  0  0  0
    9.2817   46.9881   30.4426 C   0  0  0  0  0  0  0  0  0  0  0  0
    6.5245   46.5019   30.4862 C   0  0  0  0  0  0  0  0  0  0  0  0
    8.4003   47.8886   29.8336 C   0  0  0  0  0  0  0  0  0  0  0  0
    7.0187   47.6551   29.8434 C   0  0  0  0  0  0  0  0  0  0  0  0
    6.1845   48.5897   29.2082 O   0  0  0  0  0  0  0  0  0  0  0  0
    4.7790   48.4453   29.0004 C   0  0  1  0  0  0  0  0  0  0  0  0
    4.1908   49.7800   28.5413 C   0  0  0  0  0  0  0  0  0  0  0  0
    4.4733   47.3386   27.9998 C   0  0  0  0  0  0  0  0  0  0  0  0
    3.6002   46.3005   28.4098 C   0  0  0  0  0  0  0  0  0  0  0  0
    4.9764   47.3333   26.6527 C   0  0  0  0  0  0  0  0  0  0  0  0
    3.2639   45.3112   27.4957 C   0  0  0  0  0  0  0  0  0  0  0  0
    4.5849   46.3085   25.7631 C   0  0  0  0  0  0  0  0  0  0  0  0
    5.8487   48.3587   26.1591 N   0  0  0  0  0  0  0  0  0  0  0  0
    2.4411   44.2165   27.6790 O   0  0  0  0  0  0  0  0  0  0  0  0
    3.7341   45.3157   26.2281 C   0  0  0  0  0  0  0  0  0  0  0  0
    5.6056   48.9143   24.9243 O   0  0  0  0  0  0  0  0  0  0  0  0
    6.9596   48.5475   26.6935 O   0  0  0  0  0  0  0  0  0  0  0  0
    2.3948   43.4865   26.4454 C   0  0  0  0  0  0  0  0  0  0  0  0
    3.2338   44.2235   25.5456 O   0  0  0  0  0  0  0  0  0  0  0  0
    8.8127   40.1848   34.2122 O   0  0  0  0  0  0  0  0  0  0  0  0
   11.2420   40.7941   33.3697 O   0  0  0  0  0  0  0  0  0  0  0  0
   10.9187   40.6911   31.9971 C   0  0  0  0  0  0  0  0  0  0  0  0
   11.5172   39.3815   31.4407 C   0  0  0  0  0  0  0  0  0  0  0  0
   12.7493   39.0856   32.0728 O   0  0  0  0  0  0  0  0  0  0  0  0
   10.6023   38.1908   31.6665 C   0  0  0  0  0  0  0  0  0  0  0  0
   12.9319   37.6781   32.0281 C   0  0  0  0  0  0  0  0  0  0  0  0
    9.6392   38.0798   30.6452 O   0  0  0  0  0  0  0  0  0  0  0  0
   11.5715   37.0165   31.7056 C   0  0  0  0  0  0  0  0  0  0  0  0
   13.4847   37.2121   33.3235 N   0  0  0  0  0  0  0  0  0  0  0  0
   11.6187   36.3383   30.4695 O   0  0  0  0  0  0  0  0  0  0  0  0
   14.4801   36.3321   33.5724 C   0  0  0  0  0  0  0  0  0  0  0  0
   13.1137   37.6276   34.5688 C   0  0  0  0  0  0  0  0  0  0  0  0
   15.2073   35.6153   32.6738 N   0  0  0  0  0  0  0  0  0  0  0  0
   14.6759   36.2308   34.9179 C   0  0  0  0  0  0  0  0  0  0  0  0
   13.8216   37.0452   35.5781 N   0  0  0  0  0  0  0  0  0  0  0  0
   16.1640   34.7602   33.1546 C   0  0  0  0  0  0  0  0  0  0  0  0
   15.6526   35.3508   35.4129 C   0  0  0  0  0  0  0  0  0  0  0  0
   16.3794   34.6317   34.5041 N   0  0  0  0  0  0  0  0  0  0  0  0
   15.8999   35.1934   36.8088 N   0  0  0  0  0  0  0  0  0  0  0  0
    9.0120   45.4316   33.6710 H   0  0  0  0  0  0  0  0  0  0  0  0
   11.8907   45.7659   32.9474 H   0  0  0  0  0  0  0  0  0  0  0  0
   10.7259   46.9687   33.1213 H   0  0  0  0  0  0  0  0  0  0  0  0
    9.3426   43.8329   31.4756 H   0  0  0  0  0  0  0  0  0  0  0  0
   10.7237   44.8822   31.1556 H   0  0  0  0  0  0  0  0  0  0  0  0
    7.0100   44.7177   31.5852 H   0  0  0  0  0  0  0  0  0  0  0  0
   10.3459   47.1868   30.4111 H   0  0  0  0  0  0  0  0  0  0  0  0
    5.4668   46.2922   30.5280 H   0  0  0  0  0  0  0  0  0  0  0  0
    8.7937   48.7701   29.3432 H   0  0  0  0  0  0  0  0  0  0  0  0
    4.3019   48.2256   29.9815 H   0  0  0  0  0  0  0  0  0  0  0  0
    4.3331   50.5424   29.3364 H   0  0  0  0  0  0  0  0  0  0  0  0
    4.6875   50.1469   27.6205 H   0  0  0  0  0  0  0  0  0  0  0  0
    3.1017   49.6734   28.3490 H   0  0  0  0  0  0  0  0  0  0  0  0
    3.1843   46.2685   29.4088 H   0  0  0  0  0  0  0  0  0  0  0  0
    4.9444   46.2830   24.7423 H   0  0  0  0  0  0  0  0  0  0  0  0
    1.3548   43.4522   26.0584 H   0  0  0  0  0  0  0  0  0  0  0  0
    2.7956   42.4615   26.5904 H   0  0  0  0  0  0  0  0  0  0  0  0
    9.8299   40.7410   31.7613 H   0  0  0  0  0  0  0  0  0  0  0  0
   11.3968   41.5460   31.4729 H   0  0  0  0  0  0  0  0  0  0  0  0
   11.6975   39.5067   30.3481 H   0  0  0  0  0  0  0  0  0  0  0  0
   10.1076   38.2648   32.6645 H   0  0  0  0  0  0  0  0  0  0  0  0
   13.6621   37.4467   31.2209 H   0  0  0  0  0  0  0  0  0  0  0  0
    8.8975   38.6944   30.8830 H   0  0  0  0  0  0  0  0  0  0  0  0
   11.2806   36.3073   32.5170 H   0  0  0  0  0  0  0  0  0  0  0  0
   10.8492   35.7111   30.4586 H   0  0  0  0  0  0  0  0  0  0  0  0
   12.3290   38.3524   34.7444 H   0  0  0  0  0  0  0  0  0  0  0  0
   16.7559   34.1780   32.4619 H   0  0  0  0  0  0  0  0  0  0  0  0
   15.3532   35.7362   37.5137 H   0  0  0  0  0  0  0  0  0  0  0  0
   16.6344   34.5301   37.1414 H   0  0  0  0  0  0  0  0  0  0  0  0
  1  2  2  0
  1  3  1  0
  3  4  1  0
  4  5  1  0
  6  1  1  0
  7  6  1  0
  6  8  1  0
  8  9  1  0
  9 10  2  0
 11  9  1  0
 10 12  1  0
 13 11  2  0
 12 14  2  0
 14 13  1  0
 14 15  1  0
 15 16  1  0
 16 17  1  0
 16 18  1  0
 18 19  2  0
 20 18  1  0
 19 21  1  0
 22 20  2  0
 20 23  1  0
 21 24  1  0
 21 25  2  0
 25 22  1  0
 23 26  1  0
 23 27  2  0
 24 28  1  0
 25 29  1  0
 28 29  1  0
  4 30  2  0
  4 31  1  0
 32 31  1  0
 32 33  1  0
 33 34  1  0
 33 35  1  0
 34 36  1  0
 35 37  1  0
 35 38  1  0
 38 36  1  0
 36 39  1  0
 38 40  1  0
 41 39  1  0
 42 39  1  0
 43 41  2  0
 41 44  1  0
 45 42  2  0
 46 43  1  0
 44 47  2  0
 44 45  1  0
 48 46  2  0
 48 47  1  0
 47 49  1  0
  6 50  1  1
  7 51  1  0
  7 52  1  0
  8 53  1  0
  8 54  1  0
 10 55  1  0
 11 56  1  0
 12 57  1  0
 13 58  1  0
 16 59  1  1
 17 60  1  0
 17 61  1  0
 17 62  1  0
 19 63  1  0
 22 64  1  0
 28 65  1  0
 28 66  1  0
 32 67  1  0
 32 68  1  0
 33 69  1  0
 35 70  1  0
 36 71  1  0
 37 72  1  0
 38 73  1  0
 40 74  1  0
 42 75  1  0
 46 76  1  0
 49 77  1  0
 49 78  1  0
M  CHG  3   5  -1  23   1  26  -1
M  END
>  <EmbedRMS>  (197) 
0.0829478825391

$$$$

     RDKit          3D

 78 83  0  0  0  0  0  0  0  0999 V2000
   10.2839   43.7628   33.8274 C   0  0  0  0  0  0  0  0  0  0  0  0
   11.4102   43.5875   34.3773 O   0  0  0  0  0  0  0  0  0  0  0  0
    9.3642   42.7229   33.7346 O   0  0  0  0  0  0  0  0  0  0  0  0
    9.8903   41.2249   34.2954 P   0  0  0  0  0  0  0  0  0  0  0  0
   10.3734   41.4546   35.8850 O   0  0  0  0  0  0  0  0  0  0  0  0
    9.9538   45.0699   33.2059 C   0  0  1  0  0  0  0  0  0  0  0  0
   11.0182   46.0491   33.4560 N   0  0  0  0  0  0  0  0  0  0  0  0
    9.7488   44.8494   31.6919 C   0  0  0  0  0  0  0  0  0  0  0  0
    8.7933   45.8404   31.0861 C   0  0  0  0  0  0  0  0  0  0  0  0
    7.4066   45.5992   31.0952 C   0  0  0  0  0  0  0  0  0  0  0  0
    9.2828   46.9881   30.4469 C   0  0  0  0  0  0  0  0  0  0  0  0
    6.5259   46.4991   30.4777 C   0  0  0  0  0  0  0  0  0  0  0  0
    8.4022   47.8899   29.8397 C   0  0  0  0  0  0  0  0  0  0  0  0
    7.0202   47.6600   29.8468 C   0  0  0  0  0  0  0  0  0  0  0  0
    6.1988   48.6205   29.2299 O   0  0  0  0  0  0  0  0  0  0  0  0
    4.7871   48.5455   28.9889 C   0  0  1  0  0  0  0  0  0  0  0  0
    4.4946   47.4757   27.9247 C   0  0  0  0  0  0  0  0  0  0  0  0
    3.9884   48.4433   30.2905 C   0  0  0  0  0  0  0  0  0  0  0  0
    2.9624   47.4696   30.4391 C   0  0  0  0  0  0  0  0  0  0  0  0
    4.2635   49.3275   31.3914 C   0  0  0  0  0  0  0  0  0  0  0  0
    2.2891   47.3869   31.6502 C   0  0  0  0  0  0  0  0  0  0  0  0
    3.5559   49.1789   32.6067 C   0  0  0  0  0  0  0  0  0  0  0  0
    5.2527   50.3672   31.3025 N   0  0  0  0  0  0  0  0  0  0  0  0
    1.2723   46.5220   32.0074 O   0  0  0  0  0  0  0  0  0  0  0  0
    2.5746   48.2018   32.6890 C   0  0  0  0  0  0  0  0  0  0  0  0
    5.9908   50.7042   32.4139 O   0  0  0  0  0  0  0  0  0  0  0  0
    5.3089   51.1051   30.2973 O   0  0  0  0  0  0  0  0  0  0  0  0
    0.8929   46.8174   33.3587 C   0  0  0  0  0  0  0  0  0  0  0  0
    1.7518   47.8944   33.7569 O   0  0  0  0  0  0  0  0  0  0  0  0
    8.8118   40.1837   34.2145 O   0  0  0  0  0  0  0  0  0  0  0  0
   11.2407   40.7932   33.3703 O   0  0  0  0  0  0  0  0  0  0  0  0
   10.9154   40.6907   31.9983 C   0  0  0  0  0  0  0  0  0  0  0  0
   11.5250   39.3886   31.4382 C   0  0  0  0  0  0  0  0  0  0  0  0
   12.7504   39.0869   32.0795 O   0  0  0  0  0  0  0  0  0  0  0  0
   10.6088   38.1926   31.6475 C   0  0  0  0  0  0  0  0  0  0  0  0
   12.9329   37.6787   32.0297 C   0  0  0  0  0  0  0  0  0  0  0  0
    9.6116   38.0893   30.6548 O   0  0  0  0  0  0  0  0  0  0  0  0
   11.5738   37.0142   31.7029 C   0  0  0  0  0  0  0  0  0  0  0  0
   13.4841   37.2103   33.3243 N   0  0  0  0  0  0  0  0  0  0  0  0
   11.6293   36.3243   30.4741 O   0  0  0  0  0  0  0  0  0  0  0  0
   14.4797   36.3306   33.5726 C   0  0  0  0  0  0  0  0  0  0  0  0
   13.1146   37.6271   34.5696 C   0  0  0  0  0  0  0  0  0  0  0  0
   15.2063   35.6136   32.6737 N   0  0  0  0  0  0  0  0  0  0  0  0
   14.6764   36.2301   34.9179 C   0  0  0  0  0  0  0  0  0  0  0  0
   13.8227   37.0446   35.5785 N   0  0  0  0  0  0  0  0  0  0  0  0
   16.1643   34.7598   33.1543 C   0  0  0  0  0  0  0  0  0  0  0  0
   15.6537   35.3507   35.4125 C   0  0  0  0  0  0  0  0  0  0  0  0
   16.3809   34.6324   34.5037 N   0  0  0  0  0  0  0  0  0  0  0  0
   15.9008   35.1928   36.8081 N   0  0  0  0  0  0  0  0  0  0  0  0
    9.0080   45.4346   33.6649 H   0  0  0  0  0  0  0  0  0  0  0  0
   11.9324   45.6937   33.0911 H   0  0  0  0  0  0  0  0  0  0  0  0
   11.1149   46.2001   34.4871 H   0  0  0  0  0  0  0  0  0  0  0  0
   10.7284   44.8888   31.1656 H   0  0  0  0  0  0  0  0  0  0  0  0
    9.3487   43.8329   31.4772 H   0  0  0  0  0  0  0  0  0  0  0  0
    7.0109   44.7108   31.5727 H   0  0  0  0  0  0  0  0  0  0  0  0
   10.3469   47.1886   30.4213 H   0  0  0  0  0  0  0  0  0  0  0  0
    5.4722   46.2764   30.5058 H   0  0  0  0  0  0  0  0  0  0  0  0
    8.7967   48.7768   29.3599 H   0  0  0  0  0  0  0  0  0  0  0  0
    4.4919   49.5079   28.5205 H   0  0  0  0  0  0  0  0  0  0  0  0
    3.4428   47.5568   27.5768 H   0  0  0  0  0  0  0  0  0  0  0  0
    4.6801   46.4535   28.3112 H   0  0  0  0  0  0  0  0  0  0  0  0
    5.1550   47.6363   27.0460 H   0  0  0  0  0  0  0  0  0  0  0  0
    2.6886   46.7821   29.6524 H   0  0  0  0  0  0  0  0  0  0  0  0
    3.7481   49.8245   33.4537 H   0  0  0  0  0  0  0  0  0  0  0  0
   -0.1678   47.1412   33.3985 H   0  0  0  0  0  0  0  0  0  0  0  0
    1.0597   45.9320   34.0079 H   0  0  0  0  0  0  0  0  0  0  0  0
    9.8242   40.7229   31.7644 H   0  0  0  0  0  0  0  0  0  0  0  0
   11.3820   41.5530   31.4754 H   0  0  0  0  0  0  0  0  0  0  0  0
   11.7254   39.5323   30.3524 H   0  0  0  0  0  0  0  0  0  0  0  0
   10.1115   38.2761   32.6398 H   0  0  0  0  0  0  0  0  0  0  0  0
   13.6651   37.4508   31.2234 H   0  0  0  0  0  0  0  0  0  0  0  0
   10.0505   38.1142   29.7649 H   0  0  0  0  0  0  0  0  0  0  0  0
   11.2752   36.3137   32.5191 H   0  0  0  0  0  0  0  0  0  0  0  0
   10.8597   35.6973   30.4638 H   0  0  0  0  0  0  0  0  0  0  0  0
   12.3305   38.3523   34.7461 H   0  0  0  0  0  0  0  0  0  0  0  0
   16.7557   34.1772   32.4616 H   0  0  0  0  0  0  0  0  0  0  0  0
   16.6355   34.5294   37.1406 H   0  0  0  0  0  0  0  0  0  0  0  0
   15.3533   35.7363   37.5116 H   0  0  0  0  0  0  0  0  0  0  0  0
  1  2  2  0
  1  3  1  0
  3  4  1  0
  4  5  1  0
  6  1  1  0
  7  6  1  0
  6  8  1  0
  8  9  1  0
  9 10  2  0
 11  9  1  0
 10 12  1  0
 13 11  2  0
 12 14  2  0
 14 13  1  0
 14 15  1  0
 15 16  1  0
 16 17  1  0
 16 18  1  0
 18 19  2  0
 20 18  1  0
 19 21  1  0
 22 20  2  0
 20 23  1  0
 21 24  1  0
 21 25  2  0
 25 22  1  0
 23 26  1  0
 23 27  2  0
 24 28  1  0
 25 29  1  0
 28 29  1  0
  4 30  2  0
  4 31  1  0
 32 31  1  0
 32 33  1  0
 33 34  1  0
 33 35  1  0
 34 36  1  0
 35 37  1  0
 35 38  1  0
 38 36  1  0
 36 39  1  0
 38 40  1  0
 41 39  1  0
 42 39  1  0
 43 41  2  0
 41 44  1  0
 45 42  2  0
 46 43  1  0
 44 47  2  0
 44 45  1  0
 48 46  2  0
 48 47  1  0
 47 49  1  0
  6 50  1  1
  7 51  1  0
  7 52  1  0
  8 53  1  0
  8 54  1  0
 10 55  1  0
 11 56  1  0
 12 57  1  0
 13 58  1  0
 16 59  1  6
 17 60  1  0
 17 61  1  0
 17 62  1  0
 19 63  1  0
 22 64  1  0
 28 65  1  0
 28 66  1  0
 32 67  1  0
 32 68  1  0
 33 69  1  0
 35 70  1  0
 36 71  1  0
 37 72  1  0
 38 73  1  0
 40 74  1  0
 42 75  1  0
 46 76  1  0
 49 77  1  0
 49 78  1  0
M  CHG  3   5  -1  23   1  26  -1
M  END
>  <EmbedRMS>  (198) 
0.0828498106623

$$$$

     RDKit          3D

 78 83  0  0  0  0  0  0  0  0999 V2000
   10.2837   43.7627   33.8273 C   0  0  0  0  0  0  0  0  0  0  0  0
   11.4102   43.5864   34.3765 O   0  0  0  0  0  0  0  0  0  0  0  0
    9.3630   42.7236   33.7352 O   0  0  0  0  0  0  0  0  0  0  0  0
    9.8894   41.2249   34.2943 P   0  0  0  0  0  0  0  0  0  0  0  0
   10.3726   41.4547   35.8838 O   0  0  0  0  0  0  0  0  0  0  0  0
    9.9547   45.0700   33.2058 C   0  0  1  0  0  0  0  0  0  0  0  0
   11.0196   46.0481   33.4565 N   0  0  0  0  0  0  0  0  0  0  0  0
    9.7501   44.8509   31.6916 C   0  0  0  0  0  0  0  0  0  0  0  0
    8.7940   45.8415   31.0858 C   0  0  0  0  0  0  0  0  0  0  0  0
    7.4061   45.6013   31.1016 C   0  0  0  0  0  0  0  0  0  0  0  0
    9.2831   46.9915   30.4459 C   0  0  0  0  0  0  0  0  0  0  0  0
    6.5262   46.5038   30.4886 C   0  0  0  0  0  0  0  0  0  0  0  0
    8.4016   47.8921   29.8356 C   0  0  0  0  0  0  0  0  0  0  0  0
    7.0211   47.6444   29.8414 C   0  0  0  0  0  0  0  0  0  0  0  0
    6.1291   48.5324   29.2314 O   0  0  0  0  0  0  0  0  0  0  0  0
    5.8877   48.6122   27.8196 C   0  0  1  0  0  0  0  0  0  0  0  0
    7.1263   49.0769   27.0445 C   0  0  0  0  0  0  0  0  0  0  0  0
    5.3200   47.3054   27.2719 C   0  0  0  0  0  0  0  0  0  0  0  0
    6.1438   46.1501   27.2397 C   0  0  0  0  0  0  0  0  0  0  0  0
    3.9522   47.1910   26.8491 C   0  0  0  0  0  0  0  0  0  0  0  0
    5.5856   44.9428   26.8427 C   0  0  0  0  0  0  0  0  0  0  0  0
    3.4359   45.9322   26.4695 C   0  0  0  0  0  0  0  0  0  0  0  0
    3.0837   48.3297   26.7806 N   0  0  0  0  0  0  0  0  0  0  0  0
    6.1923   43.7046   26.7547 O   0  0  0  0  0  0  0  0  0  0  0  0
    4.2877   44.8370   26.4796 C   0  0  0  0  0  0  0  0  0  0  0  0
    1.7880   48.2222   27.2300 O   0  0  0  0  0  0  0  0  0  0  0  0
    3.3934   49.3029   26.0629 O   0  0  0  0  0  0  0  0  0  0  0  0
    5.2094   42.7616   26.3063 C   0  0  0  0  0  0  0  0  0  0  0  0
    4.0076   43.5268   26.1420 O   0  0  0  0  0  0  0  0  0  0  0  0
    8.8114   40.1834   34.2129 O   0  0  0  0  0  0  0  0  0  0  0  0
   11.2402   40.7931   33.3695 O   0  0  0  0  0  0  0  0  0  0  0  0
   10.9151   40.6903   31.9974 C   0  0  0  0  0  0  0  0  0  0  0  0
   11.5252   39.3886   31.4375 C   0  0  0  0  0  0  0  0  0  0  0  0
   12.7500   39.0873   32.0798 O   0  0  0  0  0  0  0  0  0  0  0  0
   10.6092   38.1926   31.6469 C   0  0  0  0  0  0  0  0  0  0  0  0
   12.9332   37.6792   32.0294 C   0  0  0  0  0  0  0  0  0  0  0  0
    9.6121   38.0894   30.6542 O   0  0  0  0  0  0  0  0  0  0  0  0
   11.5743   37.0144   31.7023 C   0  0  0  0  0  0  0  0  0  0  0  0
   13.4844   37.2108   33.3241 N   0  0  0  0  0  0  0  0  0  0  0  0
   11.6297   36.3239   30.4740 O   0  0  0  0  0  0  0  0  0  0  0  0
   14.4802   36.3313   33.5726 C   0  0  0  0  0  0  0  0  0  0  0  0
   13.1138   37.6267   34.5692 C   0  0  0  0  0  0  0  0  0  0  0  0
   15.2075   35.6149   32.6739 N   0  0  0  0  0  0  0  0  0  0  0  0
   14.6761   36.2303   34.9181 C   0  0  0  0  0  0  0  0  0  0  0  0
   13.8220   37.0447   35.5784 N   0  0  0  0  0  0  0  0  0  0  0  0
   16.1643   34.7600   33.1547 C   0  0  0  0  0  0  0  0  0  0  0  0
   15.6529   35.3505   35.4130 C   0  0  0  0  0  0  0  0  0  0  0  0
   16.3798   34.6315   34.5042 N   0  0  0  0  0  0  0  0  0  0  0  0
   15.9002   35.1932   36.8090 N   0  0  0  0  0  0  0  0  0  0  0  0
    9.0097   45.4349   33.6664 H   0  0  0  0  0  0  0  0  0  0  0  0
   11.1132   46.1992   34.4878 H   0  0  0  0  0  0  0  0  0  0  0  0
   11.9347   45.6933   33.0921 H   0  0  0  0  0  0  0  0  0  0  0  0
    9.3511   43.8344   31.4754 H   0  0  0  0  0  0  0  0  0  0  0  0
   10.7303   44.8928   31.1667 H   0  0  0  0  0  0  0  0  0  0  0  0
    7.0096   44.7166   31.5842 H   0  0  0  0  0  0  0  0  0  0  0  0
   10.3466   47.1948   30.4227 H   0  0  0  0  0  0  0  0  0  0  0  0
    5.4613   46.3096   30.5030 H   0  0  0  0  0  0  0  0  0  0  0  0
    8.7939   48.7846   29.3667 H   0  0  0  0  0  0  0  0  0  0  0  0
    5.1474   49.4245   27.7022 H   0  0  0  0  0  0  0  0  0  0  0  0
    7.9457   48.3317   27.0906 H   0  0  0  0  0  0  0  0  0  0  0  0
    7.4942   50.0361   27.4662 H   0  0  0  0  0  0  0  0  0  0  0  0
    6.8619   49.2419   25.9781 H   0  0  0  0  0  0  0  0  0  0  0  0
    7.1832   46.1784   27.5357 H   0  0  0  0  0  0  0  0  0  0  0  0
    2.4068   45.8186   26.1534 H   0  0  0  0  0  0  0  0  0  0  0  0
    5.0587   41.9710   27.0710 H   0  0  0  0  0  0  0  0  0  0  0  0
    5.5170   42.3183   25.3360 H   0  0  0  0  0  0  0  0  0  0  0  0
    9.8243   40.7217   31.7640 H   0  0  0  0  0  0  0  0  0  0  0  0
   11.3805   41.5528   31.4739 H   0  0  0  0  0  0  0  0  0  0  0  0
   11.7265   39.5312   30.3512 H   0  0  0  0  0  0  0  0  0  0  0  0
   10.1110   38.2746   32.6386 H   0  0  0  0  0  0  0  0  0  0  0  0
   13.6652   37.4519   31.2226 H   0  0  0  0  0  0  0  0  0  0  0  0
   10.0511   38.1144   29.7644 H   0  0  0  0  0  0  0  0  0  0  0  0
   11.2762   36.3141   32.5189 H   0  0  0  0  0  0  0  0  0  0  0  0
   10.8592   35.6978   30.4639 H   0  0  0  0  0  0  0  0  0  0  0  0
   12.3294   38.3518   34.7449 H   0  0  0  0  0  0  0  0  0  0  0  0
   16.7564   34.1780   32.4620 H   0  0  0  0  0  0  0  0  0  0  0  0
   15.3534   35.7359   37.5138 H   0  0  0  0  0  0  0  0  0  0  0  0
   16.6348   34.5300   37.1415 H   0  0  0  0  0  0  0  0  0  0  0  0
  1  2  2  0
  1  3  1  0
  3  4  1  0
  4  5  1  0
  6  1  1  0
  7  6  1  0
  6  8  1  0
  8  9  1  0
  9 10  2  0
 11  9  1  0
 10 12  1  0
 13 11  2  0
 12 14  2  0
 14 13  1  0
 14 15  1  0
 15 16  1  0
 16 17  1  0
 16 18  1  0
 18 19  2  0
 20 18  1  0
 19 21  1  0
 22 20  2  0
 20 23  1  0
 21 24  1  0
 21 25  2  0
 25 22  1  0
 23 26  1  0
 23 27  2  0
 24 28  1  0
 25 29  1  0
 28 29  1  0
  4 30  2  0
  4 31  1  0
 32 31  1  0
 32 33  1  0
 33 34  1  0
 33 35  1  0
 34 36  1  0
 35 37  1  0
 35 38  1  0
 38 36  1  0
 36 39  1  0
 38 40  1  0
 41 39  1  0
 42 39  1  0
 43 41  2  0
 41 44  1  0
 45 42  2  0
 46 43  1  0
 44 47  2  0
 44 45  1  0
 48 46  2  0
 48 47  1  0
 47 49  1  0
  6 50  1  1
  7 51  1  0
  7 52  1  0
  8 53  1  0
  8 54  1  0
 10 55  1  0
 11 56  1  0
 12 57  1  0
 13 58  1  0
 16 59  1  1
 17 60  1  0
 17 61  1  0
 17 62  1  0
 19 63  1  0
 22 64  1  0
 28 65  1  0
 28 66  1  0
 32 67  1  0
 32 68  1  0
 33 69  1  0
 35 70  1  0
 36 71  1  0
 37 72  1  0
 38 73  1  0
 40 74  1  0
 42 75  1  0
 46 76  1  0
 49 77  1  0
 49 78  1  0
M  CHG  3   5  -1  23   1  26  -1
M  END
>  <EmbedRMS>  (199) 
0.0828523923983

$$$$

     RDKit          3D

 78 83  0  0  0  0  0  0  0  0999 V2000
   10.2840   43.7625   33.8276 C   0  0  0  0  0  0  0  0  0  0  0  0
   11.4104   43.5863   34.3767 O   0  0  0  0  0  0  0  0  0  0  0  0
    9.3634   42.7234   33.7351 O   0  0  0  0  0  0  0  0  0  0  0  0
    9.8899   41.2247   34.2940 P   0  0  0  0  0  0  0  0  0  0  0  0
   10.3724   41.4544   35.8837 O   0  0  0  0  0  0  0  0  0  0  0  0
    9.9550   45.0699   33.2065 C   0  0  1  0  0  0  0  0  0  0  0  0
   11.0199   46.0481   33.4572 N   0  0  0  0  0  0  0  0  0  0  0  0
    9.7506   44.8512   31.6924 C   0  0  0  0  0  0  0  0  0  0  0  0
    8.7945   45.8422   31.0874 C   0  0  0  0  0  0  0  0  0  0  0  0
    7.4079   45.6005   31.1000 C   0  0  0  0  0  0  0  0  0  0  0  0
    9.2827   46.9888   30.4443 C   0  0  0  0  0  0  0  0  0  0  0  0
    6.5255   46.4992   30.4841 C   0  0  0  0  0  0  0  0  0  0  0  0
    8.4010   47.8871   29.8323 C   0  0  0  0  0  0  0  0  0  0  0  0
    7.0187   47.6571   29.8473 C   0  0  0  0  0  0  0  0  0  0  0  0
    6.1879   48.5950   29.2119 O   0  0  0  0  0  0  0  0  0  0  0  0
    4.7601   48.6210   29.2526 C   0  0  1  0  0  0  0  0  0  0  0  0
    4.2505   49.0441   30.6375 C   0  0  0  0  0  0  0  0  0  0  0  0
    4.2338   49.5454   28.1651 C   0  0  0  0  0  0  0  0  0  0  0  0
    3.3943   48.9840   27.1699 C   0  0  0  0  0  0  0  0  0  0  0  0
    4.5097   50.9576   28.1263 C   0  0  0  0  0  0  0  0  0  0  0  0
    2.8519   49.8205   26.2037 C   0  0  0  0  0  0  0  0  0  0  0  0
    3.9142   51.7593   27.1268 C   0  0  0  0  0  0  0  0  0  0  0  0
    5.3619   51.5992   29.0861 N   0  0  0  0  0  0  0  0  0  0  0  0
    2.0134   49.4915   25.1559 O   0  0  0  0  0  0  0  0  0  0  0  0
    3.0981   51.1495   26.1849 C   0  0  0  0  0  0  0  0  0  0  0  0
    4.9994   52.8213   29.6036 O   0  0  0  0  0  0  0  0  0  0  0  0
    6.5298   51.1972   29.2592 O   0  0  0  0  0  0  0  0  0  0  0  0
    1.7158   50.6940   24.4332 C   0  0  0  0  0  0  0  0  0  0  0  0
    2.4287   51.7289   25.1242 O   0  0  0  0  0  0  0  0  0  0  0  0
    8.8119   40.1831   34.2120 O   0  0  0  0  0  0  0  0  0  0  0  0
   11.2416   40.7932   33.3699 O   0  0  0  0  0  0  0  0  0  0  0  0
   10.9187   40.6909   31.9972 C   0  0  0  0  0  0  0  0  0  0  0  0
   11.5172   39.3814   31.4407 C   0  0  0  0  0  0  0  0  0  0  0  0
   12.7493   39.0855   32.0727 O   0  0  0  0  0  0  0  0  0  0  0  0
   10.6023   38.1907   31.6665 C   0  0  0  0  0  0  0  0  0  0  0  0
   12.9319   37.6781   32.0281 C   0  0  0  0  0  0  0  0  0  0  0  0
    9.6392   38.0797   30.6452 O   0  0  0  0  0  0  0  0  0  0  0  0
   11.5715   37.0165   31.7056 C   0  0  0  0  0  0  0  0  0  0  0  0
   13.4847   37.2121   33.3235 N   0  0  0  0  0  0  0  0  0  0  0  0
   11.6187   36.3383   30.4694 O   0  0  0  0  0  0  0  0  0  0  0  0
   14.4801   36.3321   33.5724 C   0  0  0  0  0  0  0  0  0  0  0  0
   13.1137   37.6275   34.5687 C   0  0  0  0  0  0  0  0  0  0  0  0
   15.2073   35.6153   32.6738 N   0  0  0  0  0  0  0  0  0  0  0  0
   14.6759   36.2308   34.9179 C   0  0  0  0  0  0  0  0  0  0  0  0
   13.8216   37.0452   35.5781 N   0  0  0  0  0  0  0  0  0  0  0  0
   16.1640   34.7602   33.1546 C   0  0  0  0  0  0  0  0  0  0  0  0
   15.6526   35.3508   35.4129 C   0  0  0  0  0  0  0  0  0  0  0  0
   16.3794   34.6317   34.5041 N   0  0  0  0  0  0  0  0  0  0  0  0
   15.8999   35.1934   36.8088 N   0  0  0  0  0  0  0  0  0  0  0  0
    9.0099   45.4347   33.6672 H   0  0  0  0  0  0  0  0  0  0  0  0
   11.1132   46.1992   34.4886 H   0  0  0  0  0  0  0  0  0  0  0  0
   11.9350   45.6934   33.0930 H   0  0  0  0  0  0  0  0  0  0  0  0
   10.7309   44.8932   31.1677 H   0  0  0  0  0  0  0  0  0  0  0  0
    9.3518   43.8346   31.4759 H   0  0  0  0  0  0  0  0  0  0  0  0
    7.0133   44.7134   31.5802 H   0  0  0  0  0  0  0  0  0  0  0  0
   10.3467   47.1888   30.4141 H   0  0  0  0  0  0  0  0  0  0  0  0
    5.4699   46.2732   30.5067 H   0  0  0  0  0  0  0  0  0  0  0  0
    8.7943   48.7688   29.3421 H   0  0  0  0  0  0  0  0  0  0  0  0
    4.3817   47.5945   29.0566 H   0  0  0  0  0  0  0  0  0  0  0  0
    4.4867   48.2658   31.3912 H   0  0  0  0  0  0  0  0  0  0  0  0
    3.1475   49.1751   30.6154 H   0  0  0  0  0  0  0  0  0  0  0  0
    4.7207   49.9900   30.9717 H   0  0  0  0  0  0  0  0  0  0  0  0
    3.1570   47.9277   27.1537 H   0  0  0  0  0  0  0  0  0  0  0  0
    4.0978   52.8250   27.0774 H   0  0  0  0  0  0  0  0  0  0  0  0
    2.0775   50.6126   23.3867 H   0  0  0  0  0  0  0  0  0  0  0  0
    0.6248   50.8974   24.4587 H   0  0  0  0  0  0  0  0  0  0  0  0
   11.3972   41.5459   31.4735 H   0  0  0  0  0  0  0  0  0  0  0  0
    9.8300   40.7410   31.7610 H   0  0  0  0  0  0  0  0  0  0  0  0
   11.6974   39.5067   30.3480 H   0  0  0  0  0  0  0  0  0  0  0  0
   10.1077   38.2647   32.6645 H   0  0  0  0  0  0  0  0  0  0  0  0
   13.6621   37.4467   31.2208 H   0  0  0  0  0  0  0  0  0  0  0  0
    8.8975   38.6943   30.8831 H   0  0  0  0  0  0  0  0  0  0  0  0
   11.2806   36.3073   32.5170 H   0  0  0  0  0  0  0  0  0  0  0  0
   10.8493   35.7110   30.4585 H   0  0  0  0  0  0  0  0  0  0  0  0
   12.3290   38.3524   34.7444 H   0  0  0  0  0  0  0  0  0  0  0  0
   16.7559   34.1780   32.4619 H   0  0  0  0  0  0  0  0  0  0  0  0
   15.3531   35.7362   37.5137 H   0  0  0  0  0  0  0  0  0  0  0  0
   16.6344   34.5301   37.1414 H   0  0  0  0  0  0  0  0  0  0  0  0
  1  2  2  0
  1  3  1  0
  3  4  1  0
  4  5  1  0
  6  1  1  0
  7  6  1  0
  6  8  1  0
  8  9  1  0
  9 10  2  0
 11  9  1  0
 10 12  1  0
 13 11  2  0
 12 14  2  0
 14 13  1  0
 14 15  1  0
 15 16  1  0
 16 17  1  0
 16 18  1  0
 18 19  2  0
 20 18  1  0
 19 21  1  0
 22 20  2  0
 20 23  1  0
 21 24  1  0
 21 25  2  0
 25 22  1  0
 23 26  1  0
 23 27  2  0
 24 28  1  0
 25 29  1  0
 28 29  1  0
  4 30  2  0
  4 31  1  0
 32 31  1  0
 32 33  1  0
 33 34  1  0
 33 35  1  0
 34 36  1  0
 35 37  1  0
 35 38  1  0
 38 36  1  0
 36 39  1  0
 38 40  1  0
 41 39  1  0
 42 39  1  0
 43 41  2  0
 41 44  1  0
 45 42  2  0
 46 43  1  0
 44 47  2  0
 44 45  1  0
 48 46  2  0
 48 47  1  0
 47 49  1  0
  6 50  1  1
  7 51  1  0
  7 52  1  0
  8 53  1  0
  8 54  1  0
 10 55  1  0
 11 56  1  0
 12 57  1  0
 13 58  1  0
 16 59  1  6
 17 60  1  0
 17 61  1  0
 17 62  1  0
 19 63  1  0
 22 64  1  0
 28 65  1  0
 28 66  1  0
 32 67  1  0
 32 68  1  0
 33 69  1  0
 35 70  1  0
 36 71  1  0
 37 72  1  0
 38 73  1  0
 40 74  1  0
 42 75  1  0
 46 76  1  0
 49 77  1  0
 49 78  1  0
M  CHG  3   5  -1  23   1  26  -1
M  END
>  <EmbedRMS>  (200) 
0.0838009702511

$$$$

     RDKit          3D

 78 83  0  0  0  0  0  0  0  0999 V2000
   10.2834   43.7661   33.8257 C   0  0  0  0  0  0  0  0  0  0  0  0
   11.4102   43.5930   34.3753 O   0  0  0  0  0  0  0  0  0  0  0  0
    9.3637   42.7255   33.7350 O   0  0  0  0  0  0  0  0  0  0  0  0
    9.8902   41.2267   34.2942 P   0  0  0  0  0  0  0  0  0  0  0  0
   10.3736   41.4560   35.8836 O   0  0  0  0  0  0  0  0  0  0  0  0
    9.9546   45.0694   33.2035 C   0  0  1  0  0  0  0  0  0  0  0  0
   11.0273   46.0321   33.4755 N   0  0  0  0  0  0  0  0  0  0  0  0
    9.7466   44.8478   31.6876 C   0  0  0  0  0  0  0  0  0  0  0  0
    8.7923   45.8404   31.0840 C   0  0  0  0  0  0  0  0  0  0  0  0
    7.4058   45.6017   31.0994 C   0  0  0  0  0  0  0  0  0  0  0  0
    9.2820   46.9877   30.4428 C   0  0  0  0  0  0  0  0  0  0  0  0
    6.5271   46.5038   30.4849 C   0  0  0  0  0  0  0  0  0  0  0  0
    8.4032   47.8908   29.8327 C   0  0  0  0  0  0  0  0  0  0  0  0
    7.0136   47.6523   29.8450 C   0  0  0  0  0  0  0  0  0  0  0  0
    6.0818   48.5198   29.2510 O   0  0  0  0  0  0  0  0  0  0  0  0
    6.3848   49.6484   28.4295 C   0  0  1  0  0  0  0  0  0  0  0  0
    6.9101   49.2090   27.0557 C   0  0  0  0  0  0  0  0  0  0  0  0
    5.1505   50.5262   28.2929 C   0  0  0  0  0  0  0  0  0  0  0  0
    5.2312   51.8619   28.7612 C   0  0  0  0  0  0  0  0  0  0  0  0
    3.9310   50.0779   27.6769 C   0  0  0  0  0  0  0  0  0  0  0  0
    4.1339   52.6960   28.5925 C   0  0  0  0  0  0  0  0  0  0  0  0
    2.8530   50.9783   27.5203 C   0  0  0  0  0  0  0  0  0  0  0  0
    3.7703   48.7363   27.1961 N   0  0  0  0  0  0  0  0  0  0  0  0
    3.9964   54.0197   28.9641 O   0  0  0  0  0  0  0  0  0  0  0  0
    2.9965   52.2739   27.9958 C   0  0  0  0  0  0  0  0  0  0  0  0
    3.8821   47.6753   28.0628 O   0  0  0  0  0  0  0  0  0  0  0  0
    3.2743   48.5404   26.0674 O   0  0  0  0  0  0  0  0  0  0  0  0
    2.6862   54.4545   28.5751 C   0  0  0  0  0  0  0  0  0  0  0  0
    2.0816   53.3086   27.9603 O   0  0  0  0  0  0  0  0  0  0  0  0
    8.8121   40.1850   34.2131 O   0  0  0  0  0  0  0  0  0  0  0  0
   11.2404   40.7941   33.3690 O   0  0  0  0  0  0  0  0  0  0  0  0
   10.9143   40.6898   31.9972 C   0  0  0  0  0  0  0  0  0  0  0  0
   11.5261   39.3885   31.4376 C   0  0  0  0  0  0  0  0  0  0  0  0
   12.7504   39.0888   32.0816 O   0  0  0  0  0  0  0  0  0  0  0  0
   10.6115   38.1910   31.6461 C   0  0  0  0  0  0  0  0  0  0  0  0
   12.9357   37.6812   32.0303 C   0  0  0  0  0  0  0  0  0  0  0  0
    9.6145   38.0859   30.6534 O   0  0  0  0  0  0  0  0  0  0  0  0
   11.5769   37.0148   31.7012 C   0  0  0  0  0  0  0  0  0  0  0  0
   13.4849   37.2112   33.3247 N   0  0  0  0  0  0  0  0  0  0  0  0
   11.6192   36.3261   30.4724 O   0  0  0  0  0  0  0  0  0  0  0  0
   14.4802   36.3313   33.5730 C   0  0  0  0  0  0  0  0  0  0  0  0
   13.1141   37.6268   34.5698 C   0  0  0  0  0  0  0  0  0  0  0  0
   15.2075   35.6151   32.6741 N   0  0  0  0  0  0  0  0  0  0  0  0
   14.6761   36.2300   34.9184 C   0  0  0  0  0  0  0  0  0  0  0  0
   13.8221   37.0445   35.5789 N   0  0  0  0  0  0  0  0  0  0  0  0
   16.1643   34.7600   33.1547 C   0  0  0  0  0  0  0  0  0  0  0  0
   15.6529   35.3503   35.4131 C   0  0  0  0  0  0  0  0  0  0  0  0
   16.3798   34.6314   34.5042 N   0  0  0  0  0  0  0  0  0  0  0  0
   15.9004   35.1930   36.8090 N   0  0  0  0  0  0  0  0  0  0  0  0
    9.0120   45.4317   33.6712 H   0  0  0  0  0  0  0  0  0  0  0  0
   10.7258   46.9687   33.1212 H   0  0  0  0  0  0  0  0  0  0  0  0
   11.8906   45.7659   32.9468 H   0  0  0  0  0  0  0  0  0  0  0  0
    9.3415   43.8326   31.4763 H   0  0  0  0  0  0  0  0  0  0  0  0
   10.7230   44.8812   31.1556 H   0  0  0  0  0  0  0  0  0  0  0  0
    7.0084   44.7172   31.5820 H   0  0  0  0  0  0  0  0  0  0  0  0
   10.3465   47.1859   30.4148 H   0  0  0  0  0  0  0  0  0  0  0  0
    5.4626   46.3075   30.5040 H   0  0  0  0  0  0  0  0  0  0  0  0
    8.8210   48.7679   29.3614 H   0  0  0  0  0  0  0  0  0  0  0  0
    7.1862   50.2409   28.9215 H   0  0  0  0  0  0  0  0  0  0  0  0
    6.2351   48.4690   26.5819 H   0  0  0  0  0  0  0  0  0  0  0  0
    7.0131   50.0892   26.3856 H   0  0  0  0  0  0  0  0  0  0  0  0
    7.9089   48.7378   27.1560 H   0  0  0  0  0  0  0  0  0  0  0  0
    6.1263   52.2475   29.2326 H   0  0  0  0  0  0  0  0  0  0  0  0
    1.9259   50.6693   27.0546 H   0  0  0  0  0  0  0  0  0  0  0  0
    2.1030   54.7627   29.4681 H   0  0  0  0  0  0  0  0  0  0  0  0
    2.7590   55.2875   27.8448 H   0  0  0  0  0  0  0  0  0  0  0  0
    9.8233   40.7191   31.7647 H   0  0  0  0  0  0  0  0  0  0  0  0
   11.3779   41.5526   31.4726 H   0  0  0  0  0  0  0  0  0  0  0  0
   11.7283   39.5312   30.3515 H   0  0  0  0  0  0  0  0  0  0  0  0
   10.1127   38.2734   32.6377 H   0  0  0  0  0  0  0  0  0  0  0  0
   13.6692   37.4566   31.2242 H   0  0  0  0  0  0  0  0  0  0  0  0
   10.0533   38.1118   29.7636 H   0  0  0  0  0  0  0  0  0  0  0  0
   11.2607   36.3148   32.5102 H   0  0  0  0  0  0  0  0  0  0  0  0
   12.1495   35.5023   30.6324 H   0  0  0  0  0  0  0  0  0  0  0  0
   12.3301   38.3524   34.7455 H   0  0  0  0  0  0  0  0  0  0  0  0
   16.7563   34.1781   32.4619 H   0  0  0  0  0  0  0  0  0  0  0  0
   15.3536   35.7357   37.5139 H   0  0  0  0  0  0  0  0  0  0  0  0
   16.6351   34.5298   37.1415 H   0  0  0  0  0  0  0  0  0  0  0  0
  1  2  2  0
  1  3  1  0
  3  4  1  0
  4  5  1  0
  6  1  1  0
  7  6  1  0
  6  8  1  0
  8  9  1  0
  9 10  2  0
 11  9  1  0
 10 12  1  0
 13 11  2  0
 12 14  2  0
 14 13  1  0
 14 15  1  0
 15 16  1  0
 16 17  1  0
 16 18  1  0
 18 19  2  0
 20 18  1  0
 19 21  1  0
 22 20  2  0
 20 23  1  0
 21 24  1  0
 21 25  2  0
 25 22  1  0
 23 26  1  0
 23 27  2  0
 24 28  1  0
 25 29  1  0
 28 29  1  0
  4 30  2  0
  4 31  1  0
 32 31  1  0
 32 33  1  0
 33 34  1  0
 33 35  1  0
 34 36  1  0
 35 37  1  0
 35 38  1  0
 38 36  1  0
 36 39  1  0
 38 40  1  0
 41 39  1  0
 42 39  1  0
 43 41  2  0
 41 44  1  0
 45 42  2  0
 46 43  1  0
 44 47  2  0
 44 45  1  0
 48 46  2  0
 48 47  1  0
 47 49  1  0
  6 50  1  1
  7 51  1  0
  7 52  1  0
  8 53  1  0
  8 54  1  0
 10 55  1  0
 11 56  1  0
 12 57  1  0
 13 58  1  0
 16 59  1  1
 17 60  1  0
 17 61  1  0
 17 62  1  0
 19 63  1  0
 22 64  1  0
 28 65  1  0
 28 66  1  0
 32 67  1  0
 32 68  1  0
 33 69  1  0
 35 70  1  0
 36 71  1  0
 37 72  1  0
 38 73  1  0
 40 74  1  0
 42 75  1  0
 46 76  1  0
 49 77  1  0
 49 78  1  0
M  CHG  3   5  -1  23   1  26  -1
M  END
>  <EmbedRMS>  (201) 
0.0816297539802

$$$$

     RDKit          3D

 78 83  0  0  0  0  0  0  0  0999 V2000
   10.2835   43.7661   33.8257 C   0  0  0  0  0  0  0  0  0  0  0  0
   11.4102   43.5930   34.3753 O   0  0  0  0  0  0  0  0  0  0  0  0
    9.3638   42.7255   33.7349 O   0  0  0  0  0  0  0  0  0  0  0  0
    9.8907   41.2265   34.2933 P   0  0  0  0  0  0  0  0  0  0  0  0
   10.3743   41.4557   35.8828 O   0  0  0  0  0  0  0  0  0  0  0  0
    9.9547   45.0694   33.2036 C   0  0  1  0  0  0  0  0  0  0  0  0
   11.0274   46.0321   33.4756 N   0  0  0  0  0  0  0  0  0  0  0  0
    9.7466   44.8479   31.6877 C   0  0  0  0  0  0  0  0  0  0  0  0
    8.7923   45.8406   31.0848 C   0  0  0  0  0  0  0  0  0  0  0  0
    7.4061   45.6016   31.0992 C   0  0  0  0  0  0  0  0  0  0  0  0
    9.2816   46.9871   30.4426 C   0  0  0  0  0  0  0  0  0  0  0  0
    6.5280   46.5033   30.4837 C   0  0  0  0  0  0  0  0  0  0  0  0
    8.4029   47.8895   29.8319 C   0  0  0  0  0  0  0  0  0  0  0  0
    7.0128   47.6543   29.8464 C   0  0  0  0  0  0  0  0  0  0  0  0
    6.0733   48.5108   29.2429 O   0  0  0  0  0  0  0  0  0  0  0  0
    6.3246   49.7464   28.5599 C   0  0  1  0  0  0  0  0  0  0  0  0
    6.7237   50.8349   29.5690 C   0  0  0  0  0  0  0  0  0  0  0  0
    7.2557   49.5499   27.3619 C   0  0  0  0  0  0  0  0  0  0  0  0
    8.3903   50.3866   27.1751 C   0  0  0  0  0  0  0  0  0  0  0  0
    7.0130   48.4946   26.4146 C   0  0  0  0  0  0  0  0  0  0  0  0
    9.2440   50.1258   26.1120 C   0  0  0  0  0  0  0  0  0  0  0  0
    7.9288   48.2707   25.3621 C   0  0  0  0  0  0  0  0  0  0  0  0
    5.8619   47.6380   26.5088 N   0  0  0  0  0  0  0  0  0  0  0  0
   10.3998   50.7945   25.7565 O   0  0  0  0  0  0  0  0  0  0  0  0
    9.0262   49.1105   25.2475 C   0  0  0  0  0  0  0  0  0  0  0  0
    5.9579   46.3188   26.1299 O   0  0  0  0  0  0  0  0  0  0  0  0
    4.7325   48.1158   26.7396 O   0  0  0  0  0  0  0  0  0  0  0  0
   10.9407   50.1551   24.5925 C   0  0  0  0  0  0  0  0  0  0  0  0
   10.0321   49.0848   24.3008 O   0  0  0  0  0  0  0  0  0  0  0  0
    8.8123   40.1850   34.2127 O   0  0  0  0  0  0  0  0  0  0  0  0
   11.2407   40.7945   33.3670 O   0  0  0  0  0  0  0  0  0  0  0  0
   10.9134   40.6866   31.9954 C   0  0  0  0  0  0  0  0  0  0  0  0
   11.5167   39.3787   31.4404 C   0  0  0  0  0  0  0  0  0  0  0  0
   12.7486   39.0849   32.0735 O   0  0  0  0  0  0  0  0  0  0  0  0
   10.6039   38.1884   31.6669 C   0  0  0  0  0  0  0  0  0  0  0  0
   12.9329   37.6776   32.0284 C   0  0  0  0  0  0  0  0  0  0  0  0
    9.6374   38.0938   30.6484 O   0  0  0  0  0  0  0  0  0  0  0  0
   11.5737   37.0141   31.7055 C   0  0  0  0  0  0  0  0  0  0  0  0
   13.4853   37.2120   33.3238 N   0  0  0  0  0  0  0  0  0  0  0  0
   11.6210   36.3379   30.4683 O   0  0  0  0  0  0  0  0  0  0  0  0
   14.4804   36.3319   33.5726 C   0  0  0  0  0  0  0  0  0  0  0  0
   13.1141   37.6275   34.5689 C   0  0  0  0  0  0  0  0  0  0  0  0
   15.2075   35.6152   32.6740 N   0  0  0  0  0  0  0  0  0  0  0  0
   14.6761   36.2306   34.9181 C   0  0  0  0  0  0  0  0  0  0  0  0
   13.8218   37.0451   35.5783 N   0  0  0  0  0  0  0  0  0  0  0  0
   16.1642   34.7600   33.1548 C   0  0  0  0  0  0  0  0  0  0  0  0
   15.6527   35.3507   35.4131 C   0  0  0  0  0  0  0  0  0  0  0  0
   16.3795   34.6315   34.5043 N   0  0  0  0  0  0  0  0  0  0  0  0
   15.9001   35.1933   36.8090 N   0  0  0  0  0  0  0  0  0  0  0  0
    9.0121   45.4317   33.6715 H   0  0  0  0  0  0  0  0  0  0  0  0
   11.8907   45.7658   32.9470 H   0  0  0  0  0  0  0  0  0  0  0  0
   10.7260   46.9687   33.1212 H   0  0  0  0  0  0  0  0  0  0  0  0
    9.3415   43.8328   31.4763 H   0  0  0  0  0  0  0  0  0  0  0  0
   10.7230   44.8814   31.1557 H   0  0  0  0  0  0  0  0  0  0  0  0
    7.0086   44.7167   31.5807 H   0  0  0  0  0  0  0  0  0  0  0  0
   10.3464   47.1834   30.4107 H   0  0  0  0  0  0  0  0  0  0  0  0
    5.4638   46.3048   30.5001 H   0  0  0  0  0  0  0  0  0  0  0  0
    8.8258   48.7546   29.3497 H   0  0  0  0  0  0  0  0  0  0  0  0
    5.3526   50.0864   28.1445 H   0  0  0  0  0  0  0  0  0  0  0  0
    7.7205   50.6427   30.0132 H   0  0  0  0  0  0  0  0  0  0  0  0
    6.7253   51.8321   29.0795 H   0  0  0  0  0  0  0  0  0  0  0  0
    5.9800   50.8650   30.3934 H   0  0  0  0  0  0  0  0  0  0  0  0
    8.6281   51.2052   27.8382 H   0  0  0  0  0  0  0  0  0  0  0  0
    7.7769   47.4777   24.6413 H   0  0  0  0  0  0  0  0  0  0  0  0
   11.9514   49.7510   24.8110 H   0  0  0  0  0  0  0  0  0  0  0  0
   10.9766   50.8696   23.7435 H   0  0  0  0  0  0  0  0  0  0  0  0
    9.8225   40.7225   31.7631 H   0  0  0  0  0  0  0  0  0  0  0  0
   11.3827   41.5438   31.4669 H   0  0  0  0  0  0  0  0  0  0  0  0
   11.6979   39.5037   30.3478 H   0  0  0  0  0  0  0  0  0  0  0  0
   10.1084   38.2787   32.6627 H   0  0  0  0  0  0  0  0  0  0  0  0
   13.6638   37.4472   31.2214 H   0  0  0  0  0  0  0  0  0  0  0  0
    8.9763   37.4191   30.9532 H   0  0  0  0  0  0  0  0  0  0  0  0
   11.2821   36.3054   32.5171 H   0  0  0  0  0  0  0  0  0  0  0  0
   10.8658   35.6935   30.4652 H   0  0  0  0  0  0  0  0  0  0  0  0
   12.3293   38.3523   34.7444 H   0  0  0  0  0  0  0  0  0  0  0  0
   16.7561   34.1778   32.4621 H   0  0  0  0  0  0  0  0  0  0  0  0
   15.3533   35.7361   37.5138 H   0  0  0  0  0  0  0  0  0  0  0  0
   16.6345   34.5300   37.1416 H   0  0  0  0  0  0  0  0  0  0  0  0
  1  2  2  0
  1  3  1  0
  3  4  1  0
  4  5  1  0
  6  1  1  0
  7  6  1  0
  6  8  1  0
  8  9  1  0
  9 10  2  0
 11  9  1  0
 10 12  1  0
 13 11  2  0
 12 14  2  0
 14 13  1  0
 14 15  1  0
 15 16  1  0
 16 17  1  0
 16 18  1  0
 18 19  2  0
 20 18  1  0
 19 21  1  0
 22 20  2  0
 20 23  1  0
 21 24  1  0
 21 25  2  0
 25 22  1  0
 23 26  1  0
 23 27  2  0
 24 28  1  0
 25 29  1  0
 28 29  1  0
  4 30  2  0
  4 31  1  0
 32 31  1  0
 32 33  1  0
 33 34  1  0
 33 35  1  0
 34 36  1  0
 35 37  1  0
 35 38  1  0
 38 36  1  0
 36 39  1  0
 38 40  1  0
 41 39  1  0
 42 39  1  0
 43 41  2  0
 41 44  1  0
 45 42  2  0
 46 43  1  0
 44 47  2  0
 44 45  1  0
 48 46  2  0
 48 47  1  0
 47 49  1  0
  6 50  1  1
  7 51  1  0
  7 52  1  0
  8 53  1  0
  8 54  1  0
 10 55  1  0
 11 56  1  0
 12 57  1  0
 13 58  1  0
 16 59  1  6
 17 60  1  0
 17 61  1  0
 17 62  1  0
 19 63  1  0
 22 64  1  0
 28 65  1  0
 28 66  1  0
 32 67  1  0
 32 68  1  0
 33 69  1  0
 35 70  1  0
 36 71  1  0
 37 72  1  0
 38 73  1  0
 40 74  1  0
 42 75  1  0
 46 76  1  0
 49 77  1  0
 49 78  1  0
M  CHG  3   5  -1  23   1  26  -1
M  END
>  <EmbedRMS>  (202) 
0.0825474858703

$$$$

     RDKit          3D

 78 83  0  0  0  0  0  0  0  0999 V2000
   10.2835   43.7662   33.8256 C   0  0  0  0  0  0  0  0  0  0  0  0
   11.4102   43.5930   34.3753 O   0  0  0  0  0  0  0  0  0  0  0  0
    9.3637   42.7255   33.7350 O   0  0  0  0  0  0  0  0  0  0  0  0
    9.8903   41.2268   34.2946 P   0  0  0  0  0  0  0  0  0  0  0  0
   10.3728   41.4561   35.8842 O   0  0  0  0  0  0  0  0  0  0  0  0
    9.9548   45.0695   33.2034 C   0  0  1  0  0  0  0  0  0  0  0  0
   11.0274   46.0322   33.4758 N   0  0  0  0  0  0  0  0  0  0  0  0
    9.7471   44.8483   31.6874 C   0  0  0  0  0  0  0  0  0  0  0  0
    8.7925   45.8407   31.0842 C   0  0  0  0  0  0  0  0  0  0  0  0
    7.4058   45.6011   31.0998 C   0  0  0  0  0  0  0  0  0  0  0  0
    9.2816   46.9883   30.4426 C   0  0  0  0  0  0  0  0  0  0  0  0
    6.5245   46.5014   30.4860 C   0  0  0  0  0  0  0  0  0  0  0  0
    8.4003   47.8887   29.8331 C   0  0  0  0  0  0  0  0  0  0  0  0
    7.0189   47.6552   29.8438 C   0  0  0  0  0  0  0  0  0  0  0  0
    6.1826   48.5872   29.2075 O   0  0  0  0  0  0  0  0  0  0  0  0
    4.7683   48.4513   29.0426 C   0  0  1  0  0  0  0  0  0  0  0  0
    4.2079   49.7674   28.5063 C   0  0  0  0  0  0  0  0  0  0  0  0
    4.4501   47.3197   28.0799 C   0  0  0  0  0  0  0  0  0  0  0  0
    5.2112   47.2095   26.8902 C   0  0  0  0  0  0  0  0  0  0  0  0
    3.4487   46.3340   28.3658 C   0  0  0  0  0  0  0  0  0  0  0  0
    4.9842   46.1234   26.0556 C   0  0  0  0  0  0  0  0  0  0  0  0
    3.2732   45.2413   27.4857 C   0  0  0  0  0  0  0  0  0  0  0  0
    2.6008   46.4356   29.5203 N   0  0  0  0  0  0  0  0  0  0  0  0
    5.6105   45.8095   24.8648 O   0  0  0  0  0  0  0  0  0  0  0  0
    4.0600   45.1782   26.3432 C   0  0  0  0  0  0  0  0  0  0  0  0
    1.9631   47.6206   29.8061 O   0  0  0  0  0  0  0  0  0  0  0  0
    2.2611   45.4049   30.1373 O   0  0  0  0  0  0  0  0  0  0  0  0
    5.0407   44.5883   24.3740 C   0  0  0  0  0  0  0  0  0  0  0  0
    4.0545   44.2199   25.3480 O   0  0  0  0  0  0  0  0  0  0  0  0
    8.8125   40.1848   34.2126 O   0  0  0  0  0  0  0  0  0  0  0  0
   11.2416   40.7948   33.3707 O   0  0  0  0  0  0  0  0  0  0  0  0
   10.9179   40.6922   31.9984 C   0  0  0  0  0  0  0  0  0  0  0  0
   11.5175   39.3838   31.4423 C   0  0  0  0  0  0  0  0  0  0  0  0
   12.7507   39.0887   32.0752 O   0  0  0  0  0  0  0  0  0  0  0  0
   10.6027   38.1916   31.6658 C   0  0  0  0  0  0  0  0  0  0  0  0
   12.9384   37.6818   32.0278 C   0  0  0  0  0  0  0  0  0  0  0  0
    9.6371   38.0806   30.6470 O   0  0  0  0  0  0  0  0  0  0  0  0
   11.5780   37.0215   31.6935 C   0  0  0  0  0  0  0  0  0  0  0  0
   13.4844   37.2119   33.3242 N   0  0  0  0  0  0  0  0  0  0  0  0
   11.6095   36.3201   30.4679 O   0  0  0  0  0  0  0  0  0  0  0  0
   14.4797   36.3318   33.5730 C   0  0  0  0  0  0  0  0  0  0  0  0
   13.1135   37.6278   34.5691 C   0  0  0  0  0  0  0  0  0  0  0  0
   15.2073   35.6155   32.6742 N   0  0  0  0  0  0  0  0  0  0  0  0
   14.6754   36.2305   34.9184 C   0  0  0  0  0  0  0  0  0  0  0  0
   13.8213   37.0452   35.5785 N   0  0  0  0  0  0  0  0  0  0  0  0
   16.1640   34.7604   33.1549 C   0  0  0  0  0  0  0  0  0  0  0  0
   15.6524   35.3507   35.4132 C   0  0  0  0  0  0  0  0  0  0  0  0
   16.3794   34.6318   34.5044 N   0  0  0  0  0  0  0  0  0  0  0  0
   15.9000   35.1934   36.8091 N   0  0  0  0  0  0  0  0  0  0  0  0
    9.0120   45.4317   33.6711 H   0  0  0  0  0  0  0  0  0  0  0  0
   10.7260   46.9688   33.1214 H   0  0  0  0  0  0  0  0  0  0  0  0
   11.8908   45.7659   32.9474 H   0  0  0  0  0  0  0  0  0  0  0  0
    9.3426   43.8330   31.4757 H   0  0  0  0  0  0  0  0  0  0  0  0
   10.7236   44.8824   31.1556 H   0  0  0  0  0  0  0  0  0  0  0  0
    7.0100   44.7166   31.5837 H   0  0  0  0  0  0  0  0  0  0  0  0
   10.3459   47.1868   30.4111 H   0  0  0  0  0  0  0  0  0  0  0  0
    5.4659   46.2888   30.5212 H   0  0  0  0  0  0  0  0  0  0  0  0
    8.7937   48.7699   29.3423 H   0  0  0  0  0  0  0  0  0  0  0  0
    4.3196   48.2800   30.0426 H   0  0  0  0  0  0  0  0  0  0  0  0
    3.1092   49.6907   28.3628 H   0  0  0  0  0  0  0  0  0  0  0  0
    4.4124   50.5843   29.2306 H   0  0  0  0  0  0  0  0  0  0  0  0
    4.6818   50.0287   27.5360 H   0  0  0  0  0  0  0  0  0  0  0  0
    5.9728   47.9360   26.6363 H   0  0  0  0  0  0  0  0  0  0  0  0
    2.5294   44.4783   27.6756 H   0  0  0  0  0  0  0  0  0  0  0  0
    4.5603   44.7579   23.3876 H   0  0  0  0  0  0  0  0  0  0  0  0
    5.8210   43.8019   24.3025 H   0  0  0  0  0  0  0  0  0  0  0  0
   11.3951   41.5478   31.4744 H   0  0  0  0  0  0  0  0  0  0  0  0
    9.8291   40.7409   31.7626 H   0  0  0  0  0  0  0  0  0  0  0  0
   11.6982   39.5115   30.3500 H   0  0  0  0  0  0  0  0  0  0  0  0
   10.1117   38.2604   32.6660 H   0  0  0  0  0  0  0  0  0  0  0  0
   13.6767   37.4556   31.2267 H   0  0  0  0  0  0  0  0  0  0  0  0
    8.8961   38.6952   30.8871 H   0  0  0  0  0  0  0  0  0  0  0  0
   11.2791   36.3072   32.4922 H   0  0  0  0  0  0  0  0  0  0  0  0
   11.8827   36.9598   29.7588 H   0  0  0  0  0  0  0  0  0  0  0  0
   12.3300   38.3539   34.7446 H   0  0  0  0  0  0  0  0  0  0  0  0
   16.7561   34.1785   32.4622 H   0  0  0  0  0  0  0  0  0  0  0  0
   16.6347   34.5303   37.1416 H   0  0  0  0  0  0  0  0  0  0  0  0
   15.3531   35.7360   37.5140 H   0  0  0  0  0  0  0  0  0  0  0  0
  1  2  2  0
  1  3  1  0
  3  4  1  0
  4  5  1  0
  6  1  1  0
  7  6  1  0
  6  8  1  0
  8  9  1  0
  9 10  2  0
 11  9  1  0
 10 12  1  0
 13 11  2  0
 12 14  2  0
 14 13  1  0
 14 15  1  0
 15 16  1  0
 16 17  1  0
 16 18  1  0
 18 19  2  0
 20 18  1  0
 19 21  1  0
 22 20  2  0
 20 23  1  0
 21 24  1  0
 21 25  2  0
 25 22  1  0
 23 26  1  0
 23 27  2  0
 24 28  1  0
 25 29  1  0
 28 29  1  0
  4 30  2  0
  4 31  1  0
 32 31  1  0
 32 33  1  0
 33 34  1  0
 33 35  1  0
 34 36  1  0
 35 37  1  0
 35 38  1  0
 38 36  1  0
 36 39  1  0
 38 40  1  0
 41 39  1  0
 42 39  1  0
 43 41  2  0
 41 44  1  0
 45 42  2  0
 46 43  1  0
 44 47  2  0
 44 45  1  0
 48 46  2  0
 48 47  1  0
 47 49  1  0
  6 50  1  1
  7 51  1  0
  7 52  1  0
  8 53  1  0
  8 54  1  0
 10 55  1  0
 11 56  1  0
 12 57  1  0
 13 58  1  0
 16 59  1  1
 17 60  1  0
 17 61  1  0
 17 62  1  0
 19 63  1  0
 22 64  1  0
 28 65  1  0
 28 66  1  0
 32 67  1  0
 32 68  1  0
 33 69  1  0
 35 70  1  0
 36 71  1  0
 37 72  1  0
 38 73  1  0
 40 74  1  0
 42 75  1  0
 46 76  1  0
 49 77  1  0
 49 78  1  0
M  CHG  3   5  -1  23   1  26  -1
M  END
>  <EmbedRMS>  (203) 
0.0819722968132

$$$$

     RDKit          3D

 78 83  0  0  0  0  0  0  0  0999 V2000
   10.2834   43.7662   33.8255 C   0  0  0  0  0  0  0  0  0  0  0  0
   11.4101   43.5930   34.3752 O   0  0  0  0  0  0  0  0  0  0  0  0
    9.3636   42.7255   33.7349 O   0  0  0  0  0  0  0  0  0  0  0  0
    9.8902   41.2267   34.2942 P   0  0  0  0  0  0  0  0  0  0  0  0
   10.3735   41.4561   35.8836 O   0  0  0  0  0  0  0  0  0  0  0  0
    9.9547   45.0695   33.2034 C   0  0  1  0  0  0  0  0  0  0  0  0
   11.0273   46.0322   33.4758 N   0  0  0  0  0  0  0  0  0  0  0  0
    9.7471   44.8483   31.6874 C   0  0  0  0  0  0  0  0  0  0  0  0
    8.7925   45.8409   31.0842 C   0  0  0  0  0  0  0  0  0  0  0  0
    7.4057   45.6011   31.0997 C   0  0  0  0  0  0  0  0  0  0  0  0
    9.2817   46.9881   30.4423 C   0  0  0  0  0  0  0  0  0  0  0  0
    6.5243   46.5014   30.4858 C   0  0  0  0  0  0  0  0  0  0  0  0
    8.4004   47.8885   29.8328 C   0  0  0  0  0  0  0  0  0  0  0  0
    7.0191   47.6557   29.8446 C   0  0  0  0  0  0  0  0  0  0  0  0
    6.1834   48.5866   29.2055 O   0  0  0  0  0  0  0  0  0  0  0  0
    4.7663   48.4641   29.0645 C   0  0  1  0  0  0  0  0  0  0  0  0
    4.1792   49.7803   28.5559 C   0  0  0  0  0  0  0  0  0  0  0  0
    4.3744   47.3139   28.1480 C   0  0  0  0  0  0  0  0  0  0  0  0
    3.1722   46.6289   28.4490 C   0  0  0  0  0  0  0  0  0  0  0  0
    5.1761   46.8657   27.0401 C   0  0  0  0  0  0  0  0  0  0  0  0
    2.8214   45.5278   27.6800 C   0  0  0  0  0  0  0  0  0  0  0  0
    4.7741   45.7276   26.3050 C   0  0  0  0  0  0  0  0  0  0  0  0
    6.3916   47.5259   26.6543 N   0  0  0  0  0  0  0  0  0  0  0  0
    1.7107   44.7149   27.8003 O   0  0  0  0  0  0  0  0  0  0  0  0
    3.5905   45.0937   26.6563 C   0  0  0  0  0  0  0  0  0  0  0  0
    7.4679   46.7799   26.2326 O   0  0  0  0  0  0  0  0  0  0  0  0
    6.4131   48.7613   26.4837 O   0  0  0  0  0  0  0  0  0  0  0  0
    1.7892   43.7058   26.7844 C   0  0  0  0  0  0  0  0  0  0  0  0
    3.0049   43.9847   26.0765 O   0  0  0  0  0  0  0  0  0  0  0  0
    8.8120   40.1850   34.2131 O   0  0  0  0  0  0  0  0  0  0  0  0
   11.2404   40.7941   33.3690 O   0  0  0  0  0  0  0  0  0  0  0  0
   10.9143   40.6898   31.9972 C   0  0  0  0  0  0  0  0  0  0  0  0
   11.5261   39.3885   31.4376 C   0  0  0  0  0  0  0  0  0  0  0  0
   12.7504   39.0888   32.0816 O   0  0  0  0  0  0  0  0  0  0  0  0
   10.6115   38.1910   31.6460 C   0  0  0  0  0  0  0  0  0  0  0  0
   12.9357   37.6812   32.0303 C   0  0  0  0  0  0  0  0  0  0  0  0
    9.6145   38.0859   30.6533 O   0  0  0  0  0  0  0  0  0  0  0  0
   11.5769   37.0148   31.7012 C   0  0  0  0  0  0  0  0  0  0  0  0
   13.4849   37.2112   33.3247 N   0  0  0  0  0  0  0  0  0  0  0  0
   11.6193   36.3261   30.4724 O   0  0  0  0  0  0  0  0  0  0  0  0
   14.4802   36.3313   33.5730 C   0  0  0  0  0  0  0  0  0  0  0  0
   13.1141   37.6268   34.5698 C   0  0  0  0  0  0  0  0  0  0  0  0
   15.2075   35.6151   32.6741 N   0  0  0  0  0  0  0  0  0  0  0  0
   14.6761   36.2300   34.9184 C   0  0  0  0  0  0  0  0  0  0  0  0
   13.8221   37.0445   35.5789 N   0  0  0  0  0  0  0  0  0  0  0  0
   16.1642   34.7600   33.1547 C   0  0  0  0  0  0  0  0  0  0  0  0
   15.6530   35.3503   35.4132 C   0  0  0  0  0  0  0  0  0  0  0  0
   16.3798   34.6314   34.5042 N   0  0  0  0  0  0  0  0  0  0  0  0
   15.9004   35.1930   36.8090 N   0  0  0  0  0  0  0  0  0  0  0  0
    9.0120   45.4317   33.6711 H   0  0  0  0  0  0  0  0  0  0  0  0
   11.8908   45.7658   32.9474 H   0  0  0  0  0  0  0  0  0  0  0  0
   10.7261   46.9688   33.1213 H   0  0  0  0  0  0  0  0  0  0  0  0
    9.3425   43.8331   31.4756 H   0  0  0  0  0  0  0  0  0  0  0  0
   10.7235   44.8824   31.1555 H   0  0  0  0  0  0  0  0  0  0  0  0
    7.0100   44.7160   31.5825 H   0  0  0  0  0  0  0  0  0  0  0  0
   10.3460   47.1863   30.4101 H   0  0  0  0  0  0  0  0  0  0  0  0
    5.4657   46.2868   30.5169 H   0  0  0  0  0  0  0  0  0  0  0  0
    8.7937   48.7688   29.3404 H   0  0  0  0  0  0  0  0  0  0  0  0
    4.3361   48.3006   30.0783 H   0  0  0  0  0  0  0  0  0  0  0  0
    4.4824   50.6104   29.2286 H   0  0  0  0  0  0  0  0  0  0  0  0
    4.5279   50.0110   27.5297 H   0  0  0  0  0  0  0  0  0  0  0  0
    3.0696   49.7242   28.5482 H   0  0  0  0  0  0  0  0  0  0  0  0
    2.5364   46.9368   29.2697 H   0  0  0  0  0  0  0  0  0  0  0  0
    5.3590   45.3603   25.4716 H   0  0  0  0  0  0  0  0  0  0  0  0
    0.9199   43.7831   26.0982 H   0  0  0  0  0  0  0  0  0  0  0  0
    1.8380   42.6978   27.2472 H   0  0  0  0  0  0  0  0  0  0  0  0
   11.3779   41.5526   31.4726 H   0  0  0  0  0  0  0  0  0  0  0  0
    9.8233   40.7191   31.7646 H   0  0  0  0  0  0  0  0  0  0  0  0
   11.7283   39.5312   30.3515 H   0  0  0  0  0  0  0  0  0  0  0  0
   10.1127   38.2734   32.6376 H   0  0  0  0  0  0  0  0  0  0  0  0
   13.6692   37.4566   31.2242 H   0  0  0  0  0  0  0  0  0  0  0  0
   10.0533   38.1119   29.7635 H   0  0  0  0  0  0  0  0  0  0  0  0
   11.2607   36.3148   32.5102 H   0  0  0  0  0  0  0  0  0  0  0  0
   12.1496   35.5023   30.6324 H   0  0  0  0  0  0  0  0  0  0  0  0
   12.3301   38.3524   34.7455 H   0  0  0  0  0  0  0  0  0  0  0  0
   16.7562   34.1780   32.4619 H   0  0  0  0  0  0  0  0  0  0  0  0
   16.6351   34.5298   37.1415 H   0  0  0  0  0  0  0  0  0  0  0  0
   15.3536   35.7356   37.5140 H   0  0  0  0  0  0  0  0  0  0  0  0
  1  2  2  0
  1  3  1  0
  3  4  1  0
  4  5  1  0
  6  1  1  0
  7  6  1  0
  6  8  1  0
  8  9  1  0
  9 10  2  0
 11  9  1  0
 10 12  1  0
 13 11  2  0
 12 14  2  0
 14 13  1  0
 14 15  1  0
 15 16  1  0
 16 17  1  0
 16 18  1  0
 18 19  2  0
 20 18  1  0
 19 21  1  0
 22 20  2  0
 20 23  1  0
 21 24  1  0
 21 25  2  0
 25 22  1  0
 23 26  1  0
 23 27  2  0
 24 28  1  0
 25 29  1  0
 28 29  1  0
  4 30  2  0
  4 31  1  0
 32 31  1  0
 32 33  1  0
 33 34  1  0
 33 35  1  0
 34 36  1  0
 35 37  1  0
 35 38  1  0
 38 36  1  0
 36 39  1  0
 38 40  1  0
 41 39  1  0
 42 39  1  0
 43 41  2  0
 41 44  1  0
 45 42  2  0
 46 43  1  0
 44 47  2  0
 44 45  1  0
 48 46  2  0
 48 47  1  0
 47 49  1  0
  6 50  1  1
  7 51  1  0
  7 52  1  0
  8 53  1  0
  8 54  1  0
 10 55  1  0
 11 56  1  0
 12 57  1  0
 13 58  1  0
 16 59  1  1
 17 60  1  0
 17 61  1  0
 17 62  1  0
 19 63  1  0
 22 64  1  0
 28 65  1  0
 28 66  1  0
 32 67  1  0
 32 68  1  0
 33 69  1  0
 35 70  1  0
 36 71  1  0
 37 72  1  0
 38 73  1  0
 40 74  1  0
 42 75  1  0
 46 76  1  0
 49 77  1  0
 49 78  1  0
M  CHG  3   5  -1  23   1  26  -1
M  END
>  <EmbedRMS>  (204) 
0.0816195643539

$$$$

     RDKit          3D

 78 83  0  0  0  0  0  0  0  0999 V2000
   10.2805   43.7663   33.8248 C   0  0  0  0  0  0  0  0  0  0  0  0
   11.4111   43.5919   34.3667 O   0  0  0  0  0  0  0  0  0  0  0  0
    9.3622   42.7247   33.7342 O   0  0  0  0  0  0  0  0  0  0  0  0
    9.8904   41.2264   34.2936 P   0  0  0  0  0  0  0  0  0  0  0  0
   10.3731   41.4565   35.8831 O   0  0  0  0  0  0  0  0  0  0  0  0
    9.9460   45.0735   33.2110 C   0  0  1  0  0  0  0  0  0  0  0  0
   11.0266   46.0292   33.4708 N   0  0  0  0  0  0  0  0  0  0  0  0
    9.7542   44.8541   31.6947 C   0  0  0  0  0  0  0  0  0  0  0  0
    8.7959   45.8410   31.0844 C   0  0  0  0  0  0  0  0  0  0  0  0
    7.4091   45.6004   31.1017 C   0  0  0  0  0  0  0  0  0  0  0  0
    9.2823   46.9882   30.4402 C   0  0  0  0  0  0  0  0  0  0  0  0
    6.5260   46.4995   30.4877 C   0  0  0  0  0  0  0  0  0  0  0  0
    8.3994   47.8878   29.8322 C   0  0  0  0  0  0  0  0  0  0  0  0
    7.0181   47.6532   29.8438 C   0  0  0  0  0  0  0  0  0  0  0  0
    6.1820   48.5861   29.2081 O   0  0  0  0  0  0  0  0  0  0  0  0
    4.7717   48.4513   29.0287 C   0  0  1  0  0  0  0  0  0  0  0  0
    4.1861   49.7889   28.5752 C   0  0  0  0  0  0  0  0  0  0  0  0
    4.4408   47.3460   28.0362 C   0  0  0  0  0  0  0  0  0  0  0  0
    3.5515   46.3242   28.4509 C   0  0  0  0  0  0  0  0  0  0  0  0
    4.9437   47.3276   26.6915 C   0  0  0  0  0  0  0  0  0  0  0  0
    3.2008   45.3360   27.5404 C   0  0  0  0  0  0  0  0  0  0  0  0
    4.5405   46.3046   25.8050 C   0  0  0  0  0  0  0  0  0  0  0  0
    5.8375   48.3361   26.2053 N   0  0  0  0  0  0  0  0  0  0  0  0
    2.3615   44.2546   27.7274 O   0  0  0  0  0  0  0  0  0  0  0  0
    3.6733   45.3272   26.2731 C   0  0  0  0  0  0  0  0  0  0  0  0
    7.1146   48.4163   26.7070 O   0  0  0  0  0  0  0  0  0  0  0  0
    5.5704   48.9323   25.1418 O   0  0  0  0  0  0  0  0  0  0  0  0
    2.3063   43.5195   26.4972 C   0  0  0  0  0  0  0  0  0  0  0  0
    3.1578   44.2393   25.5952 O   0  0  0  0  0  0  0  0  0  0  0  0
    8.8128   40.1841   34.2124 O   0  0  0  0  0  0  0  0  0  0  0  0
   11.2419   40.7944   33.3695 O   0  0  0  0  0  0  0  0  0  0  0  0
   10.9185   40.6911   31.9969 C   0  0  0  0  0  0  0  0  0  0  0  0
   11.5172   39.3814   31.4407 C   0  0  0  0  0  0  0  0  0  0  0  0
   12.7492   39.0856   32.0729 O   0  0  0  0  0  0  0  0  0  0  0  0
   10.6023   38.1908   31.6665 C   0  0  0  0  0  0  0  0  0  0  0  0
   12.9319   37.6781   32.0281 C   0  0  0  0  0  0  0  0  0  0  0  0
    9.6392   38.0797   30.6452 O   0  0  0  0  0  0  0  0  0  0  0  0
   11.5715   37.0165   31.7056 C   0  0  0  0  0  0  0  0  0  0  0  0
   13.4846   37.2121   33.3235 N   0  0  0  0  0  0  0  0  0  0  0  0
   11.6187   36.3384   30.4694 O   0  0  0  0  0  0  0  0  0  0  0  0
   14.4801   36.3321   33.5724 C   0  0  0  0  0  0  0  0  0  0  0  0
   13.1137   37.6276   34.5688 C   0  0  0  0  0  0  0  0  0  0  0  0
   15.2073   35.6153   32.6738 N   0  0  0  0  0  0  0  0  0  0  0  0
   14.6759   36.2308   34.9179 C   0  0  0  0  0  0  0  0  0  0  0  0
   13.8216   37.0452   35.5781 N   0  0  0  0  0  0  0  0  0  0  0  0
   16.1640   34.7602   33.1546 C   0  0  0  0  0  0  0  0  0  0  0  0
   15.6526   35.3508   35.4129 C   0  0  0  0  0  0  0  0  0  0  0  0
   16.3794   34.6317   34.5041 N   0  0  0  0  0  0  0  0  0  0  0  0
   15.8999   35.1935   36.8088 N   0  0  0  0  0  0  0  0  0  0  0  0
    8.9995   45.4379   33.6719 H   0  0  0  0  0  0  0  0  0  0  0  0
   10.7764   46.9368   33.0159 H   0  0  0  0  0  0  0  0  0  0  0  0
   11.0501   46.2276   34.4982 H   0  0  0  0  0  0  0  0  0  0  0  0
   10.7414   44.9079   31.1834 H   0  0  0  0  0  0  0  0  0  0  0  0
    9.3648   43.8353   31.4708 H   0  0  0  0  0  0  0  0  0  0  0  0
    7.0149   44.7169   31.5887 H   0  0  0  0  0  0  0  0  0  0  0  0
   10.3462   47.1884   30.4061 H   0  0  0  0  0  0  0  0  0  0  0  0
    5.4686   46.2874   30.5291 H   0  0  0  0  0  0  0  0  0  0  0  0
    8.7916   48.7692   29.3408 H   0  0  0  0  0  0  0  0  0  0  0  0
    4.3107   48.2370   30.0186 H   0  0  0  0  0  0  0  0  0  0  0  0
    3.0929   49.6906   28.4023 H   0  0  0  0  0  0  0  0  0  0  0  0
    4.6700   50.1481   27.6445 H   0  0  0  0  0  0  0  0  0  0  0  0
    4.3485   50.5529   29.3649 H   0  0  0  0  0  0  0  0  0  0  0  0
    3.1361   46.3032   29.4505 H   0  0  0  0  0  0  0  0  0  0  0  0
    4.9027   46.2705   24.7854 H   0  0  0  0  0  0  0  0  0  0  0  0
    1.2666   43.4988   26.1085 H   0  0  0  0  0  0  0  0  0  0  0  0
    2.6915   42.4892   26.6478 H   0  0  0  0  0  0  0  0  0  0  0  0
   11.3967   41.5460   31.4725 H   0  0  0  0  0  0  0  0  0  0  0  0
    9.8298   40.7409   31.7611 H   0  0  0  0  0  0  0  0  0  0  0  0
   11.6975   39.5066   30.3481 H   0  0  0  0  0  0  0  0  0  0  0  0
   10.1076   38.2648   32.6645 H   0  0  0  0  0  0  0  0  0  0  0  0
   13.6621   37.4468   31.2209 H   0  0  0  0  0  0  0  0  0  0  0  0
    8.8974   38.6943   30.8831 H   0  0  0  0  0  0  0  0  0  0  0  0
   11.2806   36.3073   32.5170 H   0  0  0  0  0  0  0  0  0  0  0  0
   10.8492   35.7110   30.4585 H   0  0  0  0  0  0  0  0  0  0  0  0
   12.3290   38.3524   34.7444 H   0  0  0  0  0  0  0  0  0  0  0  0
   16.7559   34.1780   32.4619 H   0  0  0  0  0  0  0  0  0  0  0  0
   15.3531   35.7362   37.5137 H   0  0  0  0  0  0  0  0  0  0  0  0
   16.6344   34.5301   37.1414 H   0  0  0  0  0  0  0  0  0  0  0  0
  1  2  2  0
  1  3  1  0
  3  4  1  0
  4  5  1  0
  6  1  1  0
  7  6  1  0
  6  8  1  0
  8  9  1  0
  9 10  2  0
 11  9  1  0
 10 12  1  0
 13 11  2  0
 12 14  2  0
 14 13  1  0
 14 15  1  0
 15 16  1  0
 16 17  1  0
 16 18  1  0
 18 19  2  0
 20 18  1  0
 19 21  1  0
 22 20  2  0
 20 23  1  0
 21 24  1  0
 21 25  2  0
 25 22  1  0
 23 26  1  0
 23 27  2  0
 24 28  1  0
 25 29  1  0
 28 29  1  0
  4 30  2  0
  4 31  1  0
 32 31  1  0
 32 33  1  0
 33 34  1  0
 33 35  1  0
 34 36  1  0
 35 37  1  0
 35 38  1  0
 38 36  1  0
 36 39  1  0
 38 40  1  0
 41 39  1  0
 42 39  1  0
 43 41  2  0
 41 44  1  0
 45 42  2  0
 46 43  1  0
 44 47  2  0
 44 45  1  0
 48 46  2  0
 48 47  1  0
 47 49  1  0
  6 50  1  1
  7 51  1  0
  7 52  1  0
  8 53  1  0
  8 54  1  0
 10 55  1  0
 11 56  1  0
 12 57  1  0
 13 58  1  0
 16 59  1  1
 17 60  1  0
 17 61  1  0
 17 62  1  0
 19 63  1  0
 22 64  1  0
 28 65  1  0
 28 66  1  0
 32 67  1  0
 32 68  1  0
 33 69  1  0
 35 70  1  0
 36 71  1  0
 37 72  1  0
 38 73  1  0
 40 74  1  0
 42 75  1  0
 46 76  1  0
 49 77  1  0
 49 78  1  0
M  CHG  3   5  -1  23   1  26  -1
M  END
>  <EmbedRMS>  (205) 
0.0827688828665

$$$$

     RDKit          3D

 78 83  0  0  0  0  0  0  0  0999 V2000
   10.2805   43.7663   33.8248 C   0  0  0  0  0  0  0  0  0  0  0  0
   11.4111   43.5919   34.3667 O   0  0  0  0  0  0  0  0  0  0  0  0
    9.3622   42.7247   33.7342 O   0  0  0  0  0  0  0  0  0  0  0  0
    9.8904   41.2264   34.2936 P   0  0  0  0  0  0  0  0  0  0  0  0
   10.3731   41.4565   35.8831 O   0  0  0  0  0  0  0  0  0  0  0  0
    9.9460   45.0735   33.2111 C   0  0  1  0  0  0  0  0  0  0  0  0
   11.0266   46.0292   33.4708 N   0  0  0  0  0  0  0  0  0  0  0  0
    9.7540   44.8541   31.6948 C   0  0  0  0  0  0  0  0  0  0  0  0
    8.7957   45.8411   31.0847 C   0  0  0  0  0  0  0  0  0  0  0  0
    7.4089   45.6001   31.1013 C   0  0  0  0  0  0  0  0  0  0  0  0
    9.2823   46.9882   30.4399 C   0  0  0  0  0  0  0  0  0  0  0  0
    6.5261   46.4992   30.4870 C   0  0  0  0  0  0  0  0  0  0  0  0
    8.3995   47.8876   29.8314 C   0  0  0  0  0  0  0  0  0  0  0  0
    7.0183   47.6538   29.8453 C   0  0  0  0  0  0  0  0  0  0  0  0
    6.1802   48.5857   29.2115 O   0  0  0  0  0  0  0  0  0  0  0  0
    4.7592   48.4733   29.0881 C   0  0  1  0  0  0  0  0  0  0  0  0
    4.2094   49.7880   28.5398 C   0  0  0  0  0  0  0  0  0  0  0  0
    4.3791   47.3340   28.1556 C   0  0  0  0  0  0  0  0  0  0  0  0
    5.1715   47.1049   27.0030 C   0  0  0  0  0  0  0  0  0  0  0  0
    3.1910   46.5548   28.3523 C   0  0  0  0  0  0  0  0  0  0  0  0
    4.7765   46.1169   26.1109 C   0  0  0  0  0  0  0  0  0  0  0  0
    2.8303   45.5745   27.4019 C   0  0  0  0  0  0  0  0  0  0  0  0
    2.3312   46.7598   29.4812 N   0  0  0  0  0  0  0  0  0  0  0  0
    5.3921   45.7220   24.9388 O   0  0  0  0  0  0  0  0  0  0  0  0
    3.6552   45.3844   26.3014 C   0  0  0  0  0  0  0  0  0  0  0  0
    0.9697   46.8118   29.2922 O   0  0  0  0  0  0  0  0  0  0  0  0
    2.7718   46.6001   30.6376 O   0  0  0  0  0  0  0  0  0  0  0  0
    4.6066   44.6715   24.3587 C   0  0  0  0  0  0  0  0  0  0  0  0
    3.5066   44.4881   25.2606 O   0  0  0  0  0  0  0  0  0  0  0  0
    8.8128   40.1841   34.2124 O   0  0  0  0  0  0  0  0  0  0  0  0
   11.2419   40.7944   33.3695 O   0  0  0  0  0  0  0  0  0  0  0  0
   10.9185   40.6911   31.9969 C   0  0  0  0  0  0  0  0  0  0  0  0
   11.5172   39.3814   31.4407 C   0  0  0  0  0  0  0  0  0  0  0  0
   12.7492   39.0856   32.0729 O   0  0  0  0  0  0  0  0  0  0  0  0
   10.6023   38.1908   31.6665 C   0  0  0  0  0  0  0  0  0  0  0  0
   12.9319   37.6781   32.0281 C   0  0  0  0  0  0  0  0  0  0  0  0
    9.6392   38.0797   30.6452 O   0  0  0  0  0  0  0  0  0  0  0  0
   11.5715   37.0165   31.7056 C   0  0  0  0  0  0  0  0  0  0  0  0
   13.4846   37.2121   33.3235 N   0  0  0  0  0  0  0  0  0  0  0  0
   11.6187   36.3384   30.4695 O   0  0  0  0  0  0  0  0  0  0  0  0
   14.4801   36.3321   33.5724 C   0  0  0  0  0  0  0  0  0  0  0  0
   13.1137   37.6275   34.5688 C   0  0  0  0  0  0  0  0  0  0  0  0
   15.2073   35.6153   32.6738 N   0  0  0  0  0  0  0  0  0  0  0  0
   14.6759   36.2308   34.9179 C   0  0  0  0  0  0  0  0  0  0  0  0
   13.8216   37.0452   35.5781 N   0  0  0  0  0  0  0  0  0  0  0  0
   16.1640   34.7602   33.1546 C   0  0  0  0  0  0  0  0  0  0  0  0
   15.6526   35.3508   35.4129 C   0  0  0  0  0  0  0  0  0  0  0  0
   16.3794   34.6317   34.5041 N   0  0  0  0  0  0  0  0  0  0  0  0
   15.8999   35.1935   36.8088 N   0  0  0  0  0  0  0  0  0  0  0  0
    8.9995   45.4380   33.6721 H   0  0  0  0  0  0  0  0  0  0  0  0
   11.0501   46.2276   34.4982 H   0  0  0  0  0  0  0  0  0  0  0  0
   10.7764   46.9369   33.0159 H   0  0  0  0  0  0  0  0  0  0  0  0
    9.3646   43.8354   31.4709 H   0  0  0  0  0  0  0  0  0  0  0  0
   10.7412   44.9080   31.1834 H   0  0  0  0  0  0  0  0  0  0  0  0
    7.0147   44.7154   31.5861 H   0  0  0  0  0  0  0  0  0  0  0  0
   10.3462   47.1880   30.4055 H   0  0  0  0  0  0  0  0  0  0  0  0
    5.4685   46.2843   30.5187 H   0  0  0  0  0  0  0  0  0  0  0  0
    8.7915   48.7689   29.3395 H   0  0  0  0  0  0  0  0  0  0  0  0
    4.3334   48.3412   30.1014 H   0  0  0  0  0  0  0  0  0  0  0  0
    4.6385   50.0029   27.5375 H   0  0  0  0  0  0  0  0  0  0  0  0
    4.4743   50.6209   29.2252 H   0  0  0  0  0  0  0  0  0  0  0  0
    3.1023   49.7374   28.4584 H   0  0  0  0  0  0  0  0  0  0  0  0
    6.0611   47.6876   26.8004 H   0  0  0  0  0  0  0  0  0  0  0  0
    1.9379   44.9742   27.5247 H   0  0  0  0  0  0  0  0  0  0  0  0
    4.2350   44.9775   23.3583 H   0  0  0  0  0  0  0  0  0  0  0  0
    5.2044   43.7387   24.2889 H   0  0  0  0  0  0  0  0  0  0  0  0
    9.8298   40.7409   31.7611 H   0  0  0  0  0  0  0  0  0  0  0  0
   11.3967   41.5459   31.4725 H   0  0  0  0  0  0  0  0  0  0  0  0
   11.6975   39.5066   30.3481 H   0  0  0  0  0  0  0  0  0  0  0  0
   10.1076   38.2648   32.6645 H   0  0  0  0  0  0  0  0  0  0  0  0
   13.6621   37.4468   31.2209 H   0  0  0  0  0  0  0  0  0  0  0  0
    8.8974   38.6942   30.8832 H   0  0  0  0  0  0  0  0  0  0  0  0
   11.2806   36.3073   32.5170 H   0  0  0  0  0  0  0  0  0  0  0  0
   10.8492   35.7110   30.4586 H   0  0  0  0  0  0  0  0  0  0  0  0
   12.3290   38.3524   34.7444 H   0  0  0  0  0  0  0  0  0  0  0  0
   16.7559   34.1780   32.4619 H   0  0  0  0  0  0  0  0  0  0  0  0
   15.3531   35.7362   37.5137 H   0  0  0  0  0  0  0  0  0  0  0  0
   16.6344   34.5301   37.1414 H   0  0  0  0  0  0  0  0  0  0  0  0
  1  2  2  0
  1  3  1  0
  3  4  1  0
  4  5  1  0
  6  1  1  0
  7  6  1  0
  6  8  1  0
  8  9  1  0
  9 10  2  0
 11  9  1  0
 10 12  1  0
 13 11  2  0
 12 14  2  0
 14 13  1  0
 14 15  1  0
 15 16  1  0
 16 17  1  0
 16 18  1  0
 18 19  2  0
 20 18  1  0
 19 21  1  0
 22 20  2  0
 20 23  1  0
 21 24  1  0
 21 25  2  0
 25 22  1  0
 23 26  1  0
 23 27  2  0
 24 28  1  0
 25 29  1  0
 28 29  1  0
  4 30  2  0
  4 31  1  0
 32 31  1  0
 32 33  1  0
 33 34  1  0
 33 35  1  0
 34 36  1  0
 35 37  1  0
 35 38  1  0
 38 36  1  0
 36 39  1  0
 38 40  1  0
 41 39  1  0
 42 39  1  0
 43 41  2  0
 41 44  1  0
 45 42  2  0
 46 43  1  0
 44 47  2  0
 44 45  1  0
 48 46  2  0
 48 47  1  0
 47 49  1  0
  6 50  1  1
  7 51  1  0
  7 52  1  0
  8 53  1  0
  8 54  1  0
 10 55  1  0
 11 56  1  0
 12 57  1  0
 13 58  1  0
 16 59  1  1
 17 60  1  0
 17 61  1  0
 17 62  1  0
 19 63  1  0
 22 64  1  0
 28 65  1  0
 28 66  1  0
 32 67  1  0
 32 68  1  0
 33 69  1  0
 35 70  1  0
 36 71  1  0
 37 72  1  0
 38 73  1  0
 40 74  1  0
 42 75  1  0
 46 76  1  0
 49 77  1  0
 49 78  1  0
M  CHG  3   5  -1  23   1  26  -1
M  END
>  <EmbedRMS>  (206) 
0.0827636546002

$$$$

     RDKit          3D

 78 83  0  0  0  0  0  0  0  0999 V2000
   10.2838   43.7627   33.8276 C   0  0  0  0  0  0  0  0  0  0  0  0
   11.4103   43.5863   34.3767 O   0  0  0  0  0  0  0  0  0  0  0  0
    9.3631   42.7236   33.7353 O   0  0  0  0  0  0  0  0  0  0  0  0
    9.8894   41.2249   34.2944 P   0  0  0  0  0  0  0  0  0  0  0  0
   10.3726   41.4547   35.8838 O   0  0  0  0  0  0  0  0  0  0  0  0
    9.9549   45.0700   33.2063 C   0  0  1  0  0  0  0  0  0  0  0  0
   11.0197   46.0482   33.4572 N   0  0  0  0  0  0  0  0  0  0  0  0
    9.7509   44.8510   31.6922 C   0  0  0  0  0  0  0  0  0  0  0  0
    8.7948   45.8416   31.0866 C   0  0  0  0  0  0  0  0  0  0  0  0
    7.4086   45.6008   31.1001 C   0  0  0  0  0  0  0  0  0  0  0  0
    9.2826   46.9885   30.4444 C   0  0  0  0  0  0  0  0  0  0  0  0
    6.5263   46.4998   30.4853 C   0  0  0  0  0  0  0  0  0  0  0  0
    8.4005   47.8872   29.8339 C   0  0  0  0  0  0  0  0  0  0  0  0
    7.0180   47.6568   29.8456 C   0  0  0  0  0  0  0  0  0  0  0  0
    6.1919   48.6094   29.2206 O   0  0  0  0  0  0  0  0  0  0  0  0
    4.7643   48.5796   29.0886 C   0  0  1  0  0  0  0  0  0  0  0  0
    4.3521   47.5053   28.0696 C   0  0  0  0  0  0  0  0  0  0  0  0
    4.0719   48.5298   30.4518 C   0  0  0  0  0  0  0  0  0  0  0  0
    3.0441   47.5827   30.7139 C   0  0  0  0  0  0  0  0  0  0  0  0
    4.4695   49.4255   31.5039 C   0  0  0  0  0  0  0  0  0  0  0  0
    2.4932   47.5306   31.9871 C   0  0  0  0  0  0  0  0  0  0  0  0
    3.8799   49.3125   32.7840 C   0  0  0  0  0  0  0  0  0  0  0  0
    5.4677   50.4393   31.2958 N   0  0  0  0  0  0  0  0  0  0  0  0
    1.5054   46.6882   32.4602 O   0  0  0  0  0  0  0  0  0  0  0  0
    2.8964   48.3548   32.9790 C   0  0  0  0  0  0  0  0  0  0  0  0
    5.4293   51.2370   30.1761 O   0  0  0  0  0  0  0  0  0  0  0  0
    6.2628   50.7298   32.2135 O   0  0  0  0  0  0  0  0  0  0  0  0
    1.2755   47.0065   33.8394 C   0  0  0  0  0  0  0  0  0  0  0  0
    2.1845   48.0767   34.1300 O   0  0  0  0  0  0  0  0  0  0  0  0
    8.8113   40.1834   34.2129 O   0  0  0  0  0  0  0  0  0  0  0  0
   11.2402   40.7931   33.3696 O   0  0  0  0  0  0  0  0  0  0  0  0
   10.9151   40.6903   31.9975 C   0  0  0  0  0  0  0  0  0  0  0  0
   11.5252   39.3885   31.4375 C   0  0  0  0  0  0  0  0  0  0  0  0
   12.7500   39.0873   32.0798 O   0  0  0  0  0  0  0  0  0  0  0  0
   10.6092   38.1925   31.6469 C   0  0  0  0  0  0  0  0  0  0  0  0
   12.9332   37.6792   32.0294 C   0  0  0  0  0  0  0  0  0  0  0  0
    9.6122   38.0894   30.6542 O   0  0  0  0  0  0  0  0  0  0  0  0
   11.5743   37.0144   31.7023 C   0  0  0  0  0  0  0  0  0  0  0  0
   13.4844   37.2107   33.3241 N   0  0  0  0  0  0  0  0  0  0  0  0
   11.6297   36.3238   30.4740 O   0  0  0  0  0  0  0  0  0  0  0  0
   14.4802   36.3313   33.5727 C   0  0  0  0  0  0  0  0  0  0  0  0
   13.1138   37.6267   34.5692 C   0  0  0  0  0  0  0  0  0  0  0  0
   15.2075   35.6149   32.6739 N   0  0  0  0  0  0  0  0  0  0  0  0
   14.6761   36.2303   34.9181 C   0  0  0  0  0  0  0  0  0  0  0  0
   13.8220   37.0447   35.5785 N   0  0  0  0  0  0  0  0  0  0  0  0
   16.1643   34.7600   33.1547 C   0  0  0  0  0  0  0  0  0  0  0  0
   15.6529   35.3505   35.4130 C   0  0  0  0  0  0  0  0  0  0  0  0
   16.3798   34.6315   34.5042 N   0  0  0  0  0  0  0  0  0  0  0  0
   15.9002   35.1932   36.8090 N   0  0  0  0  0  0  0  0  0  0  0  0
    9.0097   45.4349   33.6667 H   0  0  0  0  0  0  0  0  0  0  0  0
   11.9349   45.6934   33.0932 H   0  0  0  0  0  0  0  0  0  0  0  0
   11.1129   46.1994   34.4885 H   0  0  0  0  0  0  0  0  0  0  0  0
    9.3522   43.8344   31.4758 H   0  0  0  0  0  0  0  0  0  0  0  0
   10.7313   44.8930   31.1677 H   0  0  0  0  0  0  0  0  0  0  0  0
    7.0135   44.7158   31.5838 H   0  0  0  0  0  0  0  0  0  0  0  0
   10.3465   47.1894   30.4151 H   0  0  0  0  0  0  0  0  0  0  0  0
    5.4731   46.2777   30.5243 H   0  0  0  0  0  0  0  0  0  0  0  0
    8.7941   48.7707   29.3474 H   0  0  0  0  0  0  0  0  0  0  0  0
    4.4650   49.5423   28.6238 H   0  0  0  0  0  0  0  0  0  0  0  0
    4.5367   46.4811   28.4498 H   0  0  0  0  0  0  0  0  0  0  0  0
    4.9393   47.6369   27.1361 H   0  0  0  0  0  0  0  0  0  0  0  0
    3.2775   47.6129   27.8097 H   0  0  0  0  0  0  0  0  0  0  0  0
    2.6866   46.8873   29.9688 H   0  0  0  0  0  0  0  0  0  0  0  0
    4.1670   49.9671   33.5968 H   0  0  0  0  0  0  0  0  0  0  0  0
    0.2278   47.3430   33.9864 H   0  0  0  0  0  0  0  0  0  0  0  0
    1.5010   46.1277   34.4792 H   0  0  0  0  0  0  0  0  0  0  0  0
   11.3805   41.5528   31.4740 H   0  0  0  0  0  0  0  0  0  0  0  0
    9.8243   40.7216   31.7640 H   0  0  0  0  0  0  0  0  0  0  0  0
   11.7265   39.5311   30.3512 H   0  0  0  0  0  0  0  0  0  0  0  0
   10.1110   38.2746   32.6387 H   0  0  0  0  0  0  0  0  0  0  0  0
   13.6652   37.4519   31.2226 H   0  0  0  0  0  0  0  0  0  0  0  0
   10.0511   38.1143   29.7644 H   0  0  0  0  0  0  0  0  0  0  0  0
   11.2762   36.3141   32.5189 H   0  0  0  0  0  0  0  0  0  0  0  0
   10.8593   35.6977   30.4639 H   0  0  0  0  0  0  0  0  0  0  0  0
   12.3294   38.3518   34.7449 H   0  0  0  0  0  0  0  0  0  0  0  0
   16.7564   34.1780   32.4620 H   0  0  0  0  0  0  0  0  0  0  0  0
   15.3534   35.7359   37.5138 H   0  0  0  0  0  0  0  0  0  0  0  0
   16.6348   34.5300   37.1416 H   0  0  0  0  0  0  0  0  0  0  0  0
  1  2  2  0
  1  3  1  0
  3  4  1  0
  4  5  1  0
  6  1  1  0
  7  6  1  0
  6  8  1  0
  8  9  1  0
  9 10  2  0
 11  9  1  0
 10 12  1  0
 13 11  2  0
 12 14  2  0
 14 13  1  0
 14 15  1  0
 15 16  1  0
 16 17  1  0
 16 18  1  0
 18 19  2  0
 20 18  1  0
 19 21  1  0
 22 20  2  0
 20 23  1  0
 21 24  1  0
 21 25  2  0
 25 22  1  0
 23 26  1  0
 23 27  2  0
 24 28  1  0
 25 29  1  0
 28 29  1  0
  4 30  2  0
  4 31  1  0
 32 31  1  0
 32 33  1  0
 33 34  1  0
 33 35  1  0
 34 36  1  0
 35 37  1  0
 35 38  1  0
 38 36  1  0
 36 39  1  0
 38 40  1  0
 41 39  1  0
 42 39  1  0
 43 41  2  0
 41 44  1  0
 45 42  2  0
 46 43  1  0
 44 47  2  0
 44 45  1  0
 48 46  2  0
 48 47  1  0
 47 49  1  0
  6 50  1  1
  7 51  1  0
  7 52  1  0
  8 53  1  0
  8 54  1  0
 10 55  1  0
 11 56  1  0
 12 57  1  0
 13 58  1  0
 16 59  1  6
 17 60  1  0
 17 61  1  0
 17 62  1  0
 19 63  1  0
 22 64  1  0
 28 65  1  0
 28 66  1  0
 32 67  1  0
 32 68  1  0
 33 69  1  0
 35 70  1  0
 36 71  1  0
 37 72  1  0
 38 73  1  0
 40 74  1  0
 42 75  1  0
 46 76  1  0
 49 77  1  0
 49 78  1  0
M  CHG  3   5  -1  23   1  26  -1
M  END
>  <EmbedRMS>  (207) 
0.0827042361959

$$$$

     RDKit          3D

 78 83  0  0  0  0  0  0  0  0999 V2000
   10.2804   43.7663   33.8245 C   0  0  0  0  0  0  0  0  0  0  0  0
   11.4110   43.5920   34.3665 O   0  0  0  0  0  0  0  0  0  0  0  0
    9.3620   42.7247   33.7341 O   0  0  0  0  0  0  0  0  0  0  0  0
    9.8903   41.2265   34.2935 P   0  0  0  0  0  0  0  0  0  0  0  0
   10.3732   41.4565   35.8830 O   0  0  0  0  0  0  0  0  0  0  0  0
    9.9458   45.0735   33.2107 C   0  0  1  0  0  0  0  0  0  0  0  0
   11.0265   46.0291   33.4703 N   0  0  0  0  0  0  0  0  0  0  0  0
    9.7533   44.8542   31.6943 C   0  0  0  0  0  0  0  0  0  0  0  0
    8.7952   45.8413   31.0844 C   0  0  0  0  0  0  0  0  0  0  0  0
    7.4070   45.6007   31.1026 C   0  0  0  0  0  0  0  0  0  0  0  0
    9.2829   46.9901   30.4402 C   0  0  0  0  0  0  0  0  0  0  0  0
    6.5260   46.5018   30.4883 C   0  0  0  0  0  0  0  0  0  0  0  0
    8.4001   47.8910   29.8326 C   0  0  0  0  0  0  0  0  0  0  0  0
    7.0212   47.6448   29.8438 C   0  0  0  0  0  0  0  0  0  0  0  0
    6.1411   48.5511   29.2473 O   0  0  0  0  0  0  0  0  0  0  0  0
    5.6571   48.4319   27.9056 C   0  0  1  0  0  0  0  0  0  0  0  0
    6.7347   48.8186   26.8873 C   0  0  0  0  0  0  0  0  0  0  0  0
    4.9745   47.0851   27.6675 C   0  0  0  0  0  0  0  0  0  0  0  0
    3.5846   47.0148   27.9386 C   0  0  0  0  0  0  0  0  0  0  0  0
    5.6639   45.8799   27.2919 C   0  0  0  0  0  0  0  0  0  0  0  0
    2.9404   45.7896   27.8271 C   0  0  0  0  0  0  0  0  0  0  0  0
    4.9582   44.6615   27.2016 C   0  0  0  0  0  0  0  0  0  0  0  0
    7.0597   45.8629   26.9908 N   0  0  0  0  0  0  0  0  0  0  0  0
    1.6077   45.4971   28.0449 O   0  0  0  0  0  0  0  0  0  0  0  0
    3.5985   44.6624   27.4757 C   0  0  0  0  0  0  0  0  0  0  0  0
    7.9146   45.2050   27.8429 O   0  0  0  0  0  0  0  0  0  0  0  0
    7.4235   46.0600   25.8135 O   0  0  0  0  0  0  0  0  0  0  0  0
    1.4191   44.0946   27.8122 C   0  0  0  0  0  0  0  0  0  0  0  0
    2.7158   43.5999   27.4511 O   0  0  0  0  0  0  0  0  0  0  0  0
    8.8128   40.1841   34.2125 O   0  0  0  0  0  0  0  0  0  0  0  0
   11.2415   40.7945   33.3692 O   0  0  0  0  0  0  0  0  0  0  0  0
   10.9177   40.6904   31.9968 C   0  0  0  0  0  0  0  0  0  0  0  0
   11.5180   39.3814   31.4408 C   0  0  0  0  0  0  0  0  0  0  0  0
   12.7497   39.0870   32.0746 O   0  0  0  0  0  0  0  0  0  0  0  0
   10.6045   38.1891   31.6655 C   0  0  0  0  0  0  0  0  0  0  0  0
   12.9344   37.6801   32.0290 C   0  0  0  0  0  0  0  0  0  0  0  0
    9.6418   38.0758   30.6441 O   0  0  0  0  0  0  0  0  0  0  0  0
   11.5741   37.0170   31.7045 C   0  0  0  0  0  0  0  0  0  0  0  0
   13.4851   37.2126   33.3241 N   0  0  0  0  0  0  0  0  0  0  0  0
   11.6079   36.3407   30.4680 O   0  0  0  0  0  0  0  0  0  0  0  0
   14.4801   36.3321   33.5727 C   0  0  0  0  0  0  0  0  0  0  0  0
   13.1140   37.6277   34.5693 C   0  0  0  0  0  0  0  0  0  0  0  0
   15.2073   35.6155   32.6739 N   0  0  0  0  0  0  0  0  0  0  0  0
   14.6758   36.2306   34.9182 C   0  0  0  0  0  0  0  0  0  0  0  0
   13.8217   37.0451   35.5785 N   0  0  0  0  0  0  0  0  0  0  0  0
   16.1639   34.7602   33.1546 C   0  0  0  0  0  0  0  0  0  0  0  0
   15.6526   35.3506   35.4130 C   0  0  0  0  0  0  0  0  0  0  0  0
   16.3794   34.6316   34.5041 N   0  0  0  0  0  0  0  0  0  0  0  0
   15.9001   35.1933   36.8089 N   0  0  0  0  0  0  0  0  0  0  0  0
    8.9995   45.4380   33.6719 H   0  0  0  0  0  0  0  0  0  0  0  0
   11.0501   46.2276   34.4977 H   0  0  0  0  0  0  0  0  0  0  0  0
   10.7762   46.9368   33.0154 H   0  0  0  0  0  0  0  0  0  0  0  0
    9.3634   43.8356   31.4705 H   0  0  0  0  0  0  0  0  0  0  0  0
   10.7403   44.9078   31.1826 H   0  0  0  0  0  0  0  0  0  0  0  0
    7.0115   44.7173   31.5884 H   0  0  0  0  0  0  0  0  0  0  0  0
   10.3465   47.1911   30.4086 H   0  0  0  0  0  0  0  0  0  0  0  0
    5.4608   46.3106   30.5120 H   0  0  0  0  0  0  0  0  0  0  0  0
    8.7881   48.7783   29.3492 H   0  0  0  0  0  0  0  0  0  0  0  0
    4.8789   49.2187   27.7910 H   0  0  0  0  0  0  0  0  0  0  0  0
    6.9346   49.9091   26.9580 H   0  0  0  0  0  0  0  0  0  0  0  0
    6.3902   48.5965   25.8550 H   0  0  0  0  0  0  0  0  0  0  0  0
    7.6929   48.3016   27.0884 H   0  0  0  0  0  0  0  0  0  0  0  0
    3.0222   47.8870   28.2477 H   0  0  0  0  0  0  0  0  0  0  0  0
    5.4595   43.7438   26.9211 H   0  0  0  0  0  0  0  0  0  0  0  0
    0.7028   43.9364   26.9789 H   0  0  0  0  0  0  0  0  0  0  0  0
    1.0631   43.5962   28.7382 H   0  0  0  0  0  0  0  0  0  0  0  0
   11.3943   41.5458   31.4719 H   0  0  0  0  0  0  0  0  0  0  0  0
    9.8288   40.7385   31.7614 H   0  0  0  0  0  0  0  0  0  0  0  0
   11.6994   39.5068   30.3483 H   0  0  0  0  0  0  0  0  0  0  0  0
   10.1090   38.2635   32.6632 H   0  0  0  0  0  0  0  0  0  0  0  0
   13.6662   37.4515   31.2224 H   0  0  0  0  0  0  0  0  0  0  0  0
    8.9008   38.6923   30.8794 H   0  0  0  0  0  0  0  0  0  0  0  0
   11.2650   36.3083   32.5087 H   0  0  0  0  0  0  0  0  0  0  0  0
   12.1372   35.5141   30.6163 H   0  0  0  0  0  0  0  0  0  0  0  0
   12.3297   38.3530   34.7450 H   0  0  0  0  0  0  0  0  0  0  0  0
   16.7558   34.1781   32.4618 H   0  0  0  0  0  0  0  0  0  0  0  0
   16.6346   34.5300   37.1414 H   0  0  0  0  0  0  0  0  0  0  0  0
   15.3533   35.7360   37.5138 H   0  0  0  0  0  0  0  0  0  0  0  0
  1  2  2  0
  1  3  1  0
  3  4  1  0
  4  5  1  0
  6  1  1  0
  7  6  1  0
  6  8  1  0
  8  9  1  0
  9 10  2  0
 11  9  1  0
 10 12  1  0
 13 11  2  0
 12 14  2  0
 14 13  1  0
 14 15  1  0
 15 16  1  0
 16 17  1  0
 16 18  1  0
 18 19  2  0
 20 18  1  0
 19 21  1  0
 22 20  2  0
 20 23  1  0
 21 24  1  0
 21 25  2  0
 25 22  1  0
 23 26  1  0
 23 27  2  0
 24 28  1  0
 25 29  1  0
 28 29  1  0
  4 30  2  0
  4 31  1  0
 32 31  1  0
 32 33  1  0
 33 34  1  0
 33 35  1  0
 34 36  1  0
 35 37  1  0
 35 38  1  0
 38 36  1  0
 36 39  1  0
 38 40  1  0
 41 39  1  0
 42 39  1  0
 43 41  2  0
 41 44  1  0
 45 42  2  0
 46 43  1  0
 44 47  2  0
 44 45  1  0
 48 46  2  0
 48 47  1  0
 47 49  1  0
  6 50  1  1
  7 51  1  0
  7 52  1  0
  8 53  1  0
  8 54  1  0
 10 55  1  0
 11 56  1  0
 12 57  1  0
 13 58  1  0
 16 59  1  1
 17 60  1  0
 17 61  1  0
 17 62  1  0
 19 63  1  0
 22 64  1  0
 28 65  1  0
 28 66  1  0
 32 67  1  0
 32 68  1  0
 33 69  1  0
 35 70  1  0
 36 71  1  0
 37 72  1  0
 38 73  1  0
 40 74  1  0
 42 75  1  0
 46 76  1  0
 49 77  1  0
 49 78  1  0
M  CHG  3   5  -1  23   1  26  -1
M  END
>  <EmbedRMS>  (208) 
0.082768015456

$$$$

     RDKit          3D

 78 83  0  0  0  0  0  0  0  0999 V2000
   10.2803   43.7665   33.8251 C   0  0  0  0  0  0  0  0  0  0  0  0
   11.4110   43.5918   34.3666 O   0  0  0  0  0  0  0  0  0  0  0  0
    9.3616   42.7252   33.7348 O   0  0  0  0  0  0  0  0  0  0  0  0
    9.8898   41.2268   34.2939 P   0  0  0  0  0  0  0  0  0  0  0  0
   10.3738   41.4565   35.8831 O   0  0  0  0  0  0  0  0  0  0  0  0
    9.9460   45.0737   33.2113 C   0  0  1  0  0  0  0  0  0  0  0  0
   11.0267   46.0292   33.4709 N   0  0  0  0  0  0  0  0  0  0  0  0
    9.7540   44.8543   31.6950 C   0  0  0  0  0  0  0  0  0  0  0  0
    8.7957   45.8413   31.0850 C   0  0  0  0  0  0  0  0  0  0  0  0
    7.4091   45.6000   31.1009 C   0  0  0  0  0  0  0  0  0  0  0  0
    9.2824   46.9876   30.4394 C   0  0  0  0  0  0  0  0  0  0  0  0
    6.5257   46.4984   30.4857 C   0  0  0  0  0  0  0  0  0  0  0  0
    8.3997   47.8867   29.8304 C   0  0  0  0  0  0  0  0  0  0  0  0
    7.0179   47.6559   29.8474 C   0  0  0  0  0  0  0  0  0  0  0  0
    6.1857   48.5933   29.2136 O   0  0  0  0  0  0  0  0  0  0  0  0
    4.7558   48.5964   29.2261 C   0  0  1  0  0  0  0  0  0  0  0  0
    4.2139   49.0190   30.5969 C   0  0  0  0  0  0  0  0  0  0  0  0
    4.2083   49.5108   28.1428 C   0  0  0  0  0  0  0  0  0  0  0  0
    2.9577   49.1654   27.5736 C   0  0  0  0  0  0  0  0  0  0  0  0
    4.9004   50.6737   27.6541 C   0  0  0  0  0  0  0  0  0  0  0  0
    2.4558   49.9457   26.5409 C   0  0  0  0  0  0  0  0  0  0  0  0
    4.3449   51.4194   26.5886 C   0  0  0  0  0  0  0  0  0  0  0  0
    6.1468   51.1136   28.2156 N   0  0  0  0  0  0  0  0  0  0  0  0
    1.2736   49.7897   25.8430 O   0  0  0  0  0  0  0  0  0  0  0  0
    3.1220   51.0222   26.0664 C   0  0  0  0  0  0  0  0  0  0  0  0
    6.2656   51.3086   29.5714 O   0  0  0  0  0  0  0  0  0  0  0  0
    7.0514   51.5359   27.4661 O   0  0  0  0  0  0  0  0  0  0  0  0
    1.1943   50.8379   24.8675 C   0  0  0  0  0  0  0  0  0  0  0  0
    2.3949   51.6021   25.0446 O   0  0  0  0  0  0  0  0  0  0  0  0
    8.8122   40.1845   34.2134 O   0  0  0  0  0  0  0  0  0  0  0  0
   11.2400   40.7954   33.3680 O   0  0  0  0  0  0  0  0  0  0  0  0
   10.9124   40.6877   31.9967 C   0  0  0  0  0  0  0  0  0  0  0  0
   11.5169   39.3811   31.4420 C   0  0  0  0  0  0  0  0  0  0  0  0
   12.7500   39.0881   32.0760 O   0  0  0  0  0  0  0  0  0  0  0  0
   10.6043   38.1893   31.6659 C   0  0  0  0  0  0  0  0  0  0  0  0
   12.9395   37.6814   32.0280 C   0  0  0  0  0  0  0  0  0  0  0  0
    9.6353   38.0951   30.6499 O   0  0  0  0  0  0  0  0  0  0  0  0
   11.5804   37.0191   31.6934 C   0  0  0  0  0  0  0  0  0  0  0  0
   13.4851   37.2119   33.3244 N   0  0  0  0  0  0  0  0  0  0  0  0
   11.6118   36.3189   30.4673 O   0  0  0  0  0  0  0  0  0  0  0  0
   14.4801   36.3316   33.5732 C   0  0  0  0  0  0  0  0  0  0  0  0
   13.1139   37.6277   34.5692 C   0  0  0  0  0  0  0  0  0  0  0  0
   15.2076   35.6154   32.6744 N   0  0  0  0  0  0  0  0  0  0  0  0
   14.6756   36.2303   34.9186 C   0  0  0  0  0  0  0  0  0  0  0  0
   13.8215   37.0450   35.5786 N   0  0  0  0  0  0  0  0  0  0  0  0
   16.1642   34.7602   33.1551 C   0  0  0  0  0  0  0  0  0  0  0  0
   15.6526   35.3505   35.4134 C   0  0  0  0  0  0  0  0  0  0  0  0
   16.3796   34.6316   34.5045 N   0  0  0  0  0  0  0  0  0  0  0  0
   15.9001   35.1933   36.8093 N   0  0  0  0  0  0  0  0  0  0  0  0
    8.9996   45.4383   33.6722 H   0  0  0  0  0  0  0  0  0  0  0  0
   11.0503   46.2278   34.4983 H   0  0  0  0  0  0  0  0  0  0  0  0
   10.7766   46.9369   33.0159 H   0  0  0  0  0  0  0  0  0  0  0  0
    9.3646   43.8355   31.4712 H   0  0  0  0  0  0  0  0  0  0  0  0
   10.7412   44.9080   31.1837 H   0  0  0  0  0  0  0  0  0  0  0  0
    7.0153   44.7144   31.5844 H   0  0  0  0  0  0  0  0  0  0  0  0
   10.3463   47.1873   30.4047 H   0  0  0  0  0  0  0  0  0  0  0  0
    5.4690   46.2762   30.5142 H   0  0  0  0  0  0  0  0  0  0  0  0
    8.7919   48.7683   29.3392 H   0  0  0  0  0  0  0  0  0  0  0  0
    4.4032   47.5648   29.0069 H   0  0  0  0  0  0  0  0  0  0  0  0
    4.4758   50.0716   30.8246 H   0  0  0  0  0  0  0  0  0  0  0  0
    3.1075   48.9204   30.6127 H   0  0  0  0  0  0  0  0  0  0  0  0
    4.6279   48.3747   31.3988 H   0  0  0  0  0  0  0  0  0  0  0  0
    2.3978   48.3051   27.9187 H   0  0  0  0  0  0  0  0  0  0  0  0
    4.8436   52.2960   26.1953 H   0  0  0  0  0  0  0  0  0  0  0  0
    1.1609   50.4086   23.8442 H   0  0  0  0  0  0  0  0  0  0  0  0
    0.3041   51.4733   25.0578 H   0  0  0  0  0  0  0  0  0  0  0  0
   11.3807   41.5456   31.4683 H   0  0  0  0  0  0  0  0  0  0  0  0
    9.8215   40.7221   31.7644 H   0  0  0  0  0  0  0  0  0  0  0  0
   11.6986   39.5088   30.3499 H   0  0  0  0  0  0  0  0  0  0  0  0
   10.1109   38.2737   32.6630 H   0  0  0  0  0  0  0  0  0  0  0  0
   13.6783   37.4562   31.2271 H   0  0  0  0  0  0  0  0  0  0  0  0
    9.0020   37.3860   30.9348 H   0  0  0  0  0  0  0  0  0  0  0  0
   11.2808   36.3052   32.4921 H   0  0  0  0  0  0  0  0  0  0  0  0
   11.8819   36.9600   29.7584 H   0  0  0  0  0  0  0  0  0  0  0  0
   12.3303   38.3537   34.7446 H   0  0  0  0  0  0  0  0  0  0  0  0
   16.7564   34.1783   32.4623 H   0  0  0  0  0  0  0  0  0  0  0  0
   15.3532   35.7359   37.5142 H   0  0  0  0  0  0  0  0  0  0  0  0
   16.6348   34.5301   37.1418 H   0  0  0  0  0  0  0  0  0  0  0  0
  1  2  2  0
  1  3  1  0
  3  4  1  0
  4  5  1  0
  6  1  1  0
  7  6  1  0
  6  8  1  0
  8  9  1  0
  9 10  2  0
 11  9  1  0
 10 12  1  0
 13 11  2  0
 12 14  2  0
 14 13  1  0
 14 15  1  0
 15 16  1  0
 16 17  1  0
 16 18  1  0
 18 19  2  0
 20 18  1  0
 19 21  1  0
 22 20  2  0
 20 23  1  0
 21 24  1  0
 21 25  2  0
 25 22  1  0
 23 26  1  0
 23 27  2  0
 24 28  1  0
 25 29  1  0
 28 29  1  0
  4 30  2  0
  4 31  1  0
 32 31  1  0
 32 33  1  0
 33 34  1  0
 33 35  1  0
 34 36  1  0
 35 37  1  0
 35 38  1  0
 38 36  1  0
 36 39  1  0
 38 40  1  0
 41 39  1  0
 42 39  1  0
 43 41  2  0
 41 44  1  0
 45 42  2  0
 46 43  1  0
 44 47  2  0
 44 45  1  0
 48 46  2  0
 48 47  1  0
 47 49  1  0
  6 50  1  1
  7 51  1  0
  7 52  1  0
  8 53  1  0
  8 54  1  0
 10 55  1  0
 11 56  1  0
 12 57  1  0
 13 58  1  0
 16 59  1  6
 17 60  1  0
 17 61  1  0
 17 62  1  0
 19 63  1  0
 22 64  1  0
 28 65  1  0
 28 66  1  0
 32 67  1  0
 32 68  1  0
 33 69  1  0
 35 70  1  0
 36 71  1  0
 37 72  1  0
 38 73  1  0
 40 74  1  0
 42 75  1  0
 46 76  1  0
 49 77  1  0
 49 78  1  0
M  CHG  3   5  -1  23   1  26  -1
M  END
>  <EmbedRMS>  (209) 
0.0813669173

$$$$

     RDKit          3D

 78 83  0  0  0  0  0  0  0  0999 V2000
   10.2835   43.7662   33.8253 C   0  0  0  0  0  0  0  0  0  0  0  0
   11.4101   43.5931   34.3752 O   0  0  0  0  0  0  0  0  0  0  0  0
    9.3637   42.7255   33.7346 O   0  0  0  0  0  0  0  0  0  0  0  0
    9.8906   41.2266   34.2933 P   0  0  0  0  0  0  0  0  0  0  0  0
   10.3742   41.4558   35.8827 O   0  0  0  0  0  0  0  0  0  0  0  0
    9.9547   45.0696   33.2032 C   0  0  1  0  0  0  0  0  0  0  0  0
   11.0275   46.0322   33.4754 N   0  0  0  0  0  0  0  0  0  0  0  0
    9.7465   44.8485   31.6871 C   0  0  0  0  0  0  0  0  0  0  0  0
    8.7920   45.8411   31.0839 C   0  0  0  0  0  0  0  0  0  0  0  0
    7.4041   45.6016   31.1005 C   0  0  0  0  0  0  0  0  0  0  0  0
    9.2820   46.9905   30.4433 C   0  0  0  0  0  0  0  0  0  0  0  0
    6.5247   46.5038   30.4869 C   0  0  0  0  0  0  0  0  0  0  0  0
    8.4007   47.8920   29.8343 C   0  0  0  0  0  0  0  0  0  0  0  0
    7.0214   47.6456   29.8423 C   0  0  0  0  0  0  0  0  0  0  0  0
    6.1413   48.5387   29.2243 O   0  0  0  0  0  0  0  0  0  0  0  0
    5.7329   48.4274   27.8567 C   0  0  1  0  0  0  0  0  0  0  0  0
    6.8829   48.7822   26.9032 C   0  0  0  0  0  0  0  0  0  0  0  0
    5.1037   47.0665   27.5734 C   0  0  0  0  0  0  0  0  0  0  0  0
    5.9319   45.9555   27.2653 C   0  0  0  0  0  0  0  0  0  0  0  0
    3.6811   46.8804   27.6183 C   0  0  0  0  0  0  0  0  0  0  0  0
    5.3317   44.7406   26.9642 C   0  0  0  0  0  0  0  0  0  0  0  0
    3.1269   45.6239   27.2811 C   0  0  0  0  0  0  0  0  0  0  0  0
    2.7986   47.9320   28.0418 N   0  0  0  0  0  0  0  0  0  0  0  0
    5.9366   43.5438   26.6316 O   0  0  0  0  0  0  0  0  0  0  0  0
    3.9888   44.5837   26.9636 C   0  0  0  0  0  0  0  0  0  0  0  0
    3.0814   48.6531   29.1789 O   0  0  0  0  0  0  0  0  0  0  0  0
    1.6701   48.0480   27.5208 O   0  0  0  0  0  0  0  0  0  0  0  0
    4.9042   42.5741   26.4064 C   0  0  0  0  0  0  0  0  0  0  0  0
    3.6759   43.2801   26.6293 O   0  0  0  0  0  0  0  0  0  0  0  0
    8.8122   40.1852   34.2126 O   0  0  0  0  0  0  0  0  0  0  0  0
   11.2405   40.7944   33.3671 O   0  0  0  0  0  0  0  0  0  0  0  0
   10.9134   40.6867   31.9954 C   0  0  0  0  0  0  0  0  0  0  0  0
   11.5167   39.3787   31.4404 C   0  0  0  0  0  0  0  0  0  0  0  0
   12.7486   39.0849   32.0734 O   0  0  0  0  0  0  0  0  0  0  0  0
   10.6038   38.1884   31.6669 C   0  0  0  0  0  0  0  0  0  0  0  0
   12.9329   37.6776   32.0283 C   0  0  0  0  0  0  0  0  0  0  0  0
    9.6373   38.0938   30.6485 O   0  0  0  0  0  0  0  0  0  0  0  0
   11.5736   37.0141   31.7055 C   0  0  0  0  0  0  0  0  0  0  0  0
   13.4853   37.2121   33.3238 N   0  0  0  0  0  0  0  0  0  0  0  0
   11.6209   36.3380   30.4683 O   0  0  0  0  0  0  0  0  0  0  0  0
   14.4804   36.3320   33.5726 C   0  0  0  0  0  0  0  0  0  0  0  0
   13.1141   37.6275   34.5689 C   0  0  0  0  0  0  0  0  0  0  0  0
   15.2075   35.6152   32.6739 N   0  0  0  0  0  0  0  0  0  0  0  0
   14.6761   36.2306   34.9181 C   0  0  0  0  0  0  0  0  0  0  0  0
   13.8218   37.0451   35.5782 N   0  0  0  0  0  0  0  0  0  0  0  0
   16.1641   34.7600   33.1547 C   0  0  0  0  0  0  0  0  0  0  0  0
   15.6527   35.3506   35.4130 C   0  0  0  0  0  0  0  0  0  0  0  0
   16.3795   34.6315   34.5042 N   0  0  0  0  0  0  0  0  0  0  0  0
   15.9001   35.1933   36.8090 N   0  0  0  0  0  0  0  0  0  0  0  0
    9.0122   45.4319   33.6711 H   0  0  0  0  0  0  0  0  0  0  0  0
   11.8905   45.7659   32.9464 H   0  0  0  0  0  0  0  0  0  0  0  0
   10.7261   46.9689   33.1215 H   0  0  0  0  0  0  0  0  0  0  0  0
    9.3414   43.8334   31.4756 H   0  0  0  0  0  0  0  0  0  0  0  0
   10.7228   44.8823   31.1549 H   0  0  0  0  0  0  0  0  0  0  0  0
    7.0071   44.7172   31.5835 H   0  0  0  0  0  0  0  0  0  0  0  0
   10.3461   47.1901   30.4145 H   0  0  0  0  0  0  0  0  0  0  0  0
    5.4594   46.3110   30.5034 H   0  0  0  0  0  0  0  0  0  0  0  0
    8.7904   48.7779   29.3495 H   0  0  0  0  0  0  0  0  0  0  0  0
    4.9734   49.2159   27.6770 H   0  0  0  0  0  0  0  0  0  0  0  0
    7.7704   48.1396   27.0688 H   0  0  0  0  0  0  0  0  0  0  0  0
    6.5508   48.6762   25.8484 H   0  0  0  0  0  0  0  0  0  0  0  0
    7.1911   49.8364   27.0697 H   0  0  0  0  0  0  0  0  0  0  0  0
    7.0104   46.0248   27.2612 H   0  0  0  0  0  0  0  0  0  0  0  0
    2.0578   45.4549   27.3017 H   0  0  0  0  0  0  0  0  0  0  0  0
    5.0007   41.7358   27.1280 H   0  0  0  0  0  0  0  0  0  0  0  0
    4.9481   42.2020   25.3612 H   0  0  0  0  0  0  0  0  0  0  0  0
   11.3827   41.5439   31.4669 H   0  0  0  0  0  0  0  0  0  0  0  0
    9.8225   40.7224   31.7631 H   0  0  0  0  0  0  0  0  0  0  0  0
   11.6979   39.5039   30.3479 H   0  0  0  0  0  0  0  0  0  0  0  0
   10.1083   38.2787   32.6627 H   0  0  0  0  0  0  0  0  0  0  0  0
   13.6636   37.4473   31.2213 H   0  0  0  0  0  0  0  0  0  0  0  0
    8.9760   37.4192   30.9533 H   0  0  0  0  0  0  0  0  0  0  0  0
   11.2820   36.3054   32.5172 H   0  0  0  0  0  0  0  0  0  0  0  0
   10.8656   35.6936   30.4652 H   0  0  0  0  0  0  0  0  0  0  0  0
   12.3293   38.3523   34.7444 H   0  0  0  0  0  0  0  0  0  0  0  0
   16.7561   34.1777   32.4621 H   0  0  0  0  0  0  0  0  0  0  0  0
   16.6345   34.5299   37.1417 H   0  0  0  0  0  0  0  0  0  0  0  0
   15.3533   35.7360   37.5139 H   0  0  0  0  0  0  0  0  0  0  0  0
  1  2  2  0
  1  3  1  0
  3  4  1  0
  4  5  1  0
  6  1  1  0
  7  6  1  0
  6  8  1  0
  8  9  1  0
  9 10  2  0
 11  9  1  0
 10 12  1  0
 13 11  2  0
 12 14  2  0
 14 13  1  0
 14 15  1  0
 15 16  1  0
 16 17  1  0
 16 18  1  0
 18 19  2  0
 20 18  1  0
 19 21  1  0
 22 20  2  0
 20 23  1  0
 21 24  1  0
 21 25  2  0
 25 22  1  0
 23 26  1  0
 23 27  2  0
 24 28  1  0
 25 29  1  0
 28 29  1  0
  4 30  2  0
  4 31  1  0
 32 31  1  0
 32 33  1  0
 33 34  1  0
 33 35  1  0
 34 36  1  0
 35 37  1  0
 35 38  1  0
 38 36  1  0
 36 39  1  0
 38 40  1  0
 41 39  1  0
 42 39  1  0
 43 41  2  0
 41 44  1  0
 45 42  2  0
 46 43  1  0
 44 47  2  0
 44 45  1  0
 48 46  2  0
 48 47  1  0
 47 49  1  0
  6 50  1  1
  7 51  1  0
  7 52  1  0
  8 53  1  0
  8 54  1  0
 10 55  1  0
 11 56  1  0
 12 57  1  0
 13 58  1  0
 16 59  1  1
 17 60  1  0
 17 61  1  0
 17 62  1  0
 19 63  1  0
 22 64  1  0
 28 65  1  0
 28 66  1  0
 32 67  1  0
 32 68  1  0
 33 69  1  0
 35 70  1  0
 36 71  1  0
 37 72  1  0
 38 73  1  0
 40 74  1  0
 42 75  1  0
 46 76  1  0
 49 77  1  0
 49 78  1  0
M  CHG  3   5  -1  23   1  26  -1
M  END
>  <EmbedRMS>  (210) 
0.082680563991

$$$$

     RDKit          3D

 78 83  0  0  0  0  0  0  0  0999 V2000
   10.2801   43.7669   33.8250 C   0  0  0  0  0  0  0  0  0  0  0  0
   11.4109   43.5925   34.3665 O   0  0  0  0  0  0  0  0  0  0  0  0
    9.3618   42.7251   33.7347 O   0  0  0  0  0  0  0  0  0  0  0  0
    9.8900   41.2269   34.2944 P   0  0  0  0  0  0  0  0  0  0  0  0
   10.3729   41.4569   35.8838 O   0  0  0  0  0  0  0  0  0  0  0  0
    9.9451   45.0741   33.2111 C   0  0  1  0  0  0  0  0  0  0  0  0
   11.0252   46.0303   33.4706 N   0  0  0  0  0  0  0  0  0  0  0  0
    9.7534   44.8542   31.6948 C   0  0  0  0  0  0  0  0  0  0  0  0
    8.7954   45.8409   31.0841 C   0  0  0  0  0  0  0  0  0  0  0  0
    7.4074   45.5986   31.0986 C   0  0  0  0  0  0  0  0  0  0  0  0
    9.2839   46.9875   30.4370 C   0  0  0  0  0  0  0  0  0  0  0  0
    6.5262   46.4991   30.4829 C   0  0  0  0  0  0  0  0  0  0  0  0
    8.4015   47.8872   29.8281 C   0  0  0  0  0  0  0  0  0  0  0  0
    7.0198   47.6530   29.8591 C   0  0  0  0  0  0  0  0  0  0  0  0
    6.1427   48.5493   29.2438 O   0  0  0  0  0  0  0  0  0  0  0  0
    5.6006   49.7068   29.8882 C   0  0  1  0  0  0  0  0  0  0  0  0
    4.4949   49.3279   30.8788 C   0  0  0  0  0  0  0  0  0  0  0  0
    6.6993   50.6152   30.4404 C   0  0  0  0  0  0  0  0  0  0  0  0
    7.1929   51.6227   29.5735 C   0  0  0  0  0  0  0  0  0  0  0  0
    7.3264   50.4443   31.7239 C   0  0  0  0  0  0  0  0  0  0  0  0
    8.2581   52.4077   29.9948 C   0  0  0  0  0  0  0  0  0  0  0  0
    8.4113   51.2667   32.0948 C   0  0  0  0  0  0  0  0  0  0  0  0
    6.8838   49.4651   32.6649 N   0  0  0  0  0  0  0  0  0  0  0  0
    8.8908   53.4321   29.3171 O   0  0  0  0  0  0  0  0  0  0  0  0
    8.8428   52.2360   31.2014 C   0  0  0  0  0  0  0  0  0  0  0  0
    7.7222   48.4219   32.9794 O   0  0  0  0  0  0  0  0  0  0  0  0
    5.9853   49.7731   33.4742 O   0  0  0  0  0  0  0  0  0  0  0  0
    9.9391   53.9362   30.1560 C   0  0  0  0  0  0  0  0  0  0  0  0
    9.8734   53.1440   31.3497 O   0  0  0  0  0  0  0  0  0  0  0  0
    8.8128   40.1843   34.2128 O   0  0  0  0  0  0  0  0  0  0  0  0
   11.2415   40.7952   33.3705 O   0  0  0  0  0  0  0  0  0  0  0  0
   10.9178   40.6922   31.9982 C   0  0  0  0  0  0  0  0  0  0  0  0
   11.5175   39.3837   31.4423 C   0  0  0  0  0  0  0  0  0  0  0  0
   12.7507   39.0887   32.0753 O   0  0  0  0  0  0  0  0  0  0  0  0
   10.6027   38.1916   31.6659 C   0  0  0  0  0  0  0  0  0  0  0  0
   12.9384   37.6819   32.0278 C   0  0  0  0  0  0  0  0  0  0  0  0
    9.6371   38.0806   30.6471 O   0  0  0  0  0  0  0  0  0  0  0  0
   11.5780   37.0215   31.6935 C   0  0  0  0  0  0  0  0  0  0  0  0
   13.4844   37.2119   33.3242 N   0  0  0  0  0  0  0  0  0  0  0  0
   11.6095   36.3201   30.4679 O   0  0  0  0  0  0  0  0  0  0  0  0
   14.4797   36.3318   33.5730 C   0  0  0  0  0  0  0  0  0  0  0  0
   13.1135   37.6278   34.5691 C   0  0  0  0  0  0  0  0  0  0  0  0
   15.2073   35.6155   32.6742 N   0  0  0  0  0  0  0  0  0  0  0  0
   14.6754   36.2305   34.9184 C   0  0  0  0  0  0  0  0  0  0  0  0
   13.8213   37.0452   35.5785 N   0  0  0  0  0  0  0  0  0  0  0  0
   16.1640   34.7604   33.1549 C   0  0  0  0  0  0  0  0  0  0  0  0
   15.6524   35.3507   35.4132 C   0  0  0  0  0  0  0  0  0  0  0  0
   16.3794   34.6318   34.5044 N   0  0  0  0  0  0  0  0  0  0  0  0
   15.8999   35.1934   36.8091 N   0  0  0  0  0  0  0  0  0  0  0  0
    8.9983   45.4384   33.6716 H   0  0  0  0  0  0  0  0  0  0  0  0
   10.7736   46.9380   33.0162 H   0  0  0  0  0  0  0  0  0  0  0  0
   11.0488   46.2286   34.4980 H   0  0  0  0  0  0  0  0  0  0  0  0
   10.7407   44.9076   31.1838 H   0  0  0  0  0  0  0  0  0  0  0  0
    9.3638   43.8354   31.4713 H   0  0  0  0  0  0  0  0  0  0  0  0
    7.0123   44.7126   31.5800 H   0  0  0  0  0  0  0  0  0  0  0  0
   10.3478   47.1862   30.4013 H   0  0  0  0  0  0  0  0  0  0  0  0
    5.4622   46.3009   30.4936 H   0  0  0  0  0  0  0  0  0  0  0  0
    8.7908   48.7679   29.3333 H   0  0  0  0  0  0  0  0  0  0  0  0
    5.0707   50.2774   29.0935 H   0  0  0  0  0  0  0  0  0  0  0  0
    4.1787   50.2164   31.4655 H   0  0  0  0  0  0  0  0  0  0  0  0
    4.8157   48.5163   31.5600 H   0  0  0  0  0  0  0  0  0  0  0  0
    3.6121   48.9507   30.3197 H   0  0  0  0  0  0  0  0  0  0  0  0
    6.7729   51.7788   28.5877 H   0  0  0  0  0  0  0  0  0  0  0  0
    8.8969   51.1530   33.0556 H   0  0  0  0  0  0  0  0  0  0  0  0
   10.9242   53.8031   29.6616 H   0  0  0  0  0  0  0  0  0  0  0  0
    9.7592   55.0053   30.3952 H   0  0  0  0  0  0  0  0  0  0  0  0
    9.8290   40.7409   31.7625 H   0  0  0  0  0  0  0  0  0  0  0  0
   11.3950   41.5477   31.4741 H   0  0  0  0  0  0  0  0  0  0  0  0
   11.6982   39.5114   30.3500 H   0  0  0  0  0  0  0  0  0  0  0  0
   10.1117   38.2604   32.6661 H   0  0  0  0  0  0  0  0  0  0  0  0
   13.6767   37.4557   31.2267 H   0  0  0  0  0  0  0  0  0  0  0  0
    8.8960   38.6950   30.8873 H   0  0  0  0  0  0  0  0  0  0  0  0
   11.2791   36.3072   32.4923 H   0  0  0  0  0  0  0  0  0  0  0  0
   11.8828   36.9598   29.7589 H   0  0  0  0  0  0  0  0  0  0  0  0
   12.3300   38.3539   34.7446 H   0  0  0  0  0  0  0  0  0  0  0  0
   16.7562   34.1785   32.4622 H   0  0  0  0  0  0  0  0  0  0  0  0
   16.6346   34.5303   37.1417 H   0  0  0  0  0  0  0  0  0  0  0  0
   15.3531   35.7361   37.5140 H   0  0  0  0  0  0  0  0  0  0  0  0
  1  2  2  0
  1  3  1  0
  3  4  1  0
  4  5  1  0
  6  1  1  0
  7  6  1  0
  6  8  1  0
  8  9  1  0
  9 10  2  0
 11  9  1  0
 10 12  1  0
 13 11  2  0
 12 14  2  0
 14 13  1  0
 14 15  1  0
 15 16  1  0
 16 17  1  0
 16 18  1  0
 18 19  2  0
 20 18  1  0
 19 21  1  0
 22 20  2  0
 20 23  1  0
 21 24  1  0
 21 25  2  0
 25 22  1  0
 23 26  1  0
 23 27  2  0
 24 28  1  0
 25 29  1  0
 28 29  1  0
  4 30  2  0
  4 31  1  0
 32 31  1  0
 32 33  1  0
 33 34  1  0
 33 35  1  0
 34 36  1  0
 35 37  1  0
 35 38  1  0
 38 36  1  0
 36 39  1  0
 38 40  1  0
 41 39  1  0
 42 39  1  0
 43 41  2  0
 41 44  1  0
 45 42  2  0
 46 43  1  0
 44 47  2  0
 44 45  1  0
 48 46  2  0
 48 47  1  0
 47 49  1  0
  6 50  1  1
  7 51  1  0
  7 52  1  0
  8 53  1  0
  8 54  1  0
 10 55  1  0
 11 56  1  0
 12 57  1  0
 13 58  1  0
 16 59  1  6
 17 60  1  0
 17 61  1  0
 17 62  1  0
 19 63  1  0
 22 64  1  0
 28 65  1  0
 28 66  1  0
 32 67  1  0
 32 68  1  0
 33 69  1  0
 35 70  1  0
 36 71  1  0
 37 72  1  0
 38 73  1  0
 40 74  1  0
 42 75  1  0
 46 76  1  0
 49 77  1  0
 49 78  1  0
M  CHG  3   5  -1  23   1  26  -1
M  END
>  <EmbedRMS>  (211) 
0.081957985761

$$$$

     RDKit          3D

 78 83  0  0  0  0  0  0  0  0999 V2000
   10.2837   43.7627   33.8276 C   0  0  0  0  0  0  0  0  0  0  0  0
   11.4102   43.5864   34.3766 O   0  0  0  0  0  0  0  0  0  0  0  0
    9.3630   42.7236   33.7353 O   0  0  0  0  0  0  0  0  0  0  0  0
    9.8897   41.2248   34.2935 P   0  0  0  0  0  0  0  0  0  0  0  0
   10.3734   41.4543   35.8829 O   0  0  0  0  0  0  0  0  0  0  0  0
    9.9547   45.0700   33.2061 C   0  0  1  0  0  0  0  0  0  0  0  0
   11.0196   46.0482   33.4570 N   0  0  0  0  0  0  0  0  0  0  0  0
    9.7509   44.8507   31.6919 C   0  0  0  0  0  0  0  0  0  0  0  0
    8.7948   45.8409   31.0855 C   0  0  0  0  0  0  0  0  0  0  0  0
    7.4082   45.6011   31.1011 C   0  0  0  0  0  0  0  0  0  0  0  0
    9.2826   46.9890   30.4450 C   0  0  0  0  0  0  0  0  0  0  0  0
    6.5263   46.5008   30.4870 C   0  0  0  0  0  0  0  0  0  0  0  0
    8.4004   47.8888   29.8357 C   0  0  0  0  0  0  0  0  0  0  0  0
    7.0187   47.6545   29.8423 C   0  0  0  0  0  0  0  0  0  0  0  0
    6.1870   48.6023   29.2136 O   0  0  0  0  0  0  0  0  0  0  0  0
    4.8061   48.4500   28.8441 C   0  0  1  0  0  0  0  0  0  0  0  0
    4.6105   47.1741   27.9994 C   0  0  0  0  0  0  0  0  0  0  0  0
    3.8462   48.5480   30.0333 C   0  0  0  0  0  0  0  0  0  0  0  0
    4.3514   48.7685   31.3430 C   0  0  0  0  0  0  0  0  0  0  0  0
    2.4226   48.4363   29.8583 C   0  0  0  0  0  0  0  0  0  0  0  0
    3.4645   48.7717   32.4111 C   0  0  0  0  0  0  0  0  0  0  0  0
    1.5719   48.4281   30.9861 C   0  0  0  0  0  0  0  0  0  0  0  0
    1.8221   48.3698   28.5568 N   0  0  0  0  0  0  0  0  0  0  0  0
    3.7403   48.9400   33.7545 O   0  0  0  0  0  0  0  0  0  0  0  0
    2.1354   48.5980   32.2415 C   0  0  0  0  0  0  0  0  0  0  0  0
    0.7270   47.5629   28.3510 O   0  0  0  0  0  0  0  0  0  0  0  0
    2.1196   49.2145   27.6875 O   0  0  0  0  0  0  0  0  0  0  0  0
    2.5019   48.8631   34.4733 C   0  0  0  0  0  0  0  0  0  0  0  0
    1.5022   48.6452   33.4686 O   0  0  0  0  0  0  0  0  0  0  0  0
    8.8115   40.1834   34.2126 O   0  0  0  0  0  0  0  0  0  0  0  0
   11.2401   40.7936   33.3673 O   0  0  0  0  0  0  0  0  0  0  0  0
   10.9134   40.6864   31.9955 C   0  0  0  0  0  0  0  0  0  0  0  0
   11.5166   39.3786   31.4404 C   0  0  0  0  0  0  0  0  0  0  0  0
   12.7486   39.0849   32.0734 O   0  0  0  0  0  0  0  0  0  0  0  0
   10.6039   38.1883   31.6669 C   0  0  0  0  0  0  0  0  0  0  0  0
   12.9329   37.6775   32.0284 C   0  0  0  0  0  0  0  0  0  0  0  0
    9.6373   38.0938   30.6484 O   0  0  0  0  0  0  0  0  0  0  0  0
   11.5737   37.0140   31.7055 C   0  0  0  0  0  0  0  0  0  0  0  0
   13.4853   37.2120   33.3238 N   0  0  0  0  0  0  0  0  0  0  0  0
   11.6210   36.3379   30.4683 O   0  0  0  0  0  0  0  0  0  0  0  0
   14.4804   36.3319   33.5726 C   0  0  0  0  0  0  0  0  0  0  0  0
   13.1141   37.6275   34.5689 C   0  0  0  0  0  0  0  0  0  0  0  0
   15.2076   35.6152   32.6740 N   0  0  0  0  0  0  0  0  0  0  0  0
   14.6761   36.2306   34.9181 C   0  0  0  0  0  0  0  0  0  0  0  0
   13.8218   37.0451   35.5783 N   0  0  0  0  0  0  0  0  0  0  0  0
   16.1642   34.7600   33.1548 C   0  0  0  0  0  0  0  0  0  0  0  0
   15.6528   35.3507   35.4131 C   0  0  0  0  0  0  0  0  0  0  0  0
   16.3796   34.6315   34.5043 N   0  0  0  0  0  0  0  0  0  0  0  0
   15.9001   35.1933   36.8090 N   0  0  0  0  0  0  0  0  0  0  0  0
    9.0095   45.4349   33.6663 H   0  0  0  0  0  0  0  0  0  0  0  0
   11.1127   46.1994   34.4883 H   0  0  0  0  0  0  0  0  0  0  0  0
   11.9348   45.6934   33.0929 H   0  0  0  0  0  0  0  0  0  0  0  0
    9.3523   43.8340   31.4757 H   0  0  0  0  0  0  0  0  0  0  0  0
   10.7314   44.8927   31.1675 H   0  0  0  0  0  0  0  0  0  0  0  0
    7.0124   44.7204   31.5920 H   0  0  0  0  0  0  0  0  0  0  0  0
   10.3464   47.1901   30.4165 H   0  0  0  0  0  0  0  0  0  0  0  0
    5.4685   46.3010   30.5517 H   0  0  0  0  0  0  0  0  0  0  0  0
    8.7938   48.7722   29.3489 H   0  0  0  0  0  0  0  0  0  0  0  0
    4.5824   49.3134   28.1836 H   0  0  0  0  0  0  0  0  0  0  0  0
    3.8214   47.3222   27.2352 H   0  0  0  0  0  0  0  0  0  0  0  0
    5.5453   46.9271   27.4527 H   0  0  0  0  0  0  0  0  0  0  0  0
    4.3200   46.3051   28.6238 H   0  0  0  0  0  0  0  0  0  0  0  0
    5.4004   48.9301   31.5422 H   0  0  0  0  0  0  0  0  0  0  0  0
    0.4988   48.3317   30.8819 H   0  0  0  0  0  0  0  0  0  0  0  0
    2.3076   49.8171   35.0068 H   0  0  0  0  0  0  0  0  0  0  0  0
    2.5227   48.0108   35.1844 H   0  0  0  0  0  0  0  0  0  0  0  0
    9.8226   40.7225   31.7629 H   0  0  0  0  0  0  0  0  0  0  0  0
   11.3830   41.5437   31.4675 H   0  0  0  0  0  0  0  0  0  0  0  0
   11.6978   39.5037   30.3478 H   0  0  0  0  0  0  0  0  0  0  0  0
   10.1084   38.2785   32.6626 H   0  0  0  0  0  0  0  0  0  0  0  0
   13.6638   37.4472   31.2214 H   0  0  0  0  0  0  0  0  0  0  0  0
    8.9763   37.4190   30.9532 H   0  0  0  0  0  0  0  0  0  0  0  0
   11.2821   36.3053   32.5171 H   0  0  0  0  0  0  0  0  0  0  0  0
   10.8658   35.6935   30.4652 H   0  0  0  0  0  0  0  0  0  0  0  0
   12.3293   38.3523   34.7444 H   0  0  0  0  0  0  0  0  0  0  0  0
   16.7561   34.1778   32.4621 H   0  0  0  0  0  0  0  0  0  0  0  0
   15.3533   35.7361   37.5138 H   0  0  0  0  0  0  0  0  0  0  0  0
   16.6345   34.5300   37.1416 H   0  0  0  0  0  0  0  0  0  0  0  0
  1  2  2  0
  1  3  1  0
  3  4  1  0
  4  5  1  0
  6  1  1  0
  7  6  1  0
  6  8  1  0
  8  9  1  0
  9 10  2  0
 11  9  1  0
 10 12  1  0
 13 11  2  0
 12 14  2  0
 14 13  1  0
 14 15  1  0
 15 16  1  0
 16 17  1  0
 16 18  1  0
 18 19  2  0
 20 18  1  0
 19 21  1  0
 22 20  2  0
 20 23  1  0
 21 24  1  0
 21 25  2  0
 25 22  1  0
 23 26  1  0
 23 27  2  0
 24 28  1  0
 25 29  1  0
 28 29  1  0
  4 30  2  0
  4 31  1  0
 32 31  1  0
 32 33  1  0
 33 34  1  0
 33 35  1  0
 34 36  1  0
 35 37  1  0
 35 38  1  0
 38 36  1  0
 36 39  1  0
 38 40  1  0
 41 39  1  0
 42 39  1  0
 43 41  2  0
 41 44  1  0
 45 42  2  0
 46 43  1  0
 44 47  2  0
 44 45  1  0
 48 46  2  0
 48 47  1  0
 47 49  1  0
  6 50  1  1
  7 51  1  0
  7 52  1  0
  8 53  1  0
  8 54  1  0
 10 55  1  0
 11 56  1  0
 12 57  1  0
 13 58  1  0
 16 59  1  6
 17 60  1  0
 17 61  1  0
 17 62  1  0
 19 63  1  0
 22 64  1  0
 28 65  1  0
 28 66  1  0
 32 67  1  0
 32 68  1  0
 33 69  1  0
 35 70  1  0
 36 71  1  0
 37 72  1  0
 38 73  1  0
 40 74  1  0
 42 75  1  0
 46 76  1  0
 49 77  1  0
 49 78  1  0
M  CHG  3   5  -1  23   1  26  -1
M  END
>  <EmbedRMS>  (212) 
0.0834623449697

$$$$

     RDKit          3D

 78 83  0  0  0  0  0  0  0  0999 V2000
   10.2803   43.7664   33.8246 C   0  0  0  0  0  0  0  0  0  0  0  0
   11.4109   43.5919   34.3664 O   0  0  0  0  0  0  0  0  0  0  0  0
    9.3617   42.7250   33.7343 O   0  0  0  0  0  0  0  0  0  0  0  0
    9.8898   41.2267   34.2939 P   0  0  0  0  0  0  0  0  0  0  0  0
   10.3735   41.4567   35.8831 O   0  0  0  0  0  0  0  0  0  0  0  0
    9.9458   45.0736   33.2107 C   0  0  1  0  0  0  0  0  0  0  0  0
   11.0266   46.0292   33.4703 N   0  0  0  0  0  0  0  0  0  0  0  0
    9.7534   44.8542   31.6943 C   0  0  0  0  0  0  0  0  0  0  0  0
    8.7952   45.8414   31.0844 C   0  0  0  0  0  0  0  0  0  0  0  0
    7.4071   45.6007   31.1026 C   0  0  0  0  0  0  0  0  0  0  0  0
    9.2829   46.9901   30.4401 C   0  0  0  0  0  0  0  0  0  0  0  0
    6.5260   46.5018   30.4885 C   0  0  0  0  0  0  0  0  0  0  0  0
    8.4001   47.8910   29.8325 C   0  0  0  0  0  0  0  0  0  0  0  0
    7.0211   47.6448   29.8440 C   0  0  0  0  0  0  0  0  0  0  0  0
    6.1410   48.5515   29.2478 O   0  0  0  0  0  0  0  0  0  0  0  0
    5.6546   48.4313   27.9072 C   0  0  1  0  0  0  0  0  0  0  0  0
    6.7307   48.8167   26.8868 C   0  0  0  0  0  0  0  0  0  0  0  0
    4.9711   47.0846   27.6713 C   0  0  0  0  0  0  0  0  0  0  0  0
    3.5819   47.0148   27.9462 C   0  0  0  0  0  0  0  0  0  0  0  0
    5.6592   45.8791   27.2946 C   0  0  0  0  0  0  0  0  0  0  0  0
    2.9371   45.7897   27.8369 C   0  0  0  0  0  0  0  0  0  0  0  0
    4.9530   44.6608   27.2066 C   0  0  0  0  0  0  0  0  0  0  0  0
    7.0543   45.8616   26.9903 N   0  0  0  0  0  0  0  0  0  0  0  0
    1.6050   45.4975   28.0584 O   0  0  0  0  0  0  0  0  0  0  0  0
    3.5940   44.6621   27.4843 C   0  0  0  0  0  0  0  0  0  0  0  0
    7.9113   45.2056   27.8418 O   0  0  0  0  0  0  0  0  0  0  0  0
    7.4155   46.0568   25.8119 O   0  0  0  0  0  0  0  0  0  0  0  0
    1.4153   44.0950   27.8269 C   0  0  0  0  0  0  0  0  0  0  0  0
    2.7110   43.5998   27.4624 O   0  0  0  0  0  0  0  0  0  0  0  0
    8.8122   40.1844   34.2133 O   0  0  0  0  0  0  0  0  0  0  0  0
   11.2402   40.7944   33.3688 O   0  0  0  0  0  0  0  0  0  0  0  0
   10.9142   40.6898   31.9970 C   0  0  0  0  0  0  0  0  0  0  0  0
   11.5260   39.3884   31.4376 C   0  0  0  0  0  0  0  0  0  0  0  0
   12.7504   39.0888   32.0816 O   0  0  0  0  0  0  0  0  0  0  0  0
   10.6114   38.1910   31.6460 C   0  0  0  0  0  0  0  0  0  0  0  0
   12.9357   37.6813   32.0303 C   0  0  0  0  0  0  0  0  0  0  0  0
    9.6145   38.0858   30.6533 O   0  0  0  0  0  0  0  0  0  0  0  0
   11.5769   37.0148   31.7012 C   0  0  0  0  0  0  0  0  0  0  0  0
   13.4849   37.2112   33.3247 N   0  0  0  0  0  0  0  0  0  0  0  0
   11.6193   36.3261   30.4724 O   0  0  0  0  0  0  0  0  0  0  0  0
   14.4802   36.3314   33.5730 C   0  0  0  0  0  0  0  0  0  0  0  0
   13.1141   37.6268   34.5698 C   0  0  0  0  0  0  0  0  0  0  0  0
   15.2074   35.6151   32.6741 N   0  0  0  0  0  0  0  0  0  0  0  0
   14.6761   36.2301   34.9184 C   0  0  0  0  0  0  0  0  0  0  0  0
   13.8220   37.0445   35.5789 N   0  0  0  0  0  0  0  0  0  0  0  0
   16.1642   34.7600   33.1547 C   0  0  0  0  0  0  0  0  0  0  0  0
   15.6529   35.3503   35.4131 C   0  0  0  0  0  0  0  0  0  0  0  0
   16.3797   34.6314   34.5042 N   0  0  0  0  0  0  0  0  0  0  0  0
   15.9004   35.1930   36.8090 N   0  0  0  0  0  0  0  0  0  0  0  0
    8.9995   45.4381   33.6718 H   0  0  0  0  0  0  0  0  0  0  0  0
   11.0501   46.2277   34.4977 H   0  0  0  0  0  0  0  0  0  0  0  0
   10.7763   46.9368   33.0154 H   0  0  0  0  0  0  0  0  0  0  0  0
   10.7403   44.9079   31.1826 H   0  0  0  0  0  0  0  0  0  0  0  0
    9.3635   43.8357   31.4705 H   0  0  0  0  0  0  0  0  0  0  0  0
    7.0116   44.7174   31.5885 H   0  0  0  0  0  0  0  0  0  0  0  0
   10.3465   47.1910   30.4083 H   0  0  0  0  0  0  0  0  0  0  0  0
    5.4608   46.3107   30.5125 H   0  0  0  0  0  0  0  0  0  0  0  0
    8.7880   48.7783   29.3489 H   0  0  0  0  0  0  0  0  0  0  0  0
    4.8765   49.2183   27.7932 H   0  0  0  0  0  0  0  0  0  0  0  0
    7.6891   48.2995   27.0870 H   0  0  0  0  0  0  0  0  0  0  0  0
    6.9310   49.9072   26.9562 H   0  0  0  0  0  0  0  0  0  0  0  0
    6.3845   48.5938   25.8553 H   0  0  0  0  0  0  0  0  0  0  0  0
    3.0205   47.8872   28.2564 H   0  0  0  0  0  0  0  0  0  0  0  0
    5.4534   43.7429   26.9252 H   0  0  0  0  0  0  0  0  0  0  0  0
    1.0618   43.5970   28.7540 H   0  0  0  0  0  0  0  0  0  0  0  0
    0.6968   43.9366   26.9956 H   0  0  0  0  0  0  0  0  0  0  0  0
   11.3777   41.5526   31.4723 H   0  0  0  0  0  0  0  0  0  0  0  0
    9.8232   40.7191   31.7644 H   0  0  0  0  0  0  0  0  0  0  0  0
   11.7283   39.5311   30.3515 H   0  0  0  0  0  0  0  0  0  0  0  0
   10.1126   38.2734   32.6376 H   0  0  0  0  0  0  0  0  0  0  0  0
   13.6692   37.4566   31.2242 H   0  0  0  0  0  0  0  0  0  0  0  0
   10.0533   38.1118   29.7635 H   0  0  0  0  0  0  0  0  0  0  0  0
   11.2606   36.3148   32.5102 H   0  0  0  0  0  0  0  0  0  0  0  0
   12.1496   35.5023   30.6324 H   0  0  0  0  0  0  0  0  0  0  0  0
   12.3301   38.3524   34.7455 H   0  0  0  0  0  0  0  0  0  0  0  0
   16.7562   34.1781   32.4619 H   0  0  0  0  0  0  0  0  0  0  0  0
   15.3535   35.7357   37.5139 H   0  0  0  0  0  0  0  0  0  0  0  0
   16.6350   34.5299   37.1416 H   0  0  0  0  0  0  0  0  0  0  0  0
  1  2  2  0
  1  3  1  0
  3  4  1  0
  4  5  1  0
  6  1  1  0
  7  6  1  0
  6  8  1  0
  8  9  1  0
  9 10  2  0
 11  9  1  0
 10 12  1  0
 13 11  2  0
 12 14  2  0
 14 13  1  0
 14 15  1  0
 15 16  1  0
 16 17  1  0
 16 18  1  0
 18 19  2  0
 20 18  1  0
 19 21  1  0
 22 20  2  0
 20 23  1  0
 21 24  1  0
 21 25  2  0
 25 22  1  0
 23 26  1  0
 23 27  2  0
 24 28  1  0
 25 29  1  0
 28 29  1  0
  4 30  2  0
  4 31  1  0
 32 31  1  0
 32 33  1  0
 33 34  1  0
 33 35  1  0
 34 36  1  0
 35 37  1  0
 35 38  1  0
 38 36  1  0
 36 39  1  0
 38 40  1  0
 41 39  1  0
 42 39  1  0
 43 41  2  0
 41 44  1  0
 45 42  2  0
 46 43  1  0
 44 47  2  0
 44 45  1  0
 48 46  2  0
 48 47  1  0
 47 49  1  0
  6 50  1  1
  7 51  1  0
  7 52  1  0
  8 53  1  0
  8 54  1  0
 10 55  1  0
 11 56  1  0
 12 57  1  0
 13 58  1  0
 16 59  1  1
 17 60  1  0
 17 61  1  0
 17 62  1  0
 19 63  1  0
 22 64  1  0
 28 65  1  0
 28 66  1  0
 32 67  1  0
 32 68  1  0
 33 69  1  0
 35 70  1  0
 36 71  1  0
 37 72  1  0
 38 73  1  0
 40 74  1  0
 42 75  1  0
 46 76  1  0
 49 77  1  0
 49 78  1  0
M  CHG  3   5  -1  23   1  26  -1
M  END
>  <EmbedRMS>  (213) 
0.0815621705824

$$$$

     RDKit          3D

 78 83  0  0  0  0  0  0  0  0999 V2000
   10.2834   43.7662   33.8258 C   0  0  0  0  0  0  0  0  0  0  0  0
   11.4102   43.5930   34.3753 O   0  0  0  0  0  0  0  0  0  0  0  0
    9.3635   42.7257   33.7353 O   0  0  0  0  0  0  0  0  0  0  0  0
    9.8899   41.2270   34.2947 P   0  0  0  0  0  0  0  0  0  0  0  0
   10.3732   41.4562   35.8841 O   0  0  0  0  0  0  0  0  0  0  0  0
    9.9547   45.0695   33.2036 C   0  0  1  0  0  0  0  0  0  0  0  0
   11.0273   46.0323   33.4760 N   0  0  0  0  0  0  0  0  0  0  0  0
    9.7473   44.8482   31.6877 C   0  0  0  0  0  0  0  0  0  0  0  0
    8.7930   45.8408   31.0844 C   0  0  0  0  0  0  0  0  0  0  0  0
    7.4069   45.6016   31.0988 C   0  0  0  0  0  0  0  0  0  0  0  0
    9.2817   46.9870   30.4420 C   0  0  0  0  0  0  0  0  0  0  0  0
    6.5255   46.5016   30.4843 C   0  0  0  0  0  0  0  0  0  0  0  0
    8.3998   47.8865   29.8328 C   0  0  0  0  0  0  0  0  0  0  0  0
    7.0165   47.6583   29.8459 C   0  0  0  0  0  0  0  0  0  0  0  0
    6.1955   48.6130   29.2179 O   0  0  0  0  0  0  0  0  0  0  0  0
    4.7657   48.6355   29.1211 C   0  0  1  0  0  0  0  0  0  0  0  0
    4.2756   47.5621   28.1369 C   0  0  0  0  0  0  0  0  0  0  0  0
    4.0901   48.6577   30.4926 C   0  0  0  0  0  0  0  0  0  0  0  0
    3.2454   47.5931   30.9113 C   0  0  0  0  0  0  0  0  0  0  0  0
    4.2266   49.8036   31.3478 C   0  0  0  0  0  0  0  0  0  0  0  0
    2.6136   47.6862   32.1442 C   0  0  0  0  0  0  0  0  0  0  0  0
    3.5464   49.8467   32.5855 C   0  0  0  0  0  0  0  0  0  0  0  0
    4.9990   50.9477   30.9546 N   0  0  0  0  0  0  0  0  0  0  0  0
    1.7710   46.7724   32.7475 O   0  0  0  0  0  0  0  0  0  0  0  0
    2.7585   48.7642   32.9462 C   0  0  0  0  0  0  0  0  0  0  0  0
    6.3396   50.8163   30.6810 O   0  0  0  0  0  0  0  0  0  0  0  0
    4.5263   52.0931   31.1050 O   0  0  0  0  0  0  0  0  0  0  0  0
    1.3633   47.3135   34.0113 C   0  0  0  0  0  0  0  0  0  0  0  0
    2.0161   48.5874   34.0979 O   0  0  0  0  0  0  0  0  0  0  0  0
    8.8120   40.1851   34.2132 O   0  0  0  0  0  0  0  0  0  0  0  0
   11.2403   40.7947   33.3700 O   0  0  0  0  0  0  0  0  0  0  0  0
   10.9145   40.6914   31.9982 C   0  0  0  0  0  0  0  0  0  0  0  0
   11.5270   39.3912   31.4385 C   0  0  0  0  0  0  0  0  0  0  0  0
   12.7520   39.0911   32.0836 O   0  0  0  0  0  0  0  0  0  0  0  0
   10.6113   38.1932   31.6451 C   0  0  0  0  0  0  0  0  0  0  0  0
   12.9413   37.6838   32.0297 C   0  0  0  0  0  0  0  0  0  0  0  0
    9.6064   38.0878   30.6599 O   0  0  0  0  0  0  0  0  0  0  0  0
   11.5822   37.0198   31.6877 C   0  0  0  0  0  0  0  0  0  0  0  0
   13.4840   37.2104   33.3254 N   0  0  0  0  0  0  0  0  0  0  0  0
   11.6179   36.3072   30.4690 O   0  0  0  0  0  0  0  0  0  0  0  0
   14.4797   36.3309   33.5738 C   0  0  0  0  0  0  0  0  0  0  0  0
   13.1136   37.6269   34.5702 C   0  0  0  0  0  0  0  0  0  0  0  0
   15.2074   35.6152   32.6747 N   0  0  0  0  0  0  0  0  0  0  0  0
   14.6756   36.2298   34.9190 C   0  0  0  0  0  0  0  0  0  0  0  0
   13.8217   37.0445   35.5793 N   0  0  0  0  0  0  0  0  0  0  0  0
   16.1643   34.7603   33.1551 C   0  0  0  0  0  0  0  0  0  0  0  0
   15.6528   35.3503   35.4136 C   0  0  0  0  0  0  0  0  0  0  0  0
   16.3798   34.6316   34.5046 N   0  0  0  0  0  0  0  0  0  0  0  0
   15.9004   35.1930   36.8094 N   0  0  0  0  0  0  0  0  0  0  0  0
    9.0120   45.4318   33.6711 H   0  0  0  0  0  0  0  0  0  0  0  0
   11.8908   45.7659   32.9477 H   0  0  0  0  0  0  0  0  0  0  0  0
   10.7260   46.9688   33.1215 H   0  0  0  0  0  0  0  0  0  0  0  0
   10.7239   44.8821   31.1560 H   0  0  0  0  0  0  0  0  0  0  0  0
    9.3426   43.8330   31.4760 H   0  0  0  0  0  0  0  0  0  0  0  0
    7.0112   44.7158   31.5805 H   0  0  0  0  0  0  0  0  0  0  0  0
   10.3459   47.1859   30.4102 H   0  0  0  0  0  0  0  0  0  0  0  0
    5.4761   46.2749   30.5164 H   0  0  0  0  0  0  0  0  0  0  0  0
    8.7943   48.7691   29.3454 H   0  0  0  0  0  0  0  0  0  0  0  0
    4.4982   49.5998   28.6367 H   0  0  0  0  0  0  0  0  0  0  0  0
    4.7479   47.7285   27.1455 H   0  0  0  0  0  0  0  0  0  0  0  0
    4.5401   46.5390   28.4681 H   0  0  0  0  0  0  0  0  0  0  0  0
    3.1745   47.6334   28.0081 H   0  0  0  0  0  0  0  0  0  0  0  0
    3.0778   46.7117   30.3093 H   0  0  0  0  0  0  0  0  0  0  0  0
    3.6330   50.7008   33.2450 H   0  0  0  0  0  0  0  0  0  0  0  0
    1.6997   46.6536   34.8383 H   0  0  0  0  0  0  0  0  0  0  0  0
    0.2612   47.4453   34.0353 H   0  0  0  0  0  0  0  0  0  0  0  0
    9.8235   40.7202   31.7654 H   0  0  0  0  0  0  0  0  0  0  0  0
   11.3777   41.5549   31.4744 H   0  0  0  0  0  0  0  0  0  0  0  0
   11.7311   39.5363   30.3532 H   0  0  0  0  0  0  0  0  0  0  0  0
   10.1203   38.2696   32.6410 H   0  0  0  0  0  0  0  0  0  0  0  0
   13.6850   37.4639   31.2321 H   0  0  0  0  0  0  0  0  0  0  0  0
   10.0251   38.1792   29.7654 H   0  0  0  0  0  0  0  0  0  0  0  0
   11.2757   36.3135   32.4907 H   0  0  0  0  0  0  0  0  0  0  0  0
   11.9838   36.9111   29.7708 H   0  0  0  0  0  0  0  0  0  0  0  0
   12.3307   38.3536   34.7458 H   0  0  0  0  0  0  0  0  0  0  0  0
   16.7566   34.1787   32.4623 H   0  0  0  0  0  0  0  0  0  0  0  0
   15.3535   35.7355   37.5144 H   0  0  0  0  0  0  0  0  0  0  0  0
   16.6353   34.5301   37.1419 H   0  0  0  0  0  0  0  0  0  0  0  0
  1  2  2  0
  1  3  1  0
  3  4  1  0
  4  5  1  0
  6  1  1  0
  7  6  1  0
  6  8  1  0
  8  9  1  0
  9 10  2  0
 11  9  1  0
 10 12  1  0
 13 11  2  0
 12 14  2  0
 14 13  1  0
 14 15  1  0
 15 16  1  0
 16 17  1  0
 16 18  1  0
 18 19  2  0
 20 18  1  0
 19 21  1  0
 22 20  2  0
 20 23  1  0
 21 24  1  0
 21 25  2  0
 25 22  1  0
 23 26  1  0
 23 27  2  0
 24 28  1  0
 25 29  1  0
 28 29  1  0
  4 30  2  0
  4 31  1  0
 32 31  1  0
 32 33  1  0
 33 34  1  0
 33 35  1  0
 34 36  1  0
 35 37  1  0
 35 38  1  0
 38 36  1  0
 36 39  1  0
 38 40  1  0
 41 39  1  0
 42 39  1  0
 43 41  2  0
 41 44  1  0
 45 42  2  0
 46 43  1  0
 44 47  2  0
 44 45  1  0
 48 46  2  0
 48 47  1  0
 47 49  1  0
  6 50  1  1
  7 51  1  0
  7 52  1  0
  8 53  1  0
  8 54  1  0
 10 55  1  0
 11 56  1  0
 12 57  1  0
 13 58  1  0
 16 59  1  6
 17 60  1  0
 17 61  1  0
 17 62  1  0
 19 63  1  0
 22 64  1  0
 28 65  1  0
 28 66  1  0
 32 67  1  0
 32 68  1  0
 33 69  1  0
 35 70  1  0
 36 71  1  0
 37 72  1  0
 38 73  1  0
 40 74  1  0
 42 75  1  0
 46 76  1  0
 49 77  1  0
 49 78  1  0
M  CHG  3   5  -1  23   1  26  -1
M  END
>  <EmbedRMS>  (214) 
0.0808122839181

$$$$

     RDKit          3D

 78 83  0  0  0  0  0  0  0  0999 V2000
   10.2837   43.7627   33.8276 C   0  0  0  0  0  0  0  0  0  0  0  0
   11.4102   43.5864   34.3766 O   0  0  0  0  0  0  0  0  0  0  0  0
    9.3629   42.7237   33.7354 O   0  0  0  0  0  0  0  0  0  0  0  0
    9.8893   41.2250   34.2943 P   0  0  0  0  0  0  0  0  0  0  0  0
   10.3727   41.4546   35.8837 O   0  0  0  0  0  0  0  0  0  0  0  0
    9.9548   45.0700   33.2061 C   0  0  1  0  0  0  0  0  0  0  0  0
   11.0196   46.0482   33.4569 N   0  0  0  0  0  0  0  0  0  0  0  0
    9.7509   44.8507   31.6919 C   0  0  0  0  0  0  0  0  0  0  0  0
    8.7948   45.8409   31.0856 C   0  0  0  0  0  0  0  0  0  0  0  0
    7.4082   45.6010   31.1011 C   0  0  0  0  0  0  0  0  0  0  0  0
    9.2826   46.9890   30.4450 C   0  0  0  0  0  0  0  0  0  0  0  0
    6.5263   46.5008   30.4870 C   0  0  0  0  0  0  0  0  0  0  0  0
    8.4004   47.8888   29.8357 C   0  0  0  0  0  0  0  0  0  0  0  0
    7.0187   47.6545   29.8423 C   0  0  0  0  0  0  0  0  0  0  0  0
    6.1870   48.6022   29.2135 O   0  0  0  0  0  0  0  0  0  0  0  0
    4.8059   48.4500   28.8448 C   0  0  1  0  0  0  0  0  0  0  0  0
    4.6099   47.1741   28.0001 C   0  0  0  0  0  0  0  0  0  0  0  0
    3.8467   48.5479   30.0346 C   0  0  0  0  0  0  0  0  0  0  0  0
    4.3527   48.7692   31.3438 C   0  0  0  0  0  0  0  0  0  0  0  0
    2.4231   48.4351   29.8606 C   0  0  0  0  0  0  0  0  0  0  0  0
    3.4667   48.7721   32.4125 C   0  0  0  0  0  0  0  0  0  0  0  0
    1.5733   48.4266   30.9891 C   0  0  0  0  0  0  0  0  0  0  0  0
    1.8217   48.3680   28.5596 N   0  0  0  0  0  0  0  0  0  0  0  0
    3.7434   48.9409   33.7557 O   0  0  0  0  0  0  0  0  0  0  0  0
    2.1376   48.5972   32.2441 C   0  0  0  0  0  0  0  0  0  0  0  0
    0.7271   47.5602   28.3548 O   0  0  0  0  0  0  0  0  0  0  0  0
    2.1180   49.2126   27.6899 O   0  0  0  0  0  0  0  0  0  0  0  0
    2.5056   48.8633   34.4755 C   0  0  0  0  0  0  0  0  0  0  0  0
    1.5053   48.6443   33.4716 O   0  0  0  0  0  0  0  0  0  0  0  0
    8.8113   40.1834   34.2130 O   0  0  0  0  0  0  0  0  0  0  0  0
   11.2399   40.7932   33.3693 O   0  0  0  0  0  0  0  0  0  0  0  0
   10.9143   40.6896   31.9973 C   0  0  0  0  0  0  0  0  0  0  0  0
   11.5260   39.3884   31.4375 C   0  0  0  0  0  0  0  0  0  0  0  0
   12.7504   39.0888   32.0815 O   0  0  0  0  0  0  0  0  0  0  0  0
   10.6115   38.1909   31.6460 C   0  0  0  0  0  0  0  0  0  0  0  0
   12.9357   37.6812   32.0303 C   0  0  0  0  0  0  0  0  0  0  0  0
    9.6146   38.0858   30.6533 O   0  0  0  0  0  0  0  0  0  0  0  0
   11.5769   37.0148   31.7012 C   0  0  0  0  0  0  0  0  0  0  0  0
   13.4849   37.2112   33.3247 N   0  0  0  0  0  0  0  0  0  0  0  0
   11.6193   36.3260   30.4724 O   0  0  0  0  0  0  0  0  0  0  0  0
   14.4802   36.3314   33.5730 C   0  0  0  0  0  0  0  0  0  0  0  0
   13.1141   37.6268   34.5697 C   0  0  0  0  0  0  0  0  0  0  0  0
   15.2075   35.6151   32.6741 N   0  0  0  0  0  0  0  0  0  0  0  0
   14.6761   36.2301   34.9184 C   0  0  0  0  0  0  0  0  0  0  0  0
   13.8220   37.0445   35.5789 N   0  0  0  0  0  0  0  0  0  0  0  0
   16.1642   34.7600   33.1547 C   0  0  0  0  0  0  0  0  0  0  0  0
   15.6529   35.3503   35.4131 C   0  0  0  0  0  0  0  0  0  0  0  0
   16.3797   34.6314   34.5042 N   0  0  0  0  0  0  0  0  0  0  0  0
   15.9004   35.1930   36.8090 N   0  0  0  0  0  0  0  0  0  0  0  0
    9.0096   45.4349   33.6663 H   0  0  0  0  0  0  0  0  0  0  0  0
   11.1128   46.1994   34.4883 H   0  0  0  0  0  0  0  0  0  0  0  0
   11.9348   45.6934   33.0929 H   0  0  0  0  0  0  0  0  0  0  0  0
   10.7314   44.8927   31.1675 H   0  0  0  0  0  0  0  0  0  0  0  0
    9.3523   43.8340   31.4757 H   0  0  0  0  0  0  0  0  0  0  0  0
    7.0124   44.7204   31.5920 H   0  0  0  0  0  0  0  0  0  0  0  0
   10.3464   47.1902   30.4165 H   0  0  0  0  0  0  0  0  0  0  0  0
    5.4685   46.3009   30.5517 H   0  0  0  0  0  0  0  0  0  0  0  0
    8.7938   48.7722   29.3489 H   0  0  0  0  0  0  0  0  0  0  0  0
    4.5818   49.3135   28.1845 H   0  0  0  0  0  0  0  0  0  0  0  0
    3.8212   47.3226   27.2356 H   0  0  0  0  0  0  0  0  0  0  0  0
    5.5447   46.9266   27.4536 H   0  0  0  0  0  0  0  0  0  0  0  0
    4.3187   46.3054   28.6244 H   0  0  0  0  0  0  0  0  0  0  0  0
    5.4018   48.9317   31.5421 H   0  0  0  0  0  0  0  0  0  0  0  0
    0.5002   48.3294   30.8857 H   0  0  0  0  0  0  0  0  0  0  0  0
    2.5276   48.0111   35.1868 H   0  0  0  0  0  0  0  0  0  0  0  0
    2.3109   49.8173   35.0089 H   0  0  0  0  0  0  0  0  0  0  0  0
    9.8233   40.7192   31.7644 H   0  0  0  0  0  0  0  0  0  0  0  0
   11.3782   41.5526   31.4733 H   0  0  0  0  0  0  0  0  0  0  0  0
   11.7282   39.5312   30.3515 H   0  0  0  0  0  0  0  0  0  0  0  0
   10.1127   38.2733   32.6376 H   0  0  0  0  0  0  0  0  0  0  0  0
   13.6692   37.4565   31.2241 H   0  0  0  0  0  0  0  0  0  0  0  0
   10.0533   38.1117   29.7635 H   0  0  0  0  0  0  0  0  0  0  0  0
   11.2607   36.3148   32.5102 H   0  0  0  0  0  0  0  0  0  0  0  0
   12.1494   35.5022   30.6324 H   0  0  0  0  0  0  0  0  0  0  0  0
   12.3301   38.3524   34.7455 H   0  0  0  0  0  0  0  0  0  0  0  0
   16.7562   34.1780   32.4619 H   0  0  0  0  0  0  0  0  0  0  0  0
   16.6351   34.5298   37.1416 H   0  0  0  0  0  0  0  0  0  0  0  0
   15.3536   35.7357   37.5139 H   0  0  0  0  0  0  0  0  0  0  0  0
  1  2  2  0
  1  3  1  0
  3  4  1  0
  4  5  1  0
  6  1  1  0
  7  6  1  0
  6  8  1  0
  8  9  1  0
  9 10  2  0
 11  9  1  0
 10 12  1  0
 13 11  2  0
 12 14  2  0
 14 13  1  0
 14 15  1  0
 15 16  1  0
 16 17  1  0
 16 18  1  0
 18 19  2  0
 20 18  1  0
 19 21  1  0
 22 20  2  0
 20 23  1  0
 21 24  1  0
 21 25  2  0
 25 22  1  0
 23 26  1  0
 23 27  2  0
 24 28  1  0
 25 29  1  0
 28 29  1  0
  4 30  2  0
  4 31  1  0
 32 31  1  0
 32 33  1  0
 33 34  1  0
 33 35  1  0
 34 36  1  0
 35 37  1  0
 35 38  1  0
 38 36  1  0
 36 39  1  0
 38 40  1  0
 41 39  1  0
 42 39  1  0
 43 41  2  0
 41 44  1  0
 45 42  2  0
 46 43  1  0
 44 47  2  0
 44 45  1  0
 48 46  2  0
 48 47  1  0
 47 49  1  0
  6 50  1  1
  7 51  1  0
  7 52  1  0
  8 53  1  0
  8 54  1  0
 10 55  1  0
 11 56  1  0
 12 57  1  0
 13 58  1  0
 16 59  1  6
 17 60  1  0
 17 61  1  0
 17 62  1  0
 19 63  1  0
 22 64  1  0
 28 65  1  0
 28 66  1  0
 32 67  1  0
 32 68  1  0
 33 69  1  0
 35 70  1  0
 36 71  1  0
 37 72  1  0
 38 73  1  0
 40 74  1  0
 42 75  1  0
 46 76  1  0
 49 77  1  0
 49 78  1  0
M  CHG  3   5  -1  23   1  26  -1
M  END
>  <EmbedRMS>  (215) 
0.0825375303695

$$$$

     RDKit          3D

 78 83  0  0  0  0  0  0  0  0999 V2000
   10.2836   43.7630   33.8276 C   0  0  0  0  0  0  0  0  0  0  0  0
   11.4101   43.5868   34.3766 O   0  0  0  0  0  0  0  0  0  0  0  0
    9.3632   42.7236   33.7352 O   0  0  0  0  0  0  0  0  0  0  0  0
    9.8898   41.2249   34.2939 P   0  0  0  0  0  0  0  0  0  0  0  0
   10.3725   41.4546   35.8836 O   0  0  0  0  0  0  0  0  0  0  0  0
    9.9542   45.0705   33.2064 C   0  0  1  0  0  0  0  0  0  0  0  0
   11.0189   46.0488   33.4569 N   0  0  0  0  0  0  0  0  0  0  0  0
    9.7499   44.8513   31.6924 C   0  0  0  0  0  0  0  0  0  0  0  0
    8.7941   45.8420   31.0866 C   0  0  0  0  0  0  0  0  0  0  0  0
    7.4060   45.5993   31.0981 C   0  0  0  0  0  0  0  0  0  0  0  0
    9.2840   46.9891   30.4421 C   0  0  0  0  0  0  0  0  0  0  0  0
    6.5260   46.4998   30.4814 C   0  0  0  0  0  0  0  0  0  0  0  0
    8.4026   47.8879   29.8299 C   0  0  0  0  0  0  0  0  0  0  0  0
    7.0207   47.6535   29.8583 C   0  0  0  0  0  0  0  0  0  0  0  0
    6.1442   48.5500   29.2423 O   0  0  0  0  0  0  0  0  0  0  0  0
    5.6044   49.7091   29.8857 C   0  0  1  0  0  0  0  0  0  0  0  0
    4.5058   49.3328   30.8854 C   0  0  0  0  0  0  0  0  0  0  0  0
    6.7048   50.6204   30.4286 C   0  0  0  0  0  0  0  0  0  0  0  0
    7.1978   51.6220   29.5546 C   0  0  0  0  0  0  0  0  0  0  0  0
    7.3270   50.4631   31.7156 C   0  0  0  0  0  0  0  0  0  0  0  0
    8.2552   52.4180   29.9753 C   0  0  0  0  0  0  0  0  0  0  0  0
    8.4012   51.2990   32.0878 C   0  0  0  0  0  0  0  0  0  0  0  0
    6.8841   49.4877   32.6601 N   0  0  0  0  0  0  0  0  0  0  0  0
    8.8855   53.4402   29.2920 O   0  0  0  0  0  0  0  0  0  0  0  0
    8.8321   52.2626   31.1879 C   0  0  0  0  0  0  0  0  0  0  0  0
    5.9199   49.8450   33.5733 O   0  0  0  0  0  0  0  0  0  0  0  0
    7.6159   48.5095   32.9131 O   0  0  0  0  0  0  0  0  0  0  0  0
    9.9239   53.9602   30.1335 C   0  0  0  0  0  0  0  0  0  0  0  0
    9.8549   53.1797   31.3346 O   0  0  0  0  0  0  0  0  0  0  0  0
    8.8118   40.1832   34.2121 O   0  0  0  0  0  0  0  0  0  0  0  0
   11.2413   40.7935   33.3696 O   0  0  0  0  0  0  0  0  0  0  0  0
   10.9179   40.6902   31.9971 C   0  0  0  0  0  0  0  0  0  0  0  0
   11.5181   39.3813   31.4408 C   0  0  0  0  0  0  0  0  0  0  0  0
   12.7497   39.0870   32.0745 O   0  0  0  0  0  0  0  0  0  0  0  0
   10.6045   38.1891   31.6655 C   0  0  0  0  0  0  0  0  0  0  0  0
   12.9344   37.6801   32.0290 C   0  0  0  0  0  0  0  0  0  0  0  0
    9.6418   38.0758   30.6441 O   0  0  0  0  0  0  0  0  0  0  0  0
   11.5741   37.0169   31.7045 C   0  0  0  0  0  0  0  0  0  0  0  0
   13.4851   37.2125   33.3241 N   0  0  0  0  0  0  0  0  0  0  0  0
   11.6079   36.3407   30.4680 O   0  0  0  0  0  0  0  0  0  0  0  0
   14.4801   36.3321   33.5727 C   0  0  0  0  0  0  0  0  0  0  0  0
   13.1140   37.6277   34.5692 C   0  0  0  0  0  0  0  0  0  0  0  0
   15.2073   35.6155   32.6739 N   0  0  0  0  0  0  0  0  0  0  0  0
   14.6758   36.2306   34.9182 C   0  0  0  0  0  0  0  0  0  0  0  0
   13.8217   37.0451   35.5785 N   0  0  0  0  0  0  0  0  0  0  0  0
   16.1639   34.7602   33.1546 C   0  0  0  0  0  0  0  0  0  0  0  0
   15.6526   35.3506   35.4130 C   0  0  0  0  0  0  0  0  0  0  0  0
   16.3794   34.6316   34.5041 N   0  0  0  0  0  0  0  0  0  0  0  0
   15.9000   35.1933   36.8089 N   0  0  0  0  0  0  0  0  0  0  0  0
    9.0090   45.4354   33.6667 H   0  0  0  0  0  0  0  0  0  0  0  0
   11.9342   45.6940   33.0932 H   0  0  0  0  0  0  0  0  0  0  0  0
   11.1118   46.2007   34.4882 H   0  0  0  0  0  0  0  0  0  0  0  0
   10.7304   44.8931   31.1678 H   0  0  0  0  0  0  0  0  0  0  0  0
    9.3510   43.8347   31.4762 H   0  0  0  0  0  0  0  0  0  0  0  0
    7.0100   44.7126   31.5774 H   0  0  0  0  0  0  0  0  0  0  0  0
   10.3481   47.1881   30.4111 H   0  0  0  0  0  0  0  0  0  0  0  0
    5.4619   46.3019   30.4905 H   0  0  0  0  0  0  0  0  0  0  0  0
    8.7928   48.7687   29.3360 H   0  0  0  0  0  0  0  0  0  0  0  0
    5.0692   50.2767   29.0924 H   0  0  0  0  0  0  0  0  0  0  0  0
    3.6222   48.9460   30.3342 H   0  0  0  0  0  0  0  0  0  0  0  0
    4.8341   48.5299   31.5734 H   0  0  0  0  0  0  0  0  0  0  0  0
    4.1881   50.2250   31.4657 H   0  0  0  0  0  0  0  0  0  0  0  0
    6.7813   51.7670   28.5657 H   0  0  0  0  0  0  0  0  0  0  0  0
    8.8807   51.1979   33.0531 H   0  0  0  0  0  0  0  0  0  0  0  0
   10.9135   53.8292   29.6477 H   0  0  0  0  0  0  0  0  0  0  0  0
    9.7345   55.0303   30.3605 H   0  0  0  0  0  0  0  0  0  0  0  0
    9.8290   40.7387   31.7614 H   0  0  0  0  0  0  0  0  0  0  0  0
   11.3949   41.5458   31.4728 H   0  0  0  0  0  0  0  0  0  0  0  0
   11.6994   39.5069   30.3483 H   0  0  0  0  0  0  0  0  0  0  0  0
   10.1090   38.2634   32.6632 H   0  0  0  0  0  0  0  0  0  0  0  0
   13.6662   37.4514   31.2224 H   0  0  0  0  0  0  0  0  0  0  0  0
    8.9009   38.6924   30.8793 H   0  0  0  0  0  0  0  0  0  0  0  0
   11.2650   36.3082   32.5086 H   0  0  0  0  0  0  0  0  0  0  0  0
   12.1372   35.5140   30.6163 H   0  0  0  0  0  0  0  0  0  0  0  0
   12.3296   38.3529   34.7449 H   0  0  0  0  0  0  0  0  0  0  0  0
   16.7558   34.1781   32.4619 H   0  0  0  0  0  0  0  0  0  0  0  0
   16.6346   34.5300   37.1414 H   0  0  0  0  0  0  0  0  0  0  0  0
   15.3533   35.7360   37.5138 H   0  0  0  0  0  0  0  0  0  0  0  0
  1  2  2  0
  1  3  1  0
  3  4  1  0
  4  5  1  0
  6  1  1  0
  7  6  1  0
  6  8  1  0
  8  9  1  0
  9 10  2  0
 11  9  1  0
 10 12  1  0
 13 11  2  0
 12 14  2  0
 14 13  1  0
 14 15  1  0
 15 16  1  0
 16 17  1  0
 16 18  1  0
 18 19  2  0
 20 18  1  0
 19 21  1  0
 22 20  2  0
 20 23  1  0
 21 24  1  0
 21 25  2  0
 25 22  1  0
 23 26  1  0
 23 27  2  0
 24 28  1  0
 25 29  1  0
 28 29  1  0
  4 30  2  0
  4 31  1  0
 32 31  1  0
 32 33  1  0
 33 34  1  0
 33 35  1  0
 34 36  1  0
 35 37  1  0
 35 38  1  0
 38 36  1  0
 36 39  1  0
 38 40  1  0
 41 39  1  0
 42 39  1  0
 43 41  2  0
 41 44  1  0
 45 42  2  0
 46 43  1  0
 44 47  2  0
 44 45  1  0
 48 46  2  0
 48 47  1  0
 47 49  1  0
  6 50  1  1
  7 51  1  0
  7 52  1  0
  8 53  1  0
  8 54  1  0
 10 55  1  0
 11 56  1  0
 12 57  1  0
 13 58  1  0
 16 59  1  6
 17 60  1  0
 17 61  1  0
 17 62  1  0
 19 63  1  0
 22 64  1  0
 28 65  1  0
 28 66  1  0
 32 67  1  0
 32 68  1  0
 33 69  1  0
 35 70  1  0
 36 71  1  0
 37 72  1  0
 38 73  1  0
 40 74  1  0
 42 75  1  0
 46 76  1  0
 49 77  1  0
 49 78  1  0
M  CHG  3   5  -1  23   1  26  -1
M  END
>  <EmbedRMS>  (216) 
0.0838383728506

$$$$

     RDKit          3D

 78 83  0  0  0  0  0  0  0  0999 V2000
   10.2837   43.7628   33.8278 C   0  0  0  0  0  0  0  0  0  0  0  0
   11.4103   43.5864   34.3766 O   0  0  0  0  0  0  0  0  0  0  0  0
    9.3628   42.7238   33.7358 O   0  0  0  0  0  0  0  0  0  0  0  0
    9.8891   41.2252   34.2949 P   0  0  0  0  0  0  0  0  0  0  0  0
   10.3724   41.4548   35.8843 O   0  0  0  0  0  0  0  0  0  0  0  0
    9.9547   45.0701   33.2065 C   0  0  1  0  0  0  0  0  0  0  0  0
   11.0197   46.0482   33.4568 N   0  0  0  0  0  0  0  0  0  0  0  0
    9.7500   44.8508   31.6925 C   0  0  0  0  0  0  0  0  0  0  0  0
    8.7942   45.8417   31.0869 C   0  0  0  0  0  0  0  0  0  0  0  0
    7.4074   45.6007   31.0995 C   0  0  0  0  0  0  0  0  0  0  0  0
    9.2833   46.9887   30.4444 C   0  0  0  0  0  0  0  0  0  0  0  0
    6.5281   46.5015   30.4835 C   0  0  0  0  0  0  0  0  0  0  0  0
    8.4040   47.8894   29.8319 C   0  0  0  0  0  0  0  0  0  0  0  0
    7.0146   47.6527   29.8494 C   0  0  0  0  0  0  0  0  0  0  0  0
    6.0873   48.5291   29.2615 O   0  0  0  0  0  0  0  0  0  0  0  0
    6.4071   49.7798   28.6478 C   0  0  1  0  0  0  0  0  0  0  0  0
    5.1869   50.3199   27.9028 C   0  0  0  0  0  0  0  0  0  0  0  0
    6.9164   50.8028   29.6532 C   0  0  0  0  0  0  0  0  0  0  0  0
    7.8892   51.7260   29.1989 C   0  0  0  0  0  0  0  0  0  0  0  0
    6.5016   50.8450   31.0307 C   0  0  0  0  0  0  0  0  0  0  0  0
    8.4318   52.6243   30.1074 C   0  0  0  0  0  0  0  0  0  0  0  0
    7.1036   51.7723   31.9110 C   0  0  0  0  0  0  0  0  0  0  0  0
    5.4998   49.9624   31.5590 N   0  0  0  0  0  0  0  0  0  0  0  0
    9.3897   53.5953   29.8873 O   0  0  0  0  0  0  0  0  0  0  0  0
    8.0588   52.6437   31.4068 C   0  0  0  0  0  0  0  0  0  0  0  0
    5.6451   49.4475   32.8265 O   0  0  0  0  0  0  0  0  0  0  0  0
    4.4024   49.8334   30.9803 O   0  0  0  0  0  0  0  0  0  0  0  0
    9.6320   54.2674   31.1308 C   0  0  0  0  0  0  0  0  0  0  0  0
    8.7613   53.6284   32.0745 O   0  0  0  0  0  0  0  0  0  0  0  0
    8.8113   40.1834   34.2132 O   0  0  0  0  0  0  0  0  0  0  0  0
   11.2398   40.7938   33.3702 O   0  0  0  0  0  0  0  0  0  0  0  0
   10.9144   40.6912   31.9983 C   0  0  0  0  0  0  0  0  0  0  0  0
   11.5270   39.3911   31.4385 C   0  0  0  0  0  0  0  0  0  0  0  0
   12.7520   39.0911   32.0836 O   0  0  0  0  0  0  0  0  0  0  0  0
   10.6113   38.1931   31.6451 C   0  0  0  0  0  0  0  0  0  0  0  0
   12.9413   37.6838   32.0297 C   0  0  0  0  0  0  0  0  0  0  0  0
    9.6064   38.0877   30.6598 O   0  0  0  0  0  0  0  0  0  0  0  0
   11.5822   37.0197   31.6876 C   0  0  0  0  0  0  0  0  0  0  0  0
   13.4840   37.2104   33.3254 N   0  0  0  0  0  0  0  0  0  0  0  0
   11.6179   36.3071   30.4690 O   0  0  0  0  0  0  0  0  0  0  0  0
   14.4797   36.3309   33.5738 C   0  0  0  0  0  0  0  0  0  0  0  0
   13.1136   37.6269   34.5702 C   0  0  0  0  0  0  0  0  0  0  0  0
   15.2074   35.6152   32.6747 N   0  0  0  0  0  0  0  0  0  0  0  0
   14.6756   36.2298   34.9190 C   0  0  0  0  0  0  0  0  0  0  0  0
   13.8217   37.0445   35.5793 N   0  0  0  0  0  0  0  0  0  0  0  0
   16.1643   34.7603   33.1551 C   0  0  0  0  0  0  0  0  0  0  0  0
   15.6528   35.3503   35.4136 C   0  0  0  0  0  0  0  0  0  0  0  0
   16.3798   34.6316   34.5046 N   0  0  0  0  0  0  0  0  0  0  0  0
   15.9004   35.1930   36.8094 N   0  0  0  0  0  0  0  0  0  0  0  0
    9.0097   45.4351   33.6671 H   0  0  0  0  0  0  0  0  0  0  0  0
   11.1133   46.1996   34.4881 H   0  0  0  0  0  0  0  0  0  0  0  0
   11.9347   45.6933   33.0924 H   0  0  0  0  0  0  0  0  0  0  0  0
    9.3506   43.8343   31.4765 H   0  0  0  0  0  0  0  0  0  0  0  0
   10.7303   44.8920   31.1676 H   0  0  0  0  0  0  0  0  0  0  0  0
    7.0107   44.7159   31.5818 H   0  0  0  0  0  0  0  0  0  0  0  0
   10.3477   47.1874   30.4156 H   0  0  0  0  0  0  0  0  0  0  0  0
    5.4633   46.3065   30.5039 H   0  0  0  0  0  0  0  0  0  0  0  0
    8.8176   48.7628   29.3482 H   0  0  0  0  0  0  0  0  0  0  0  0
    7.1867   49.5907   27.8758 H   0  0  0  0  0  0  0  0  0  0  0  0
    5.4617   51.2352   27.3360 H   0  0  0  0  0  0  0  0  0  0  0  0
    4.3632   50.5709   28.6004 H   0  0  0  0  0  0  0  0  0  0  0  0
    4.8212   49.5588   27.1814 H   0  0  0  0  0  0  0  0  0  0  0  0
    8.2249   51.7327   28.1694 H   0  0  0  0  0  0  0  0  0  0  0  0
    6.8199   51.8237   32.9544 H   0  0  0  0  0  0  0  0  0  0  0  0
   10.6910   54.1375   31.4377 H   0  0  0  0  0  0  0  0  0  0  0  0
    9.3764   55.3440   31.0417 H   0  0  0  0  0  0  0  0  0  0  0  0
    9.8235   40.7202   31.7651 H   0  0  0  0  0  0  0  0  0  0  0  0
   11.3780   41.5548   31.4750 H   0  0  0  0  0  0  0  0  0  0  0  0
   11.7311   39.5363   30.3532 H   0  0  0  0  0  0  0  0  0  0  0  0
   10.1203   38.2695   32.6410 H   0  0  0  0  0  0  0  0  0  0  0  0
   13.6850   37.4638   31.2321 H   0  0  0  0  0  0  0  0  0  0  0  0
   10.0251   38.1792   29.7654 H   0  0  0  0  0  0  0  0  0  0  0  0
   11.2757   36.3135   32.4907 H   0  0  0  0  0  0  0  0  0  0  0  0
   11.9839   36.9110   29.7708 H   0  0  0  0  0  0  0  0  0  0  0  0
   12.3307   38.3536   34.7457 H   0  0  0  0  0  0  0  0  0  0  0  0
   16.7566   34.1787   32.4623 H   0  0  0  0  0  0  0  0  0  0  0  0
   15.3535   35.7355   37.5144 H   0  0  0  0  0  0  0  0  0  0  0  0
   16.6353   34.5301   37.1419 H   0  0  0  0  0  0  0  0  0  0  0  0
  1  2  2  0
  1  3  1  0
  3  4  1  0
  4  5  1  0
  6  1  1  0
  7  6  1  0
  6  8  1  0
  8  9  1  0
  9 10  2  0
 11  9  1  0
 10 12  1  0
 13 11  2  0
 12 14  2  0
 14 13  1  0
 14 15  1  0
 15 16  1  0
 16 17  1  0
 16 18  1  0
 18 19  2  0
 20 18  1  0
 19 21  1  0
 22 20  2  0
 20 23  1  0
 21 24  1  0
 21 25  2  0
 25 22  1  0
 23 26  1  0
 23 27  2  0
 24 28  1  0
 25 29  1  0
 28 29  1  0
  4 30  2  0
  4 31  1  0
 32 31  1  0
 32 33  1  0
 33 34  1  0
 33 35  1  0
 34 36  1  0
 35 37  1  0
 35 38  1  0
 38 36  1  0
 36 39  1  0
 38 40  1  0
 41 39  1  0
 42 39  1  0
 43 41  2  0
 41 44  1  0
 45 42  2  0
 46 43  1  0
 44 47  2  0
 44 45  1  0
 48 46  2  0
 48 47  1  0
 47 49  1  0
  6 50  1  1
  7 51  1  0
  7 52  1  0
  8 53  1  0
  8 54  1  0
 10 55  1  0
 11 56  1  0
 12 57  1  0
 13 58  1  0
 16 59  1  6
 17 60  1  0
 17 61  1  0
 17 62  1  0
 19 63  1  0
 22 64  1  0
 28 65  1  0
 28 66  1  0
 32 67  1  0
 32 68  1  0
 33 69  1  0
 35 70  1  0
 36 71  1  0
 37 72  1  0
 38 73  1  0
 40 74  1  0
 42 75  1  0
 46 76  1  0
 49 77  1  0
 49 78  1  0
M  CHG  3   5  -1  23   1  26  -1
M  END
>  <EmbedRMS>  (217) 
0.0817489966792

$$$$

     RDKit          3D

 78 83  0  0  0  0  0  0  0  0999 V2000
   10.2837   43.7628   33.8277 C   0  0  0  0  0  0  0  0  0  0  0  0
   11.4103   43.5863   34.3766 O   0  0  0  0  0  0  0  0  0  0  0  0
    9.3628   42.7238   33.7357 O   0  0  0  0  0  0  0  0  0  0  0  0
    9.8890   41.2252   34.2949 P   0  0  0  0  0  0  0  0  0  0  0  0
   10.3723   41.4548   35.8843 O   0  0  0  0  0  0  0  0  0  0  0  0
    9.9548   45.0701   33.2064 C   0  0  1  0  0  0  0  0  0  0  0  0
   11.0197   46.0482   33.4572 N   0  0  0  0  0  0  0  0  0  0  0  0
    9.7508   44.8510   31.6923 C   0  0  0  0  0  0  0  0  0  0  0  0
    8.7948   45.8416   31.0867 C   0  0  0  0  0  0  0  0  0  0  0  0
    7.4086   45.6008   31.1001 C   0  0  0  0  0  0  0  0  0  0  0  0
    9.2826   46.9886   30.4445 C   0  0  0  0  0  0  0  0  0  0  0  0
    6.5263   46.4998   30.4852 C   0  0  0  0  0  0  0  0  0  0  0  0
    8.4005   47.8872   29.8339 C   0  0  0  0  0  0  0  0  0  0  0  0
    7.0180   47.6568   29.8454 C   0  0  0  0  0  0  0  0  0  0  0  0
    6.1922   48.6091   29.2197 O   0  0  0  0  0  0  0  0  0  0  0  0
    4.7644   48.5812   29.0891 C   0  0  1  0  0  0  0  0  0  0  0  0
    4.3492   47.5072   28.0711 C   0  0  0  0  0  0  0  0  0  0  0  0
    4.0736   48.5337   30.4535 C   0  0  0  0  0  0  0  0  0  0  0  0
    3.0548   47.5787   30.7222 C   0  0  0  0  0  0  0  0  0  0  0  0
    4.4634   49.4401   31.5006 C   0  0  0  0  0  0  0  0  0  0  0  0
    2.5067   47.5282   31.9966 C   0  0  0  0  0  0  0  0  0  0  0  0
    3.8781   49.3272   32.7818 C   0  0  0  0  0  0  0  0  0  0  0  0
    5.4514   50.4637   31.2916 N   0  0  0  0  0  0  0  0  0  0  0  0
    1.5278   46.6790   32.4760 O   0  0  0  0  0  0  0  0  0  0  0  0
    2.9041   48.3612   32.9835 C   0  0  0  0  0  0  0  0  0  0  0  0
    6.2946   50.8207   32.3185 O   0  0  0  0  0  0  0  0  0  0  0  0
    5.4271   51.1683   30.2620 O   0  0  0  0  0  0  0  0  0  0  0  0
    1.2975   47.0022   33.8539 C   0  0  0  0  0  0  0  0  0  0  0  0
    2.1971   48.0823   34.1373 O   0  0  0  0  0  0  0  0  0  0  0  0
    8.8112   40.1834   34.2131 O   0  0  0  0  0  0  0  0  0  0  0  0
   11.2398   40.7938   33.3702 O   0  0  0  0  0  0  0  0  0  0  0  0
   10.9144   40.6912   31.9983 C   0  0  0  0  0  0  0  0  0  0  0  0
   11.5270   39.3911   31.4385 C   0  0  0  0  0  0  0  0  0  0  0  0
   12.7520   39.0911   32.0836 O   0  0  0  0  0  0  0  0  0  0  0  0
   10.6113   38.1931   31.6451 C   0  0  0  0  0  0  0  0  0  0  0  0
   12.9413   37.6837   32.0297 C   0  0  0  0  0  0  0  0  0  0  0  0
    9.6064   38.0877   30.6599 O   0  0  0  0  0  0  0  0  0  0  0  0
   11.5822   37.0197   31.6876 C   0  0  0  0  0  0  0  0  0  0  0  0
   13.4840   37.2104   33.3254 N   0  0  0  0  0  0  0  0  0  0  0  0
   11.6179   36.3071   30.4690 O   0  0  0  0  0  0  0  0  0  0  0  0
   14.4797   36.3309   33.5738 C   0  0  0  0  0  0  0  0  0  0  0  0
   13.1136   37.6269   34.5702 C   0  0  0  0  0  0  0  0  0  0  0  0
   15.2074   35.6152   32.6747 N   0  0  0  0  0  0  0  0  0  0  0  0
   14.6756   36.2298   34.9190 C   0  0  0  0  0  0  0  0  0  0  0  0
   13.8217   37.0445   35.5793 N   0  0  0  0  0  0  0  0  0  0  0  0
   16.1643   34.7603   33.1551 C   0  0  0  0  0  0  0  0  0  0  0  0
   15.6528   35.3503   35.4136 C   0  0  0  0  0  0  0  0  0  0  0  0
   16.3798   34.6316   34.5046 N   0  0  0  0  0  0  0  0  0  0  0  0
   15.9004   35.1930   36.8094 N   0  0  0  0  0  0  0  0  0  0  0  0
    9.0097   45.4350   33.6667 H   0  0  0  0  0  0  0  0  0  0  0  0
   11.1129   46.1994   34.4885 H   0  0  0  0  0  0  0  0  0  0  0  0
   11.9349   45.6934   33.0931 H   0  0  0  0  0  0  0  0  0  0  0  0
    9.3521   43.8343   31.4759 H   0  0  0  0  0  0  0  0  0  0  0  0
   10.7313   44.8930   31.1678 H   0  0  0  0  0  0  0  0  0  0  0  0
    7.0135   44.7158   31.5837 H   0  0  0  0  0  0  0  0  0  0  0  0
   10.3465   47.1894   30.4152 H   0  0  0  0  0  0  0  0  0  0  0  0
    5.4733   46.2774   30.5237 H   0  0  0  0  0  0  0  0  0  0  0  0
    8.7942   48.7706   29.3472 H   0  0  0  0  0  0  0  0  0  0  0  0
    4.4662   49.5444   28.6240 H   0  0  0  0  0  0  0  0  0  0  0  0
    4.5386   46.4829   28.4488 H   0  0  0  0  0  0  0  0  0  0  0  0
    4.9312   47.6413   27.1346 H   0  0  0  0  0  0  0  0  0  0  0  0
    3.2729   47.6125   27.8173 H   0  0  0  0  0  0  0  0  0  0  0  0
    2.7030   46.8756   29.9817 H   0  0  0  0  0  0  0  0  0  0  0  0
    4.1599   49.9886   33.5909 H   0  0  0  0  0  0  0  0  0  0  0  0
    1.5325   46.1288   34.4978 H   0  0  0  0  0  0  0  0  0  0  0  0
    0.2470   47.3296   34.0013 H   0  0  0  0  0  0  0  0  0  0  0  0
   11.3780   41.5548   31.4750 H   0  0  0  0  0  0  0  0  0  0  0  0
    9.8235   40.7202   31.7651 H   0  0  0  0  0  0  0  0  0  0  0  0
   11.7311   39.5363   30.3531 H   0  0  0  0  0  0  0  0  0  0  0  0
   10.1203   38.2695   32.6410 H   0  0  0  0  0  0  0  0  0  0  0  0
   13.6850   37.4638   31.2321 H   0  0  0  0  0  0  0  0  0  0  0  0
   10.0250   38.1792   29.7654 H   0  0  0  0  0  0  0  0  0  0  0  0
   11.2757   36.3135   32.4907 H   0  0  0  0  0  0  0  0  0  0  0  0
   11.9838   36.9111   29.7708 H   0  0  0  0  0  0  0  0  0  0  0  0
   12.3307   38.3536   34.7457 H   0  0  0  0  0  0  0  0  0  0  0  0
   16.7566   34.1787   32.4623 H   0  0  0  0  0  0  0  0  0  0  0  0
   15.3535   35.7355   37.5144 H   0  0  0  0  0  0  0  0  0  0  0  0
   16.6353   34.5301   37.1419 H   0  0  0  0  0  0  0  0  0  0  0  0
  1  2  2  0
  1  3  1  0
  3  4  1  0
  4  5  1  0
  6  1  1  0
  7  6  1  0
  6  8  1  0
  8  9  1  0
  9 10  2  0
 11  9  1  0
 10 12  1  0
 13 11  2  0
 12 14  2  0
 14 13  1  0
 14 15  1  0
 15 16  1  0
 16 17  1  0
 16 18  1  0
 18 19  2  0
 20 18  1  0
 19 21  1  0
 22 20  2  0
 20 23  1  0
 21 24  1  0
 21 25  2  0
 25 22  1  0
 23 26  1  0
 23 27  2  0
 24 28  1  0
 25 29  1  0
 28 29  1  0
  4 30  2  0
  4 31  1  0
 32 31  1  0
 32 33  1  0
 33 34  1  0
 33 35  1  0
 34 36  1  0
 35 37  1  0
 35 38  1  0
 38 36  1  0
 36 39  1  0
 38 40  1  0
 41 39  1  0
 42 39  1  0
 43 41  2  0
 41 44  1  0
 45 42  2  0
 46 43  1  0
 44 47  2  0
 44 45  1  0
 48 46  2  0
 48 47  1  0
 47 49  1  0
  6 50  1  1
  7 51  1  0
  7 52  1  0
  8 53  1  0
  8 54  1  0
 10 55  1  0
 11 56  1  0
 12 57  1  0
 13 58  1  0
 16 59  1  6
 17 60  1  0
 17 61  1  0
 17 62  1  0
 19 63  1  0
 22 64  1  0
 28 65  1  0
 28 66  1  0
 32 67  1  0
 32 68  1  0
 33 69  1  0
 35 70  1  0
 36 71  1  0
 37 72  1  0
 38 73  1  0
 40 74  1  0
 42 75  1  0
 46 76  1  0
 49 77  1  0
 49 78  1  0
M  CHG  3   5  -1  23   1  26  -1
M  END
>  <EmbedRMS>  (218) 
0.0817260233625

$$$$

     RDKit          3D

 78 83  0  0  0  0  0  0  0  0999 V2000
   10.2833   43.7665   33.8256 C   0  0  0  0  0  0  0  0  0  0  0  0
   11.4102   43.5934   34.3751 O   0  0  0  0  0  0  0  0  0  0  0  0
    9.3638   42.7256   33.7349 O   0  0  0  0  0  0  0  0  0  0  0  0
    9.8903   41.2268   34.2942 P   0  0  0  0  0  0  0  0  0  0  0  0
   10.3735   41.4562   35.8837 O   0  0  0  0  0  0  0  0  0  0  0  0
    9.9542   45.0699   33.2037 C   0  0  1  0  0  0  0  0  0  0  0  0
   11.0265   46.0330   33.4760 N   0  0  0  0  0  0  0  0  0  0  0  0
    9.7463   44.8487   31.6879 C   0  0  0  0  0  0  0  0  0  0  0  0
    8.7919   45.8414   31.0848 C   0  0  0  0  0  0  0  0  0  0  0  0
    7.4042   45.5998   31.0967 C   0  0  0  0  0  0  0  0  0  0  0  0
    9.2827   46.9876   30.4398 C   0  0  0  0  0  0  0  0  0  0  0  0
    6.5246   46.5007   30.4806 C   0  0  0  0  0  0  0  0  0  0  0  0
    8.4020   47.8866   29.8276 C   0  0  0  0  0  0  0  0  0  0  0  0
    7.0202   47.6566   29.8588 C   0  0  0  0  0  0  0  0  0  0  0  0
    6.1553   48.5736   29.2534 O   0  0  0  0  0  0  0  0  0  0  0  0
    5.3776   49.5520   29.9574 C   0  0  1  0  0  0  0  0  0  0  0  0
    4.2976   48.9091   30.8356 C   0  0  0  0  0  0  0  0  0  0  0  0
    6.2636   50.5164   30.7422 C   0  0  0  0  0  0  0  0  0  0  0  0
    6.9843   50.0379   31.8676 C   0  0  0  0  0  0  0  0  0  0  0  0
    6.4469   51.8809   30.3335 C   0  0  0  0  0  0  0  0  0  0  0  0
    7.8735   50.8927   32.5041 C   0  0  0  0  0  0  0  0  0  0  0  0
    7.3766   52.6999   31.0119 C   0  0  0  0  0  0  0  0  0  0  0  0
    5.6964   52.4549   29.2551 N   0  0  0  0  0  0  0  0  0  0  0  0
    8.6829   50.6330   33.5932 O   0  0  0  0  0  0  0  0  0  0  0  0
    8.0659   52.1654   32.0911 C   0  0  0  0  0  0  0  0  0  0  0  0
    6.3322   53.2635   28.3417 O   0  0  0  0  0  0  0  0  0  0  0  0
    4.4493   52.4693   29.3069 O   0  0  0  0  0  0  0  0  0  0  0  0
    9.4311   51.8220   33.8814 C   0  0  0  0  0  0  0  0  0  0  0  0
    9.0057   52.7762   32.8989 O   0  0  0  0  0  0  0  0  0  0  0  0
    8.8122   40.1851   34.2130 O   0  0  0  0  0  0  0  0  0  0  0  0
   11.2407   40.7940   33.3693 O   0  0  0  0  0  0  0  0  0  0  0  0
   10.9151   40.6905   31.9974 C   0  0  0  0  0  0  0  0  0  0  0  0
   11.5252   39.3886   31.4375 C   0  0  0  0  0  0  0  0  0  0  0  0
   12.7500   39.0874   32.0799 O   0  0  0  0  0  0  0  0  0  0  0  0
   10.6092   38.1926   31.6470 C   0  0  0  0  0  0  0  0  0  0  0  0
   12.9332   37.6793   32.0294 C   0  0  0  0  0  0  0  0  0  0  0  0
    9.6122   38.0895   30.6542 O   0  0  0  0  0  0  0  0  0  0  0  0
   11.5743   37.0145   31.7024 C   0  0  0  0  0  0  0  0  0  0  0  0
   13.4844   37.2108   33.3241 N   0  0  0  0  0  0  0  0  0  0  0  0
   11.6297   36.3239   30.4740 O   0  0  0  0  0  0  0  0  0  0  0  0
   14.4802   36.3313   33.5727 C   0  0  0  0  0  0  0  0  0  0  0  0
   13.1139   37.6267   34.5692 C   0  0  0  0  0  0  0  0  0  0  0  0
   15.2075   35.6149   32.6739 N   0  0  0  0  0  0  0  0  0  0  0  0
   14.6761   36.2303   34.9181 C   0  0  0  0  0  0  0  0  0  0  0  0
   13.8220   37.0447   35.5785 N   0  0  0  0  0  0  0  0  0  0  0  0
   16.1643   34.7600   33.1547 C   0  0  0  0  0  0  0  0  0  0  0  0
   15.6529   35.3505   35.4130 C   0  0  0  0  0  0  0  0  0  0  0  0
   16.3798   34.6315   34.5042 N   0  0  0  0  0  0  0  0  0  0  0  0
   15.9003   35.1932   36.8090 N   0  0  0  0  0  0  0  0  0  0  0  0
    9.0114   45.4319   33.6715 H   0  0  0  0  0  0  0  0  0  0  0  0
   10.7241   46.9698   33.1230 H   0  0  0  0  0  0  0  0  0  0  0  0
   11.8896   45.7678   32.9464 H   0  0  0  0  0  0  0  0  0  0  0  0
   10.7227   44.8823   31.1559 H   0  0  0  0  0  0  0  0  0  0  0  0
    9.3414   43.8335   31.4763 H   0  0  0  0  0  0  0  0  0  0  0  0
    7.0079   44.7115   31.5730 H   0  0  0  0  0  0  0  0  0  0  0  0
   10.3470   47.1853   30.4077 H   0  0  0  0  0  0  0  0  0  0  0  0
    5.4629   46.2935   30.4817 H   0  0  0  0  0  0  0  0  0  0  0  0
    8.7913   48.7711   29.3397 H   0  0  0  0  0  0  0  0  0  0  0  0
    4.8268   50.0993   29.1708 H   0  0  0  0  0  0  0  0  0  0  0  0
    3.6704   48.2295   30.2207 H   0  0  0  0  0  0  0  0  0  0  0  0
    4.7366   48.3268   31.6704 H   0  0  0  0  0  0  0  0  0  0  0  0
    3.6433   49.6980   31.2641 H   0  0  0  0  0  0  0  0  0  0  0  0
    6.8799   49.0236   32.2270 H   0  0  0  0  0  0  0  0  0  0  0  0
    7.5382   53.7293   30.7185 H   0  0  0  0  0  0  0  0  0  0  0  0
   10.5189   51.6254   33.7788 H   0  0  0  0  0  0  0  0  0  0  0  0
    9.1911   52.1890   34.9012 H   0  0  0  0  0  0  0  0  0  0  0  0
    9.8242   40.7216   31.7643 H   0  0  0  0  0  0  0  0  0  0  0  0
   11.3801   41.5529   31.4733 H   0  0  0  0  0  0  0  0  0  0  0  0
   11.7266   39.5311   30.3513 H   0  0  0  0  0  0  0  0  0  0  0  0
   10.1110   38.2747   32.6387 H   0  0  0  0  0  0  0  0  0  0  0  0
   13.6652   37.4519   31.2226 H   0  0  0  0  0  0  0  0  0  0  0  0
   10.0512   38.1142   29.7645 H   0  0  0  0  0  0  0  0  0  0  0  0
   11.2762   36.3142   32.5189 H   0  0  0  0  0  0  0  0  0  0  0  0
   10.8593   35.6978   30.4640 H   0  0  0  0  0  0  0  0  0  0  0  0
   12.3295   38.3518   34.7449 H   0  0  0  0  0  0  0  0  0  0  0  0
   16.7564   34.1780   32.4620 H   0  0  0  0  0  0  0  0  0  0  0  0
   16.6349   34.5300   37.1416 H   0  0  0  0  0  0  0  0  0  0  0  0
   15.3534   35.7359   37.5138 H   0  0  0  0  0  0  0  0  0  0  0  0
  1  2  2  0
  1  3  1  0
  3  4  1  0
  4  5  1  0
  6  1  1  0
  7  6  1  0
  6  8  1  0
  8  9  1  0
  9 10  2  0
 11  9  1  0
 10 12  1  0
 13 11  2  0
 12 14  2  0
 14 13  1  0
 14 15  1  0
 15 16  1  0
 16 17  1  0
 16 18  1  0
 18 19  2  0
 20 18  1  0
 19 21  1  0
 22 20  2  0
 20 23  1  0
 21 24  1  0
 21 25  2  0
 25 22  1  0
 23 26  1  0
 23 27  2  0
 24 28  1  0
 25 29  1  0
 28 29  1  0
  4 30  2  0
  4 31  1  0
 32 31  1  0
 32 33  1  0
 33 34  1  0
 33 35  1  0
 34 36  1  0
 35 37  1  0
 35 38  1  0
 38 36  1  0
 36 39  1  0
 38 40  1  0
 41 39  1  0
 42 39  1  0
 43 41  2  0
 41 44  1  0
 45 42  2  0
 46 43  1  0
 44 47  2  0
 44 45  1  0
 48 46  2  0
 48 47  1  0
 47 49  1  0
  6 50  1  1
  7 51  1  0
  7 52  1  0
  8 53  1  0
  8 54  1  0
 10 55  1  0
 11 56  1  0
 12 57  1  0
 13 58  1  0
 16 59  1  6
 17 60  1  0
 17 61  1  0
 17 62  1  0
 19 63  1  0
 22 64  1  0
 28 65  1  0
 28 66  1  0
 32 67  1  0
 32 68  1  0
 33 69  1  0
 35 70  1  0
 36 71  1  0
 37 72  1  0
 38 73  1  0
 40 74  1  0
 42 75  1  0
 46 76  1  0
 49 77  1  0
 49 78  1  0
M  CHG  3   5  -1  23   1  26  -1
M  END
>  <EmbedRMS>  (219) 
0.0819260564668

$$$$

     RDKit          3D

 78 83  0  0  0  0  0  0  0  0999 V2000
   10.2803   43.7665   33.8249 C   0  0  0  0  0  0  0  0  0  0  0  0
   11.4110   43.5919   34.3665 O   0  0  0  0  0  0  0  0  0  0  0  0
    9.3616   42.7251   33.7348 O   0  0  0  0  0  0  0  0  0  0  0  0
    9.8898   41.2268   34.2939 P   0  0  0  0  0  0  0  0  0  0  0  0
   10.3738   41.4566   35.8831 O   0  0  0  0  0  0  0  0  0  0  0  0
    9.9460   45.0737   33.2111 C   0  0  1  0  0  0  0  0  0  0  0  0
   11.0267   46.0292   33.4707 N   0  0  0  0  0  0  0  0  0  0  0  0
    9.7539   44.8542   31.6947 C   0  0  0  0  0  0  0  0  0  0  0  0
    8.7956   45.8412   31.0847 C   0  0  0  0  0  0  0  0  0  0  0  0
    7.4088   45.6001   31.1013 C   0  0  0  0  0  0  0  0  0  0  0  0
    9.2823   46.9882   30.4400 C   0  0  0  0  0  0  0  0  0  0  0  0
    6.5258   46.4990   30.4870 C   0  0  0  0  0  0  0  0  0  0  0  0
    8.3997   47.8877   29.8316 C   0  0  0  0  0  0  0  0  0  0  0  0
    7.0186   47.6538   29.8451 C   0  0  0  0  0  0  0  0  0  0  0  0
    6.1814   48.5834   29.2059 O   0  0  0  0  0  0  0  0  0  0  0  0
    4.7632   48.4637   29.0747 C   0  0  1  0  0  0  0  0  0  0  0  0
    4.1745   49.7827   28.5754 C   0  0  0  0  0  0  0  0  0  0  0  0
    4.3605   47.3178   28.1576 C   0  0  0  0  0  0  0  0  0  0  0  0
    3.1418   46.6575   28.4474 C   0  0  0  0  0  0  0  0  0  0  0  0
    5.1647   46.8514   27.0598 C   0  0  0  0  0  0  0  0  0  0  0  0
    2.7765   45.5624   27.6766 C   0  0  0  0  0  0  0  0  0  0  0  0
    4.7462   45.7207   26.3209 C   0  0  0  0  0  0  0  0  0  0  0  0
    6.3948   47.4916   26.6866 N   0  0  0  0  0  0  0  0  0  0  0  0
    1.6483   44.7725   27.7868 O   0  0  0  0  0  0  0  0  0  0  0  0
    3.5466   45.1113   26.6611 C   0  0  0  0  0  0  0  0  0  0  0  0
    6.4358   48.8493   26.4750 O   0  0  0  0  0  0  0  0  0  0  0  0
    7.3771   46.8003   26.3465 O   0  0  0  0  0  0  0  0  0  0  0  0
    1.7164   43.7605   26.7729 C   0  0  0  0  0  0  0  0  0  0  0  0
    2.9444   44.0137   26.0767 O   0  0  0  0  0  0  0  0  0  0  0  0
    8.8122   40.1845   34.2134 O   0  0  0  0  0  0  0  0  0  0  0  0
   11.2400   40.7954   33.3679 O   0  0  0  0  0  0  0  0  0  0  0  0
   10.9124   40.6877   31.9967 C   0  0  0  0  0  0  0  0  0  0  0  0
   11.5169   39.3811   31.4420 C   0  0  0  0  0  0  0  0  0  0  0  0
   12.7500   39.0881   32.0760 O   0  0  0  0  0  0  0  0  0  0  0  0
   10.6042   38.1893   31.6659 C   0  0  0  0  0  0  0  0  0  0  0  0
   12.9395   37.6814   32.0280 C   0  0  0  0  0  0  0  0  0  0  0  0
    9.6353   38.0951   30.6499 O   0  0  0  0  0  0  0  0  0  0  0  0
   11.5804   37.0191   31.6934 C   0  0  0  0  0  0  0  0  0  0  0  0
   13.4851   37.2119   33.3244 N   0  0  0  0  0  0  0  0  0  0  0  0
   11.6118   36.3189   30.4673 O   0  0  0  0  0  0  0  0  0  0  0  0
   14.4801   36.3316   33.5732 C   0  0  0  0  0  0  0  0  0  0  0  0
   13.1139   37.6277   34.5692 C   0  0  0  0  0  0  0  0  0  0  0  0
   15.2076   35.6154   32.6744 N   0  0  0  0  0  0  0  0  0  0  0  0
   14.6756   36.2303   34.9186 C   0  0  0  0  0  0  0  0  0  0  0  0
   13.8215   37.0451   35.5786 N   0  0  0  0  0  0  0  0  0  0  0  0
   16.1642   34.7602   33.1551 C   0  0  0  0  0  0  0  0  0  0  0  0
   15.6526   35.3505   35.4134 C   0  0  0  0  0  0  0  0  0  0  0  0
   16.3795   34.6316   34.5045 N   0  0  0  0  0  0  0  0  0  0  0  0
   15.9001   35.1933   36.8093 N   0  0  0  0  0  0  0  0  0  0  0  0
    8.9996   45.4382   33.6720 H   0  0  0  0  0  0  0  0  0  0  0  0
   10.7766   46.9369   33.0157 H   0  0  0  0  0  0  0  0  0  0  0  0
   11.0502   46.2278   34.4981 H   0  0  0  0  0  0  0  0  0  0  0  0
    9.3644   43.8354   31.4710 H   0  0  0  0  0  0  0  0  0  0  0  0
   10.7410   44.9079   31.1834 H   0  0  0  0  0  0  0  0  0  0  0  0
    7.0148   44.7152   31.5859 H   0  0  0  0  0  0  0  0  0  0  0  0
   10.3462   47.1878   30.4052 H   0  0  0  0  0  0  0  0  0  0  0  0
    5.4675   46.2829   30.5183 H   0  0  0  0  0  0  0  0  0  0  0  0
    8.7917   48.7680   29.3380 H   0  0  0  0  0  0  0  0  0  0  0  0
    4.3404   48.2968   30.0910 H   0  0  0  0  0  0  0  0  0  0  0  0
    4.4932   50.6118   29.2421 H   0  0  0  0  0  0  0  0  0  0  0  0
    3.0646   49.7324   28.5865 H   0  0  0  0  0  0  0  0  0  0  0  0
    4.5064   50.0101   27.5429 H   0  0  0  0  0  0  0  0  0  0  0  0
    2.5040   46.9799   29.2610 H   0  0  0  0  0  0  0  0  0  0  0  0
    5.3319   45.3407   25.4936 H   0  0  0  0  0  0  0  0  0  0  0  0
    0.8556   43.8545   26.0781 H   0  0  0  0  0  0  0  0  0  0  0  0
    1.7400   42.7525   27.2374 H   0  0  0  0  0  0  0  0  0  0  0  0
    9.8214   40.7221   31.7644 H   0  0  0  0  0  0  0  0  0  0  0  0
   11.3806   41.5456   31.4682 H   0  0  0  0  0  0  0  0  0  0  0  0
   11.6986   39.5088   30.3499 H   0  0  0  0  0  0  0  0  0  0  0  0
   10.1109   38.2737   32.6630 H   0  0  0  0  0  0  0  0  0  0  0  0
   13.6783   37.4562   31.2271 H   0  0  0  0  0  0  0  0  0  0  0  0
    9.0020   37.3860   30.9348 H   0  0  0  0  0  0  0  0  0  0  0  0
   11.2808   36.3052   32.4921 H   0  0  0  0  0  0  0  0  0  0  0  0
   11.8818   36.9600   29.7584 H   0  0  0  0  0  0  0  0  0  0  0  0
   12.3304   38.3538   34.7445 H   0  0  0  0  0  0  0  0  0  0  0  0
   16.7563   34.1783   32.4623 H   0  0  0  0  0  0  0  0  0  0  0  0
   16.6348   34.5301   37.1418 H   0  0  0  0  0  0  0  0  0  0  0  0
   15.3532   35.7359   37.5142 H   0  0  0  0  0  0  0  0  0  0  0  0
  1  2  2  0
  1  3  1  0
  3  4  1  0
  4  5  1  0
  6  1  1  0
  7  6  1  0
  6  8  1  0
  8  9  1  0
  9 10  2  0
 11  9  1  0
 10 12  1  0
 13 11  2  0
 12 14  2  0
 14 13  1  0
 14 15  1  0
 15 16  1  0
 16 17  1  0
 16 18  1  0
 18 19  2  0
 20 18  1  0
 19 21  1  0
 22 20  2  0
 20 23  1  0
 21 24  1  0
 21 25  2  0
 25 22  1  0
 23 26  1  0
 23 27  2  0
 24 28  1  0
 25 29  1  0
 28 29  1  0
  4 30  2  0
  4 31  1  0
 32 31  1  0
 32 33  1  0
 33 34  1  0
 33 35  1  0
 34 36  1  0
 35 37  1  0
 35 38  1  0
 38 36  1  0
 36 39  1  0
 38 40  1  0
 41 39  1  0
 42 39  1  0
 43 41  2  0
 41 44  1  0
 45 42  2  0
 46 43  1  0
 44 47  2  0
 44 45  1  0
 48 46  2  0
 48 47  1  0
 47 49  1  0
  6 50  1  1
  7 51  1  0
  7 52  1  0
  8 53  1  0
  8 54  1  0
 10 55  1  0
 11 56  1  0
 12 57  1  0
 13 58  1  0
 16 59  1  1
 17 60  1  0
 17 61  1  0
 17 62  1  0
 19 63  1  0
 22 64  1  0
 28 65  1  0
 28 66  1  0
 32 67  1  0
 32 68  1  0
 33 69  1  0
 35 70  1  0
 36 71  1  0
 37 72  1  0
 38 73  1  0
 40 74  1  0
 42 75  1  0
 46 76  1  0
 49 77  1  0
 49 78  1  0
M  CHG  3   5  -1  23   1  26  -1
M  END
>  <EmbedRMS>  (220) 
0.0813848409477

$$$$

     RDKit          3D

 78 83  0  0  0  0  0  0  0  0999 V2000
   10.2803   43.7665   33.8251 C   0  0  0  0  0  0  0  0  0  0  0  0
   11.4111   43.5919   34.3667 O   0  0  0  0  0  0  0  0  0  0  0  0
    9.3616   42.7252   33.7349 O   0  0  0  0  0  0  0  0  0  0  0  0
    9.8896   41.2269   34.2946 P   0  0  0  0  0  0  0  0  0  0  0  0
   10.3732   41.4568   35.8838 O   0  0  0  0  0  0  0  0  0  0  0  0
    9.9459   45.0737   33.2113 C   0  0  1  0  0  0  0  0  0  0  0  0
   11.0267   46.0293   33.4706 N   0  0  0  0  0  0  0  0  0  0  0  0
    9.7534   44.8539   31.6951 C   0  0  0  0  0  0  0  0  0  0  0  0
    8.7954   45.8412   31.0852 C   0  0  0  0  0  0  0  0  0  0  0  0
    7.4088   45.6001   31.1001 C   0  0  0  0  0  0  0  0  0  0  0  0
    9.2828   46.9873   30.4395 C   0  0  0  0  0  0  0  0  0  0  0  0
    6.5286   46.5003   30.4842 C   0  0  0  0  0  0  0  0  0  0  0  0
    8.4024   47.8884   29.8295 C   0  0  0  0  0  0  0  0  0  0  0  0
    7.0133   47.6528   29.8501 C   0  0  0  0  0  0  0  0  0  0  0  0
    6.0837   48.5245   29.2589 O   0  0  0  0  0  0  0  0  0  0  0  0
    6.3873   49.7925   28.6765 C   0  0  1  0  0  0  0  0  0  0  0  0
    5.1788   50.2910   27.8834 C   0  0  0  0  0  0  0  0  0  0  0  0
    6.8015   50.8049   29.7348 C   0  0  0  0  0  0  0  0  0  0  0  0
    8.0420   51.4690   29.5703 C   0  0  0  0  0  0  0  0  0  0  0  0
    5.9689   51.1518   30.8519 C   0  0  0  0  0  0  0  0  0  0  0  0
    8.4111   52.4315   30.5009 C   0  0  0  0  0  0  0  0  0  0  0  0
    6.3904   52.1495   31.7586 C   0  0  0  0  0  0  0  0  0  0  0  0
    4.6989   50.5262   31.0709 N   0  0  0  0  0  0  0  0  0  0  0  0
    9.5635   53.1926   30.5382 O   0  0  0  0  0  0  0  0  0  0  0  0
    7.6198   52.7583   31.5480 C   0  0  0  0  0  0  0  0  0  0  0  0
    4.6423   49.1953   31.4095 O   0  0  0  0  0  0  0  0  0  0  0  0
    3.6874   51.2355   31.2484 O   0  0  0  0  0  0  0  0  0  0  0  0
    9.4898   54.0511   31.6847 C   0  0  0  0  0  0  0  0  0  0  0  0
    8.2322   53.7416   32.3008 O   0  0  0  0  0  0  0  0  0  0  0  0
    8.8122   40.1844   34.2135 O   0  0  0  0  0  0  0  0  0  0  0  0
   11.2401   40.7950   33.3698 O   0  0  0  0  0  0  0  0  0  0  0  0
   10.9143   40.6914   31.9981 C   0  0  0  0  0  0  0  0  0  0  0  0
   11.5269   39.3912   31.4385 C   0  0  0  0  0  0  0  0  0  0  0  0
   12.7519   39.0911   32.0837 O   0  0  0  0  0  0  0  0  0  0  0  0
   10.6113   38.1932   31.6451 C   0  0  0  0  0  0  0  0  0  0  0  0
   12.9413   37.6838   32.0297 C   0  0  0  0  0  0  0  0  0  0  0  0
    9.6064   38.0878   30.6599 O   0  0  0  0  0  0  0  0  0  0  0  0
   11.5822   37.0198   31.6877 C   0  0  0  0  0  0  0  0  0  0  0  0
   13.4840   37.2104   33.3254 N   0  0  0  0  0  0  0  0  0  0  0  0
   11.6179   36.3072   30.4690 O   0  0  0  0  0  0  0  0  0  0  0  0
   14.4797   36.3309   33.5738 C   0  0  0  0  0  0  0  0  0  0  0  0
   13.1136   37.6269   34.5702 C   0  0  0  0  0  0  0  0  0  0  0  0
   15.2074   35.6152   32.6747 N   0  0  0  0  0  0  0  0  0  0  0  0
   14.6756   36.2298   34.9190 C   0  0  0  0  0  0  0  0  0  0  0  0
   13.8217   37.0445   35.5793 N   0  0  0  0  0  0  0  0  0  0  0  0
   16.1643   34.7603   33.1551 C   0  0  0  0  0  0  0  0  0  0  0  0
   15.6528   35.3503   35.4136 C   0  0  0  0  0  0  0  0  0  0  0  0
   16.3798   34.6316   34.5046 N   0  0  0  0  0  0  0  0  0  0  0  0
   15.9004   35.1930   36.8094 N   0  0  0  0  0  0  0  0  0  0  0  0
    8.9996   45.4383   33.6725 H   0  0  0  0  0  0  0  0  0  0  0  0
   11.0505   46.2280   34.4979 H   0  0  0  0  0  0  0  0  0  0  0  0
   10.7763   46.9369   33.0155 H   0  0  0  0  0  0  0  0  0  0  0  0
   10.7405   44.9069   31.1836 H   0  0  0  0  0  0  0  0  0  0  0  0
    9.3634   43.8353   31.4717 H   0  0  0  0  0  0  0  0  0  0  0  0
    7.0131   44.7157   31.5840 H   0  0  0  0  0  0  0  0  0  0  0  0
   10.3472   47.1845   30.4040 H   0  0  0  0  0  0  0  0  0  0  0  0
    5.4642   46.3035   30.5044 H   0  0  0  0  0  0  0  0  0  0  0  0
    8.8171   48.7550   29.3377 H   0  0  0  0  0  0  0  0  0  0  0  0
    7.2025   49.6512   27.9323 H   0  0  0  0  0  0  0  0  0  0  0  0
    4.2742   50.3549   28.5212 H   0  0  0  0  0  0  0  0  0  0  0  0
    5.3902   51.2923   27.4504 H   0  0  0  0  0  0  0  0  0  0  0  0
    4.9645   49.5876   27.0509 H   0  0  0  0  0  0  0  0  0  0  0  0
    8.6976   51.2505   28.7370 H   0  0  0  0  0  0  0  0  0  0  0  0
    5.7794   52.4316   32.6066 H   0  0  0  0  0  0  0  0  0  0  0  0
   10.3235   53.8306   32.3838 H   0  0  0  0  0  0  0  0  0  0  0  0
    9.5104   55.1154   31.3695 H   0  0  0  0  0  0  0  0  0  0  0  0
   11.3775   41.5548   31.4741 H   0  0  0  0  0  0  0  0  0  0  0  0
    9.8233   40.7200   31.7652 H   0  0  0  0  0  0  0  0  0  0  0  0
   11.7312   39.5362   30.3532 H   0  0  0  0  0  0  0  0  0  0  0  0
   10.1202   38.2696   32.6410 H   0  0  0  0  0  0  0  0  0  0  0  0
   13.6850   37.4639   31.2321 H   0  0  0  0  0  0  0  0  0  0  0  0
   10.0251   38.1792   29.7654 H   0  0  0  0  0  0  0  0  0  0  0  0
   11.2757   36.3135   32.4907 H   0  0  0  0  0  0  0  0  0  0  0  0
   11.9838   36.9111   29.7708 H   0  0  0  0  0  0  0  0  0  0  0  0
   12.3307   38.3536   34.7458 H   0  0  0  0  0  0  0  0  0  0  0  0
   16.7565   34.1786   32.4622 H   0  0  0  0  0  0  0  0  0  0  0  0
   16.6353   34.5300   37.1418 H   0  0  0  0  0  0  0  0  0  0  0  0
   15.3535   35.7355   37.5144 H   0  0  0  0  0  0  0  0  0  0  0  0
  1  2  2  0
  1  3  1  0
  3  4  1  0
  4  5  1  0
  6  1  1  0
  7  6  1  0
  6  8  1  0
  8  9  1  0
  9 10  2  0
 11  9  1  0
 10 12  1  0
 13 11  2  0
 12 14  2  0
 14 13  1  0
 14 15  1  0
 15 16  1  0
 16 17  1  0
 16 18  1  0
 18 19  2  0
 20 18  1  0
 19 21  1  0
 22 20  2  0
 20 23  1  0
 21 24  1  0
 21 25  2  0
 25 22  1  0
 23 26  1  0
 23 27  2  0
 24 28  1  0
 25 29  1  0
 28 29  1  0
  4 30  2  0
  4 31  1  0
 32 31  1  0
 32 33  1  0
 33 34  1  0
 33 35  1  0
 34 36  1  0
 35 37  1  0
 35 38  1  0
 38 36  1  0
 36 39  1  0
 38 40  1  0
 41 39  1  0
 42 39  1  0
 43 41  2  0
 41 44  1  0
 45 42  2  0
 46 43  1  0
 44 47  2  0
 44 45  1  0
 48 46  2  0
 48 47  1  0
 47 49  1  0
  6 50  1  1
  7 51  1  0
  7 52  1  0
  8 53  1  0
  8 54  1  0
 10 55  1  0
 11 56  1  0
 12 57  1  0
 13 58  1  0
 16 59  1  6
 17 60  1  0
 17 61  1  0
 17 62  1  0
 19 63  1  0
 22 64  1  0
 28 65  1  0
 28 66  1  0
 32 67  1  0
 32 68  1  0
 33 69  1  0
 35 70  1  0
 36 71  1  0
 37 72  1  0
 38 73  1  0
 40 74  1  0
 42 75  1  0
 46 76  1  0
 49 77  1  0
 49 78  1  0
M  CHG  3   5  -1  23   1  26  -1
M  END
>  <EmbedRMS>  (221) 
0.0806513196682

$$$$

     RDKit          3D

 78 83  0  0  0  0  0  0  0  0999 V2000
   10.2836   43.7661   33.8257 C   0  0  0  0  0  0  0  0  0  0  0  0
   11.4103   43.5930   34.3754 O   0  0  0  0  0  0  0  0  0  0  0  0
    9.3641   42.7252   33.7348 O   0  0  0  0  0  0  0  0  0  0  0  0
    9.8908   41.2264   34.2939 P   0  0  0  0  0  0  0  0  0  0  0  0
   10.3732   41.4558   35.8836 O   0  0  0  0  0  0  0  0  0  0  0  0
    9.9547   45.0693   33.2036 C   0  0  1  0  0  0  0  0  0  0  0  0
   11.0273   46.0321   33.4756 N   0  0  0  0  0  0  0  0  0  0  0  0
    9.7468   44.8478   31.6877 C   0  0  0  0  0  0  0  0  0  0  0  0
    8.7924   45.8402   31.0845 C   0  0  0  0  0  0  0  0  0  0  0  0
    7.4064   45.6016   31.0994 C   0  0  0  0  0  0  0  0  0  0  0  0
    9.2812   46.9871   30.4429 C   0  0  0  0  0  0  0  0  0  0  0  0
    6.5286   46.5037   30.4842 C   0  0  0  0  0  0  0  0  0  0  0  0
    8.4021   47.8895   29.8326 C   0  0  0  0  0  0  0  0  0  0  0  0
    7.0130   47.6545   29.8451 C   0  0  0  0  0  0  0  0  0  0  0  0
    6.0694   48.5087   29.2454 O   0  0  0  0  0  0  0  0  0  0  0  0
    6.2971   49.7106   28.4978 C   0  0  1  0  0  0  0  0  0  0  0  0
    6.7326   50.8508   29.4316 C   0  0  0  0  0  0  0  0  0  0  0  0
    7.1682   49.4734   27.2627 C   0  0  0  0  0  0  0  0  0  0  0  0
    8.4455   50.0878   27.1443 C   0  0  0  0  0  0  0  0  0  0  0  0
    6.6734   48.6970   26.1561 C   0  0  0  0  0  0  0  0  0  0  0  0
    9.1813   49.8856   25.9851 C   0  0  0  0  0  0  0  0  0  0  0  0
    7.4660   48.5407   24.9966 C   0  0  0  0  0  0  0  0  0  0  0  0
    5.3576   48.1181   26.1576 N   0  0  0  0  0  0  0  0  0  0  0  0
   10.4366   50.3701   25.6705 O   0  0  0  0  0  0  0  0  0  0  0  0
    8.7135   49.1438   24.9579 C   0  0  0  0  0  0  0  0  0  0  0  0
    4.6182   48.1090   24.9972 O   0  0  0  0  0  0  0  0  0  0  0  0
    4.9655   47.4310   27.1215 O   0  0  0  0  0  0  0  0  0  0  0  0
   10.7773   49.8980   24.3600 C   0  0  0  0  0  0  0  0  0  0  0  0
    9.6484   49.1194   23.9408 O   0  0  0  0  0  0  0  0  0  0  0  0
    8.8127   40.1847   34.2122 O   0  0  0  0  0  0  0  0  0  0  0  0
   11.2421   40.7941   33.3697 O   0  0  0  0  0  0  0  0  0  0  0  0
   10.9187   40.6911   31.9971 C   0  0  0  0  0  0  0  0  0  0  0  0
   11.5172   39.3815   31.4407 C   0  0  0  0  0  0  0  0  0  0  0  0
   12.7493   39.0856   32.0728 O   0  0  0  0  0  0  0  0  0  0  0  0
   10.6023   38.1908   31.6665 C   0  0  0  0  0  0  0  0  0  0  0  0
   12.9319   37.6781   32.0281 C   0  0  0  0  0  0  0  0  0  0  0  0
    9.6392   38.0798   30.6452 O   0  0  0  0  0  0  0  0  0  0  0  0
   11.5715   37.0166   31.7056 C   0  0  0  0  0  0  0  0  0  0  0  0
   13.4847   37.2121   33.3235 N   0  0  0  0  0  0  0  0  0  0  0  0
   11.6187   36.3384   30.4695 O   0  0  0  0  0  0  0  0  0  0  0  0
   14.4801   36.3321   33.5724 C   0  0  0  0  0  0  0  0  0  0  0  0
   13.1137   37.6275   34.5687 C   0  0  0  0  0  0  0  0  0  0  0  0
   15.2073   35.6153   32.6738 N   0  0  0  0  0  0  0  0  0  0  0  0
   14.6759   36.2308   34.9179 C   0  0  0  0  0  0  0  0  0  0  0  0
   13.8216   37.0452   35.5781 N   0  0  0  0  0  0  0  0  0  0  0  0
   16.1640   34.7602   33.1546 C   0  0  0  0  0  0  0  0  0  0  0  0
   15.6526   35.3508   35.4129 C   0  0  0  0  0  0  0  0  0  0  0  0
   16.3794   34.6317   34.5041 N   0  0  0  0  0  0  0  0  0  0  0  0
   15.8999   35.1935   36.8088 N   0  0  0  0  0  0  0  0  0  0  0  0
    9.0121   45.4315   33.6714 H   0  0  0  0  0  0  0  0  0  0  0  0
   11.8906   45.7658   32.9470 H   0  0  0  0  0  0  0  0  0  0  0  0
   10.7259   46.9687   33.1212 H   0  0  0  0  0  0  0  0  0  0  0  0
   10.7232   44.8814   31.1557 H   0  0  0  0  0  0  0  0  0  0  0  0
    9.3419   43.8325   31.4762 H   0  0  0  0  0  0  0  0  0  0  0  0
    7.0086   44.7169   31.5812 H   0  0  0  0  0  0  0  0  0  0  0  0
   10.3457   47.1849   30.4134 H   0  0  0  0  0  0  0  0  0  0  0  0
    5.4644   46.3055   30.5015 H   0  0  0  0  0  0  0  0  0  0  0  0
    8.8244   48.7573   29.3619 H   0  0  0  0  0  0  0  0  0  0  0  0
    5.3063   50.0344   28.1111 H   0  0  0  0  0  0  0  0  0  0  0  0
    6.8422   51.7961   28.8583 H   0  0  0  0  0  0  0  0  0  0  0  0
    5.9536   51.0090   30.2074 H   0  0  0  0  0  0  0  0  0  0  0  0
    7.6837   50.6253   29.9519 H   0  0  0  0  0  0  0  0  0  0  0  0
    8.8694   50.7050   27.9232 H   0  0  0  0  0  0  0  0  0  0  0  0
    7.1175   47.9628   24.1503 H   0  0  0  0  0  0  0  0  0  0  0  0
   11.6861   49.2619   24.4051 H   0  0  0  0  0  0  0  0  0  0  0  0
   10.9293   50.7548   23.6706 H   0  0  0  0  0  0  0  0  0  0  0  0
    9.8299   40.7410   31.7613 H   0  0  0  0  0  0  0  0  0  0  0  0
   11.3968   41.5460   31.4729 H   0  0  0  0  0  0  0  0  0  0  0  0
   11.6975   39.5067   30.3481 H   0  0  0  0  0  0  0  0  0  0  0  0
   10.1076   38.2648   32.6645 H   0  0  0  0  0  0  0  0  0  0  0  0
   13.6621   37.4467   31.2209 H   0  0  0  0  0  0  0  0  0  0  0  0
    8.8975   38.6944   30.8831 H   0  0  0  0  0  0  0  0  0  0  0  0
   11.2806   36.3073   32.5170 H   0  0  0  0  0  0  0  0  0  0  0  0
   10.8492   35.7110   30.4586 H   0  0  0  0  0  0  0  0  0  0  0  0
   12.3290   38.3524   34.7444 H   0  0  0  0  0  0  0  0  0  0  0  0
   16.7559   34.1780   32.4619 H   0  0  0  0  0  0  0  0  0  0  0  0
   15.3532   35.7362   37.5137 H   0  0  0  0  0  0  0  0  0  0  0  0
   16.6344   34.5301   37.1414 H   0  0  0  0  0  0  0  0  0  0  0  0
  1  2  2  0
  1  3  1  0
  3  4  1  0
  4  5  1  0
  6  1  1  0
  7  6  1  0
  6  8  1  0
  8  9  1  0
  9 10  2  0
 11  9  1  0
 10 12  1  0
 13 11  2  0
 12 14  2  0
 14 13  1  0
 14 15  1  0
 15 16  1  0
 16 17  1  0
 16 18  1  0
 18 19  2  0
 20 18  1  0
 19 21  1  0
 22 20  2  0
 20 23  1  0
 21 24  1  0
 21 25  2  0
 25 22  1  0
 23 26  1  0
 23 27  2  0
 24 28  1  0
 25 29  1  0
 28 29  1  0
  4 30  2  0
  4 31  1  0
 32 31  1  0
 32 33  1  0
 33 34  1  0
 33 35  1  0
 34 36  1  0
 35 37  1  0
 35 38  1  0
 38 36  1  0
 36 39  1  0
 38 40  1  0
 41 39  1  0
 42 39  1  0
 43 41  2  0
 41 44  1  0
 45 42  2  0
 46 43  1  0
 44 47  2  0
 44 45  1  0
 48 46  2  0
 48 47  1  0
 47 49  1  0
  6 50  1  1
  7 51  1  0
  7 52  1  0
  8 53  1  0
  8 54  1  0
 10 55  1  0
 11 56  1  0
 12 57  1  0
 13 58  1  0
 16 59  1  6
 17 60  1  0
 17 61  1  0
 17 62  1  0
 19 63  1  0
 22 64  1  0
 28 65  1  0
 28 66  1  0
 32 67  1  0
 32 68  1  0
 33 69  1  0
 35 70  1  0
 36 71  1  0
 37 72  1  0
 38 73  1  0
 40 74  1  0
 42 75  1  0
 46 76  1  0
 49 77  1  0
 49 78  1  0
M  CHG  3   5  -1  23   1  26  -1
M  END
>  <EmbedRMS>  (222) 
0.0829361174995

$$$$

     RDKit          3D

 78 83  0  0  0  0  0  0  0  0999 V2000
   10.2805   43.7664   33.8250 C   0  0  0  0  0  0  0  0  0  0  0  0
   11.4111   43.5918   34.3667 O   0  0  0  0  0  0  0  0  0  0  0  0
    9.3619   42.7249   33.7345 O   0  0  0  0  0  0  0  0  0  0  0  0
    9.8899   41.2266   34.2940 P   0  0  0  0  0  0  0  0  0  0  0  0
   10.3734   41.4567   35.8833 O   0  0  0  0  0  0  0  0  0  0  0  0
    9.9460   45.0736   33.2113 C   0  0  1  0  0  0  0  0  0  0  0  0
   11.0268   46.0292   33.4709 N   0  0  0  0  0  0  0  0  0  0  0  0
    9.7541   44.8542   31.6950 C   0  0  0  0  0  0  0  0  0  0  0  0
    8.7958   45.8414   31.0851 C   0  0  0  0  0  0  0  0  0  0  0  0
    7.4092   45.6001   31.1009 C   0  0  0  0  0  0  0  0  0  0  0  0
    9.2824   46.9876   30.4395 C   0  0  0  0  0  0  0  0  0  0  0  0
    6.5257   46.4984   30.4857 C   0  0  0  0  0  0  0  0  0  0  0  0
    8.3997   47.8865   29.8304 C   0  0  0  0  0  0  0  0  0  0  0  0
    7.0177   47.6562   29.8473 C   0  0  0  0  0  0  0  0  0  0  0  0
    6.1854   48.5936   29.2128 O   0  0  0  0  0  0  0  0  0  0  0  0
    4.7554   48.5959   29.2269 C   0  0  1  0  0  0  0  0  0  0  0  0
    4.2346   49.0449   30.5990 C   0  0  0  0  0  0  0  0  0  0  0  0
    4.2595   49.5332   28.1404 C   0  0  0  0  0  0  0  0  0  0  0  0
    4.6628   50.8915   28.1812 C   0  0  0  0  0  0  0  0  0  0  0  0
    3.3691   49.1007   27.1022 C   0  0  0  0  0  0  0  0  0  0  0  0
    4.1453   51.7674   27.2358 C   0  0  0  0  0  0  0  0  0  0  0  0
    2.8614   50.0413   26.1774 C   0  0  0  0  0  0  0  0  0  0  0  0
    2.9992   47.7228   26.9542 N   0  0  0  0  0  0  0  0  0  0  0  0
    4.3879   53.1202   27.0946 O   0  0  0  0  0  0  0  0  0  0  0  0
    3.2779   51.3617   26.2803 C   0  0  0  0  0  0  0  0  0  0  0  0
    3.9773   46.7666   26.8059 O   0  0  0  0  0  0  0  0  0  0  0  0
    1.8169   47.4221   26.6900 O   0  0  0  0  0  0  0  0  0  0  0  0
    3.6224   53.5926   25.9776 C   0  0  0  0  0  0  0  0  0  0  0  0
    2.9288   52.4373   25.4866 O   0  0  0  0  0  0  0  0  0  0  0  0
    8.8123   40.1844   34.2133 O   0  0  0  0  0  0  0  0  0  0  0  0
   11.2405   40.7942   33.3692 O   0  0  0  0  0  0  0  0  0  0  0  0
   10.9150   40.6905   31.9972 C   0  0  0  0  0  0  0  0  0  0  0  0
   11.5252   39.3886   31.4375 C   0  0  0  0  0  0  0  0  0  0  0  0
   12.7499   39.0874   32.0799 O   0  0  0  0  0  0  0  0  0  0  0  0
   10.6092   38.1926   31.6470 C   0  0  0  0  0  0  0  0  0  0  0  0
   12.9332   37.6793   32.0294 C   0  0  0  0  0  0  0  0  0  0  0  0
    9.6122   38.0894   30.6542 O   0  0  0  0  0  0  0  0  0  0  0  0
   11.5743   37.0145   31.7024 C   0  0  0  0  0  0  0  0  0  0  0  0
   13.4844   37.2108   33.3241 N   0  0  0  0  0  0  0  0  0  0  0  0
   11.6297   36.3239   30.4740 O   0  0  0  0  0  0  0  0  0  0  0  0
   14.4802   36.3313   33.5727 C   0  0  0  0  0  0  0  0  0  0  0  0
   13.1138   37.6266   34.5692 C   0  0  0  0  0  0  0  0  0  0  0  0
   15.2075   35.6149   32.6739 N   0  0  0  0  0  0  0  0  0  0  0  0
   14.6761   36.2303   34.9181 C   0  0  0  0  0  0  0  0  0  0  0  0
   13.8220   37.0447   35.5785 N   0  0  0  0  0  0  0  0  0  0  0  0
   16.1643   34.7600   33.1547 C   0  0  0  0  0  0  0  0  0  0  0  0
   15.6529   35.3505   35.4130 C   0  0  0  0  0  0  0  0  0  0  0  0
   16.3798   34.6315   34.5042 N   0  0  0  0  0  0  0  0  0  0  0  0
   15.9003   35.1932   36.8090 N   0  0  0  0  0  0  0  0  0  0  0  0
    8.9996   45.4381   33.6723 H   0  0  0  0  0  0  0  0  0  0  0  0
   10.7765   46.9369   33.0160 H   0  0  0  0  0  0  0  0  0  0  0  0
   11.0503   46.2277   34.4983 H   0  0  0  0  0  0  0  0  0  0  0  0
    9.3646   43.8355   31.4711 H   0  0  0  0  0  0  0  0  0  0  0  0
   10.7412   44.9080   31.1837 H   0  0  0  0  0  0  0  0  0  0  0  0
    7.0155   44.7142   31.5841 H   0  0  0  0  0  0  0  0  0  0  0  0
   10.3463   47.1872   30.4046 H   0  0  0  0  0  0  0  0  0  0  0  0
    5.4698   46.2740   30.5135 H   0  0  0  0  0  0  0  0  0  0  0  0
    8.7924   48.7677   29.3389 H   0  0  0  0  0  0  0  0  0  0  0  0
    4.3804   47.5714   29.0497 H   0  0  0  0  0  0  0  0  0  0  0  0
    3.1266   49.1248   30.5789 H   0  0  0  0  0  0  0  0  0  0  0  0
    4.5125   48.3086   31.3804 H   0  0  0  0  0  0  0  0  0  0  0  0
    4.6639   50.0278   30.8851 H   0  0  0  0  0  0  0  0  0  0  0  0
    5.3492   51.2567   28.9342 H   0  0  0  0  0  0  0  0  0  0  0  0
    2.1848   49.7440   25.3864 H   0  0  0  0  0  0  0  0  0  0  0  0
    2.8957   54.3639   26.3086 H   0  0  0  0  0  0  0  0  0  0  0  0
    4.2966   53.9967   25.1935 H   0  0  0  0  0  0  0  0  0  0  0  0
    9.8242   40.7215   31.7641 H   0  0  0  0  0  0  0  0  0  0  0  0
   11.3801   41.5528   31.4730 H   0  0  0  0  0  0  0  0  0  0  0  0
   11.7266   39.5310   30.3513 H   0  0  0  0  0  0  0  0  0  0  0  0
   10.1110   38.2747   32.6387 H   0  0  0  0  0  0  0  0  0  0  0  0
   13.6652   37.4520   31.2226 H   0  0  0  0  0  0  0  0  0  0  0  0
   10.0511   38.1143   29.7645 H   0  0  0  0  0  0  0  0  0  0  0  0
   11.2762   36.3141   32.5189 H   0  0  0  0  0  0  0  0  0  0  0  0
   10.8593   35.6978   30.4640 H   0  0  0  0  0  0  0  0  0  0  0  0
   12.3294   38.3518   34.7449 H   0  0  0  0  0  0  0  0  0  0  0  0
   16.7564   34.1780   32.4620 H   0  0  0  0  0  0  0  0  0  0  0  0
   16.6349   34.5300   37.1416 H   0  0  0  0  0  0  0  0  0  0  0  0
   15.3534   35.7359   37.5138 H   0  0  0  0  0  0  0  0  0  0  0  0
  1  2  2  0
  1  3  1  0
  3  4  1  0
  4  5  1  0
  6  1  1  0
  7  6  1  0
  6  8  1  0
  8  9  1  0
  9 10  2  0
 11  9  1  0
 10 12  1  0
 13 11  2  0
 12 14  2  0
 14 13  1  0
 14 15  1  0
 15 16  1  0
 16 17  1  0
 16 18  1  0
 18 19  2  0
 20 18  1  0
 19 21  1  0
 22 20  2  0
 20 23  1  0
 21 24  1  0
 21 25  2  0
 25 22  1  0
 23 26  1  0
 23 27  2  0
 24 28  1  0
 25 29  1  0
 28 29  1  0
  4 30  2  0
  4 31  1  0
 32 31  1  0
 32 33  1  0
 33 34  1  0
 33 35  1  0
 34 36  1  0
 35 37  1  0
 35 38  1  0
 38 36  1  0
 36 39  1  0
 38 40  1  0
 41 39  1  0
 42 39  1  0
 43 41  2  0
 41 44  1  0
 45 42  2  0
 46 43  1  0
 44 47  2  0
 44 45  1  0
 48 46  2  0
 48 47  1  0
 47 49  1  0
  6 50  1  1
  7 51  1  0
  7 52  1  0
  8 53  1  0
  8 54  1  0
 10 55  1  0
 11 56  1  0
 12 57  1  0
 13 58  1  0
 16 59  1  6
 17 60  1  0
 17 61  1  0
 17 62  1  0
 19 63  1  0
 22 64  1  0
 28 65  1  0
 28 66  1  0
 32 67  1  0
 32 68  1  0
 33 69  1  0
 35 70  1  0
 36 71  1  0
 37 72  1  0
 38 73  1  0
 40 74  1  0
 42 75  1  0
 46 76  1  0
 49 77  1  0
 49 78  1  0
M  CHG  3   5  -1  23   1  26  -1
M  END
>  <EmbedRMS>  (223) 
0.0816144420079

$$$$

     RDKit          3D

 78 83  0  0  0  0  0  0  0  0999 V2000
   10.2836   43.7661   33.8257 C   0  0  0  0  0  0  0  0  0  0  0  0
   11.4103   43.5931   34.3753 O   0  0  0  0  0  0  0  0  0  0  0  0
    9.3641   42.7253   33.7347 O   0  0  0  0  0  0  0  0  0  0  0  0
    9.8908   41.2265   34.2939 P   0  0  0  0  0  0  0  0  0  0  0  0
   10.3732   41.4559   35.8835 O   0  0  0  0  0  0  0  0  0  0  0  0
    9.9546   45.0695   33.2036 C   0  0  1  0  0  0  0  0  0  0  0  0
   11.0272   46.0323   33.4757 N   0  0  0  0  0  0  0  0  0  0  0  0
    9.7465   44.8480   31.6878 C   0  0  0  0  0  0  0  0  0  0  0  0
    8.7923   45.8408   31.0845 C   0  0  0  0  0  0  0  0  0  0  0  0
    7.4056   45.6011   31.0984 C   0  0  0  0  0  0  0  0  0  0  0  0
    9.2824   46.9874   30.4420 C   0  0  0  0  0  0  0  0  0  0  0  0
    6.5267   46.5027   30.4830 C   0  0  0  0  0  0  0  0  0  0  0  0
    8.4035   47.8893   29.8310 C   0  0  0  0  0  0  0  0  0  0  0  0
    7.0138   47.6541   29.8495 C   0  0  0  0  0  0  0  0  0  0  0  0
    6.0878   48.5294   29.2585 O   0  0  0  0  0  0  0  0  0  0  0  0
    6.4066   49.7903   28.6630 C   0  0  1  0  0  0  0  0  0  0  0  0
    5.1658   50.3246   27.9500 C   0  0  0  0  0  0  0  0  0  0  0  0
    6.8644   50.7802   29.7213 C   0  0  0  0  0  0  0  0  0  0  0  0
    6.1524   50.8394   30.9446 C   0  0  0  0  0  0  0  0  0  0  0  0
    8.0210   51.6104   29.5422 C   0  0  0  0  0  0  0  0  0  0  0  0
    6.6257   51.6741   31.9480 C   0  0  0  0  0  0  0  0  0  0  0  0
    8.4647   52.4278   30.6061 C   0  0  0  0  0  0  0  0  0  0  0  0
    8.7415   51.6480   28.3006 N   0  0  0  0  0  0  0  0  0  0  0  0
    6.1063   51.8778   33.2119 O   0  0  0  0  0  0  0  0  0  0  0  0
    7.7359   52.4304   31.7881 C   0  0  0  0  0  0  0  0  0  0  0  0
   10.1078   51.8088   28.3084 O   0  0  0  0  0  0  0  0  0  0  0  0
    8.1272   51.7726   27.2213 O   0  0  0  0  0  0  0  0  0  0  0  0
    6.9456   52.8243   33.8876 C   0  0  0  0  0  0  0  0  0  0  0  0
    7.9735   53.1514   32.9425 O   0  0  0  0  0  0  0  0  0  0  0  0
    8.8127   40.1848   34.2122 O   0  0  0  0  0  0  0  0  0  0  0  0
   11.2421   40.7941   33.3697 O   0  0  0  0  0  0  0  0  0  0  0  0
   10.9187   40.6911   31.9971 C   0  0  0  0  0  0  0  0  0  0  0  0
   11.5172   39.3815   31.4407 C   0  0  0  0  0  0  0  0  0  0  0  0
   12.7493   39.0856   32.0728 O   0  0  0  0  0  0  0  0  0  0  0  0
   10.6023   38.1908   31.6665 C   0  0  0  0  0  0  0  0  0  0  0  0
   12.9319   37.6781   32.0281 C   0  0  0  0  0  0  0  0  0  0  0  0
    9.6392   38.0798   30.6452 O   0  0  0  0  0  0  0  0  0  0  0  0
   11.5715   37.0166   31.7056 C   0  0  0  0  0  0  0  0  0  0  0  0
   13.4846   37.2121   33.3235 N   0  0  0  0  0  0  0  0  0  0  0  0
   11.6187   36.3384   30.4695 O   0  0  0  0  0  0  0  0  0  0  0  0
   14.4801   36.3321   33.5724 C   0  0  0  0  0  0  0  0  0  0  0  0
   13.1137   37.6275   34.5688 C   0  0  0  0  0  0  0  0  0  0  0  0
   15.2073   35.6153   32.6738 N   0  0  0  0  0  0  0  0  0  0  0  0
   14.6759   36.2308   34.9179 C   0  0  0  0  0  0  0  0  0  0  0  0
   13.8216   37.0452   35.5781 N   0  0  0  0  0  0  0  0  0  0  0  0
   16.1640   34.7602   33.1546 C   0  0  0  0  0  0  0  0  0  0  0  0
   15.6526   35.3508   35.4129 C   0  0  0  0  0  0  0  0  0  0  0  0
   16.3794   34.6317   34.5041 N   0  0  0  0  0  0  0  0  0  0  0  0
   15.8999   35.1935   36.8088 N   0  0  0  0  0  0  0  0  0  0  0  0
    9.0120   45.4316   33.6715 H   0  0  0  0  0  0  0  0  0  0  0  0
   10.7255   46.9689   33.1215 H   0  0  0  0  0  0  0  0  0  0  0  0
   11.8904   45.7662   32.9469 H   0  0  0  0  0  0  0  0  0  0  0  0
   10.7229   44.8813   31.1558 H   0  0  0  0  0  0  0  0  0  0  0  0
    9.3414   43.8329   31.4764 H   0  0  0  0  0  0  0  0  0  0  0  0
    7.0083   44.7163   31.5803 H   0  0  0  0  0  0  0  0  0  0  0  0
   10.3471   47.1838   30.4101 H   0  0  0  0  0  0  0  0  0  0  0  0
    5.4620   46.3074   30.5024 H   0  0  0  0  0  0  0  0  0  0  0  0
    8.8181   48.7599   29.3439 H   0  0  0  0  0  0  0  0  0  0  0  0
    7.1868   49.6192   27.8932 H   0  0  0  0  0  0  0  0  0  0  0  0
    5.3842   51.3054   27.4764 H   0  0  0  0  0  0  0  0  0  0  0  0
    4.3252   50.4476   28.6660 H   0  0  0  0  0  0  0  0  0  0  0  0
    4.8536   49.6123   27.1571 H   0  0  0  0  0  0  0  0  0  0  0  0
    5.2709   50.2346   31.1163 H   0  0  0  0  0  0  0  0  0  0  0  0
    9.3369   53.0606   30.5050 H   0  0  0  0  0  0  0  0  0  0  0  0
    6.3648   53.7328   34.1518 H   0  0  0  0  0  0  0  0  0  0  0  0
    7.3913   52.3637   34.7942 H   0  0  0  0  0  0  0  0  0  0  0  0
    9.8300   40.7410   31.7613 H   0  0  0  0  0  0  0  0  0  0  0  0
   11.3968   41.5460   31.4729 H   0  0  0  0  0  0  0  0  0  0  0  0
   11.6975   39.5067   30.3481 H   0  0  0  0  0  0  0  0  0  0  0  0
   10.1077   38.2648   32.6645 H   0  0  0  0  0  0  0  0  0  0  0  0
   13.6621   37.4467   31.2209 H   0  0  0  0  0  0  0  0  0  0  0  0
    8.8975   38.6944   30.8831 H   0  0  0  0  0  0  0  0  0  0  0  0
   11.2806   36.3073   32.5170 H   0  0  0  0  0  0  0  0  0  0  0  0
   10.8493   35.7110   30.4586 H   0  0  0  0  0  0  0  0  0  0  0  0
   12.3290   38.3523   34.7444 H   0  0  0  0  0  0  0  0  0  0  0  0
   16.7559   34.1780   32.4619 H   0  0  0  0  0  0  0  0  0  0  0  0
   15.3532   35.7362   37.5137 H   0  0  0  0  0  0  0  0  0  0  0  0
   16.6344   34.5301   37.1414 H   0  0  0  0  0  0  0  0  0  0  0  0
  1  2  2  0
  1  3  1  0
  3  4  1  0
  4  5  1  0
  6  1  1  0
  7  6  1  0
  6  8  1  0
  8  9  1  0
  9 10  2  0
 11  9  1  0
 10 12  1  0
 13 11  2  0
 12 14  2  0
 14 13  1  0
 14 15  1  0
 15 16  1  0
 16 17  1  0
 16 18  1  0
 18 19  2  0
 20 18  1  0
 19 21  1  0
 22 20  2  0
 20 23  1  0
 21 24  1  0
 21 25  2  0
 25 22  1  0
 23 26  1  0
 23 27  2  0
 24 28  1  0
 25 29  1  0
 28 29  1  0
  4 30  2  0
  4 31  1  0
 32 31  1  0
 32 33  1  0
 33 34  1  0
 33 35  1  0
 34 36  1  0
 35 37  1  0
 35 38  1  0
 38 36  1  0
 36 39  1  0
 38 40  1  0
 41 39  1  0
 42 39  1  0
 43 41  2  0
 41 44  1  0
 45 42  2  0
 46 43  1  0
 44 47  2  0
 44 45  1  0
 48 46  2  0
 48 47  1  0
 47 49  1  0
  6 50  1  1
  7 51  1  0
  7 52  1  0
  8 53  1  0
  8 54  1  0
 10 55  1  0
 11 56  1  0
 12 57  1  0
 13 58  1  0
 16 59  1  6
 17 60  1  0
 17 61  1  0
 17 62  1  0
 19 63  1  0
 22 64  1  0
 28 65  1  0
 28 66  1  0
 32 67  1  0
 32 68  1  0
 33 69  1  0
 35 70  1  0
 36 71  1  0
 37 72  1  0
 38 73  1  0
 40 74  1  0
 42 75  1  0
 46 76  1  0
 49 77  1  0
 49 78  1  0
M  CHG  3   5  -1  23   1  26  -1
M  END
>  <EmbedRMS>  (224) 
0.0829485768231

$$$$

     RDKit          3D

 78 83  0  0  0  0  0  0  0  0999 V2000
   10.2804   43.7664   33.8249 C   0  0  0  0  0  0  0  0  0  0  0  0
   11.4111   43.5919   34.3667 O   0  0  0  0  0  0  0  0  0  0  0  0
    9.3619   42.7249   33.7346 O   0  0  0  0  0  0  0  0  0  0  0  0
    9.8900   41.2267   34.2944 P   0  0  0  0  0  0  0  0  0  0  0  0
   10.3727   41.4567   35.8838 O   0  0  0  0  0  0  0  0  0  0  0  0
    9.9460   45.0736   33.2111 C   0  0  1  0  0  0  0  0  0  0  0  0
   11.0267   46.0292   33.4708 N   0  0  0  0  0  0  0  0  0  0  0  0
    9.7540   44.8541   31.6948 C   0  0  0  0  0  0  0  0  0  0  0  0
    8.7957   45.8411   31.0847 C   0  0  0  0  0  0  0  0  0  0  0  0
    7.4089   45.6001   31.1014 C   0  0  0  0  0  0  0  0  0  0  0  0
    9.2823   46.9881   30.4399 C   0  0  0  0  0  0  0  0  0  0  0  0
    6.5261   46.4993   30.4871 C   0  0  0  0  0  0  0  0  0  0  0  0
    8.3995   47.8876   29.8313 C   0  0  0  0  0  0  0  0  0  0  0  0
    7.0183   47.6538   29.8453 C   0  0  0  0  0  0  0  0  0  0  0  0
    6.1802   48.5857   29.2115 O   0  0  0  0  0  0  0  0  0  0  0  0
    4.7589   48.4745   29.0902 C   0  0  1  0  0  0  0  0  0  0  0  0
    4.2096   49.7891   28.5413 C   0  0  0  0  0  0  0  0  0  0  0  0
    4.3764   47.3346   28.1595 C   0  0  0  0  0  0  0  0  0  0  0  0
    5.1668   47.1034   27.0060 C   0  0  0  0  0  0  0  0  0  0  0  0
    3.1880   46.5566   28.3590 C   0  0  0  0  0  0  0  0  0  0  0  0
    4.7697   46.1145   26.1157 C   0  0  0  0  0  0  0  0  0  0  0  0
    2.8250   45.5754   27.4103 C   0  0  0  0  0  0  0  0  0  0  0  0
    2.3300   46.7637   29.4890 N   0  0  0  0  0  0  0  0  0  0  0  0
    5.3833   45.7175   24.9433 O   0  0  0  0  0  0  0  0  0  0  0  0
    3.6481   45.3832   26.3089 C   0  0  0  0  0  0  0  0  0  0  0  0
    0.9683   46.8168   29.3020 O   0  0  0  0  0  0  0  0  0  0  0  0
    2.7722   46.6048   30.6449 O   0  0  0  0  0  0  0  0  0  0  0  0
    4.5961   44.6669   24.3658 C   0  0  0  0  0  0  0  0  0  0  0  0
    3.4973   44.4856   25.2695 O   0  0  0  0  0  0  0  0  0  0  0  0
    8.8127   40.1842   34.2128 O   0  0  0  0  0  0  0  0  0  0  0  0
   11.2414   40.7950   33.3705 O   0  0  0  0  0  0  0  0  0  0  0  0
   10.9178   40.6921   31.9982 C   0  0  0  0  0  0  0  0  0  0  0  0
   11.5175   39.3837   31.4423 C   0  0  0  0  0  0  0  0  0  0  0  0
   12.7507   39.0887   32.0753 O   0  0  0  0  0  0  0  0  0  0  0  0
   10.6027   38.1916   31.6658 C   0  0  0  0  0  0  0  0  0  0  0  0
   12.9384   37.6819   32.0278 C   0  0  0  0  0  0  0  0  0  0  0  0
    9.6371   38.0805   30.6470 O   0  0  0  0  0  0  0  0  0  0  0  0
   11.5780   37.0215   31.6935 C   0  0  0  0  0  0  0  0  0  0  0  0
   13.4844   37.2119   33.3242 N   0  0  0  0  0  0  0  0  0  0  0  0
   11.6095   36.3201   30.4679 O   0  0  0  0  0  0  0  0  0  0  0  0
   14.4797   36.3318   33.5730 C   0  0  0  0  0  0  0  0  0  0  0  0
   13.1135   37.6278   34.5691 C   0  0  0  0  0  0  0  0  0  0  0  0
   15.2073   35.6155   32.6742 N   0  0  0  0  0  0  0  0  0  0  0  0
   14.6754   36.2305   34.9184 C   0  0  0  0  0  0  0  0  0  0  0  0
   13.8213   37.0452   35.5785 N   0  0  0  0  0  0  0  0  0  0  0  0
   16.1640   34.7604   33.1549 C   0  0  0  0  0  0  0  0  0  0  0  0
   15.6524   35.3507   35.4133 C   0  0  0  0  0  0  0  0  0  0  0  0
   16.3794   34.6318   34.5044 N   0  0  0  0  0  0  0  0  0  0  0  0
   15.8999   35.1934   36.8091 N   0  0  0  0  0  0  0  0  0  0  0  0
    8.9996   45.4381   33.6720 H   0  0  0  0  0  0  0  0  0  0  0  0
   10.7765   46.9369   33.0158 H   0  0  0  0  0  0  0  0  0  0  0  0
   11.0502   46.2277   34.4982 H   0  0  0  0  0  0  0  0  0  0  0  0
   10.7411   44.9079   31.1834 H   0  0  0  0  0  0  0  0  0  0  0  0
    9.3645   43.8354   31.4710 H   0  0  0  0  0  0  0  0  0  0  0  0
    7.0147   44.7155   31.5862 H   0  0  0  0  0  0  0  0  0  0  0  0
   10.3462   47.1880   30.4055 H   0  0  0  0  0  0  0  0  0  0  0  0
    5.4685   46.2845   30.5190 H   0  0  0  0  0  0  0  0  0  0  0  0
    8.7915   48.7688   29.3394 H   0  0  0  0  0  0  0  0  0  0  0  0
    4.3345   48.3439   30.1042 H   0  0  0  0  0  0  0  0  0  0  0  0
    4.4763   50.6226   29.2253 H   0  0  0  0  0  0  0  0  0  0  0  0
    3.1023   49.7395   28.4615 H   0  0  0  0  0  0  0  0  0  0  0  0
    4.6375   50.0025   27.5381 H   0  0  0  0  0  0  0  0  0  0  0  0
    6.0566   47.6850   26.8013 H   0  0  0  0  0  0  0  0  0  0  0  0
    1.9323   44.9760   27.5353 H   0  0  0  0  0  0  0  0  0  0  0  0
    5.1931   43.7335   24.2964 H   0  0  0  0  0  0  0  0  0  0  0  0
    4.2233   44.9719   23.3655 H   0  0  0  0  0  0  0  0  0  0  0  0
   11.3949   41.5477   31.4741 H   0  0  0  0  0  0  0  0  0  0  0  0
    9.8290   40.7408   31.7625 H   0  0  0  0  0  0  0  0  0  0  0  0
   11.6982   39.5114   30.3500 H   0  0  0  0  0  0  0  0  0  0  0  0
   10.1117   38.2604   32.6660 H   0  0  0  0  0  0  0  0  0  0  0  0
   13.6767   37.4557   31.2267 H   0  0  0  0  0  0  0  0  0  0  0  0
    8.8961   38.6950   30.8872 H   0  0  0  0  0  0  0  0  0  0  0  0
   11.2791   36.3072   32.4922 H   0  0  0  0  0  0  0  0  0  0  0  0
   11.8828   36.9598   29.7588 H   0  0  0  0  0  0  0  0  0  0  0  0
   12.3300   38.3538   34.7446 H   0  0  0  0  0  0  0  0  0  0  0  0
   16.7561   34.1785   32.4622 H   0  0  0  0  0  0  0  0  0  0  0  0
   16.6347   34.5303   37.1417 H   0  0  0  0  0  0  0  0  0  0  0  0
   15.3531   35.7360   37.5140 H   0  0  0  0  0  0  0  0  0  0  0  0
  1  2  2  0
  1  3  1  0
  3  4  1  0
  4  5  1  0
  6  1  1  0
  7  6  1  0
  6  8  1  0
  8  9  1  0
  9 10  2  0
 11  9  1  0
 10 12  1  0
 13 11  2  0
 12 14  2  0
 14 13  1  0
 14 15  1  0
 15 16  1  0
 16 17  1  0
 16 18  1  0
 18 19  2  0
 20 18  1  0
 19 21  1  0
 22 20  2  0
 20 23  1  0
 21 24  1  0
 21 25  2  0
 25 22  1  0
 23 26  1  0
 23 27  2  0
 24 28  1  0
 25 29  1  0
 28 29  1  0
  4 30  2  0
  4 31  1  0
 32 31  1  0
 32 33  1  0
 33 34  1  0
 33 35  1  0
 34 36  1  0
 35 37  1  0
 35 38  1  0
 38 36  1  0
 36 39  1  0
 38 40  1  0
 41 39  1  0
 42 39  1  0
 43 41  2  0
 41 44  1  0
 45 42  2  0
 46 43  1  0
 44 47  2  0
 44 45  1  0
 48 46  2  0
 48 47  1  0
 47 49  1  0
  6 50  1  1
  7 51  1  0
  7 52  1  0
  8 53  1  0
  8 54  1  0
 10 55  1  0
 11 56  1  0
 12 57  1  0
 13 58  1  0
 16 59  1  1
 17 60  1  0
 17 61  1  0
 17 62  1  0
 19 63  1  0
 22 64  1  0
 28 65  1  0
 28 66  1  0
 32 67  1  0
 32 68  1  0
 33 69  1  0
 35 70  1  0
 36 71  1  0
 37 72  1  0
 38 73  1  0
 40 74  1  0
 42 75  1  0
 46 76  1  0
 49 77  1  0
 49 78  1  0
M  CHG  3   5  -1  23   1  26  -1
M  END
>  <EmbedRMS>  (225) 
0.0817952094544

$$$$

     RDKit          3D

 78 83  0  0  0  0  0  0  0  0999 V2000
   10.2803   43.7665   33.8251 C   0  0  0  0  0  0  0  0  0  0  0  0
   11.4110   43.5919   34.3666 O   0  0  0  0  0  0  0  0  0  0  0  0
    9.3616   42.7251   33.7349 O   0  0  0  0  0  0  0  0  0  0  0  0
    9.8899   41.2268   34.2940 P   0  0  0  0  0  0  0  0  0  0  0  0
   10.3739   41.4565   35.8831 O   0  0  0  0  0  0  0  0  0  0  0  0
    9.9459   45.0736   33.2112 C   0  0  1  0  0  0  0  0  0  0  0  0
   11.0267   46.0291   33.4705 N   0  0  0  0  0  0  0  0  0  0  0  0
    9.7536   44.8537   31.6949 C   0  0  0  0  0  0  0  0  0  0  0  0
    8.7955   45.8408   31.0845 C   0  0  0  0  0  0  0  0  0  0  0  0
    7.4089   45.6006   31.1010 C   0  0  0  0  0  0  0  0  0  0  0  0
    9.2828   46.9877   30.4401 C   0  0  0  0  0  0  0  0  0  0  0  0
    6.5285   46.5014   30.4862 C   0  0  0  0  0  0  0  0  0  0  0  0
    8.4025   47.8898   29.8310 C   0  0  0  0  0  0  0  0  0  0  0  0
    7.0132   47.6506   29.8463 C   0  0  0  0  0  0  0  0  0  0  0  0
    6.0802   48.5176   29.2540 O   0  0  0  0  0  0  0  0  0  0  0  0
    6.3827   49.6681   28.4605 C   0  0  1  0  0  0  0  0  0  0  0  0
    6.9060   49.2655   27.0766 C   0  0  0  0  0  0  0  0  0  0  0  0
    5.1621   50.5621   28.3182 C   0  0  0  0  0  0  0  0  0  0  0  0
    5.3899   51.9535   28.1789 C   0  0  0  0  0  0  0  0  0  0  0  0
    3.8082   50.0760   28.3477 C   0  0  0  0  0  0  0  0  0  0  0  0
    4.2961   52.8052   28.1054 C   0  0  0  0  0  0  0  0  0  0  0  0
    2.7355   50.9954   28.2846 C   0  0  0  0  0  0  0  0  0  0  0  0
    3.5005   48.6761   28.4363 N   0  0  0  0  0  0  0  0  0  0  0  0
    4.2858   54.1808   27.9771 O   0  0  0  0  0  0  0  0  0  0  0  0
    3.0254   52.3469   28.1605 C   0  0  0  0  0  0  0  0  0  0  0  0
    4.0620   47.7858   27.5517 O   0  0  0  0  0  0  0  0  0  0  0  0
    2.5586   48.2915   29.1598 O   0  0  0  0  0  0  0  0  0  0  0  0
    2.9183   54.6121   27.9495 C   0  0  0  0  0  0  0  0  0  0  0  0
    2.1467   53.4093   28.0692 O   0  0  0  0  0  0  0  0  0  0  0  0
    8.8123   40.1845   34.2134 O   0  0  0  0  0  0  0  0  0  0  0  0
   11.2400   40.7954   33.3680 O   0  0  0  0  0  0  0  0  0  0  0  0
   10.9124   40.6877   31.9967 C   0  0  0  0  0  0  0  0  0  0  0  0
   11.5169   39.3811   31.4420 C   0  0  0  0  0  0  0  0  0  0  0  0
   12.7500   39.0881   32.0760 O   0  0  0  0  0  0  0  0  0  0  0  0
   10.6042   38.1893   31.6659 C   0  0  0  0  0  0  0  0  0  0  0  0
   12.9395   37.6814   32.0280 C   0  0  0  0  0  0  0  0  0  0  0  0
    9.6353   38.0951   30.6499 O   0  0  0  0  0  0  0  0  0  0  0  0
   11.5804   37.0191   31.6934 C   0  0  0  0  0  0  0  0  0  0  0  0
   13.4851   37.2119   33.3244 N   0  0  0  0  0  0  0  0  0  0  0  0
   11.6118   36.3189   30.4673 O   0  0  0  0  0  0  0  0  0  0  0  0
   14.4801   36.3316   33.5732 C   0  0  0  0  0  0  0  0  0  0  0  0
   13.1139   37.6277   34.5692 C   0  0  0  0  0  0  0  0  0  0  0  0
   15.2076   35.6154   32.6744 N   0  0  0  0  0  0  0  0  0  0  0  0
   14.6756   36.2303   34.9186 C   0  0  0  0  0  0  0  0  0  0  0  0
   13.8215   37.0451   35.5786 N   0  0  0  0  0  0  0  0  0  0  0  0
   16.1642   34.7602   33.1551 C   0  0  0  0  0  0  0  0  0  0  0  0
   15.6526   35.3505   35.4134 C   0  0  0  0  0  0  0  0  0  0  0  0
   16.3796   34.6316   34.5045 N   0  0  0  0  0  0  0  0  0  0  0  0
   15.9001   35.1933   36.8093 N   0  0  0  0  0  0  0  0  0  0  0  0
    8.9995   45.4383   33.6722 H   0  0  0  0  0  0  0  0  0  0  0  0
   10.7764   46.9368   33.0156 H   0  0  0  0  0  0  0  0  0  0  0  0
   11.0504   46.2277   34.4979 H   0  0  0  0  0  0  0  0  0  0  0  0
    9.3637   43.8351   31.4715 H   0  0  0  0  0  0  0  0  0  0  0  0
   10.7407   44.9068   31.1834 H   0  0  0  0  0  0  0  0  0  0  0  0
    7.0131   44.7166   31.5857 H   0  0  0  0  0  0  0  0  0  0  0  0
   10.3470   47.1867   30.4081 H   0  0  0  0  0  0  0  0  0  0  0  0
    5.4640   46.3046   30.5063 H   0  0  0  0  0  0  0  0  0  0  0  0
    8.8182   48.7648   29.3533 H   0  0  0  0  0  0  0  0  0  0  0  0
    7.1709   50.2539   28.9823 H   0  0  0  0  0  0  0  0  0  0  0  0
    7.2261   50.1694   26.5158 H   0  0  0  0  0  0  0  0  0  0  0  0
    7.7806   48.5901   27.1683 H   0  0  0  0  0  0  0  0  0  0  0  0
    6.1240   48.7458   26.4878 H   0  0  0  0  0  0  0  0  0  0  0  0
    6.3925   52.3611   28.1411 H   0  0  0  0  0  0  0  0  0  0  0  0
    1.7061   50.6616   28.3097 H   0  0  0  0  0  0  0  0  0  0  0  0
    2.6941   55.1170   26.9865 H   0  0  0  0  0  0  0  0  0  0  0  0
    2.7111   55.2871   28.8063 H   0  0  0  0  0  0  0  0  0  0  0  0
    9.8214   40.7221   31.7645 H   0  0  0  0  0  0  0  0  0  0  0  0
   11.3806   41.5456   31.4683 H   0  0  0  0  0  0  0  0  0  0  0  0
   11.6986   39.5088   30.3499 H   0  0  0  0  0  0  0  0  0  0  0  0
   10.1109   38.2737   32.6630 H   0  0  0  0  0  0  0  0  0  0  0  0
   13.6783   37.4562   31.2271 H   0  0  0  0  0  0  0  0  0  0  0  0
    9.0020   37.3860   30.9348 H   0  0  0  0  0  0  0  0  0  0  0  0
   11.2808   36.3052   32.4921 H   0  0  0  0  0  0  0  0  0  0  0  0
   11.8818   36.9600   29.7584 H   0  0  0  0  0  0  0  0  0  0  0  0
   12.3303   38.3538   34.7446 H   0  0  0  0  0  0  0  0  0  0  0  0
   16.7563   34.1783   32.4624 H   0  0  0  0  0  0  0  0  0  0  0  0
   16.6348   34.5301   37.1418 H   0  0  0  0  0  0  0  0  0  0  0  0
   15.3532   35.7359   37.5142 H   0  0  0  0  0  0  0  0  0  0  0  0
  1  2  2  0
  1  3  1  0
  3  4  1  0
  4  5  1  0
  6  1  1  0
  7  6  1  0
  6  8  1  0
  8  9  1  0
  9 10  2  0
 11  9  1  0
 10 12  1  0
 13 11  2  0
 12 14  2  0
 14 13  1  0
 14 15  1  0
 15 16  1  0
 16 17  1  0
 16 18  1  0
 18 19  2  0
 20 18  1  0
 19 21  1  0
 22 20  2  0
 20 23  1  0
 21 24  1  0
 21 25  2  0
 25 22  1  0
 23 26  1  0
 23 27  2  0
 24 28  1  0
 25 29  1  0
 28 29  1  0
  4 30  2  0
  4 31  1  0
 32 31  1  0
 32 33  1  0
 33 34  1  0
 33 35  1  0
 34 36  1  0
 35 37  1  0
 35 38  1  0
 38 36  1  0
 36 39  1  0
 38 40  1  0
 41 39  1  0
 42 39  1  0
 43 41  2  0
 41 44  1  0
 45 42  2  0
 46 43  1  0
 44 47  2  0
 44 45  1  0
 48 46  2  0
 48 47  1  0
 47 49  1  0
  6 50  1  1
  7 51  1  0
  7 52  1  0
  8 53  1  0
  8 54  1  0
 10 55  1  0
 11 56  1  0
 12 57  1  0
 13 58  1  0
 16 59  1  1
 17 60  1  0
 17 61  1  0
 17 62  1  0
 19 63  1  0
 22 64  1  0
 28 65  1  0
 28 66  1  0
 32 67  1  0
 32 68  1  0
 33 69  1  0
 35 70  1  0
 36 71  1  0
 37 72  1  0
 38 73  1  0
 40 74  1  0
 42 75  1  0
 46 76  1  0
 49 77  1  0
 49 78  1  0
M  CHG  3   5  -1  23   1  26  -1
M  END
>  <EmbedRMS>  (226) 
0.0813917732921

$$$$

     RDKit          3D

 78 83  0  0  0  0  0  0  0  0999 V2000
   10.2833   43.7662   33.8258 C   0  0  0  0  0  0  0  0  0  0  0  0
   11.4102   43.5930   34.3752 O   0  0  0  0  0  0  0  0  0  0  0  0
    9.3635   42.7257   33.7353 O   0  0  0  0  0  0  0  0  0  0  0  0
    9.8902   41.2268   34.2942 P   0  0  0  0  0  0  0  0  0  0  0  0
   10.3739   41.4559   35.8835 O   0  0  0  0  0  0  0  0  0  0  0  0
    9.9546   45.0695   33.2035 C   0  0  1  0  0  0  0  0  0  0  0  0
   11.0274   46.0321   33.4756 N   0  0  0  0  0  0  0  0  0  0  0  0
    9.7466   44.8479   31.6876 C   0  0  0  0  0  0  0  0  0  0  0  0
    8.7924   45.8404   31.0841 C   0  0  0  0  0  0  0  0  0  0  0  0
    7.4058   45.6016   31.0992 C   0  0  0  0  0  0  0  0  0  0  0  0
    9.2821   46.9876   30.4426 C   0  0  0  0  0  0  0  0  0  0  0  0
    6.5271   46.5036   30.4847 C   0  0  0  0  0  0  0  0  0  0  0  0
    8.4033   47.8906   29.8324 C   0  0  0  0  0  0  0  0  0  0  0  0
    7.0135   47.6527   29.8458 C   0  0  0  0  0  0  0  0  0  0  0  0
    6.0822   48.5216   29.2526 O   0  0  0  0  0  0  0  0  0  0  0  0
    6.3902   49.6767   28.4658 C   0  0  1  0  0  0  0  0  0  0  0  0
    6.8875   49.2534   27.0790 C   0  0  0  0  0  0  0  0  0  0  0  0
    5.1425   50.5282   28.3231 C   0  0  0  0  0  0  0  0  0  0  0  0
    3.9120   49.8836   28.0420 C   0  0  0  0  0  0  0  0  0  0  0  0
    5.1622   51.9531   28.4988 C   0  0  0  0  0  0  0  0  0  0  0  0
    2.7569   50.6521   27.9865 C   0  0  0  0  0  0  0  0  0  0  0  0
    3.9509   52.6795   28.4486 C   0  0  0  0  0  0  0  0  0  0  0  0
    6.3867   52.6758   28.7025 N   0  0  0  0  0  0  0  0  0  0  0  0
    1.4614   50.2391   27.7417 O   0  0  0  0  0  0  0  0  0  0  0  0
    2.7746   51.9897   28.1869 C   0  0  0  0  0  0  0  0  0  0  0  0
    6.3992   53.7797   29.5236 O   0  0  0  0  0  0  0  0  0  0  0  0
    7.3712   52.4638   27.9652 O   0  0  0  0  0  0  0  0  0  0  0  0
    0.6122   51.3937   27.7914 C   0  0  0  0  0  0  0  0  0  0  0  0
    1.4914   52.4900   28.0780 O   0  0  0  0  0  0  0  0  0  0  0  0
    8.8121   40.1851   34.2131 O   0  0  0  0  0  0  0  0  0  0  0  0
   11.2402   40.7951   33.3682 O   0  0  0  0  0  0  0  0  0  0  0  0
   10.9126   40.6877   31.9969 C   0  0  0  0  0  0  0  0  0  0  0  0
   11.5169   39.3811   31.4421 C   0  0  0  0  0  0  0  0  0  0  0  0
   12.7500   39.0881   32.0759 O   0  0  0  0  0  0  0  0  0  0  0  0
   10.6043   38.1893   31.6659 C   0  0  0  0  0  0  0  0  0  0  0  0
   12.9395   37.6814   32.0280 C   0  0  0  0  0  0  0  0  0  0  0  0
    9.6353   38.0951   30.6499 O   0  0  0  0  0  0  0  0  0  0  0  0
   11.5804   37.0191   31.6934 C   0  0  0  0  0  0  0  0  0  0  0  0
   13.4851   37.2119   33.3244 N   0  0  0  0  0  0  0  0  0  0  0  0
   11.6118   36.3189   30.4673 O   0  0  0  0  0  0  0  0  0  0  0  0
   14.4801   36.3316   33.5732 C   0  0  0  0  0  0  0  0  0  0  0  0
   13.1139   37.6277   34.5692 C   0  0  0  0  0  0  0  0  0  0  0  0
   15.2076   35.6154   32.6744 N   0  0  0  0  0  0  0  0  0  0  0  0
   14.6756   36.2303   34.9186 C   0  0  0  0  0  0  0  0  0  0  0  0
   13.8215   37.0451   35.5786 N   0  0  0  0  0  0  0  0  0  0  0  0
   16.1642   34.7602   33.1551 C   0  0  0  0  0  0  0  0  0  0  0  0
   15.6526   35.3505   35.4134 C   0  0  0  0  0  0  0  0  0  0  0  0
   16.3796   34.6316   34.5045 N   0  0  0  0  0  0  0  0  0  0  0  0
   15.9001   35.1933   36.8093 N   0  0  0  0  0  0  0  0  0  0  0  0
    9.0120   45.4318   33.6713 H   0  0  0  0  0  0  0  0  0  0  0  0
   11.8906   45.7658   32.9469 H   0  0  0  0  0  0  0  0  0  0  0  0
   10.7260   46.9687   33.1212 H   0  0  0  0  0  0  0  0  0  0  0  0
    9.3415   43.8327   31.4763 H   0  0  0  0  0  0  0  0  0  0  0  0
   10.7230   44.8812   31.1556 H   0  0  0  0  0  0  0  0  0  0  0  0
    7.0084   44.7171   31.5819 H   0  0  0  0  0  0  0  0  0  0  0  0
   10.3467   47.1852   30.4134 H   0  0  0  0  0  0  0  0  0  0  0  0
    5.4624   46.3076   30.5040 H   0  0  0  0  0  0  0  0  0  0  0  0
    8.8210   48.7657   29.3568 H   0  0  0  0  0  0  0  0  0  0  0  0
    7.1793   50.2554   28.9849 H   0  0  0  0  0  0  0  0  0  0  0  0
    6.1291   48.6206   26.5707 H   0  0  0  0  0  0  0  0  0  0  0  0
    7.0877   50.1482   26.4523 H   0  0  0  0  0  0  0  0  0  0  0  0
    7.8281   48.6720   27.1616 H   0  0  0  0  0  0  0  0  0  0  0  0
    3.8551   48.8132   27.8892 H   0  0  0  0  0  0  0  0  0  0  0  0
    3.9317   53.7536   28.5814 H   0  0  0  0  0  0  0  0  0  0  0  0
    0.1152   51.5474   26.8107 H   0  0  0  0  0  0  0  0  0  0  0  0
   -0.1391   51.2833   28.6013 H   0  0  0  0  0  0  0  0  0  0  0  0
   11.3808   41.5456   31.4686 H   0  0  0  0  0  0  0  0  0  0  0  0
    9.8216   40.7222   31.7647 H   0  0  0  0  0  0  0  0  0  0  0  0
   11.6986   39.5089   30.3499 H   0  0  0  0  0  0  0  0  0  0  0  0
   10.1109   38.2737   32.6630 H   0  0  0  0  0  0  0  0  0  0  0  0
   13.6783   37.4562   31.2271 H   0  0  0  0  0  0  0  0  0  0  0  0
    9.0020   37.3860   30.9348 H   0  0  0  0  0  0  0  0  0  0  0  0
   11.2807   36.3053   32.4921 H   0  0  0  0  0  0  0  0  0  0  0  0
   11.8818   36.9599   29.7584 H   0  0  0  0  0  0  0  0  0  0  0  0
   12.3303   38.3538   34.7445 H   0  0  0  0  0  0  0  0  0  0  0  0
   16.7563   34.1783   32.4623 H   0  0  0  0  0  0  0  0  0  0  0  0
   16.6348   34.5301   37.1418 H   0  0  0  0  0  0  0  0  0  0  0  0
   15.3532   35.7359   37.5142 H   0  0  0  0  0  0  0  0  0  0  0  0
  1  2  2  0
  1  3  1  0
  3  4  1  0
  4  5  1  0
  6  1  1  0
  7  6  1  0
  6  8  1  0
  8  9  1  0
  9 10  2  0
 11  9  1  0
 10 12  1  0
 13 11  2  0
 12 14  2  0
 14 13  1  0
 14 15  1  0
 15 16  1  0
 16 17  1  0
 16 18  1  0
 18 19  2  0
 20 18  1  0
 19 21  1  0
 22 20  2  0
 20 23  1  0
 21 24  1  0
 21 25  2  0
 25 22  1  0
 23 26  1  0
 23 27  2  0
 24 28  1  0
 25 29  1  0
 28 29  1  0
  4 30  2  0
  4 31  1  0
 32 31  1  0
 32 33  1  0
 33 34  1  0
 33 35  1  0
 34 36  1  0
 35 37  1  0
 35 38  1  0
 38 36  1  0
 36 39  1  0
 38 40  1  0
 41 39  1  0
 42 39  1  0
 43 41  2  0
 41 44  1  0
 45 42  2  0
 46 43  1  0
 44 47  2  0
 44 45  1  0
 48 46  2  0
 48 47  1  0
 47 49  1  0
  6 50  1  1
  7 51  1  0
  7 52  1  0
  8 53  1  0
  8 54  1  0
 10 55  1  0
 11 56  1  0
 12 57  1  0
 13 58  1  0
 16 59  1  1
 17 60  1  0
 17 61  1  0
 17 62  1  0
 19 63  1  0
 22 64  1  0
 28 65  1  0
 28 66  1  0
 32 67  1  0
 32 68  1  0
 33 69  1  0
 35 70  1  0
 36 71  1  0
 37 72  1  0
 38 73  1  0
 40 74  1  0
 42 75  1  0
 46 76  1  0
 49 77  1  0
 49 78  1  0
M  CHG  3   5  -1  23   1  26  -1
M  END
>  <EmbedRMS>  (227) 
0.0815654997988

$$$$

     RDKit          3D

 78 83  0  0  0  0  0  0  0  0999 V2000
   10.2838   43.7627   33.8277 C   0  0  0  0  0  0  0  0  0  0  0  0
   11.4103   43.5863   34.3766 O   0  0  0  0  0  0  0  0  0  0  0  0
    9.3628   42.7238   33.7357 O   0  0  0  0  0  0  0  0  0  0  0  0
    9.8890   41.2252   34.2949 P   0  0  0  0  0  0  0  0  0  0  0  0
   10.3723   41.4548   35.8843 O   0  0  0  0  0  0  0  0  0  0  0  0
    9.9549   45.0700   33.2065 C   0  0  1  0  0  0  0  0  0  0  0  0
   11.0199   46.0481   33.4572 N   0  0  0  0  0  0  0  0  0  0  0  0
    9.7506   44.8512   31.6924 C   0  0  0  0  0  0  0  0  0  0  0  0
    8.7945   45.8420   31.0871 C   0  0  0  0  0  0  0  0  0  0  0  0
    7.4079   45.6007   31.1003 C   0  0  0  0  0  0  0  0  0  0  0  0
    9.2826   46.9890   30.4445 C   0  0  0  0  0  0  0  0  0  0  0  0
    6.5255   46.4994   30.4847 C   0  0  0  0  0  0  0  0  0  0  0  0
    8.4009   47.8874   29.8329 C   0  0  0  0  0  0  0  0  0  0  0  0
    7.0189   47.6565   29.8461 C   0  0  0  0  0  0  0  0  0  0  0  0
    6.1884   48.5923   29.2069 O   0  0  0  0  0  0  0  0  0  0  0  0
    4.7584   48.5635   29.1666 C   0  0  1  0  0  0  0  0  0  0  0  0
    4.2078   49.0353   30.5217 C   0  0  0  0  0  0  0  0  0  0  0  0
    4.2951   49.3847   27.9643 C   0  0  0  0  0  0  0  0  0  0  0  0
    3.4002   50.4815   28.1130 C   0  0  0  0  0  0  0  0  0  0  0  0
    4.7962   49.0795   26.6506 C   0  0  0  0  0  0  0  0  0  0  0  0
    3.0599   51.2237   26.9901 C   0  0  0  0  0  0  0  0  0  0  0  0
    4.4226   49.8833   25.5492 C   0  0  0  0  0  0  0  0  0  0  0  0
    5.6933   47.9790   26.4206 N   0  0  0  0  0  0  0  0  0  0  0  0
    2.2212   52.3189   26.9083 O   0  0  0  0  0  0  0  0  0  0  0  0
    3.5511   50.9396   25.7641 C   0  0  0  0  0  0  0  0  0  0  0  0
    5.4198   46.7346   26.9380 O   0  0  0  0  0  0  0  0  0  0  0  0
    6.6182   48.0932   25.5898 O   0  0  0  0  0  0  0  0  0  0  0  0
    2.1851   52.7478   25.5404 C   0  0  0  0  0  0  0  0  0  0  0  0
    3.0486   51.8394   24.8438 O   0  0  0  0  0  0  0  0  0  0  0  0
    8.8112   40.1834   34.2131 O   0  0  0  0  0  0  0  0  0  0  0  0
   11.2398   40.7938   33.3702 O   0  0  0  0  0  0  0  0  0  0  0  0
   10.9144   40.6912   31.9983 C   0  0  0  0  0  0  0  0  0  0  0  0
   11.5270   39.3911   31.4385 C   0  0  0  0  0  0  0  0  0  0  0  0
   12.7520   39.0911   32.0835 O   0  0  0  0  0  0  0  0  0  0  0  0
   10.6114   38.1931   31.6451 C   0  0  0  0  0  0  0  0  0  0  0  0
   12.9413   37.6837   32.0297 C   0  0  0  0  0  0  0  0  0  0  0  0
    9.6064   38.0877   30.6599 O   0  0  0  0  0  0  0  0  0  0  0  0
   11.5822   37.0197   31.6876 C   0  0  0  0  0  0  0  0  0  0  0  0
   13.4840   37.2104   33.3254 N   0  0  0  0  0  0  0  0  0  0  0  0
   11.6179   36.3071   30.4690 O   0  0  0  0  0  0  0  0  0  0  0  0
   14.4797   36.3309   33.5738 C   0  0  0  0  0  0  0  0  0  0  0  0
   13.1136   37.6269   34.5702 C   0  0  0  0  0  0  0  0  0  0  0  0
   15.2074   35.6152   32.6747 N   0  0  0  0  0  0  0  0  0  0  0  0
   14.6756   36.2298   34.9190 C   0  0  0  0  0  0  0  0  0  0  0  0
   13.8217   37.0445   35.5793 N   0  0  0  0  0  0  0  0  0  0  0  0
   16.1643   34.7603   33.1551 C   0  0  0  0  0  0  0  0  0  0  0  0
   15.6528   35.3503   35.4136 C   0  0  0  0  0  0  0  0  0  0  0  0
   16.3798   34.6316   34.5046 N   0  0  0  0  0  0  0  0  0  0  0  0
   15.9004   35.1931   36.8094 N   0  0  0  0  0  0  0  0  0  0  0  0
    9.0099   45.4350   33.6670 H   0  0  0  0  0  0  0  0  0  0  0  0
   11.9350   45.6933   33.0929 H   0  0  0  0  0  0  0  0  0  0  0  0
   11.1133   46.1992   34.4885 H   0  0  0  0  0  0  0  0  0  0  0  0
   10.7310   44.8932   31.1677 H   0  0  0  0  0  0  0  0  0  0  0  0
    9.3518   43.8345   31.4759 H   0  0  0  0  0  0  0  0  0  0  0  0
    7.0132   44.7146   31.5824 H   0  0  0  0  0  0  0  0  0  0  0  0
   10.3467   47.1889   30.4142 H   0  0  0  0  0  0  0  0  0  0  0  0
    5.4691   46.2774   30.5145 H   0  0  0  0  0  0  0  0  0  0  0  0
    8.7944   48.7683   29.3415 H   0  0  0  0  0  0  0  0  0  0  0  0
    4.3953   47.5284   29.0056 H   0  0  0  0  0  0  0  0  0  0  0  0
    4.5930   48.3936   31.3403 H   0  0  0  0  0  0  0  0  0  0  0  0
    4.5264   50.0790   30.7293 H   0  0  0  0  0  0  0  0  0  0  0  0
    3.0995   48.9643   30.5362 H   0  0  0  0  0  0  0  0  0  0  0  0
    2.9781   50.7718   29.0635 H   0  0  0  0  0  0  0  0  0  0  0  0
    4.7900   49.6785   24.5518 H   0  0  0  0  0  0  0  0  0  0  0  0
    1.1514   52.6754   25.1422 H   0  0  0  0  0  0  0  0  0  0  0  0
    2.5698   53.7855   25.4529 H   0  0  0  0  0  0  0  0  0  0  0  0
    9.8235   40.7202   31.7651 H   0  0  0  0  0  0  0  0  0  0  0  0
   11.3781   41.5548   31.4751 H   0  0  0  0  0  0  0  0  0  0  0  0
   11.7311   39.5363   30.3531 H   0  0  0  0  0  0  0  0  0  0  0  0
   10.1203   38.2695   32.6410 H   0  0  0  0  0  0  0  0  0  0  0  0
   13.6850   37.4638   31.2321 H   0  0  0  0  0  0  0  0  0  0  0  0
   10.0251   38.1792   29.7654 H   0  0  0  0  0  0  0  0  0  0  0  0
   11.2757   36.3135   32.4907 H   0  0  0  0  0  0  0  0  0  0  0  0
   11.9839   36.9110   29.7708 H   0  0  0  0  0  0  0  0  0  0  0  0
   12.3307   38.3536   34.7457 H   0  0  0  0  0  0  0  0  0  0  0  0
   16.7566   34.1787   32.4623 H   0  0  0  0  0  0  0  0  0  0  0  0
   16.6353   34.5301   37.1419 H   0  0  0  0  0  0  0  0  0  0  0  0
   15.3535   35.7355   37.5144 H   0  0  0  0  0  0  0  0  0  0  0  0
  1  2  2  0
  1  3  1  0
  3  4  1  0
  4  5  1  0
  6  1  1  0
  7  6  1  0
  6  8  1  0
  8  9  1  0
  9 10  2  0
 11  9  1  0
 10 12  1  0
 13 11  2  0
 12 14  2  0
 14 13  1  0
 14 15  1  0
 15 16  1  0
 16 17  1  0
 16 18  1  0
 18 19  2  0
 20 18  1  0
 19 21  1  0
 22 20  2  0
 20 23  1  0
 21 24  1  0
 21 25  2  0
 25 22  1  0
 23 26  1  0
 23 27  2  0
 24 28  1  0
 25 29  1  0
 28 29  1  0
  4 30  2  0
  4 31  1  0
 32 31  1  0
 32 33  1  0
 33 34  1  0
 33 35  1  0
 34 36  1  0
 35 37  1  0
 35 38  1  0
 38 36  1  0
 36 39  1  0
 38 40  1  0
 41 39  1  0
 42 39  1  0
 43 41  2  0
 41 44  1  0
 45 42  2  0
 46 43  1  0
 44 47  2  0
 44 45  1  0
 48 46  2  0
 48 47  1  0
 47 49  1  0
  6 50  1  1
  7 51  1  0
  7 52  1  0
  8 53  1  0
  8 54  1  0
 10 55  1  0
 11 56  1  0
 12 57  1  0
 13 58  1  0
 16 59  1  6
 17 60  1  0
 17 61  1  0
 17 62  1  0
 19 63  1  0
 22 64  1  0
 28 65  1  0
 28 66  1  0
 32 67  1  0
 32 68  1  0
 33 69  1  0
 35 70  1  0
 36 71  1  0
 37 72  1  0
 38 73  1  0
 40 74  1  0
 42 75  1  0
 46 76  1  0
 49 77  1  0
 49 78  1  0
M  CHG  3   5  -1  23   1  26  -1
M  END
>  <EmbedRMS>  (228) 
0.0817170659897

$$$$

     RDKit          3D

 78 83  0  0  0  0  0  0  0  0999 V2000
   10.2812   43.7659   33.8231 C   0  0  0  0  0  0  0  0  0  0  0  0
   11.4115   43.5913   34.3653 O   0  0  0  0  0  0  0  0  0  0  0  0
    9.3626   42.7247   33.7338 O   0  0  0  0  0  0  0  0  0  0  0  0
    9.8916   41.2266   34.2940 P   0  0  0  0  0  0  0  0  0  0  0  0
   10.3745   41.4567   35.8836 O   0  0  0  0  0  0  0  0  0  0  0  0
    9.9467   45.0733   33.2096 C   0  0  1  0  0  0  0  0  0  0  0  0
   11.0266   46.0286   33.4709 N   0  0  0  0  0  0  0  0  0  0  0  0
    9.7562   44.8547   31.6931 C   0  0  0  0  0  0  0  0  0  0  0  0
    8.7972   45.8396   31.0804 C   0  0  0  0  0  0  0  0  0  0  0  0
    7.4102   45.5984   31.0980 C   0  0  0  0  0  0  0  0  0  0  0  0
    9.2830   46.9908   30.4417 C   0  0  0  0  0  0  0  0  0  0  0  0
    6.5287   46.4979   30.4851 C   0  0  0  0  0  0  0  0  0  0  0  0
    8.3991   47.8961   29.8415 C   0  0  0  0  0  0  0  0  0  0  0  0
    7.0156   47.6454   29.8466 C   0  0  0  0  0  0  0  0  0  0  0  0
    6.0963   48.5331   29.2729 O   0  0  0  0  0  0  0  0  0  0  0  0
    5.9972   48.8747   27.8807 C   0  0  1  0  0  0  0  0  0  0  0  0
    7.1904   49.6967   27.3822 C   0  0  0  0  0  0  0  0  0  0  0  0
    5.7348   47.6497   27.0066 C   0  0  0  0  0  0  0  0  0  0  0  0
    6.7452   46.6625   26.8781 C   0  0  0  0  0  0  0  0  0  0  0  0
    4.4789   47.4458   26.3391 C   0  0  0  0  0  0  0  0  0  0  0  0
    6.4778   45.5252   26.1268 C   0  0  0  0  0  0  0  0  0  0  0  0
    4.2591   46.2590   25.6033 C   0  0  0  0  0  0  0  0  0  0  0  0
    3.4293   48.4222   26.3797 N   0  0  0  0  0  0  0  0  0  0  0  0
    7.3094   44.4511   25.8667 O   0  0  0  0  0  0  0  0  0  0  0  0
    5.2866   45.3304   25.5188 C   0  0  0  0  0  0  0  0  0  0  0  0
    2.1274   48.0115   26.5608 O   0  0  0  0  0  0  0  0  0  0  0  0
    3.6440   49.5850   25.9719 O   0  0  0  0  0  0  0  0  0  0  0  0
    6.5935   43.5279   25.0331 C   0  0  0  0  0  0  0  0  0  0  0  0
    5.3038   44.1243   24.8395 O   0  0  0  0  0  0  0  0  0  0  0  0
    8.8127   40.1860   34.2113 O   0  0  0  0  0  0  0  0  0  0  0  0
   11.2418   40.7948   33.3682 O   0  0  0  0  0  0  0  0  0  0  0  0
   10.9158   40.6897   31.9963 C   0  0  0  0  0  0  0  0  0  0  0  0
   11.5168   39.3808   31.4413 C   0  0  0  0  0  0  0  0  0  0  0  0
   12.7480   39.0860   32.0766 O   0  0  0  0  0  0  0  0  0  0  0  0
   10.6033   38.1890   31.6665 C   0  0  0  0  0  0  0  0  0  0  0  0
   12.9333   37.6794   32.0305 C   0  0  0  0  0  0  0  0  0  0  0  0
    9.6414   38.0755   30.6444 O   0  0  0  0  0  0  0  0  0  0  0  0
   11.5732   37.0167   31.7052 C   0  0  0  0  0  0  0  0  0  0  0  0
   13.4851   37.2126   33.3250 N   0  0  0  0  0  0  0  0  0  0  0  0
   11.6080   36.3408   30.4677 O   0  0  0  0  0  0  0  0  0  0  0  0
   14.4806   36.3327   33.5727 C   0  0  0  0  0  0  0  0  0  0  0  0
   13.1140   37.6264   34.5704 C   0  0  0  0  0  0  0  0  0  0  0  0
   15.2068   35.6156   32.6736 N   0  0  0  0  0  0  0  0  0  0  0  0
   14.6760   36.2290   34.9183 C   0  0  0  0  0  0  0  0  0  0  0  0
   13.8210   37.0415   35.5793 N   0  0  0  0  0  0  0  0  0  0  0  0
   16.1654   34.7618   33.1537 C   0  0  0  0  0  0  0  0  0  0  0  0
   15.6528   35.3504   35.4118 C   0  0  0  0  0  0  0  0  0  0  0  0
   16.3819   34.6330   34.5029 N   0  0  0  0  0  0  0  0  0  0  0  0
   15.8946   35.2005   36.8083 N   0  0  0  0  0  0  0  0  0  0  0  0
    9.0015   45.4395   33.6690 H   0  0  0  0  0  0  0  0  0  0  0  0
   10.7775   46.9360   33.0150 H   0  0  0  0  0  0  0  0  0  0  0  0
   11.0502   46.2275   34.4984 H   0  0  0  0  0  0  0  0  0  0  0  0
    9.3704   43.8349   31.4706 H   0  0  0  0  0  0  0  0  0  0  0  0
   10.7437   44.9108   31.1845 H   0  0  0  0  0  0  0  0  0  0  0  0
    7.0159   44.7144   31.5819 H   0  0  0  0  0  0  0  0  0  0  0  0
   10.3454   47.1981   30.4226 H   0  0  0  0  0  0  0  0  0  0  0  0
    5.4647   46.3009   30.5011 H   0  0  0  0  0  0  0  0  0  0  0  0
    8.7962   48.8020   29.4088 H   0  0  0  0  0  0  0  0  0  0  0  0
    5.1357   49.5651   27.8291 H   0  0  0  0  0  0  0  0  0  0  0  0
    6.9422   50.1606   26.4011 H   0  0  0  0  0  0  0  0  0  0  0  0
    8.0972   49.0739   27.2421 H   0  0  0  0  0  0  0  0  0  0  0  0
    7.4138   50.5150   28.1042 H   0  0  0  0  0  0  0  0  0  0  0  0
    7.7122   46.7683   27.3447 H   0  0  0  0  0  0  0  0  0  0  0  0
    3.3225   46.0774   25.0903 H   0  0  0  0  0  0  0  0  0  0  0  0
    7.1118   43.4075   24.0568 H   0  0  0  0  0  0  0  0  0  0  0  0
    6.4893   42.5480   25.5416 H   0  0  0  0  0  0  0  0  0  0  0  0
   11.3942   41.5443   31.4720 H   0  0  0  0  0  0  0  0  0  0  0  0
    9.8261   40.7399   31.7595 H   0  0  0  0  0  0  0  0  0  0  0  0
   11.6975   39.5069   30.3484 H   0  0  0  0  0  0  0  0  0  0  0  0
   10.1076   38.2627   32.6637 H   0  0  0  0  0  0  0  0  0  0  0  0
   13.6643   37.4501   31.2232 H   0  0  0  0  0  0  0  0  0  0  0  0
    8.9009   38.6924   30.8811 H   0  0  0  0  0  0  0  0  0  0  0  0
   11.2642   36.3082   32.5082 H   0  0  0  0  0  0  0  0  0  0  0  0
   12.1367   35.5134   30.6178 H   0  0  0  0  0  0  0  0  0  0  0  0
   12.3304   38.3523   34.7470 H   0  0  0  0  0  0  0  0  0  0  0  0
   16.7559   34.1786   32.4603 H   0  0  0  0  0  0  0  0  0  0  0  0
   16.6348   34.5555   37.1581 H   0  0  0  0  0  0  0  0  0  0  0  0
   16.6390   34.5514   37.1527 H   0  0  0  0  0  0  0  0  0  0  0  0
  1  2  2  0
  1  3  1  0
  3  4  1  0
  4  5  1  0
  6  1  1  0
  7  6  1  0
  6  8  1  0
  8  9  1  0
  9 10  2  0
 11  9  1  0
 10 12  1  0
 13 11  2  0
 12 14  2  0
 14 13  1  0
 14 15  1  0
 15 16  1  0
 16 17  1  0
 16 18  1  0
 18 19  2  0
 20 18  1  0
 19 21  1  0
 22 20  2  0
 20 23  1  0
 21 24  1  0
 21 25  2  0
 25 22  1  0
 23 26  1  0
 23 27  2  0
 24 28  1  0
 25 29  1  0
 28 29  1  0
  4 30  2  0
  4 31  1  0
 32 31  1  0
 32 33  1  0
 33 34  1  0
 33 35  1  0
 34 36  1  0
 35 37  1  0
 35 38  1  0
 38 36  1  0
 36 39  1  0
 38 40  1  0
 41 39  1  0
 42 39  1  0
 43 41  2  0
 41 44  1  0
 45 42  2  0
 46 43  1  0
 44 47  2  0
 44 45  1  0
 48 46  2  0
 48 47  1  0
 47 49  1  0
  6 50  1  1
  7 51  1  0
  7 52  1  0
  8 53  1  0
  8 54  1  0
 10 55  1  0
 11 56  1  0
 12 57  1  0
 13 58  1  0
 16 59  1  1
 17 60  1  0
 17 61  1  0
 17 62  1  0
 19 63  1  0
 22 64  1  0
 28 65  1  0
 28 66  1  0
 32 67  1  0
 32 68  1  0
 33 69  1  0
 35 70  1  0
 36 71  1  0
 37 72  1  0
 38 73  1  0
 40 74  1  0
 42 75  1  0
 46 76  1  0
 49 77  1  0
 49 78  1  0
M  CHG  3   5  -1  23   1  26  -1
M  END
>  <EmbedRMS>  (229) 
0.0829721414868

$$$$

     RDKit          3D

 78 83  0  0  0  0  0  0  0  0999 V2000
   10.2834   43.7662   33.8256 C   0  0  0  0  0  0  0  0  0  0  0  0
   11.4101   43.5931   34.3752 O   0  0  0  0  0  0  0  0  0  0  0  0
    9.3637   42.7255   33.7348 O   0  0  0  0  0  0  0  0  0  0  0  0
    9.8907   41.2266   34.2933 P   0  0  0  0  0  0  0  0  0  0  0  0
   10.3743   41.4557   35.8827 O   0  0  0  0  0  0  0  0  0  0  0  0
    9.9546   45.0696   33.2035 C   0  0  1  0  0  0  0  0  0  0  0  0
   11.0272   46.0323   33.4756 N   0  0  0  0  0  0  0  0  0  0  0  0
    9.7466   44.8481   31.6876 C   0  0  0  0  0  0  0  0  0  0  0  0
    8.7924   45.8407   31.0842 C   0  0  0  0  0  0  0  0  0  0  0  0
    7.4056   45.6012   31.0985 C   0  0  0  0  0  0  0  0  0  0  0  0
    9.2824   46.9875   30.4418 C   0  0  0  0  0  0  0  0  0  0  0  0
    6.5268   46.5028   30.4835 C   0  0  0  0  0  0  0  0  0  0  0  0
    8.4034   47.8895   29.8311 C   0  0  0  0  0  0  0  0  0  0  0  0
    7.0138   47.6539   29.8496 C   0  0  0  0  0  0  0  0  0  0  0  0
    6.0865   48.5321   29.2643 O   0  0  0  0  0  0  0  0  0  0  0  0
    6.4083   49.7775   28.6411 C   0  0  1  0  0  0  0  0  0  0  0  0
    5.1888   50.3140   27.8924 C   0  0  0  0  0  0  0  0  0  0  0  0
    6.9206   50.8088   29.6363 C   0  0  0  0  0  0  0  0  0  0  0  0
    7.8701   51.7463   29.1622 C   0  0  0  0  0  0  0  0  0  0  0  0
    6.5312   50.8470   31.0207 C   0  0  0  0  0  0  0  0  0  0  0  0
    8.4146   52.6558   30.0583 C   0  0  0  0  0  0  0  0  0  0  0  0
    7.1331   51.7880   31.8878 C   0  0  0  0  0  0  0  0  0  0  0  0
    5.5502   49.9500   31.5644 N   0  0  0  0  0  0  0  0  0  0  0  0
    9.3526   53.6415   29.8182 O   0  0  0  0  0  0  0  0  0  0  0  0
    8.0649   52.6732   31.3641 C   0  0  0  0  0  0  0  0  0  0  0  0
    4.3253   49.8079   30.9571 O   0  0  0  0  0  0  0  0  0  0  0  0
    5.7194   49.4576   32.6990 O   0  0  0  0  0  0  0  0  0  0  0  0
    9.6064   54.3210   31.0553 C   0  0  0  0  0  0  0  0  0  0  0  0
    8.7632   53.6711   32.0162 O   0  0  0  0  0  0  0  0  0  0  0  0
    8.8123   40.1851   34.2127 O   0  0  0  0  0  0  0  0  0  0  0  0
   11.2407   40.7945   33.3671 O   0  0  0  0  0  0  0  0  0  0  0  0
   10.9135   40.6866   31.9954 C   0  0  0  0  0  0  0  0  0  0  0  0
   11.5167   39.3787   31.4404 C   0  0  0  0  0  0  0  0  0  0  0  0
   12.7486   39.0849   32.0734 O   0  0  0  0  0  0  0  0  0  0  0  0
   10.6039   38.1884   31.6669 C   0  0  0  0  0  0  0  0  0  0  0  0
   12.9329   37.6776   32.0284 C   0  0  0  0  0  0  0  0  0  0  0  0
    9.6374   38.0938   30.6485 O   0  0  0  0  0  0  0  0  0  0  0  0
   11.5737   37.0141   31.7055 C   0  0  0  0  0  0  0  0  0  0  0  0
   13.4853   37.2120   33.3238 N   0  0  0  0  0  0  0  0  0  0  0  0
   11.6210   36.3379   30.4683 O   0  0  0  0  0  0  0  0  0  0  0  0
   14.4804   36.3319   33.5727 C   0  0  0  0  0  0  0  0  0  0  0  0
   13.1140   37.6275   34.5689 C   0  0  0  0  0  0  0  0  0  0  0  0
   15.2075   35.6152   32.6740 N   0  0  0  0  0  0  0  0  0  0  0  0
   14.6760   36.2306   34.9181 C   0  0  0  0  0  0  0  0  0  0  0  0
   13.8218   37.0451   35.5783 N   0  0  0  0  0  0  0  0  0  0  0  0
   16.1641   34.7600   33.1548 C   0  0  0  0  0  0  0  0  0  0  0  0
   15.6527   35.3506   35.4131 C   0  0  0  0  0  0  0  0  0  0  0  0
   16.3795   34.6315   34.5043 N   0  0  0  0  0  0  0  0  0  0  0  0
   15.9000   35.1933   36.8090 N   0  0  0  0  0  0  0  0  0  0  0  0
    9.0119   45.4318   33.6713 H   0  0  0  0  0  0  0  0  0  0  0  0
   10.7256   46.9689   33.1215 H   0  0  0  0  0  0  0  0  0  0  0  0
   11.8904   45.7662   32.9468 H   0  0  0  0  0  0  0  0  0  0  0  0
   10.7230   44.8814   31.1557 H   0  0  0  0  0  0  0  0  0  0  0  0
    9.3416   43.8329   31.4762 H   0  0  0  0  0  0  0  0  0  0  0  0
    7.0084   44.7167   31.5811 H   0  0  0  0  0  0  0  0  0  0  0  0
   10.3470   47.1845   30.4110 H   0  0  0  0  0  0  0  0  0  0  0  0
    5.4618   46.3090   30.5050 H   0  0  0  0  0  0  0  0  0  0  0  0
    8.8173   48.7632   29.3483 H   0  0  0  0  0  0  0  0  0  0  0  0
    7.1875   49.5807   27.8707 H   0  0  0  0  0  0  0  0  0  0  0  0
    5.4678   51.2172   27.3086 H   0  0  0  0  0  0  0  0  0  0  0  0
    4.8137   49.5436   27.1858 H   0  0  0  0  0  0  0  0  0  0  0  0
    4.3710   50.5841   28.5896 H   0  0  0  0  0  0  0  0  0  0  0  0
    8.1866   51.7555   28.1266 H   0  0  0  0  0  0  0  0  0  0  0  0
    6.8672   51.8380   32.9359 H   0  0  0  0  0  0  0  0  0  0  0  0
   10.6727   54.2089   31.3433 H   0  0  0  0  0  0  0  0  0  0  0  0
    9.3321   55.3932   30.9679 H   0  0  0  0  0  0  0  0  0  0  0  0
   11.3828   41.5439   31.4670 H   0  0  0  0  0  0  0  0  0  0  0  0
    9.8226   40.7226   31.7631 H   0  0  0  0  0  0  0  0  0  0  0  0
   11.6979   39.5037   30.3478 H   0  0  0  0  0  0  0  0  0  0  0  0
   10.1084   38.2786   32.6627 H   0  0  0  0  0  0  0  0  0  0  0  0
   13.6639   37.4472   31.2215 H   0  0  0  0  0  0  0  0  0  0  0  0
    8.9763   37.4191   30.9532 H   0  0  0  0  0  0  0  0  0  0  0  0
   11.2821   36.3054   32.5171 H   0  0  0  0  0  0  0  0  0  0  0  0
   10.8659   35.6935   30.4652 H   0  0  0  0  0  0  0  0  0  0  0  0
   12.3293   38.3523   34.7444 H   0  0  0  0  0  0  0  0  0  0  0  0
   16.7561   34.1778   32.4621 H   0  0  0  0  0  0  0  0  0  0  0  0
   15.3533   35.7361   37.5139 H   0  0  0  0  0  0  0  0  0  0  0  0
   16.6345   34.5300   37.1416 H   0  0  0  0  0  0  0  0  0  0  0  0
  1  2  2  0
  1  3  1  0
  3  4  1  0
  4  5  1  0
  6  1  1  0
  7  6  1  0
  6  8  1  0
  8  9  1  0
  9 10  2  0
 11  9  1  0
 10 12  1  0
 13 11  2  0
 12 14  2  0
 14 13  1  0
 14 15  1  0
 15 16  1  0
 16 17  1  0
 16 18  1  0
 18 19  2  0
 20 18  1  0
 19 21  1  0
 22 20  2  0
 20 23  1  0
 21 24  1  0
 21 25  2  0
 25 22  1  0
 23 26  1  0
 23 27  2  0
 24 28  1  0
 25 29  1  0
 28 29  1  0
  4 30  2  0
  4 31  1  0
 32 31  1  0
 32 33  1  0
 33 34  1  0
 33 35  1  0
 34 36  1  0
 35 37  1  0
 35 38  1  0
 38 36  1  0
 36 39  1  0
 38 40  1  0
 41 39  1  0
 42 39  1  0
 43 41  2  0
 41 44  1  0
 45 42  2  0
 46 43  1  0
 44 47  2  0
 44 45  1  0
 48 46  2  0
 48 47  1  0
 47 49  1  0
  6 50  1  1
  7 51  1  0
  7 52  1  0
  8 53  1  0
  8 54  1  0
 10 55  1  0
 11 56  1  0
 12 57  1  0
 13 58  1  0
 16 59  1  6
 17 60  1  0
 17 61  1  0
 17 62  1  0
 19 63  1  0
 22 64  1  0
 28 65  1  0
 28 66  1  0
 32 67  1  0
 32 68  1  0
 33 69  1  0
 35 70  1  0
 36 71  1  0
 37 72  1  0
 38 73  1  0
 40 74  1  0
 42 75  1  0
 46 76  1  0
 49 77  1  0
 49 78  1  0
M  CHG  3   5  -1  23   1  26  -1
M  END
>  <EmbedRMS>  (230) 
0.082572384891

$$$$

     RDKit          3D

 78 83  0  0  0  0  0  0  0  0999 V2000
   10.2806   43.7663   33.8249 C   0  0  0  0  0  0  0  0  0  0  0  0
   11.4112   43.5918   34.3667 O   0  0  0  0  0  0  0  0  0  0  0  0
    9.3622   42.7247   33.7342 O   0  0  0  0  0  0  0  0  0  0  0  0
    9.8904   41.2264   34.2936 P   0  0  0  0  0  0  0  0  0  0  0  0
   10.3731   41.4565   35.8832 O   0  0  0  0  0  0  0  0  0  0  0  0
    9.9460   45.0736   33.2112 C   0  0  1  0  0  0  0  0  0  0  0  0
   11.0267   46.0292   33.4709 N   0  0  0  0  0  0  0  0  0  0  0  0
    9.7540   44.8542   31.6949 C   0  0  0  0  0  0  0  0  0  0  0  0
    8.7958   45.8413   31.0850 C   0  0  0  0  0  0  0  0  0  0  0  0
    7.4092   45.6002   31.1010 C   0  0  0  0  0  0  0  0  0  0  0  0
    9.2824   46.9877   30.4397 C   0  0  0  0  0  0  0  0  0  0  0  0
    6.5257   46.4985   30.4859 C   0  0  0  0  0  0  0  0  0  0  0  0
    8.3997   47.8867   29.8308 C   0  0  0  0  0  0  0  0  0  0  0  0
    7.0178   47.6557   29.8466 C   0  0  0  0  0  0  0  0  0  0  0  0
    6.1862   48.5916   29.2089 O   0  0  0  0  0  0  0  0  0  0  0  0
    4.7561   48.5636   29.1725 C   0  0  1  0  0  0  0  0  0  0  0  0
    4.2092   49.0347   30.5293 C   0  0  0  0  0  0  0  0  0  0  0  0
    4.2908   49.3860   27.9714 C   0  0  0  0  0  0  0  0  0  0  0  0
    3.4112   50.4944   28.1261 C   0  0  0  0  0  0  0  0  0  0  0  0
    4.7758   49.0720   26.6525 C   0  0  0  0  0  0  0  0  0  0  0  0
    3.0698   51.2387   27.0050 C   0  0  0  0  0  0  0  0  0  0  0  0
    4.4027   49.8792   25.5543 C   0  0  0  0  0  0  0  0  0  0  0  0
    5.6594   47.9631   26.4099 N   0  0  0  0  0  0  0  0  0  0  0  0
    2.2442   52.3443   26.9289 O   0  0  0  0  0  0  0  0  0  0  0  0
    3.5463   50.9465   25.7753 C   0  0  0  0  0  0  0  0  0  0  0  0
    6.6350   48.0660   25.4452 O   0  0  0  0  0  0  0  0  0  0  0  0
    5.4285   46.8444   26.9118 O   0  0  0  0  0  0  0  0  0  0  0  0
    2.2011   52.7713   25.5606 C   0  0  0  0  0  0  0  0  0  0  0  0
    3.0469   51.8510   24.8579 O   0  0  0  0  0  0  0  0  0  0  0  0
    8.8129   40.1841   34.2124 O   0  0  0  0  0  0  0  0  0  0  0  0
   11.2419   40.7943   33.3695 O   0  0  0  0  0  0  0  0  0  0  0  0
   10.9186   40.6911   31.9969 C   0  0  0  0  0  0  0  0  0  0  0  0
   11.5172   39.3814   31.4407 C   0  0  0  0  0  0  0  0  0  0  0  0
   12.7492   39.0856   32.0728 O   0  0  0  0  0  0  0  0  0  0  0  0
   10.6023   38.1908   31.6665 C   0  0  0  0  0  0  0  0  0  0  0  0
   12.9319   37.6781   32.0281 C   0  0  0  0  0  0  0  0  0  0  0  0
    9.6392   38.0797   30.6452 O   0  0  0  0  0  0  0  0  0  0  0  0
   11.5715   37.0165   31.7056 C   0  0  0  0  0  0  0  0  0  0  0  0
   13.4846   37.2121   33.3235 N   0  0  0  0  0  0  0  0  0  0  0  0
   11.6187   36.3384   30.4695 O   0  0  0  0  0  0  0  0  0  0  0  0
   14.4801   36.3321   33.5724 C   0  0  0  0  0  0  0  0  0  0  0  0
   13.1137   37.6275   34.5688 C   0  0  0  0  0  0  0  0  0  0  0  0
   15.2073   35.6153   32.6738 N   0  0  0  0  0  0  0  0  0  0  0  0
   14.6759   36.2308   34.9179 C   0  0  0  0  0  0  0  0  0  0  0  0
   13.8216   37.0452   35.5781 N   0  0  0  0  0  0  0  0  0  0  0  0
   16.1640   34.7602   33.1546 C   0  0  0  0  0  0  0  0  0  0  0  0
   15.6526   35.3508   35.4129 C   0  0  0  0  0  0  0  0  0  0  0  0
   16.3794   34.6317   34.5041 N   0  0  0  0  0  0  0  0  0  0  0  0
   15.8999   35.1935   36.8088 N   0  0  0  0  0  0  0  0  0  0  0  0
    8.9996   45.4380   33.6722 H   0  0  0  0  0  0  0  0  0  0  0  0
   11.0502   46.2277   34.4983 H   0  0  0  0  0  0  0  0  0  0  0  0
   10.7764   46.9369   33.0160 H   0  0  0  0  0  0  0  0  0  0  0  0
    9.3646   43.8355   31.4710 H   0  0  0  0  0  0  0  0  0  0  0  0
   10.7412   44.9080   31.1836 H   0  0  0  0  0  0  0  0  0  0  0  0
    7.0154   44.7149   31.5852 H   0  0  0  0  0  0  0  0  0  0  0  0
   10.3463   47.1872   30.4047 H   0  0  0  0  0  0  0  0  0  0  0  0
    5.4694   46.2763   30.5174 H   0  0  0  0  0  0  0  0  0  0  0  0
    8.7924   48.7674   29.3384 H   0  0  0  0  0  0  0  0  0  0  0  0
    4.3915   47.5286   29.0124 H   0  0  0  0  0  0  0  0  0  0  0  0
    4.5899   48.3875   31.3456 H   0  0  0  0  0  0  0  0  0  0  0  0
    4.5356   50.0753   30.7407 H   0  0  0  0  0  0  0  0  0  0  0  0
    3.1003   48.9719   30.5437 H   0  0  0  0  0  0  0  0  0  0  0  0
    3.0020   50.7924   29.0798 H   0  0  0  0  0  0  0  0  0  0  0  0
    4.7579   49.6689   24.5536 H   0  0  0  0  0  0  0  0  0  0  0  0
    1.1630   52.7111   25.1719 H   0  0  0  0  0  0  0  0  0  0  0  0
    2.5979   53.8040   25.4678 H   0  0  0  0  0  0  0  0  0  0  0  0
   11.3968   41.5459   31.4726 H   0  0  0  0  0  0  0  0  0  0  0  0
    9.8299   40.7410   31.7611 H   0  0  0  0  0  0  0  0  0  0  0  0
   11.6975   39.5066   30.3481 H   0  0  0  0  0  0  0  0  0  0  0  0
   10.1077   38.2648   32.6646 H   0  0  0  0  0  0  0  0  0  0  0  0
   13.6621   37.4468   31.2209 H   0  0  0  0  0  0  0  0  0  0  0  0
    8.8974   38.6943   30.8832 H   0  0  0  0  0  0  0  0  0  0  0  0
   11.2806   36.3073   32.5170 H   0  0  0  0  0  0  0  0  0  0  0  0
   10.8493   35.7110   30.4586 H   0  0  0  0  0  0  0  0  0  0  0  0
   12.3290   38.3524   34.7444 H   0  0  0  0  0  0  0  0  0  0  0  0
   16.7559   34.1780   32.4619 H   0  0  0  0  0  0  0  0  0  0  0  0
   15.3531   35.7362   37.5137 H   0  0  0  0  0  0  0  0  0  0  0  0
   16.6344   34.5301   37.1414 H   0  0  0  0  0  0  0  0  0  0  0  0
  1  2  2  0
  1  3  1  0
  3  4  1  0
  4  5  1  0
  6  1  1  0
  7  6  1  0
  6  8  1  0
  8  9  1  0
  9 10  2  0
 11  9  1  0
 10 12  1  0
 13 11  2  0
 12 14  2  0
 14 13  1  0
 14 15  1  0
 15 16  1  0
 16 17  1  0
 16 18  1  0
 18 19  2  0
 20 18  1  0
 19 21  1  0
 22 20  2  0
 20 23  1  0
 21 24  1  0
 21 25  2  0
 25 22  1  0
 23 26  1  0
 23 27  2  0
 24 28  1  0
 25 29  1  0
 28 29  1  0
  4 30  2  0
  4 31  1  0
 32 31  1  0
 32 33  1  0
 33 34  1  0
 33 35  1  0
 34 36  1  0
 35 37  1  0
 35 38  1  0
 38 36  1  0
 36 39  1  0
 38 40  1  0
 41 39  1  0
 42 39  1  0
 43 41  2  0
 41 44  1  0
 45 42  2  0
 46 43  1  0
 44 47  2  0
 44 45  1  0
 48 46  2  0
 48 47  1  0
 47 49  1  0
  6 50  1  1
  7 51  1  0
  7 52  1  0
  8 53  1  0
  8 54  1  0
 10 55  1  0
 11 56  1  0
 12 57  1  0
 13 58  1  0
 16 59  1  6
 17 60  1  0
 17 61  1  0
 17 62  1  0
 19 63  1  0
 22 64  1  0
 28 65  1  0
 28 66  1  0
 32 67  1  0
 32 68  1  0
 33 69  1  0
 35 70  1  0
 36 71  1  0
 37 72  1  0
 38 73  1  0
 40 74  1  0
 42 75  1  0
 46 76  1  0
 49 77  1  0
 49 78  1  0
M  CHG  3   5  -1  23   1  26  -1
M  END
>  <EmbedRMS>  (231) 
0.0827468535115

$$$$

     RDKit          3D

 78 83  0  0  0  0  0  0  0  0999 V2000
   10.2835   43.7661   33.8255 C   0  0  0  0  0  0  0  0  0  0  0  0
   11.4102   43.5929   34.3751 O   0  0  0  0  0  0  0  0  0  0  0  0
    9.3637   42.7255   33.7348 O   0  0  0  0  0  0  0  0  0  0  0  0
    9.8902   41.2267   34.2942 P   0  0  0  0  0  0  0  0  0  0  0  0
   10.3736   41.4561   35.8835 O   0  0  0  0  0  0  0  0  0  0  0  0
    9.9548   45.0695   33.2034 C   0  0  1  0  0  0  0  0  0  0  0  0
   11.0274   46.0322   33.4758 N   0  0  0  0  0  0  0  0  0  0  0  0
    9.7471   44.8484   31.6874 C   0  0  0  0  0  0  0  0  0  0  0  0
    8.7925   45.8409   31.0844 C   0  0  0  0  0  0  0  0  0  0  0  0
    7.4057   45.6012   31.0997 C   0  0  0  0  0  0  0  0  0  0  0  0
    9.2816   46.9882   30.4424 C   0  0  0  0  0  0  0  0  0  0  0  0
    6.5243   46.5013   30.4857 C   0  0  0  0  0  0  0  0  0  0  0  0
    8.4004   47.8885   29.8328 C   0  0  0  0  0  0  0  0  0  0  0  0
    7.0191   47.6556   29.8444 C   0  0  0  0  0  0  0  0  0  0  0  0
    6.1834   48.5857   29.2041 O   0  0  0  0  0  0  0  0  0  0  0  0
    4.7651   48.4677   29.0718 C   0  0  1  0  0  0  0  0  0  0  0  0
    4.1785   49.7867   28.5703 C   0  0  0  0  0  0  0  0  0  0  0  0
    4.3616   47.3210   28.1560 C   0  0  0  0  0  0  0  0  0  0  0  0
    3.1419   46.6626   28.4460 C   0  0  0  0  0  0  0  0  0  0  0  0
    5.1661   46.8517   27.0597 C   0  0  0  0  0  0  0  0  0  0  0  0
    2.7760   45.5665   27.6770 C   0  0  0  0  0  0  0  0  0  0  0  0
    4.7469   45.7201   26.3225 C   0  0  0  0  0  0  0  0  0  0  0  0
    6.3973   47.4899   26.6864 N   0  0  0  0  0  0  0  0  0  0  0  0
    1.6469   44.7780   27.7878 O   0  0  0  0  0  0  0  0  0  0  0  0
    3.5464   45.1128   26.6628 C   0  0  0  0  0  0  0  0  0  0  0  0
    6.4402   48.8472   26.4729 O   0  0  0  0  0  0  0  0  0  0  0  0
    7.3790   46.7969   26.3481 O   0  0  0  0  0  0  0  0  0  0  0  0
    1.7147   43.7641   26.7758 C   0  0  0  0  0  0  0  0  0  0  0  0
    2.9434   44.0147   26.0801 O   0  0  0  0  0  0  0  0  0  0  0  0
    8.8121   40.1850   34.2131 O   0  0  0  0  0  0  0  0  0  0  0  0
   11.2404   40.7941   33.3690 O   0  0  0  0  0  0  0  0  0  0  0  0
   10.9143   40.6898   31.9972 C   0  0  0  0  0  0  0  0  0  0  0  0
   11.5261   39.3885   31.4376 C   0  0  0  0  0  0  0  0  0  0  0  0
   12.7504   39.0888   32.0816 O   0  0  0  0  0  0  0  0  0  0  0  0
   10.6115   38.1910   31.6460 C   0  0  0  0  0  0  0  0  0  0  0  0
   12.9357   37.6812   32.0303 C   0  0  0  0  0  0  0  0  0  0  0  0
    9.6146   38.0859   30.6534 O   0  0  0  0  0  0  0  0  0  0  0  0
   11.5769   37.0148   31.7012 C   0  0  0  0  0  0  0  0  0  0  0  0
   13.4849   37.2112   33.3247 N   0  0  0  0  0  0  0  0  0  0  0  0
   11.6193   36.3261   30.4724 O   0  0  0  0  0  0  0  0  0  0  0  0
   14.4802   36.3313   33.5730 C   0  0  0  0  0  0  0  0  0  0  0  0
   13.1141   37.6268   34.5698 C   0  0  0  0  0  0  0  0  0  0  0  0
   15.2074   35.6151   32.6741 N   0  0  0  0  0  0  0  0  0  0  0  0
   14.6761   36.2300   34.9184 C   0  0  0  0  0  0  0  0  0  0  0  0
   13.8220   37.0445   35.5789 N   0  0  0  0  0  0  0  0  0  0  0  0
   16.1642   34.7600   33.1547 C   0  0  0  0  0  0  0  0  0  0  0  0
   15.6529   35.3503   35.4131 C   0  0  0  0  0  0  0  0  0  0  0  0
   16.3797   34.6314   34.5042 N   0  0  0  0  0  0  0  0  0  0  0  0
   15.9004   35.1930   36.8090 N   0  0  0  0  0  0  0  0  0  0  0  0
    9.0121   45.4317   33.6711 H   0  0  0  0  0  0  0  0  0  0  0  0
   11.8908   45.7658   32.9474 H   0  0  0  0  0  0  0  0  0  0  0  0
   10.7261   46.9688   33.1214 H   0  0  0  0  0  0  0  0  0  0  0  0
    9.3424   43.8331   31.4756 H   0  0  0  0  0  0  0  0  0  0  0  0
   10.7235   44.8824   31.1555 H   0  0  0  0  0  0  0  0  0  0  0  0
    7.0101   44.7159   31.5824 H   0  0  0  0  0  0  0  0  0  0  0  0
   10.3459   47.1863   30.4102 H   0  0  0  0  0  0  0  0  0  0  0  0
    5.4658   46.2861   30.5158 H   0  0  0  0  0  0  0  0  0  0  0  0
    8.7937   48.7687   29.3401 H   0  0  0  0  0  0  0  0  0  0  0  0
    4.3414   48.3026   30.0881 H   0  0  0  0  0  0  0  0  0  0  0  0
    4.4980   50.6164   29.2360 H   0  0  0  0  0  0  0  0  0  0  0  0
    3.0686   49.7380   28.5808 H   0  0  0  0  0  0  0  0  0  0  0  0
    4.5113   50.0122   27.5377 H   0  0  0  0  0  0  0  0  0  0  0  0
    2.5040   46.9871   29.2587 H   0  0  0  0  0  0  0  0  0  0  0  0
    5.3328   45.3380   25.4963 H   0  0  0  0  0  0  0  0  0  0  0  0
    1.7369   42.7568   27.2422 H   0  0  0  0  0  0  0  0  0  0  0  0
    0.8545   43.8576   26.0802 H   0  0  0  0  0  0  0  0  0  0  0  0
   11.3779   41.5526   31.4726 H   0  0  0  0  0  0  0  0  0  0  0  0
    9.8233   40.7191   31.7646 H   0  0  0  0  0  0  0  0  0  0  0  0
   11.7283   39.5312   30.3515 H   0  0  0  0  0  0  0  0  0  0  0  0
   10.1127   38.2734   32.6376 H   0  0  0  0  0  0  0  0  0  0  0  0
   13.6692   37.4566   31.2242 H   0  0  0  0  0  0  0  0  0  0  0  0
   10.0533   38.1119   29.7636 H   0  0  0  0  0  0  0  0  0  0  0  0
   11.2607   36.3148   32.5102 H   0  0  0  0  0  0  0  0  0  0  0  0
   12.1496   35.5023   30.6324 H   0  0  0  0  0  0  0  0  0  0  0  0
   12.3301   38.3524   34.7455 H   0  0  0  0  0  0  0  0  0  0  0  0
   16.7562   34.1781   32.4619 H   0  0  0  0  0  0  0  0  0  0  0  0
   16.6351   34.5298   37.1415 H   0  0  0  0  0  0  0  0  0  0  0  0
   15.3536   35.7357   37.5139 H   0  0  0  0  0  0  0  0  0  0  0  0
  1  2  2  0
  1  3  1  0
  3  4  1  0
  4  5  1  0
  6  1  1  0
  7  6  1  0
  6  8  1  0
  8  9  1  0
  9 10  2  0
 11  9  1  0
 10 12  1  0
 13 11  2  0
 12 14  2  0
 14 13  1  0
 14 15  1  0
 15 16  1  0
 16 17  1  0
 16 18  1  0
 18 19  2  0
 20 18  1  0
 19 21  1  0
 22 20  2  0
 20 23  1  0
 21 24  1  0
 21 25  2  0
 25 22  1  0
 23 26  1  0
 23 27  2  0
 24 28  1  0
 25 29  1  0
 28 29  1  0
  4 30  2  0
  4 31  1  0
 32 31  1  0
 32 33  1  0
 33 34  1  0
 33 35  1  0
 34 36  1  0
 35 37  1  0
 35 38  1  0
 38 36  1  0
 36 39  1  0
 38 40  1  0
 41 39  1  0
 42 39  1  0
 43 41  2  0
 41 44  1  0
 45 42  2  0
 46 43  1  0
 44 47  2  0
 44 45  1  0
 48 46  2  0
 48 47  1  0
 47 49  1  0
  6 50  1  1
  7 51  1  0
  7 52  1  0
  8 53  1  0
  8 54  1  0
 10 55  1  0
 11 56  1  0
 12 57  1  0
 13 58  1  0
 16 59  1  1
 17 60  1  0
 17 61  1  0
 17 62  1  0
 19 63  1  0
 22 64  1  0
 28 65  1  0
 28 66  1  0
 32 67  1  0
 32 68  1  0
 33 69  1  0
 35 70  1  0
 36 71  1  0
 37 72  1  0
 38 73  1  0
 40 74  1  0
 42 75  1  0
 46 76  1  0
 49 77  1  0
 49 78  1  0
M  CHG  3   5  -1  23   1  26  -1
M  END
>  <EmbedRMS>  (232) 
0.0816174926109

$$$$

     RDKit          3D

 78 83  0  0  0  0  0  0  0  0999 V2000
   10.2803   43.7664   33.8246 C   0  0  0  0  0  0  0  0  0  0  0  0
   11.4109   43.5920   34.3664 O   0  0  0  0  0  0  0  0  0  0  0  0
    9.3618   42.7249   33.7343 O   0  0  0  0  0  0  0  0  0  0  0  0
    9.8899   41.2267   34.2939 P   0  0  0  0  0  0  0  0  0  0  0  0
   10.3734   41.4568   35.8832 O   0  0  0  0  0  0  0  0  0  0  0  0
    9.9458   45.0736   33.2106 C   0  0  1  0  0  0  0  0  0  0  0  0
   11.0265   46.0292   33.4703 N   0  0  0  0  0  0  0  0  0  0  0  0
    9.7535   44.8541   31.6942 C   0  0  0  0  0  0  0  0  0  0  0  0
    8.7953   45.8411   31.0839 C   0  0  0  0  0  0  0  0  0  0  0  0
    7.4072   45.6007   31.1025 C   0  0  0  0  0  0  0  0  0  0  0  0
    9.2828   46.9901   30.4403 C   0  0  0  0  0  0  0  0  0  0  0  0
    6.5258   46.5019   30.4891 C   0  0  0  0  0  0  0  0  0  0  0  0
    8.4000   47.8911   29.8332 C   0  0  0  0  0  0  0  0  0  0  0  0
    7.0212   47.6448   29.8431 C   0  0  0  0  0  0  0  0  0  0  0  0
    6.1476   48.5511   29.2366 O   0  0  0  0  0  0  0  0  0  0  0  0
    5.5884   48.3695   27.9317 C   0  0  1  0  0  0  0  0  0  0  0  0
    6.6374   48.6092   26.8381 C   0  0  0  0  0  0  0  0  0  0  0  0
    4.7973   47.0661   27.8293 C   0  0  0  0  0  0  0  0  0  0  0  0
    3.4685   47.0930   28.3219 C   0  0  0  0  0  0  0  0  0  0  0  0
    5.3068   45.8338   27.2884 C   0  0  0  0  0  0  0  0  0  0  0  0
    2.6975   45.9414   28.2361 C   0  0  0  0  0  0  0  0  0  0  0  0
    4.4714   44.6987   27.2137 C   0  0  0  0  0  0  0  0  0  0  0  0
    6.6510   45.7008   26.8225 N   0  0  0  0  0  0  0  0  0  0  0  0
    1.3917   45.7495   28.6447 O   0  0  0  0  0  0  0  0  0  0  0  0
    3.1765   44.7960   27.7016 C   0  0  0  0  0  0  0  0  0  0  0  0
    6.8733   45.3445   25.5130 O   0  0  0  0  0  0  0  0  0  0  0  0
    7.5774   45.5736   27.6480 O   0  0  0  0  0  0  0  0  0  0  0  0
    1.0295   44.3945   28.3458 C   0  0  0  0  0  0  0  0  0  0  0  0
    2.1984   43.8212   27.7443 O   0  0  0  0  0  0  0  0  0  0  0  0
    8.8123   40.1844   34.2133 O   0  0  0  0  0  0  0  0  0  0  0  0
   11.2405   40.7942   33.3691 O   0  0  0  0  0  0  0  0  0  0  0  0
   10.9150   40.6905   31.9972 C   0  0  0  0  0  0  0  0  0  0  0  0
   11.5252   39.3886   31.4375 C   0  0  0  0  0  0  0  0  0  0  0  0
   12.7499   39.0874   32.0799 O   0  0  0  0  0  0  0  0  0  0  0  0
   10.6092   38.1926   31.6469 C   0  0  0  0  0  0  0  0  0  0  0  0
   12.9332   37.6793   32.0294 C   0  0  0  0  0  0  0  0  0  0  0  0
    9.6121   38.0894   30.6542 O   0  0  0  0  0  0  0  0  0  0  0  0
   11.5743   37.0145   31.7024 C   0  0  0  0  0  0  0  0  0  0  0  0
   13.4844   37.2108   33.3241 N   0  0  0  0  0  0  0  0  0  0  0  0
   11.6297   36.3239   30.4740 O   0  0  0  0  0  0  0  0  0  0  0  0
   14.4802   36.3313   33.5726 C   0  0  0  0  0  0  0  0  0  0  0  0
   13.1138   37.6267   34.5692 C   0  0  0  0  0  0  0  0  0  0  0  0
   15.2075   35.6149   32.6739 N   0  0  0  0  0  0  0  0  0  0  0  0
   14.6761   36.2303   34.9181 C   0  0  0  0  0  0  0  0  0  0  0  0
   13.8220   37.0447   35.5785 N   0  0  0  0  0  0  0  0  0  0  0  0
   16.1643   34.7600   33.1547 C   0  0  0  0  0  0  0  0  0  0  0  0
   15.6529   35.3505   35.4130 C   0  0  0  0  0  0  0  0  0  0  0  0
   16.3798   34.6315   34.5042 N   0  0  0  0  0  0  0  0  0  0  0  0
   15.9003   35.1932   36.8090 N   0  0  0  0  0  0  0  0  0  0  0  0
    8.9994   45.4381   33.6716 H   0  0  0  0  0  0  0  0  0  0  0  0
   10.7763   46.9368   33.0153 H   0  0  0  0  0  0  0  0  0  0  0  0
   11.0500   46.2277   34.4977 H   0  0  0  0  0  0  0  0  0  0  0  0
   10.7405   44.9077   31.1826 H   0  0  0  0  0  0  0  0  0  0  0  0
    9.3637   43.8355   31.4705 H   0  0  0  0  0  0  0  0  0  0  0  0
    7.0117   44.7181   31.5898 H   0  0  0  0  0  0  0  0  0  0  0  0
   10.3466   47.1907   30.4078 H   0  0  0  0  0  0  0  0  0  0  0  0
    5.4609   46.3116   30.5192 H   0  0  0  0  0  0  0  0  0  0  0  0
    8.7877   48.7758   29.3445 H   0  0  0  0  0  0  0  0  0  0  0  0
    4.8571   49.1963   27.7895 H   0  0  0  0  0  0  0  0  0  0  0  0
    6.2331   48.3278   25.8425 H   0  0  0  0  0  0  0  0  0  0  0  0
    7.5742   48.0539   27.0367 H   0  0  0  0  0  0  0  0  0  0  0  0
    6.9018   49.6878   26.8112 H   0  0  0  0  0  0  0  0  0  0  0  0
    3.0453   47.9896   28.7575 H   0  0  0  0  0  0  0  0  0  0  0  0
    4.8323   43.7637   26.8045 H   0  0  0  0  0  0  0  0  0  0  0  0
    0.1807   44.3727   27.6306 H   0  0  0  0  0  0  0  0  0  0  0  0
    0.7729   43.8507   29.2791 H   0  0  0  0  0  0  0  0  0  0  0  0
   11.3800   41.5528   31.4730 H   0  0  0  0  0  0  0  0  0  0  0  0
    9.8241   40.7215   31.7640 H   0  0  0  0  0  0  0  0  0  0  0  0
   11.7266   39.5310   30.3512 H   0  0  0  0  0  0  0  0  0  0  0  0
   10.1110   38.2747   32.6387 H   0  0  0  0  0  0  0  0  0  0  0  0
   13.6652   37.4520   31.2226 H   0  0  0  0  0  0  0  0  0  0  0  0
   10.0511   38.1143   29.7645 H   0  0  0  0  0  0  0  0  0  0  0  0
   11.2762   36.3141   32.5189 H   0  0  0  0  0  0  0  0  0  0  0  0
   10.8593   35.6978   30.4640 H   0  0  0  0  0  0  0  0  0  0  0  0
   12.3295   38.3518   34.7449 H   0  0  0  0  0  0  0  0  0  0  0  0
   16.7564   34.1780   32.4620 H   0  0  0  0  0  0  0  0  0  0  0  0
   16.6349   34.5300   37.1415 H   0  0  0  0  0  0  0  0  0  0  0  0
   15.3534   35.7359   37.5138 H   0  0  0  0  0  0  0  0  0  0  0  0
  1  2  2  0
  1  3  1  0
  3  4  1  0
  4  5  1  0
  6  1  1  0
  7  6  1  0
  6  8  1  0
  8  9  1  0
  9 10  2  0
 11  9  1  0
 10 12  1  0
 13 11  2  0
 12 14  2  0
 14 13  1  0
 14 15  1  0
 15 16  1  0
 16 17  1  0
 16 18  1  0
 18 19  2  0
 20 18  1  0
 19 21  1  0
 22 20  2  0
 20 23  1  0
 21 24  1  0
 21 25  2  0
 25 22  1  0
 23 26  1  0
 23 27  2  0
 24 28  1  0
 25 29  1  0
 28 29  1  0
  4 30  2  0
  4 31  1  0
 32 31  1  0
 32 33  1  0
 33 34  1  0
 33 35  1  0
 34 36  1  0
 35 37  1  0
 35 38  1  0
 38 36  1  0
 36 39  1  0
 38 40  1  0
 41 39  1  0
 42 39  1  0
 43 41  2  0
 41 44  1  0
 45 42  2  0
 46 43  1  0
 44 47  2  0
 44 45  1  0
 48 46  2  0
 48 47  1  0
 47 49  1  0
  6 50  1  1
  7 51  1  0
  7 52  1  0
  8 53  1  0
  8 54  1  0
 10 55  1  0
 11 56  1  0
 12 57  1  0
 13 58  1  0
 16 59  1  6
 17 60  1  0
 17 61  1  0
 17 62  1  0
 19 63  1  0
 22 64  1  0
 28 65  1  0
 28 66  1  0
 32 67  1  0
 32 68  1  0
 33 69  1  0
 35 70  1  0
 36 71  1  0
 37 72  1  0
 38 73  1  0
 40 74  1  0
 42 75  1  0
 46 76  1  0
 49 77  1  0
 49 78  1  0
M  CHG  3   5  -1  23   1  26  -1
M  END
>  <EmbedRMS>  (233) 
0.0817614047967

$$$$

     RDKit          3D

 78 83  0  0  0  0  0  0  0  0999 V2000
   10.2805   43.7664   33.8250 C   0  0  0  0  0  0  0  0  0  0  0  0
   11.4111   43.5918   34.3667 O   0  0  0  0  0  0  0  0  0  0  0  0
    9.3619   42.7249   33.7345 O   0  0  0  0  0  0  0  0  0  0  0  0
    9.8899   41.2266   34.2940 P   0  0  0  0  0  0  0  0  0  0  0  0
   10.3734   41.4567   35.8833 O   0  0  0  0  0  0  0  0  0  0  0  0
    9.9460   45.0736   33.2113 C   0  0  1  0  0  0  0  0  0  0  0  0
   11.0268   46.0292   33.4709 N   0  0  0  0  0  0  0  0  0  0  0  0
    9.7540   44.8543   31.6950 C   0  0  0  0  0  0  0  0  0  0  0  0
    8.7957   45.8415   31.0852 C   0  0  0  0  0  0  0  0  0  0  0  0
    7.4091   45.6000   31.1007 C   0  0  0  0  0  0  0  0  0  0  0  0
    9.2824   46.9875   30.4394 C   0  0  0  0  0  0  0  0  0  0  0  0
    6.5257   46.4984   30.4854 C   0  0  0  0  0  0  0  0  0  0  0  0
    8.3998   47.8864   29.8301 C   0  0  0  0  0  0  0  0  0  0  0  0
    7.0177   47.6564   29.8478 C   0  0  0  0  0  0  0  0  0  0  0  0
    6.1856   48.5945   29.2142 O   0  0  0  0  0  0  0  0  0  0  0  0
    4.7582   48.6202   29.2578 C   0  0  1  0  0  0  0  0  0  0  0  0
    4.2535   49.0451   30.6437 C   0  0  0  0  0  0  0  0  0  0  0  0
    4.2310   49.5449   28.1717 C   0  0  0  0  0  0  0  0  0  0  0  0
    3.3852   48.9883   27.1793 C   0  0  0  0  0  0  0  0  0  0  0  0
    4.5154   50.9538   28.1323 C   0  0  0  0  0  0  0  0  0  0  0  0
    2.8470   49.8281   26.2132 C   0  0  0  0  0  0  0  0  0  0  0  0
    3.9260   51.7599   27.1323 C   0  0  0  0  0  0  0  0  0  0  0  0
    5.3760   51.5830   29.0917 N   0  0  0  0  0  0  0  0  0  0  0  0
    2.0042   49.5045   25.1672 O   0  0  0  0  0  0  0  0  0  0  0  0
    3.1034   51.1554   26.1924 C   0  0  0  0  0  0  0  0  0  0  0  0
    6.6866   51.1852   29.2074 O   0  0  0  0  0  0  0  0  0  0  0  0
    5.0233   52.6533   29.6286 O   0  0  0  0  0  0  0  0  0  0  0  0
    1.7146   50.7084   24.4437 C   0  0  0  0  0  0  0  0  0  0  0  0
    2.4366   51.7386   25.1322 O   0  0  0  0  0  0  0  0  0  0  0  0
    8.8123   40.1844   34.2133 O   0  0  0  0  0  0  0  0  0  0  0  0
   11.2405   40.7942   33.3692 O   0  0  0  0  0  0  0  0  0  0  0  0
   10.9150   40.6905   31.9972 C   0  0  0  0  0  0  0  0  0  0  0  0
   11.5252   39.3886   31.4375 C   0  0  0  0  0  0  0  0  0  0  0  0
   12.7499   39.0874   32.0799 O   0  0  0  0  0  0  0  0  0  0  0  0
   10.6092   38.1926   31.6470 C   0  0  0  0  0  0  0  0  0  0  0  0
   12.9332   37.6793   32.0294 C   0  0  0  0  0  0  0  0  0  0  0  0
    9.6122   38.0894   30.6542 O   0  0  0  0  0  0  0  0  0  0  0  0
   11.5743   37.0145   31.7024 C   0  0  0  0  0  0  0  0  0  0  0  0
   13.4844   37.2108   33.3241 N   0  0  0  0  0  0  0  0  0  0  0  0
   11.6298   36.3239   30.4740 O   0  0  0  0  0  0  0  0  0  0  0  0
   14.4802   36.3313   33.5727 C   0  0  0  0  0  0  0  0  0  0  0  0
   13.1139   37.6266   34.5693 C   0  0  0  0  0  0  0  0  0  0  0  0
   15.2075   35.6149   32.6739 N   0  0  0  0  0  0  0  0  0  0  0  0
   14.6761   36.2303   34.9182 C   0  0  0  0  0  0  0  0  0  0  0  0
   13.8220   37.0446   35.5785 N   0  0  0  0  0  0  0  0  0  0  0  0
   16.1643   34.7600   33.1547 C   0  0  0  0  0  0  0  0  0  0  0  0
   15.6529   35.3505   35.4130 C   0  0  0  0  0  0  0  0  0  0  0  0
   16.3798   34.6315   34.5042 N   0  0  0  0  0  0  0  0  0  0  0  0
   15.9003   35.1932   36.8090 N   0  0  0  0  0  0  0  0  0  0  0  0
    8.9997   45.4381   33.6724 H   0  0  0  0  0  0  0  0  0  0  0  0
   10.7766   46.9369   33.0160 H   0  0  0  0  0  0  0  0  0  0  0  0
   11.0504   46.2276   34.4984 H   0  0  0  0  0  0  0  0  0  0  0  0
   10.7412   44.9080   31.1837 H   0  0  0  0  0  0  0  0  0  0  0  0
    9.3645   43.8355   31.4712 H   0  0  0  0  0  0  0  0  0  0  0  0
    7.0155   44.7138   31.5832 H   0  0  0  0  0  0  0  0  0  0  0  0
   10.3463   47.1871   30.4045 H   0  0  0  0  0  0  0  0  0  0  0  0
    5.4701   46.2725   30.5101 H   0  0  0  0  0  0  0  0  0  0  0  0
    8.7924   48.7677   29.3388 H   0  0  0  0  0  0  0  0  0  0  0  0
    4.3783   47.5940   29.0624 H   0  0  0  0  0  0  0  0  0  0  0  0
    4.4821   48.2625   31.3952 H   0  0  0  0  0  0  0  0  0  0  0  0
    4.7351   49.9849   30.9793 H   0  0  0  0  0  0  0  0  0  0  0  0
    3.1519   49.1880   30.6230 H   0  0  0  0  0  0  0  0  0  0  0  0
    3.1410   47.9336   27.1647 H   0  0  0  0  0  0  0  0  0  0  0  0
    4.1180   52.8242   27.0830 H   0  0  0  0  0  0  0  0  0  0  0  0
    2.0737   50.6230   23.3967 H   0  0  0  0  0  0  0  0  0  0  0  0
    0.6252   50.9202   24.4710 H   0  0  0  0  0  0  0  0  0  0  0  0
    9.8241   40.7215   31.7641 H   0  0  0  0  0  0  0  0  0  0  0  0
   11.3800   41.5528   31.4730 H   0  0  0  0  0  0  0  0  0  0  0  0
   11.7266   39.5310   30.3513 H   0  0  0  0  0  0  0  0  0  0  0  0
   10.1110   38.2747   32.6387 H   0  0  0  0  0  0  0  0  0  0  0  0
   13.6652   37.4520   31.2226 H   0  0  0  0  0  0  0  0  0  0  0  0
   10.0511   38.1143   29.7645 H   0  0  0  0  0  0  0  0  0  0  0  0
   11.2762   36.3141   32.5189 H   0  0  0  0  0  0  0  0  0  0  0  0
   10.8593   35.6978   30.4640 H   0  0  0  0  0  0  0  0  0  0  0  0
   12.3295   38.3518   34.7449 H   0  0  0  0  0  0  0  0  0  0  0  0
   16.7564   34.1780   32.4620 H   0  0  0  0  0  0  0  0  0  0  0  0
   16.6349   34.5300   37.1416 H   0  0  0  0  0  0  0  0  0  0  0  0
   15.3534   35.7359   37.5138 H   0  0  0  0  0  0  0  0  0  0  0  0
  1  2  2  0
  1  3  1  0
  3  4  1  0
  4  5  1  0
  6  1  1  0
  7  6  1  0
  6  8  1  0
  8  9  1  0
  9 10  2  0
 11  9  1  0
 10 12  1  0
 13 11  2  0
 12 14  2  0
 14 13  1  0
 14 15  1  0
 15 16  1  0
 16 17  1  0
 16 18  1  0
 18 19  2  0
 20 18  1  0
 19 21  1  0
 22 20  2  0
 20 23  1  0
 21 24  1  0
 21 25  2  0
 25 22  1  0
 23 26  1  0
 23 27  2  0
 24 28  1  0
 25 29  1  0
 28 29  1  0
  4 30  2  0
  4 31  1  0
 32 31  1  0
 32 33  1  0
 33 34  1  0
 33 35  1  0
 34 36  1  0
 35 37  1  0
 35 38  1  0
 38 36  1  0
 36 39  1  0
 38 40  1  0
 41 39  1  0
 42 39  1  0
 43 41  2  0
 41 44  1  0
 45 42  2  0
 46 43  1  0
 44 47  2  0
 44 45  1  0
 48 46  2  0
 48 47  1  0
 47 49  1  0
  6 50  1  1
  7 51  1  0
  7 52  1  0
  8 53  1  0
  8 54  1  0
 10 55  1  0
 11 56  1  0
 12 57  1  0
 13 58  1  0
 16 59  1  6
 17 60  1  0
 17 61  1  0
 17 62  1  0
 19 63  1  0
 22 64  1  0
 28 65  1  0
 28 66  1  0
 32 67  1  0
 32 68  1  0
 33 69  1  0
 35 70  1  0
 36 71  1  0
 37 72  1  0
 38 73  1  0
 40 74  1  0
 42 75  1  0
 46 76  1  0
 49 77  1  0
 49 78  1  0
M  CHG  3   5  -1  23   1  26  -1
M  END
>  <EmbedRMS>  (234) 
0.0816114937178

$$$$

     RDKit          3D

 78 83  0  0  0  0  0  0  0  0999 V2000
   10.2835   43.7661   33.8255 C   0  0  0  0  0  0  0  0  0  0  0  0
   11.4102   43.5930   34.3753 O   0  0  0  0  0  0  0  0  0  0  0  0
    9.3639   42.7253   33.7347 O   0  0  0  0  0  0  0  0  0  0  0  0
    9.8907   41.2265   34.2938 P   0  0  0  0  0  0  0  0  0  0  0  0
   10.3733   41.4559   35.8835 O   0  0  0  0  0  0  0  0  0  0  0  0
    9.9547   45.0694   33.2034 C   0  0  1  0  0  0  0  0  0  0  0  0
   11.0273   46.0322   33.4758 N   0  0  0  0  0  0  0  0  0  0  0  0
    9.7471   44.8482   31.6874 C   0  0  0  0  0  0  0  0  0  0  0  0
    8.7926   45.8406   31.0840 C   0  0  0  0  0  0  0  0  0  0  0  0
    7.4059   45.6013   31.0998 C   0  0  0  0  0  0  0  0  0  0  0  0
    9.2817   46.9881   30.4426 C   0  0  0  0  0  0  0  0  0  0  0  0
    6.5245   46.5017   30.4860 C   0  0  0  0  0  0  0  0  0  0  0  0
    8.4003   47.8886   29.8335 C   0  0  0  0  0  0  0  0  0  0  0  0
    7.0186   47.6552   29.8434 C   0  0  0  0  0  0  0  0  0  0  0  0
    6.1843   48.5897   29.2077 O   0  0  0  0  0  0  0  0  0  0  0  0
    4.7736   48.4581   29.0290 C   0  0  1  0  0  0  0  0  0  0  0  0
    4.1908   49.7976   28.5775 C   0  0  0  0  0  0  0  0  0  0  0  0
    4.4398   47.3550   28.0352 C   0  0  0  0  0  0  0  0  0  0  0  0
    3.5467   46.3357   28.4480 C   0  0  0  0  0  0  0  0  0  0  0  0
    4.9429   47.3370   26.6906 C   0  0  0  0  0  0  0  0  0  0  0  0
    3.1925   45.3504   27.5357 C   0  0  0  0  0  0  0  0  0  0  0  0
    4.5362   46.3170   25.8022 C   0  0  0  0  0  0  0  0  0  0  0  0
    5.8406   48.3429   26.2064 N   0  0  0  0  0  0  0  0  0  0  0  0
    2.3489   44.2720   27.7206 O   0  0  0  0  0  0  0  0  0  0  0  0
    3.6653   45.3421   26.2685 C   0  0  0  0  0  0  0  0  0  0  0  0
    7.1186   48.4158   26.7069 O   0  0  0  0  0  0  0  0  0  0  0  0
    5.5752   48.9432   25.1447 O   0  0  0  0  0  0  0  0  0  0  0  0
    2.2909   43.5394   26.4890 C   0  0  0  0  0  0  0  0  0  0  0  0
    3.1455   44.2575   25.5885 O   0  0  0  0  0  0  0  0  0  0  0  0
    8.8126   40.1848   34.2122 O   0  0  0  0  0  0  0  0  0  0  0  0
   11.2418   40.7943   33.3694 O   0  0  0  0  0  0  0  0  0  0  0  0
   10.9179   40.6904   31.9970 C   0  0  0  0  0  0  0  0  0  0  0  0
   11.5181   39.3814   31.4408 C   0  0  0  0  0  0  0  0  0  0  0  0
   12.7497   39.0870   32.0745 O   0  0  0  0  0  0  0  0  0  0  0  0
   10.6045   38.1892   31.6655 C   0  0  0  0  0  0  0  0  0  0  0  0
   12.9344   37.6801   32.0290 C   0  0  0  0  0  0  0  0  0  0  0  0
    9.6418   38.0758   30.6441 O   0  0  0  0  0  0  0  0  0  0  0  0
   11.5741   37.0170   31.7045 C   0  0  0  0  0  0  0  0  0  0  0  0
   13.4851   37.2126   33.3241 N   0  0  0  0  0  0  0  0  0  0  0  0
   11.6079   36.3407   30.4680 O   0  0  0  0  0  0  0  0  0  0  0  0
   14.4801   36.3321   33.5727 C   0  0  0  0  0  0  0  0  0  0  0  0
   13.1140   37.6277   34.5692 C   0  0  0  0  0  0  0  0  0  0  0  0
   15.2073   35.6155   32.6739 N   0  0  0  0  0  0  0  0  0  0  0  0
   14.6758   36.2306   34.9182 C   0  0  0  0  0  0  0  0  0  0  0  0
   13.8217   37.0451   35.5785 N   0  0  0  0  0  0  0  0  0  0  0  0
   16.1639   34.7602   33.1546 C   0  0  0  0  0  0  0  0  0  0  0  0
   15.6526   35.3506   35.4130 C   0  0  0  0  0  0  0  0  0  0  0  0
   16.3794   34.6316   34.5041 N   0  0  0  0  0  0  0  0  0  0  0  0
   15.9001   35.1933   36.8089 N   0  0  0  0  0  0  0  0  0  0  0  0
    9.0120   45.4316   33.6711 H   0  0  0  0  0  0  0  0  0  0  0  0
   10.7260   46.9688   33.1214 H   0  0  0  0  0  0  0  0  0  0  0  0
   11.8907   45.7659   32.9474 H   0  0  0  0  0  0  0  0  0  0  0  0
    9.3425   43.8329   31.4757 H   0  0  0  0  0  0  0  0  0  0  0  0
   10.7236   44.8822   31.1556 H   0  0  0  0  0  0  0  0  0  0  0  0
    7.0100   44.7174   31.5846 H   0  0  0  0  0  0  0  0  0  0  0  0
   10.3459   47.1868   30.4112 H   0  0  0  0  0  0  0  0  0  0  0  0
    5.4669   46.2906   30.5258 H   0  0  0  0  0  0  0  0  0  0  0  0
    8.7938   48.7701   29.3434 H   0  0  0  0  0  0  0  0  0  0  0  0
    4.3126   48.2434   30.0189 H   0  0  0  0  0  0  0  0  0  0  0  0
    3.0972   49.7020   28.4056 H   0  0  0  0  0  0  0  0  0  0  0  0
    4.6746   50.1564   27.6466 H   0  0  0  0  0  0  0  0  0  0  0  0
    4.3557   50.5604   29.3678 H   0  0  0  0  0  0  0  0  0  0  0  0
    3.1311   46.3146   29.4475 H   0  0  0  0  0  0  0  0  0  0  0  0
    4.8985   46.2833   24.7826 H   0  0  0  0  0  0  0  0  0  0  0  0
    2.6718   42.5073   26.6377 H   0  0  0  0  0  0  0  0  0  0  0  0
    1.2512   43.5238   26.1000 H   0  0  0  0  0  0  0  0  0  0  0  0
    9.8290   40.7386   31.7617 H   0  0  0  0  0  0  0  0  0  0  0  0
   11.3946   41.5459   31.4722 H   0  0  0  0  0  0  0  0  0  0  0  0
   11.6994   39.5069   30.3484 H   0  0  0  0  0  0  0  0  0  0  0  0
   10.1090   38.2635   32.6632 H   0  0  0  0  0  0  0  0  0  0  0  0
   13.6662   37.4515   31.2224 H   0  0  0  0  0  0  0  0  0  0  0  0
    8.9009   38.6925   30.8792 H   0  0  0  0  0  0  0  0  0  0  0  0
   11.2650   36.3083   32.5087 H   0  0  0  0  0  0  0  0  0  0  0  0
   12.1372   35.5140   30.6163 H   0  0  0  0  0  0  0  0  0  0  0  0
   12.3297   38.3530   34.7449 H   0  0  0  0  0  0  0  0  0  0  0  0
   16.7558   34.1781   32.4619 H   0  0  0  0  0  0  0  0  0  0  0  0
   15.3533   35.7360   37.5138 H   0  0  0  0  0  0  0  0  0  0  0  0
   16.6346   34.5300   37.1414 H   0  0  0  0  0  0  0  0  0  0  0  0
  1  2  2  0
  1  3  1  0
  3  4  1  0
  4  5  1  0
  6  1  1  0
  7  6  1  0
  6  8  1  0
  8  9  1  0
  9 10  2  0
 11  9  1  0
 10 12  1  0
 13 11  2  0
 12 14  2  0
 14 13  1  0
 14 15  1  0
 15 16  1  0
 16 17  1  0
 16 18  1  0
 18 19  2  0
 20 18  1  0
 19 21  1  0
 22 20  2  0
 20 23  1  0
 21 24  1  0
 21 25  2  0
 25 22  1  0
 23 26  1  0
 23 27  2  0
 24 28  1  0
 25 29  1  0
 28 29  1  0
  4 30  2  0
  4 31  1  0
 32 31  1  0
 32 33  1  0
 33 34  1  0
 33 35  1  0
 34 36  1  0
 35 37  1  0
 35 38  1  0
 38 36  1  0
 36 39  1  0
 38 40  1  0
 41 39  1  0
 42 39  1  0
 43 41  2  0
 41 44  1  0
 45 42  2  0
 46 43  1  0
 44 47  2  0
 44 45  1  0
 48 46  2  0
 48 47  1  0
 47 49  1  0
  6 50  1  1
  7 51  1  0
  7 52  1  0
  8 53  1  0
  8 54  1  0
 10 55  1  0
 11 56  1  0
 12 57  1  0
 13 58  1  0
 16 59  1  1
 17 60  1  0
 17 61  1  0
 17 62  1  0
 19 63  1  0
 22 64  1  0
 28 65  1  0
 28 66  1  0
 32 67  1  0
 32 68  1  0
 33 69  1  0
 35 70  1  0
 36 71  1  0
 37 72  1  0
 38 73  1  0
 40 74  1  0
 42 75  1  0
 46 76  1  0
 49 77  1  0
 49 78  1  0
M  CHG  3   5  -1  23   1  26  -1
M  END
>  <EmbedRMS>  (235) 
0.0828269003622

$$$$

     RDKit          3D

 78 83  0  0  0  0  0  0  0  0999 V2000
   10.2839   43.7626   33.8275 C   0  0  0  0  0  0  0  0  0  0  0  0
   11.4103   43.5863   34.3767 O   0  0  0  0  0  0  0  0  0  0  0  0
    9.3634   42.7234   33.7351 O   0  0  0  0  0  0  0  0  0  0  0  0
    9.8899   41.2247   34.2940 P   0  0  0  0  0  0  0  0  0  0  0  0
   10.3724   41.4545   35.8837 O   0  0  0  0  0  0  0  0  0  0  0  0
    9.9549   45.0699   33.2062 C   0  0  1  0  0  0  0  0  0  0  0  0
   11.0197   46.0481   33.4570 N   0  0  0  0  0  0  0  0  0  0  0  0
    9.7506   44.8510   31.6921 C   0  0  0  0  0  0  0  0  0  0  0  0
    8.7945   45.8416   31.0865 C   0  0  0  0  0  0  0  0  0  0  0  0
    7.4078   45.6008   31.1008 C   0  0  0  0  0  0  0  0  0  0  0  0
    9.2826   46.9894   30.4451 C   0  0  0  0  0  0  0  0  0  0  0  0
    6.5258   46.5005   30.4863 C   0  0  0  0  0  0  0  0  0  0  0  0
    8.4007   47.8885   29.8343 C   0  0  0  0  0  0  0  0  0  0  0  0
    7.0192   47.6542   29.8436 C   0  0  0  0  0  0  0  0  0  0  0  0
    6.1844   48.5878   29.2073 O   0  0  0  0  0  0  0  0  0  0  0  0
    4.7740   48.4547   29.0274 C   0  0  1  0  0  0  0  0  0  0  0  0
    4.1901   49.7934   28.5752 C   0  0  0  0  0  0  0  0  0  0  0  0
    4.4424   47.3510   28.0334 C   0  0  0  0  0  0  0  0  0  0  0  0
    3.5508   46.3303   28.4459 C   0  0  0  0  0  0  0  0  0  0  0  0
    4.9466   47.3335   26.6892 C   0  0  0  0  0  0  0  0  0  0  0  0
    3.1991   45.3440   27.5336 C   0  0  0  0  0  0  0  0  0  0  0  0
    4.5424   46.3124   25.8009 C   0  0  0  0  0  0  0  0  0  0  0  0
    5.8429   48.3408   26.2054 N   0  0  0  0  0  0  0  0  0  0  0  0
    2.3574   44.2641   27.7183 O   0  0  0  0  0  0  0  0  0  0  0  0
    3.6729   45.3361   26.2668 C   0  0  0  0  0  0  0  0  0  0  0  0
    7.1203   48.4163   26.7070 O   0  0  0  0  0  0  0  0  0  0  0  0
    5.5773   48.9402   25.1433 O   0  0  0  0  0  0  0  0  0  0  0  0
    2.3019   43.5309   26.4870 C   0  0  0  0  0  0  0  0  0  0  0  0
    3.1558   44.2502   25.5869 O   0  0  0  0  0  0  0  0  0  0  0  0
    8.8119   40.1831   34.2120 O   0  0  0  0  0  0  0  0  0  0  0  0
   11.2416   40.7932   33.3699 O   0  0  0  0  0  0  0  0  0  0  0  0
   10.9186   40.6909   31.9972 C   0  0  0  0  0  0  0  0  0  0  0  0
   11.5172   39.3814   31.4407 C   0  0  0  0  0  0  0  0  0  0  0  0
   12.7493   39.0855   32.0727 O   0  0  0  0  0  0  0  0  0  0  0  0
   10.6023   38.1907   31.6665 C   0  0  0  0  0  0  0  0  0  0  0  0
   12.9319   37.6781   32.0281 C   0  0  0  0  0  0  0  0  0  0  0  0
    9.6392   38.0797   30.6451 O   0  0  0  0  0  0  0  0  0  0  0  0
   11.5715   37.0165   31.7056 C   0  0  0  0  0  0  0  0  0  0  0  0
   13.4846   37.2121   33.3235 N   0  0  0  0  0  0  0  0  0  0  0  0
   11.6187   36.3383   30.4694 O   0  0  0  0  0  0  0  0  0  0  0  0
   14.4801   36.3321   33.5724 C   0  0  0  0  0  0  0  0  0  0  0  0
   13.1137   37.6275   34.5687 C   0  0  0  0  0  0  0  0  0  0  0  0
   15.2073   35.6153   32.6738 N   0  0  0  0  0  0  0  0  0  0  0  0
   14.6759   36.2308   34.9179 C   0  0  0  0  0  0  0  0  0  0  0  0
   13.8216   37.0452   35.5781 N   0  0  0  0  0  0  0  0  0  0  0  0
   16.1640   34.7602   33.1546 C   0  0  0  0  0  0  0  0  0  0  0  0
   15.6526   35.3508   35.4129 C   0  0  0  0  0  0  0  0  0  0  0  0
   16.3794   34.6317   34.5041 N   0  0  0  0  0  0  0  0  0  0  0  0
   15.8999   35.1934   36.8088 N   0  0  0  0  0  0  0  0  0  0  0  0
    9.0098   45.4347   33.6667 H   0  0  0  0  0  0  0  0  0  0  0  0
   11.1131   46.1992   34.4883 H   0  0  0  0  0  0  0  0  0  0  0  0
   11.9349   45.6933   33.0928 H   0  0  0  0  0  0  0  0  0  0  0  0
   10.7310   44.8930   31.1674 H   0  0  0  0  0  0  0  0  0  0  0  0
    9.3519   43.8343   31.4757 H   0  0  0  0  0  0  0  0  0  0  0  0
    7.0125   44.7165   31.5855 H   0  0  0  0  0  0  0  0  0  0  0  0
   10.3466   47.1899   30.4156 H   0  0  0  0  0  0  0  0  0  0  0  0
    5.4683   46.2884   30.5256 H   0  0  0  0  0  0  0  0  0  0  0  0
    8.7938   48.7703   29.3442 H   0  0  0  0  0  0  0  0  0  0  0  0
    4.3124   48.2396   30.0169 H   0  0  0  0  0  0  0  0  0  0  0  0
    4.6743   50.1528   27.6448 H   0  0  0  0  0  0  0  0  0  0  0  0
    3.0968   49.6965   28.4022 H   0  0  0  0  0  0  0  0  0  0  0  0
    4.3534   50.5565   29.3656 H   0  0  0  0  0  0  0  0  0  0  0  0
    3.1344   46.3088   29.4450 H   0  0  0  0  0  0  0  0  0  0  0  0
    4.9056   46.2790   24.7816 H   0  0  0  0  0  0  0  0  0  0  0  0
    1.2625   43.5130   26.0972 H   0  0  0  0  0  0  0  0  0  0  0  0
    2.6847   42.4996   26.6365 H   0  0  0  0  0  0  0  0  0  0  0  0
    9.8300   40.7410   31.7610 H   0  0  0  0  0  0  0  0  0  0  0  0
   11.3971   41.5459   31.4734 H   0  0  0  0  0  0  0  0  0  0  0  0
   11.6974   39.5067   30.3480 H   0  0  0  0  0  0  0  0  0  0  0  0
   10.1076   38.2647   32.6645 H   0  0  0  0  0  0  0  0  0  0  0  0
   13.6621   37.4467   31.2208 H   0  0  0  0  0  0  0  0  0  0  0  0
    8.8975   38.6944   30.8830 H   0  0  0  0  0  0  0  0  0  0  0  0
   11.2806   36.3073   32.5170 H   0  0  0  0  0  0  0  0  0  0  0  0
   10.8493   35.7110   30.4585 H   0  0  0  0  0  0  0  0  0  0  0  0
   12.3291   38.3524   34.7444 H   0  0  0  0  0  0  0  0  0  0  0  0
   16.7559   34.1780   32.4619 H   0  0  0  0  0  0  0  0  0  0  0  0
   16.6344   34.5301   37.1414 H   0  0  0  0  0  0  0  0  0  0  0  0
   15.3532   35.7362   37.5137 H   0  0  0  0  0  0  0  0  0  0  0  0
  1  2  2  0
  1  3  1  0
  3  4  1  0
  4  5  1  0
  6  1  1  0
  7  6  1  0
  6  8  1  0
  8  9  1  0
  9 10  2  0
 11  9  1  0
 10 12  1  0
 13 11  2  0
 12 14  2  0
 14 13  1  0
 14 15  1  0
 15 16  1  0
 16 17  1  0
 16 18  1  0
 18 19  2  0
 20 18  1  0
 19 21  1  0
 22 20  2  0
 20 23  1  0
 21 24  1  0
 21 25  2  0
 25 22  1  0
 23 26  1  0
 23 27  2  0
 24 28  1  0
 25 29  1  0
 28 29  1  0
  4 30  2  0
  4 31  1  0
 32 31  1  0
 32 33  1  0
 33 34  1  0
 33 35  1  0
 34 36  1  0
 35 37  1  0
 35 38  1  0
 38 36  1  0
 36 39  1  0
 38 40  1  0
 41 39  1  0
 42 39  1  0
 43 41  2  0
 41 44  1  0
 45 42  2  0
 46 43  1  0
 44 47  2  0
 44 45  1  0
 48 46  2  0
 48 47  1  0
 47 49  1  0
  6 50  1  1
  7 51  1  0
  7 52  1  0
  8 53  1  0
  8 54  1  0
 10 55  1  0
 11 56  1  0
 12 57  1  0
 13 58  1  0
 16 59  1  1
 17 60  1  0
 17 61  1  0
 17 62  1  0
 19 63  1  0
 22 64  1  0
 28 65  1  0
 28 66  1  0
 32 67  1  0
 32 68  1  0
 33 69  1  0
 35 70  1  0
 36 71  1  0
 37 72  1  0
 38 73  1  0
 40 74  1  0
 42 75  1  0
 46 76  1  0
 49 77  1  0
 49 78  1  0
M  CHG  3   5  -1  23   1  26  -1
M  END
>  <EmbedRMS>  (236) 
0.0838313048948

$$$$

     RDKit          3D

 78 83  0  0  0  0  0  0  0  0999 V2000
   10.2835   43.7662   33.8256 C   0  0  0  0  0  0  0  0  0  0  0  0
   11.4102   43.5929   34.3752 O   0  0  0  0  0  0  0  0  0  0  0  0
    9.3637   42.7256   33.7349 O   0  0  0  0  0  0  0  0  0  0  0  0
    9.8902   41.2267   34.2942 P   0  0  0  0  0  0  0  0  0  0  0  0
   10.3735   41.4560   35.8836 O   0  0  0  0  0  0  0  0  0  0  0  0
    9.9548   45.0695   33.2036 C   0  0  1  0  0  0  0  0  0  0  0  0
   11.0275   46.0322   33.4760 N   0  0  0  0  0  0  0  0  0  0  0  0
    9.7472   44.8485   31.6876 C   0  0  0  0  0  0  0  0  0  0  0  0
    8.7926   45.8411   31.0847 C   0  0  0  0  0  0  0  0  0  0  0  0
    7.4062   45.6011   31.0992 C   0  0  0  0  0  0  0  0  0  0  0  0
    9.2817   46.9876   30.4419 C   0  0  0  0  0  0  0  0  0  0  0  0
    6.5243   46.5004   30.4843 C   0  0  0  0  0  0  0  0  0  0  0  0
    8.4004   47.8874   29.8317 C   0  0  0  0  0  0  0  0  0  0  0  0
    7.0180   47.6579   29.8466 C   0  0  0  0  0  0  0  0  0  0  0  0
    6.1872   48.5958   29.2111 O   0  0  0  0  0  0  0  0  0  0  0  0
    4.7572   48.5987   29.2231 C   0  0  1  0  0  0  0  0  0  0  0  0
    4.2345   49.0486   30.5941 C   0  0  0  0  0  0  0  0  0  0  0  0
    4.2631   49.5356   28.1354 C   0  0  0  0  0  0  0  0  0  0  0  0
    4.6669   50.8938   28.1758 C   0  0  0  0  0  0  0  0  0  0  0  0
    3.3733   49.1030   27.0966 C   0  0  0  0  0  0  0  0  0  0  0  0
    4.1507   51.7694   27.2295 C   0  0  0  0  0  0  0  0  0  0  0  0
    2.8669   50.0433   26.1708 C   0  0  0  0  0  0  0  0  0  0  0  0
    3.0028   47.7252   26.9490 N   0  0  0  0  0  0  0  0  0  0  0  0
    4.3939   53.1221   27.0879 O   0  0  0  0  0  0  0  0  0  0  0  0
    3.2840   51.3636   26.2734 C   0  0  0  0  0  0  0  0  0  0  0  0
    3.9805   46.7684   26.8021 O   0  0  0  0  0  0  0  0  0  0  0  0
    1.8205   47.4251   26.6842 O   0  0  0  0  0  0  0  0  0  0  0  0
    3.6297   53.5942   25.9699 C   0  0  0  0  0  0  0  0  0  0  0  0
    2.9360   52.4390   25.4789 O   0  0  0  0  0  0  0  0  0  0  0  0
    8.8121   40.1850   34.2131 O   0  0  0  0  0  0  0  0  0  0  0  0
   11.2404   40.7941   33.3690 O   0  0  0  0  0  0  0  0  0  0  0  0
   10.9143   40.6898   31.9972 C   0  0  0  0  0  0  0  0  0  0  0  0
   11.5261   39.3885   31.4376 C   0  0  0  0  0  0  0  0  0  0  0  0
   12.7504   39.0888   32.0816 O   0  0  0  0  0  0  0  0  0  0  0  0
   10.6115   38.1910   31.6460 C   0  0  0  0  0  0  0  0  0  0  0  0
   12.9357   37.6812   32.0303 C   0  0  0  0  0  0  0  0  0  0  0  0
    9.6146   38.0859   30.6533 O   0  0  0  0  0  0  0  0  0  0  0  0
   11.5769   37.0148   31.7012 C   0  0  0  0  0  0  0  0  0  0  0  0
   13.4849   37.2112   33.3247 N   0  0  0  0  0  0  0  0  0  0  0  0
   11.6193   36.3261   30.4724 O   0  0  0  0  0  0  0  0  0  0  0  0
   14.4802   36.3313   33.5730 C   0  0  0  0  0  0  0  0  0  0  0  0
   13.1141   37.6268   34.5698 C   0  0  0  0  0  0  0  0  0  0  0  0
   15.2074   35.6151   32.6741 N   0  0  0  0  0  0  0  0  0  0  0  0
   14.6761   36.2300   34.9184 C   0  0  0  0  0  0  0  0  0  0  0  0
   13.8220   37.0445   35.5789 N   0  0  0  0  0  0  0  0  0  0  0  0
   16.1642   34.7600   33.1547 C   0  0  0  0  0  0  0  0  0  0  0  0
   15.6529   35.3503   35.4132 C   0  0  0  0  0  0  0  0  0  0  0  0
   16.3797   34.6314   34.5042 N   0  0  0  0  0  0  0  0  0  0  0  0
   15.9004   35.1930   36.8090 N   0  0  0  0  0  0  0  0  0  0  0  0
    9.0122   45.4317   33.6714 H   0  0  0  0  0  0  0  0  0  0  0  0
   11.8909   45.7658   32.9477 H   0  0  0  0  0  0  0  0  0  0  0  0
   10.7262   46.9688   33.1216 H   0  0  0  0  0  0  0  0  0  0  0  0
    9.3427   43.8332   31.4758 H   0  0  0  0  0  0  0  0  0  0  0  0
   10.7237   44.8826   31.1559 H   0  0  0  0  0  0  0  0  0  0  0  0
    7.0109   44.7148   31.5804 H   0  0  0  0  0  0  0  0  0  0  0  0
   10.3460   47.1858   30.4096 H   0  0  0  0  0  0  0  0  0  0  0  0
    5.4682   46.2769   30.5109 H   0  0  0  0  0  0  0  0  0  0  0  0
    8.7943   48.7686   29.3412 H   0  0  0  0  0  0  0  0  0  0  0  0
    4.3820   47.5744   29.0458 H   0  0  0  0  0  0  0  0  0  0  0  0
    4.5111   48.3126   31.3763 H   0  0  0  0  0  0  0  0  0  0  0  0
    3.1266   49.1289   30.5725 H   0  0  0  0  0  0  0  0  0  0  0  0
    4.6638   50.0316   30.8803 H   0  0  0  0  0  0  0  0  0  0  0  0
    5.3528   51.2591   28.9293 H   0  0  0  0  0  0  0  0  0  0  0  0
    2.1909   49.7459   25.3794 H   0  0  0  0  0  0  0  0  0  0  0  0
    4.3046   53.9977   25.1863 H   0  0  0  0  0  0  0  0  0  0  0  0
    2.9030   54.3660   26.2999 H   0  0  0  0  0  0  0  0  0  0  0  0
   11.3779   41.5526   31.4726 H   0  0  0  0  0  0  0  0  0  0  0  0
    9.8233   40.7191   31.7646 H   0  0  0  0  0  0  0  0  0  0  0  0
   11.7283   39.5312   30.3515 H   0  0  0  0  0  0  0  0  0  0  0  0
   10.1127   38.2734   32.6376 H   0  0  0  0  0  0  0  0  0  0  0  0
   13.6692   37.4566   31.2242 H   0  0  0  0  0  0  0  0  0  0  0  0
   10.0533   38.1119   29.7635 H   0  0  0  0  0  0  0  0  0  0  0  0
   11.2607   36.3148   32.5102 H   0  0  0  0  0  0  0  0  0  0  0  0
   12.1496   35.5023   30.6324 H   0  0  0  0  0  0  0  0  0  0  0  0
   12.3301   38.3524   34.7455 H   0  0  0  0  0  0  0  0  0  0  0  0
   16.7562   34.1781   32.4619 H   0  0  0  0  0  0  0  0  0  0  0  0
   16.6350   34.5298   37.1415 H   0  0  0  0  0  0  0  0  0  0  0  0
   15.3535   35.7357   37.5139 H   0  0  0  0  0  0  0  0  0  0  0  0
  1  2  2  0
  1  3  1  0
  3  4  1  0
  4  5  1  0
  6  1  1  0
  7  6  1  0
  6  8  1  0
  8  9  1  0
  9 10  2  0
 11  9  1  0
 10 12  1  0
 13 11  2  0
 12 14  2  0
 14 13  1  0
 14 15  1  0
 15 16  1  0
 16 17  1  0
 16 18  1  0
 18 19  2  0
 20 18  1  0
 19 21  1  0
 22 20  2  0
 20 23  1  0
 21 24  1  0
 21 25  2  0
 25 22  1  0
 23 26  1  0
 23 27  2  0
 24 28  1  0
 25 29  1  0
 28 29  1  0
  4 30  2  0
  4 31  1  0
 32 31  1  0
 32 33  1  0
 33 34  1  0
 33 35  1  0
 34 36  1  0
 35 37  1  0
 35 38  1  0
 38 36  1  0
 36 39  1  0
 38 40  1  0
 41 39  1  0
 42 39  1  0
 43 41  2  0
 41 44  1  0
 45 42  2  0
 46 43  1  0
 44 47  2  0
 44 45  1  0
 48 46  2  0
 48 47  1  0
 47 49  1  0
  6 50  1  1
  7 51  1  0
  7 52  1  0
  8 53  1  0
  8 54  1  0
 10 55  1  0
 11 56  1  0
 12 57  1  0
 13 58  1  0
 16 59  1  6
 17 60  1  0
 17 61  1  0
 17 62  1  0
 19 63  1  0
 22 64  1  0
 28 65  1  0
 28 66  1  0
 32 67  1  0
 32 68  1  0
 33 69  1  0
 35 70  1  0
 36 71  1  0
 37 72  1  0
 38 73  1  0
 40 74  1  0
 42 75  1  0
 46 76  1  0
 49 77  1  0
 49 78  1  0
M  CHG  3   5  -1  23   1  26  -1
M  END
>  <EmbedRMS>  (237) 
0.081594560066

$$$$

     RDKit          3D

 78 83  0  0  0  0  0  0  0  0999 V2000
   10.2833   43.7662   33.8252 C   0  0  0  0  0  0  0  0  0  0  0  0
   11.4100   43.5931   34.3750 O   0  0  0  0  0  0  0  0  0  0  0  0
    9.3636   42.7255   33.7346 O   0  0  0  0  0  0  0  0  0  0  0  0
    9.8906   41.2266   34.2933 P   0  0  0  0  0  0  0  0  0  0  0  0
   10.3742   41.4558   35.8827 O   0  0  0  0  0  0  0  0  0  0  0  0
    9.9545   45.0695   33.2030 C   0  0  1  0  0  0  0  0  0  0  0  0
   11.0271   46.0322   33.4753 N   0  0  0  0  0  0  0  0  0  0  0  0
    9.7466   44.8483   31.6869 C   0  0  0  0  0  0  0  0  0  0  0  0
    8.7921   45.8408   31.0835 C   0  0  0  0  0  0  0  0  0  0  0  0
    7.4041   45.6017   31.1007 C   0  0  0  0  0  0  0  0  0  0  0  0
    9.2822   46.9900   30.4427 C   0  0  0  0  0  0  0  0  0  0  0  0
    6.5243   46.5042   30.4876 C   0  0  0  0  0  0  0  0  0  0  0  0
    8.4008   47.8919   29.8345 C   0  0  0  0  0  0  0  0  0  0  0  0
    7.0217   47.6467   29.8426 C   0  0  0  0  0  0  0  0  0  0  0  0
    6.1497   48.5541   29.2354 O   0  0  0  0  0  0  0  0  0  0  0  0
    5.5906   48.3731   27.9305 C   0  0  1  0  0  0  0  0  0  0  0  0
    6.6408   48.6090   26.8372 C   0  0  0  0  0  0  0  0  0  0  0  0
    4.7960   47.0718   27.8288 C   0  0  0  0  0  0  0  0  0  0  0  0
    3.4673   47.1027   28.3213 C   0  0  0  0  0  0  0  0  0  0  0  0
    5.3020   45.8377   27.2884 C   0  0  0  0  0  0  0  0  0  0  0  0
    2.6931   45.9533   28.2361 C   0  0  0  0  0  0  0  0  0  0  0  0
    4.4633   44.7051   27.2142 C   0  0  0  0  0  0  0  0  0  0  0  0
    6.6459   45.7007   26.8227 N   0  0  0  0  0  0  0  0  0  0  0  0
    1.3867   45.7653   28.6449 O   0  0  0  0  0  0  0  0  0  0  0  0
    3.1687   44.8062   27.7021 C   0  0  0  0  0  0  0  0  0  0  0  0
    6.8673   45.3422   25.5137 O   0  0  0  0  0  0  0  0  0  0  0  0
    7.5719   45.5721   27.6484 O   0  0  0  0  0  0  0  0  0  0  0  0
    1.0206   44.4111   28.3466 C   0  0  0  0  0  0  0  0  0  0  0  0
    2.1878   43.8343   27.7453 O   0  0  0  0  0  0  0  0  0  0  0  0
    8.8123   40.1851   34.2127 O   0  0  0  0  0  0  0  0  0  0  0  0
   11.2406   40.7945   33.3670 O   0  0  0  0  0  0  0  0  0  0  0  0
   10.9134   40.6867   31.9954 C   0  0  0  0  0  0  0  0  0  0  0  0
   11.5167   39.3787   31.4404 C   0  0  0  0  0  0  0  0  0  0  0  0
   12.7486   39.0849   32.0735 O   0  0  0  0  0  0  0  0  0  0  0  0
   10.6039   38.1884   31.6669 C   0  0  0  0  0  0  0  0  0  0  0  0
   12.9329   37.6776   32.0284 C   0  0  0  0  0  0  0  0  0  0  0  0
    9.6373   38.0938   30.6484 O   0  0  0  0  0  0  0  0  0  0  0  0
   11.5737   37.0141   31.7055 C   0  0  0  0  0  0  0  0  0  0  0  0
   13.4853   37.2120   33.3238 N   0  0  0  0  0  0  0  0  0  0  0  0
   11.6209   36.3379   30.4683 O   0  0  0  0  0  0  0  0  0  0  0  0
   14.4804   36.3319   33.5726 C   0  0  0  0  0  0  0  0  0  0  0  0
   13.1140   37.6274   34.5689 C   0  0  0  0  0  0  0  0  0  0  0  0
   15.2076   35.6152   32.6740 N   0  0  0  0  0  0  0  0  0  0  0  0
   14.6761   36.2307   34.9181 C   0  0  0  0  0  0  0  0  0  0  0  0
   13.8218   37.0451   35.5783 N   0  0  0  0  0  0  0  0  0  0  0  0
   16.1642   34.7600   33.1548 C   0  0  0  0  0  0  0  0  0  0  0  0
   15.6528   35.3507   35.4131 C   0  0  0  0  0  0  0  0  0  0  0  0
   16.3796   34.6315   34.5043 N   0  0  0  0  0  0  0  0  0  0  0  0
   15.9001   35.1933   36.8090 N   0  0  0  0  0  0  0  0  0  0  0  0
    9.0119   45.4317   33.6707 H   0  0  0  0  0  0  0  0  0  0  0  0
   10.7257   46.9688   33.1211 H   0  0  0  0  0  0  0  0  0  0  0  0
   11.8904   45.7660   32.9467 H   0  0  0  0  0  0  0  0  0  0  0  0
   10.7229   44.8822   31.1548 H   0  0  0  0  0  0  0  0  0  0  0  0
    9.3416   43.8332   31.4752 H   0  0  0  0  0  0  0  0  0  0  0  0
    7.0070   44.7187   31.5859 H   0  0  0  0  0  0  0  0  0  0  0  0
   10.3463   47.1892   30.4128 H   0  0  0  0  0  0  0  0  0  0  0  0
    5.4593   46.3148   30.5165 H   0  0  0  0  0  0  0  0  0  0  0  0
    8.7898   48.7766   29.3469 H   0  0  0  0  0  0  0  0  0  0  0  0
    4.8617   49.2017   27.7871 H   0  0  0  0  0  0  0  0  0  0  0  0
    7.5761   48.0514   27.0367 H   0  0  0  0  0  0  0  0  0  0  0  0
    6.9081   49.6869   26.8095 H   0  0  0  0  0  0  0  0  0  0  0  0
    6.2363   48.3279   25.8416 H   0  0  0  0  0  0  0  0  0  0  0  0
    3.0466   48.0007   28.7565 H   0  0  0  0  0  0  0  0  0  0  0  0
    4.8216   43.7688   26.8054 H   0  0  0  0  0  0  0  0  0  0  0  0
    0.1717   44.3914   27.6314 H   0  0  0  0  0  0  0  0  0  0  0  0
    0.7625   43.8685   29.2801 H   0  0  0  0  0  0  0  0  0  0  0  0
   11.3827   41.5439   31.4668 H   0  0  0  0  0  0  0  0  0  0  0  0
    9.8225   40.7225   31.7630 H   0  0  0  0  0  0  0  0  0  0  0  0
   11.6979   39.5037   30.3478 H   0  0  0  0  0  0  0  0  0  0  0  0
   10.1083   38.2787   32.6627 H   0  0  0  0  0  0  0  0  0  0  0  0
   13.6638   37.4472   31.2214 H   0  0  0  0  0  0  0  0  0  0  0  0
    8.9762   37.4191   30.9532 H   0  0  0  0  0  0  0  0  0  0  0  0
   11.2820   36.3054   32.5172 H   0  0  0  0  0  0  0  0  0  0  0  0
   10.8657   35.6936   30.4653 H   0  0  0  0  0  0  0  0  0  0  0  0
   12.3293   38.3522   34.7444 H   0  0  0  0  0  0  0  0  0  0  0  0
   16.7561   34.1778   32.4621 H   0  0  0  0  0  0  0  0  0  0  0  0
   15.3533   35.7361   37.5138 H   0  0  0  0  0  0  0  0  0  0  0  0
   16.6345   34.5300   37.1416 H   0  0  0  0  0  0  0  0  0  0  0  0
  1  2  2  0
  1  3  1  0
  3  4  1  0
  4  5  1  0
  6  1  1  0
  7  6  1  0
  6  8  1  0
  8  9  1  0
  9 10  2  0
 11  9  1  0
 10 12  1  0
 13 11  2  0
 12 14  2  0
 14 13  1  0
 14 15  1  0
 15 16  1  0
 16 17  1  0
 16 18  1  0
 18 19  2  0
 20 18  1  0
 19 21  1  0
 22 20  2  0
 20 23  1  0
 21 24  1  0
 21 25  2  0
 25 22  1  0
 23 26  1  0
 23 27  2  0
 24 28  1  0
 25 29  1  0
 28 29  1  0
  4 30  2  0
  4 31  1  0
 32 31  1  0
 32 33  1  0
 33 34  1  0
 33 35  1  0
 34 36  1  0
 35 37  1  0
 35 38  1  0
 38 36  1  0
 36 39  1  0
 38 40  1  0
 41 39  1  0
 42 39  1  0
 43 41  2  0
 41 44  1  0
 45 42  2  0
 46 43  1  0
 44 47  2  0
 44 45  1  0
 48 46  2  0
 48 47  1  0
 47 49  1  0
  6 50  1  1
  7 51  1  0
  7 52  1  0
  8 53  1  0
  8 54  1  0
 10 55  1  0
 11 56  1  0
 12 57  1  0
 13 58  1  0
 16 59  1  6
 17 60  1  0
 17 61  1  0
 17 62  1  0
 19 63  1  0
 22 64  1  0
 28 65  1  0
 28 66  1  0
 32 67  1  0
 32 68  1  0
 33 69  1  0
 35 70  1  0
 36 71  1  0
 37 72  1  0
 38 73  1  0
 40 74  1  0
 42 75  1  0
 46 76  1  0
 49 77  1  0
 49 78  1  0
M  CHG  3   5  -1  23   1  26  -1
M  END
>  <EmbedRMS>  (238) 
0.0826797588598

$$$$

     RDKit          3D

 78 83  0  0  0  0  0  0  0  0999 V2000
   10.2834   43.7662   33.8254 C   0  0  0  0  0  0  0  0  0  0  0  0
   11.4101   43.5932   34.3751 O   0  0  0  0  0  0  0  0  0  0  0  0
    9.3637   42.7255   33.7349 O   0  0  0  0  0  0  0  0  0  0  0  0
    9.8903   41.2268   34.2946 P   0  0  0  0  0  0  0  0  0  0  0  0
   10.3728   41.4562   35.8842 O   0  0  0  0  0  0  0  0  0  0  0  0
    9.9546   45.0694   33.2030 C   0  0  1  0  0  0  0  0  0  0  0  0
   11.0272   46.0322   33.4753 N   0  0  0  0  0  0  0  0  0  0  0  0
    9.7467   44.8480   31.6869 C   0  0  0  0  0  0  0  0  0  0  0  0
    8.7922   45.8401   31.0831 C   0  0  0  0  0  0  0  0  0  0  0  0
    7.4047   45.6021   31.1007 C   0  0  0  0  0  0  0  0  0  0  0  0
    9.2816   46.9895   30.4438 C   0  0  0  0  0  0  0  0  0  0  0  0
    6.5260   46.5055   30.4878 C   0  0  0  0  0  0  0  0  0  0  0  0
    8.4010   47.8918   29.8351 C   0  0  0  0  0  0  0  0  0  0  0  0
    7.0192   47.6466   29.8410 C   0  0  0  0  0  0  0  0  0  0  0  0
    6.1139   48.5186   29.2226 O   0  0  0  0  0  0  0  0  0  0  0  0
    6.0587   48.7720   27.8126 C   0  0  1  0  0  0  0  0  0  0  0  0
    6.8533   50.0267   27.4404 C   0  0  0  0  0  0  0  0  0  0  0  0
    6.3212   47.4994   27.0027 C   0  0  0  0  0  0  0  0  0  0  0  0
    5.2679   46.5503   26.9870 C   0  0  0  0  0  0  0  0  0  0  0  0
    7.5687   47.1506   26.3747 C   0  0  0  0  0  0  0  0  0  0  0  0
    5.4726   45.3272   26.3632 C   0  0  0  0  0  0  0  0  0  0  0  0
    7.7204   45.8887   25.7608 C   0  0  0  0  0  0  0  0  0  0  0  0
    8.6863   48.0380   26.3401 N   0  0  0  0  0  0  0  0  0  0  0  0
    4.5927   44.2695   26.2365 O   0  0  0  0  0  0  0  0  0  0  0  0
    6.6478   45.0098   25.7768 C   0  0  0  0  0  0  0  0  0  0  0  0
    9.8296   47.6905   27.0203 O   0  0  0  0  0  0  0  0  0  0  0  0
    8.7716   48.8646   25.4091 O   0  0  0  0  0  0  0  0  0  0  0  0
    5.2613   43.2216   25.5213 C   0  0  0  0  0  0  0  0  0  0  0  0
    6.5714   43.7363   25.2467 O   0  0  0  0  0  0  0  0  0  0  0  0
    8.8125   40.1848   34.2126 O   0  0  0  0  0  0  0  0  0  0  0  0
   11.2416   40.7948   33.3707 O   0  0  0  0  0  0  0  0  0  0  0  0
   10.9179   40.6922   31.9984 C   0  0  0  0  0  0  0  0  0  0  0  0
   11.5175   39.3838   31.4423 C   0  0  0  0  0  0  0  0  0  0  0  0
   12.7507   39.0887   32.0752 O   0  0  0  0  0  0  0  0  0  0  0  0
   10.6027   38.1916   31.6658 C   0  0  0  0  0  0  0  0  0  0  0  0
   12.9384   37.6819   32.0278 C   0  0  0  0  0  0  0  0  0  0  0  0
    9.6371   38.0806   30.6470 O   0  0  0  0  0  0  0  0  0  0  0  0
   11.5780   37.0215   31.6935 C   0  0  0  0  0  0  0  0  0  0  0  0
   13.4844   37.2119   33.3242 N   0  0  0  0  0  0  0  0  0  0  0  0
   11.6095   36.3202   30.4679 O   0  0  0  0  0  0  0  0  0  0  0  0
   14.4797   36.3318   33.5730 C   0  0  0  0  0  0  0  0  0  0  0  0
   13.1135   37.6278   34.5691 C   0  0  0  0  0  0  0  0  0  0  0  0
   15.2073   35.6155   32.6742 N   0  0  0  0  0  0  0  0  0  0  0  0
   14.6754   36.2305   34.9184 C   0  0  0  0  0  0  0  0  0  0  0  0
   13.8213   37.0452   35.5785 N   0  0  0  0  0  0  0  0  0  0  0  0
   16.1640   34.7604   33.1549 C   0  0  0  0  0  0  0  0  0  0  0  0
   15.6524   35.3507   35.4132 C   0  0  0  0  0  0  0  0  0  0  0  0
   16.3794   34.6318   34.5043 N   0  0  0  0  0  0  0  0  0  0  0  0
   15.9000   35.1934   36.8091 N   0  0  0  0  0  0  0  0  0  0  0  0
    9.0119   45.4317   33.6706 H   0  0  0  0  0  0  0  0  0  0  0  0
   10.7256   46.9688   33.1212 H   0  0  0  0  0  0  0  0  0  0  0  0
   11.8904   45.7660   32.9464 H   0  0  0  0  0  0  0  0  0  0  0  0
   10.7230   44.8819   31.1548 H   0  0  0  0  0  0  0  0  0  0  0  0
    9.3419   43.8327   31.4754 H   0  0  0  0  0  0  0  0  0  0  0  0
    7.0073   44.7177   31.5833 H   0  0  0  0  0  0  0  0  0  0  0  0
   10.3454   47.1918   30.4199 H   0  0  0  0  0  0  0  0  0  0  0  0
    5.4613   46.3100   30.5010 H   0  0  0  0  0  0  0  0  0  0  0  0
    8.8016   48.7836   29.3805 H   0  0  0  0  0  0  0  0  0  0  0  0
    5.0064   49.0621   27.5952 H   0  0  0  0  0  0  0  0  0  0  0  0
    6.4267   50.9012   27.9765 H   0  0  0  0  0  0  0  0  0  0  0  0
    6.7669   50.2242   26.3513 H   0  0  0  0  0  0  0  0  0  0  0  0
    7.9164   49.9584   27.7296 H   0  0  0  0  0  0  0  0  0  0  0  0
    4.3192   46.7524   27.4688 H   0  0  0  0  0  0  0  0  0  0  0  0
    8.6505   45.6067   25.2838 H   0  0  0  0  0  0  0  0  0  0  0  0
    5.3319   42.3106   26.1518 H   0  0  0  0  0  0  0  0  0  0  0  0
    4.7284   43.0039   24.5720 H   0  0  0  0  0  0  0  0  0  0  0  0
   11.3952   41.5478   31.4744 H   0  0  0  0  0  0  0  0  0  0  0  0
    9.8291   40.7409   31.7626 H   0  0  0  0  0  0  0  0  0  0  0  0
   11.6981   39.5115   30.3500 H   0  0  0  0  0  0  0  0  0  0  0  0
   10.1117   38.2604   32.6660 H   0  0  0  0  0  0  0  0  0  0  0  0
   13.6767   37.4556   31.2267 H   0  0  0  0  0  0  0  0  0  0  0  0
    8.8962   38.6954   30.8870 H   0  0  0  0  0  0  0  0  0  0  0  0
   11.2791   36.3073   32.4922 H   0  0  0  0  0  0  0  0  0  0  0  0
   11.8828   36.9598   29.7589 H   0  0  0  0  0  0  0  0  0  0  0  0
   12.3300   38.3539   34.7446 H   0  0  0  0  0  0  0  0  0  0  0  0
   16.7561   34.1785   32.4621 H   0  0  0  0  0  0  0  0  0  0  0  0
   16.6347   34.5303   37.1416 H   0  0  0  0  0  0  0  0  0  0  0  0
   15.3531   35.7360   37.5140 H   0  0  0  0  0  0  0  0  0  0  0  0
  1  2  2  0
  1  3  1  0
  3  4  1  0
  4  5  1  0
  6  1  1  0
  7  6  1  0
  6  8  1  0
  8  9  1  0
  9 10  2  0
 11  9  1  0
 10 12  1  0
 13 11  2  0
 12 14  2  0
 14 13  1  0
 14 15  1  0
 15 16  1  0
 16 17  1  0
 16 18  1  0
 18 19  2  0
 20 18  1  0
 19 21  1  0
 22 20  2  0
 20 23  1  0
 21 24  1  0
 21 25  2  0
 25 22  1  0
 23 26  1  0
 23 27  2  0
 24 28  1  0
 25 29  1  0
 28 29  1  0
  4 30  2  0
  4 31  1  0
 32 31  1  0
 32 33  1  0
 33 34  1  0
 33 35  1  0
 34 36  1  0
 35 37  1  0
 35 38  1  0
 38 36  1  0
 36 39  1  0
 38 40  1  0
 41 39  1  0
 42 39  1  0
 43 41  2  0
 41 44  1  0
 45 42  2  0
 46 43  1  0
 44 47  2  0
 44 45  1  0
 48 46  2  0
 48 47  1  0
 47 49  1  0
  6 50  1  1
  7 51  1  0
  7 52  1  0
  8 53  1  0
  8 54  1  0
 10 55  1  0
 11 56  1  0
 12 57  1  0
 13 58  1  0
 16 59  1  1
 17 60  1  0
 17 61  1  0
 17 62  1  0
 19 63  1  0
 22 64  1  0
 28 65  1  0
 28 66  1  0
 32 67  1  0
 32 68  1  0
 33 69  1  0
 35 70  1  0
 36 71  1  0
 37 72  1  0
 38 73  1  0
 40 74  1  0
 42 75  1  0
 46 76  1  0
 49 77  1  0
 49 78  1  0
M  CHG  3   5  -1  23   1  26  -1
M  END
>  <EmbedRMS>  (239) 
0.0820927864046

$$$$

     RDKit          3D

 78 83  0  0  0  0  0  0  0  0999 V2000
   10.2837   43.7628   33.8278 C   0  0  0  0  0  0  0  0  0  0  0  0
   11.4103   43.5864   34.3766 O   0  0  0  0  0  0  0  0  0  0  0  0
    9.3628   42.7238   33.7358 O   0  0  0  0  0  0  0  0  0  0  0  0
    9.8893   41.2251   34.2943 P   0  0  0  0  0  0  0  0  0  0  0  0
   10.3731   41.4545   35.8837 O   0  0  0  0  0  0  0  0  0  0  0  0
    9.9547   45.0701   33.2065 C   0  0  1  0  0  0  0  0  0  0  0  0
   11.0198   46.0482   33.4568 N   0  0  0  0  0  0  0  0  0  0  0  0
    9.7500   44.8509   31.6925 C   0  0  0  0  0  0  0  0  0  0  0  0
    8.7942   45.8419   31.0871 C   0  0  0  0  0  0  0  0  0  0  0  0
    7.4074   45.6007   31.0994 C   0  0  0  0  0  0  0  0  0  0  0  0
    9.2833   46.9888   30.4445 C   0  0  0  0  0  0  0  0  0  0  0  0
    6.5280   46.5014   30.4833 C   0  0  0  0  0  0  0  0  0  0  0  0
    8.4039   47.8893   29.8318 C   0  0  0  0  0  0  0  0  0  0  0  0
    7.0144   47.6530   29.8495 C   0  0  0  0  0  0  0  0  0  0  0  0
    6.0880   48.5270   29.2572 O   0  0  0  0  0  0  0  0  0  0  0  0
    6.4049   49.7891   28.6635 C   0  0  1  0  0  0  0  0  0  0  0  0
    5.1646   50.3195   27.9464 C   0  0  0  0  0  0  0  0  0  0  0  0
    6.8557   50.7790   29.7243 C   0  0  0  0  0  0  0  0  0  0  0  0
    6.1290   50.8471   30.9384 C   0  0  0  0  0  0  0  0  0  0  0  0
    8.0206   51.5982   29.5573 C   0  0  0  0  0  0  0  0  0  0  0  0
    6.5945   51.6833   31.9443 C   0  0  0  0  0  0  0  0  0  0  0  0
    8.4555   52.4193   30.6231 C   0  0  0  0  0  0  0  0  0  0  0  0
    8.7532   51.6217   28.3223 N   0  0  0  0  0  0  0  0  0  0  0  0
    6.0601   51.8960   33.2005 O   0  0  0  0  0  0  0  0  0  0  0  0
    7.7113   52.4321   31.7954 C   0  0  0  0  0  0  0  0  0  0  0  0
    8.0881   51.7770   27.1282 O   0  0  0  0  0  0  0  0  0  0  0  0
    9.9971   51.7268   28.3370 O   0  0  0  0  0  0  0  0  0  0  0  0
    6.8963   52.8406   33.8826 C   0  0  0  0  0  0  0  0  0  0  0  0
    7.9384   53.1570   32.9494 O   0  0  0  0  0  0  0  0  0  0  0  0
    8.8113   40.1835   34.2130 O   0  0  0  0  0  0  0  0  0  0  0  0
   11.2397   40.7943   33.3684 O   0  0  0  0  0  0  0  0  0  0  0  0
   10.9125   40.6875   31.9969 C   0  0  0  0  0  0  0  0  0  0  0  0
   11.5169   39.3810   31.4420 C   0  0  0  0  0  0  0  0  0  0  0  0
   12.7500   39.0880   32.0758 O   0  0  0  0  0  0  0  0  0  0  0  0
   10.6043   38.1892   31.6659 C   0  0  0  0  0  0  0  0  0  0  0  0
   12.9395   37.6813   32.0280 C   0  0  0  0  0  0  0  0  0  0  0  0
    9.6353   38.0950   30.6499 O   0  0  0  0  0  0  0  0  0  0  0  0
   11.5804   37.0190   31.6934 C   0  0  0  0  0  0  0  0  0  0  0  0
   13.4851   37.2118   33.3244 N   0  0  0  0  0  0  0  0  0  0  0  0
   11.6118   36.3188   30.4673 O   0  0  0  0  0  0  0  0  0  0  0  0
   14.4801   36.3316   33.5732 C   0  0  0  0  0  0  0  0  0  0  0  0
   13.1139   37.6277   34.5692 C   0  0  0  0  0  0  0  0  0  0  0  0
   15.2076   35.6154   32.6744 N   0  0  0  0  0  0  0  0  0  0  0  0
   14.6756   36.2303   34.9186 C   0  0  0  0  0  0  0  0  0  0  0  0
   13.8215   37.0451   35.5786 N   0  0  0  0  0  0  0  0  0  0  0  0
   16.1642   34.7602   33.1551 C   0  0  0  0  0  0  0  0  0  0  0  0
   15.6526   35.3505   35.4134 C   0  0  0  0  0  0  0  0  0  0  0  0
   16.3795   34.6316   34.5045 N   0  0  0  0  0  0  0  0  0  0  0  0
   15.9001   35.1933   36.8093 N   0  0  0  0  0  0  0  0  0  0  0  0
    9.0098   45.4351   33.6672 H   0  0  0  0  0  0  0  0  0  0  0  0
   11.1134   46.1995   34.4881 H   0  0  0  0  0  0  0  0  0  0  0  0
   11.9348   45.6933   33.0924 H   0  0  0  0  0  0  0  0  0  0  0  0
   10.7303   44.8922   31.1676 H   0  0  0  0  0  0  0  0  0  0  0  0
    9.3507   43.8344   31.4765 H   0  0  0  0  0  0  0  0  0  0  0  0
    7.0108   44.7155   31.5811 H   0  0  0  0  0  0  0  0  0  0  0  0
   10.3477   47.1870   30.4146 H   0  0  0  0  0  0  0  0  0  0  0  0
    5.4635   46.3050   30.5019 H   0  0  0  0  0  0  0  0  0  0  0  0
    8.8181   48.7599   29.3444 H   0  0  0  0  0  0  0  0  0  0  0  0
    7.1884   49.6220   27.8962 H   0  0  0  0  0  0  0  0  0  0  0  0
    4.3193   50.4342   28.6583 H   0  0  0  0  0  0  0  0  0  0  0  0
    4.8606   49.6090   27.1487 H   0  0  0  0  0  0  0  0  0  0  0  0
    5.3790   51.3038   27.4785 H   0  0  0  0  0  0  0  0  0  0  0  0
    5.2417   50.2484   31.1012 H   0  0  0  0  0  0  0  0  0  0  0  0
    9.3334   53.0456   30.5303 H   0  0  0  0  0  0  0  0  0  0  0  0
    7.3273   52.3817   34.7971 H   0  0  0  0  0  0  0  0  0  0  0  0
    6.3176   53.7538   34.1349 H   0  0  0  0  0  0  0  0  0  0  0  0
    9.8216   40.7223   31.7644 H   0  0  0  0  0  0  0  0  0  0  0  0
   11.3811   41.5456   31.4692 H   0  0  0  0  0  0  0  0  0  0  0  0
   11.6986   39.5089   30.3498 H   0  0  0  0  0  0  0  0  0  0  0  0
   10.1109   38.2736   32.6630 H   0  0  0  0  0  0  0  0  0  0  0  0
   13.6783   37.4561   31.2271 H   0  0  0  0  0  0  0  0  0  0  0  0
    9.0020   37.3859   30.9348 H   0  0  0  0  0  0  0  0  0  0  0  0
   11.2808   36.3052   32.4921 H   0  0  0  0  0  0  0  0  0  0  0  0
   11.8819   36.9599   29.7584 H   0  0  0  0  0  0  0  0  0  0  0  0
   12.3303   38.3538   34.7445 H   0  0  0  0  0  0  0  0  0  0  0  0
   16.7563   34.1783   32.4623 H   0  0  0  0  0  0  0  0  0  0  0  0
   16.6348   34.5301   37.1418 H   0  0  0  0  0  0  0  0  0  0  0  0
   15.3532   35.7359   37.5142 H   0  0  0  0  0  0  0  0  0  0  0  0
  1  2  2  0
  1  3  1  0
  3  4  1  0
  4  5  1  0
  6  1  1  0
  7  6  1  0
  6  8  1  0
  8  9  1  0
  9 10  2  0
 11  9  1  0
 10 12  1  0
 13 11  2  0
 12 14  2  0
 14 13  1  0
 14 15  1  0
 15 16  1  0
 16 17  1  0
 16 18  1  0
 18 19  2  0
 20 18  1  0
 19 21  1  0
 22 20  2  0
 20 23  1  0
 21 24  1  0
 21 25  2  0
 25 22  1  0
 23 26  1  0
 23 27  2  0
 24 28  1  0
 25 29  1  0
 28 29  1  0
  4 30  2  0
  4 31  1  0
 32 31  1  0
 32 33  1  0
 33 34  1  0
 33 35  1  0
 34 36  1  0
 35 37  1  0
 35 38  1  0
 38 36  1  0
 36 39  1  0
 38 40  1  0
 41 39  1  0
 42 39  1  0
 43 41  2  0
 41 44  1  0
 45 42  2  0
 46 43  1  0
 44 47  2  0
 44 45  1  0
 48 46  2  0
 48 47  1  0
 47 49  1  0
  6 50  1  1
  7 51  1  0
  7 52  1  0
  8 53  1  0
  8 54  1  0
 10 55  1  0
 11 56  1  0
 12 57  1  0
 13 58  1  0
 16 59  1  6
 17 60  1  0
 17 61  1  0
 17 62  1  0
 19 63  1  0
 22 64  1  0
 28 65  1  0
 28 66  1  0
 32 67  1  0
 32 68  1  0
 33 69  1  0
 35 70  1  0
 36 71  1  0
 37 72  1  0
 38 73  1  0
 40 74  1  0
 42 75  1  0
 46 76  1  0
 49 77  1  0
 49 78  1  0
M  CHG  3   5  -1  23   1  26  -1
M  END
>  <EmbedRMS>  (240) 
0.0824682298087

$$$$

     RDKit          3D

 78 83  0  0  0  0  0  0  0  0999 V2000
   10.2840   43.7625   33.8276 C   0  0  0  0  0  0  0  0  0  0  0  0
   11.4104   43.5863   34.3768 O   0  0  0  0  0  0  0  0  0  0  0  0
    9.3634   42.7233   33.7352 O   0  0  0  0  0  0  0  0  0  0  0  0
    9.8899   41.2246   34.2940 P   0  0  0  0  0  0  0  0  0  0  0  0
   10.3724   41.4544   35.8837 O   0  0  0  0  0  0  0  0  0  0  0  0
    9.9548   45.0698   33.2064 C   0  0  1  0  0  0  0  0  0  0  0  0
   11.0197   46.0480   33.4568 N   0  0  0  0  0  0  0  0  0  0  0  0
    9.7501   44.8506   31.6923 C   0  0  0  0  0  0  0  0  0  0  0  0
    8.7943   45.8414   31.0867 C   0  0  0  0  0  0  0  0  0  0  0  0
    7.4077   45.6011   31.1003 C   0  0  0  0  0  0  0  0  0  0  0  0
    9.2830   46.9889   30.4451 C   0  0  0  0  0  0  0  0  0  0  0  0
    6.5284   46.5023   30.4850 C   0  0  0  0  0  0  0  0  0  0  0  0
    8.4037   47.8906   29.8332 C   0  0  0  0  0  0  0  0  0  0  0  0
    7.0140   47.6515   29.8456 C   0  0  0  0  0  0  0  0  0  0  0  0
    6.0818   48.5189   29.2518 O   0  0  0  0  0  0  0  0  0  0  0  0
    6.3873   49.6690   28.4588 C   0  0  1  0  0  0  0  0  0  0  0  0
    6.8887   49.2448   27.0718 C   0  0  0  0  0  0  0  0  0  0  0  0
    5.1356   50.5188   28.3315 C   0  0  0  0  0  0  0  0  0  0  0  0
    3.9759   49.9361   27.7618 C   0  0  0  0  0  0  0  0  0  0  0  0
    5.1003   51.8964   28.7300 C   0  0  0  0  0  0  0  0  0  0  0  0
    2.8562   50.7348   27.5697 C   0  0  0  0  0  0  0  0  0  0  0  0
    3.9375   52.6646   28.4942 C   0  0  0  0  0  0  0  0  0  0  0  0
    6.2097   52.5156   29.3956 N   0  0  0  0  0  0  0  0  0  0  0  0
    1.6344   50.3851   27.0276 O   0  0  0  0  0  0  0  0  0  0  0  0
    2.8399   52.0427   27.9146 C   0  0  0  0  0  0  0  0  0  0  0  0
    6.6958   51.9704   30.5616 O   0  0  0  0  0  0  0  0  0  0  0  0
    6.5551   53.6732   29.0812 O   0  0  0  0  0  0  0  0  0  0  0  0
    0.7982   51.5503   27.0333 C   0  0  0  0  0  0  0  0  0  0  0  0
    1.6069   52.5858   27.6083 O   0  0  0  0  0  0  0  0  0  0  0  0
    8.8119   40.1831   34.2121 O   0  0  0  0  0  0  0  0  0  0  0  0
   11.2416   40.7932   33.3699 O   0  0  0  0  0  0  0  0  0  0  0  0
   10.9187   40.6909   31.9972 C   0  0  0  0  0  0  0  0  0  0  0  0
   11.5172   39.3814   31.4407 C   0  0  0  0  0  0  0  0  0  0  0  0
   12.7493   39.0855   32.0727 O   0  0  0  0  0  0  0  0  0  0  0  0
   10.6023   38.1907   31.6665 C   0  0  0  0  0  0  0  0  0  0  0  0
   12.9319   37.6781   32.0281 C   0  0  0  0  0  0  0  0  0  0  0  0
    9.6392   38.0797   30.6452 O   0  0  0  0  0  0  0  0  0  0  0  0
   11.5715   37.0165   31.7056 C   0  0  0  0  0  0  0  0  0  0  0  0
   13.4846   37.2121   33.3235 N   0  0  0  0  0  0  0  0  0  0  0  0
   11.6187   36.3383   30.4694 O   0  0  0  0  0  0  0  0  0  0  0  0
   14.4801   36.3321   33.5724 C   0  0  0  0  0  0  0  0  0  0  0  0
   13.1137   37.6275   34.5687 C   0  0  0  0  0  0  0  0  0  0  0  0
   15.2073   35.6153   32.6738 N   0  0  0  0  0  0  0  0  0  0  0  0
   14.6759   36.2308   34.9179 C   0  0  0  0  0  0  0  0  0  0  0  0
   13.8216   37.0452   35.5781 N   0  0  0  0  0  0  0  0  0  0  0  0
   16.1640   34.7602   33.1546 C   0  0  0  0  0  0  0  0  0  0  0  0
   15.6526   35.3508   35.4129 C   0  0  0  0  0  0  0  0  0  0  0  0
   16.3794   34.6317   34.5041 N   0  0  0  0  0  0  0  0  0  0  0  0
   15.8999   35.1934   36.8088 N   0  0  0  0  0  0  0  0  0  0  0  0
    9.0098   45.4347   33.6670 H   0  0  0  0  0  0  0  0  0  0  0  0
   11.9348   45.6932   33.0924 H   0  0  0  0  0  0  0  0  0  0  0  0
   11.1134   46.1992   34.4881 H   0  0  0  0  0  0  0  0  0  0  0  0
   10.7304   44.8920   31.1675 H   0  0  0  0  0  0  0  0  0  0  0  0
    9.3510   43.8341   31.4763 H   0  0  0  0  0  0  0  0  0  0  0  0
    7.0110   44.7163   31.5828 H   0  0  0  0  0  0  0  0  0  0  0  0
   10.3473   47.1885   30.4183 H   0  0  0  0  0  0  0  0  0  0  0  0
    5.4640   46.3052   30.5037 H   0  0  0  0  0  0  0  0  0  0  0  0
    8.8216   48.7660   29.3587 H   0  0  0  0  0  0  0  0  0  0  0  0
    7.1963   50.2481   28.9403 H   0  0  0  0  0  0  0  0  0  0  0  0
    6.1616   48.5681   26.5758 H   0  0  0  0  0  0  0  0  0  0  0  0
    7.0457   50.1399   26.4326 H   0  0  0  0  0  0  0  0  0  0  0  0
    7.8554   48.7076   27.1551 H   0  0  0  0  0  0  0  0  0  0  0  0
    3.9514   48.8951   27.4660 H   0  0  0  0  0  0  0  0  0  0  0  0
    3.8841   53.7072   28.7807 H   0  0  0  0  0  0  0  0  0  0  0  0
    0.5096   51.8210   25.9961 H   0  0  0  0  0  0  0  0  0  0  0  0
   -0.1013   51.3743   27.6597 H   0  0  0  0  0  0  0  0  0  0  0  0
    9.8300   40.7411   31.7610 H   0  0  0  0  0  0  0  0  0  0  0  0
   11.3972   41.5459   31.4735 H   0  0  0  0  0  0  0  0  0  0  0  0
   11.6974   39.5067   30.3480 H   0  0  0  0  0  0  0  0  0  0  0  0
   10.1077   38.2647   32.6645 H   0  0  0  0  0  0  0  0  0  0  0  0
   13.6621   37.4467   31.2209 H   0  0  0  0  0  0  0  0  0  0  0  0
    8.8975   38.6943   30.8831 H   0  0  0  0  0  0  0  0  0  0  0  0
   11.2806   36.3073   32.5170 H   0  0  0  0  0  0  0  0  0  0  0  0
   10.8493   35.7110   30.4585 H   0  0  0  0  0  0  0  0  0  0  0  0
   12.3290   38.3524   34.7444 H   0  0  0  0  0  0  0  0  0  0  0  0
   16.7559   34.1780   32.4619 H   0  0  0  0  0  0  0  0  0  0  0  0
   15.3532   35.7362   37.5137 H   0  0  0  0  0  0  0  0  0  0  0  0
   16.6344   34.5301   37.1414 H   0  0  0  0  0  0  0  0  0  0  0  0
  1  2  2  0
  1  3  1  0
  3  4  1  0
  4  5  1  0
  6  1  1  0
  7  6  1  0
  6  8  1  0
  8  9  1  0
  9 10  2  0
 11  9  1  0
 10 12  1  0
 13 11  2  0
 12 14  2  0
 14 13  1  0
 14 15  1  0
 15 16  1  0
 16 17  1  0
 16 18  1  0
 18 19  2  0
 20 18  1  0
 19 21  1  0
 22 20  2  0
 20 23  1  0
 21 24  1  0
 21 25  2  0
 25 22  1  0
 23 26  1  0
 23 27  2  0
 24 28  1  0
 25 29  1  0
 28 29  1  0
  4 30  2  0
  4 31  1  0
 32 31  1  0
 32 33  1  0
 33 34  1  0
 33 35  1  0
 34 36  1  0
 35 37  1  0
 35 38  1  0
 38 36  1  0
 36 39  1  0
 38 40  1  0
 41 39  1  0
 42 39  1  0
 43 41  2  0
 41 44  1  0
 45 42  2  0
 46 43  1  0
 44 47  2  0
 44 45  1  0
 48 46  2  0
 48 47  1  0
 47 49  1  0
  6 50  1  1
  7 51  1  0
  7 52  1  0
  8 53  1  0
  8 54  1  0
 10 55  1  0
 11 56  1  0
 12 57  1  0
 13 58  1  0
 16 59  1  1
 17 60  1  0
 17 61  1  0
 17 62  1  0
 19 63  1  0
 22 64  1  0
 28 65  1  0
 28 66  1  0
 32 67  1  0
 32 68  1  0
 33 69  1  0
 35 70  1  0
 36 71  1  0
 37 72  1  0
 38 73  1  0
 40 74  1  0
 42 75  1  0
 46 76  1  0
 49 77  1  0
 49 78  1  0
M  CHG  3   5  -1  23   1  26  -1
M  END
>  <EmbedRMS>  (241) 
0.0838335579532

$$$$

     RDKit          3D

 78 83  0  0  0  0  0  0  0  0999 V2000
   10.2831   43.7666   33.8257 C   0  0  0  0  0  0  0  0  0  0  0  0
   11.4100   43.5936   34.3750 O   0  0  0  0  0  0  0  0  0  0  0  0
    9.3637   42.7257   33.7351 O   0  0  0  0  0  0  0  0  0  0  0  0
    9.8904   41.2270   34.2946 P   0  0  0  0  0  0  0  0  0  0  0  0
   10.3729   41.4563   35.8842 O   0  0  0  0  0  0  0  0  0  0  0  0
    9.9539   45.0700   33.2035 C   0  0  1  0  0  0  0  0  0  0  0  0
   11.0260   46.0332   33.4758 N   0  0  0  0  0  0  0  0  0  0  0  0
    9.7464   44.8484   31.6876 C   0  0  0  0  0  0  0  0  0  0  0  0
    8.7922   45.8407   31.0838 C   0  0  0  0  0  0  0  0  0  0  0  0
    7.4042   45.5998   31.0971 C   0  0  0  0  0  0  0  0  0  0  0  0
    9.2832   46.9875   30.4394 C   0  0  0  0  0  0  0  0  0  0  0  0
    6.5247   46.5013   30.4815 C   0  0  0  0  0  0  0  0  0  0  0  0
    8.4023   47.8880   29.8292 C   0  0  0  0  0  0  0  0  0  0  0  0
    7.0203   47.6546   29.8583 C   0  0  0  0  0  0  0  0  0  0  0  0
    6.1445   48.5512   29.2412 O   0  0  0  0  0  0  0  0  0  0  0  0
    5.6050   49.7113   29.8829 C   0  0  1  0  0  0  0  0  0  0  0  0
    4.5006   49.3368   30.8766 C   0  0  0  0  0  0  0  0  0  0  0  0
    6.7059   50.6200   30.4302 C   0  0  0  0  0  0  0  0  0  0  0  0
    7.2013   51.6222   29.5581 C   0  0  0  0  0  0  0  0  0  0  0  0
    7.3333   50.4540   31.7141 C   0  0  0  0  0  0  0  0  0  0  0  0
    8.2683   52.4070   29.9751 C   0  0  0  0  0  0  0  0  0  0  0  0
    8.4200   51.2760   32.0806 C   0  0  0  0  0  0  0  0  0  0  0  0
    6.8893   49.4799   32.6597 N   0  0  0  0  0  0  0  0  0  0  0  0
    8.9030   53.4267   29.2921 O   0  0  0  0  0  0  0  0  0  0  0  0
    8.8531   52.2399   31.1823 C   0  0  0  0  0  0  0  0  0  0  0  0
    7.7235   48.4335   32.9747 O   0  0  0  0  0  0  0  0  0  0  0  0
    5.9940   49.7941   33.4702 O   0  0  0  0  0  0  0  0  0  0  0  0
    9.9527   53.9326   30.1280 C   0  0  0  0  0  0  0  0  0  0  0  0
    9.8857   53.1465   31.3256 O   0  0  0  0  0  0  0  0  0  0  0  0
    8.8126   40.1850   34.2126 O   0  0  0  0  0  0  0  0  0  0  0  0
   11.2416   40.7949   33.3707 O   0  0  0  0  0  0  0  0  0  0  0  0
   10.9179   40.6922   31.9984 C   0  0  0  0  0  0  0  0  0  0  0  0
   11.5175   39.3838   31.4423 C   0  0  0  0  0  0  0  0  0  0  0  0
   12.7508   39.0887   32.0752 O   0  0  0  0  0  0  0  0  0  0  0  0
   10.6028   38.1916   31.6659 C   0  0  0  0  0  0  0  0  0  0  0  0
   12.9384   37.6819   32.0278 C   0  0  0  0  0  0  0  0  0  0  0  0
    9.6371   38.0806   30.6470 O   0  0  0  0  0  0  0  0  0  0  0  0
   11.5780   37.0215   31.6935 C   0  0  0  0  0  0  0  0  0  0  0  0
   13.4844   37.2119   33.3242 N   0  0  0  0  0  0  0  0  0  0  0  0
   11.6095   36.3202   30.4679 O   0  0  0  0  0  0  0  0  0  0  0  0
   14.4797   36.3318   33.5730 C   0  0  0  0  0  0  0  0  0  0  0  0
   13.1135   37.6278   34.5691 C   0  0  0  0  0  0  0  0  0  0  0  0
   15.2073   35.6155   32.6742 N   0  0  0  0  0  0  0  0  0  0  0  0
   14.6754   36.2305   34.9184 C   0  0  0  0  0  0  0  0  0  0  0  0
   13.8213   37.0452   35.5785 N   0  0  0  0  0  0  0  0  0  0  0  0
   16.1640   34.7604   33.1549 C   0  0  0  0  0  0  0  0  0  0  0  0
   15.6524   35.3507   35.4132 C   0  0  0  0  0  0  0  0  0  0  0  0
   16.3794   34.6318   34.5044 N   0  0  0  0  0  0  0  0  0  0  0  0
   15.8999   35.1934   36.8091 N   0  0  0  0  0  0  0  0  0  0  0  0
    9.0109   45.4320   33.6708 H   0  0  0  0  0  0  0  0  0  0  0  0
   11.8892   45.7682   32.9463 H   0  0  0  0  0  0  0  0  0  0  0  0
   10.7233   46.9699   33.1225 H   0  0  0  0  0  0  0  0  0  0  0  0
    9.3416   43.8331   31.4762 H   0  0  0  0  0  0  0  0  0  0  0  0
   10.7230   44.8820   31.1559 H   0  0  0  0  0  0  0  0  0  0  0  0
    7.0074   44.7134   31.5765 H   0  0  0  0  0  0  0  0  0  0  0  0
   10.3475   47.1847   30.4063 H   0  0  0  0  0  0  0  0  0  0  0  0
    5.4605   46.3042   30.4909 H   0  0  0  0  0  0  0  0  0  0  0  0
    8.7931   48.7683   29.3351 H   0  0  0  0  0  0  0  0  0  0  0  0
    5.0745   50.2803   29.0874 H   0  0  0  0  0  0  0  0  0  0  0  0
    4.8218   48.5270   31.5599 H   0  0  0  0  0  0  0  0  0  0  0  0
    3.6165   48.9587   30.3202 H   0  0  0  0  0  0  0  0  0  0  0  0
    4.1864   50.2275   31.4610 H   0  0  0  0  0  0  0  0  0  0  0  0
    6.7812   51.7743   28.5718 H   0  0  0  0  0  0  0  0  0  0  0  0
    8.9059   51.1658   33.0417 H   0  0  0  0  0  0  0  0  0  0  0  0
    9.7752   55.0032   30.3620 H   0  0  0  0  0  0  0  0  0  0  0  0
   10.9373   53.7949   29.6339 H   0  0  0  0  0  0  0  0  0  0  0  0
   11.3951   41.5478   31.4743 H   0  0  0  0  0  0  0  0  0  0  0  0
    9.8291   40.7409   31.7627 H   0  0  0  0  0  0  0  0  0  0  0  0
   11.6982   39.5115   30.3501 H   0  0  0  0  0  0  0  0  0  0  0  0
   10.1117   38.2604   32.6661 H   0  0  0  0  0  0  0  0  0  0  0  0
   13.6767   37.4556   31.2267 H   0  0  0  0  0  0  0  0  0  0  0  0
    8.8961   38.6952   30.8872 H   0  0  0  0  0  0  0  0  0  0  0  0
   11.2791   36.3072   32.4922 H   0  0  0  0  0  0  0  0  0  0  0  0
   11.8828   36.9598   29.7589 H   0  0  0  0  0  0  0  0  0  0  0  0
   12.3300   38.3538   34.7446 H   0  0  0  0  0  0  0  0  0  0  0  0
   16.7562   34.1785   32.4622 H   0  0  0  0  0  0  0  0  0  0  0  0
   16.6347   34.5303   37.1416 H   0  0  0  0  0  0  0  0  0  0  0  0
   15.3531   35.7360   37.5140 H   0  0  0  0  0  0  0  0  0  0  0  0
  1  2  2  0
  1  3  1  0
  3  4  1  0
  4  5  1  0
  6  1  1  0
  7  6  1  0
  6  8  1  0
  8  9  1  0
  9 10  2  0
 11  9  1  0
 10 12  1  0
 13 11  2  0
 12 14  2  0
 14 13  1  0
 14 15  1  0
 15 16  1  0
 16 17  1  0
 16 18  1  0
 18 19  2  0
 20 18  1  0
 19 21  1  0
 22 20  2  0
 20 23  1  0
 21 24  1  0
 21 25  2  0
 25 22  1  0
 23 26  1  0
 23 27  2  0
 24 28  1  0
 25 29  1  0
 28 29  1  0
  4 30  2  0
  4 31  1  0
 32 31  1  0
 32 33  1  0
 33 34  1  0
 33 35  1  0
 34 36  1  0
 35 37  1  0
 35 38  1  0
 38 36  1  0
 36 39  1  0
 38 40  1  0
 41 39  1  0
 42 39  1  0
 43 41  2  0
 41 44  1  0
 45 42  2  0
 46 43  1  0
 44 47  2  0
 44 45  1  0
 48 46  2  0
 48 47  1  0
 47 49  1  0
  6 50  1  1
  7 51  1  0
  7 52  1  0
  8 53  1  0
  8 54  1  0
 10 55  1  0
 11 56  1  0
 12 57  1  0
 13 58  1  0
 16 59  1  6
 17 60  1  0
 17 61  1  0
 17 62  1  0
 19 63  1  0
 22 64  1  0
 28 65  1  0
 28 66  1  0
 32 67  1  0
 32 68  1  0
 33 69  1  0
 35 70  1  0
 36 71  1  0
 37 72  1  0
 38 73  1  0
 40 74  1  0
 42 75  1  0
 46 76  1  0
 49 77  1  0
 49 78  1  0
M  CHG  3   5  -1  23   1  26  -1
M  END
>  <EmbedRMS>  (242) 
0.0821186585728

$$$$

     RDKit          3D

 78 83  0  0  0  0  0  0  0  0999 V2000
   10.2838   43.7627   33.8278 C   0  0  0  0  0  0  0  0  0  0  0  0
   11.4103   43.5863   34.3767 O   0  0  0  0  0  0  0  0  0  0  0  0
    9.3628   42.7238   33.7358 O   0  0  0  0  0  0  0  0  0  0  0  0
    9.8893   41.2251   34.2943 P   0  0  0  0  0  0  0  0  0  0  0  0
   10.3730   41.4545   35.8836 O   0  0  0  0  0  0  0  0  0  0  0  0
    9.9549   45.0700   33.2065 C   0  0  1  0  0  0  0  0  0  0  0  0
   11.0198   46.0482   33.4573 N   0  0  0  0  0  0  0  0  0  0  0  0
    9.7508   44.8510   31.6924 C   0  0  0  0  0  0  0  0  0  0  0  0
    8.7949   45.8418   31.0871 C   0  0  0  0  0  0  0  0  0  0  0  0
    7.4088   45.6011   31.0998 C   0  0  0  0  0  0  0  0  0  0  0  0
    9.2826   46.9882   30.4444 C   0  0  0  0  0  0  0  0  0  0  0  0
    6.5268   46.5003   30.4845 C   0  0  0  0  0  0  0  0  0  0  0  0
    8.4002   47.8862   29.8333 C   0  0  0  0  0  0  0  0  0  0  0  0
    7.0171   47.6574   29.8463 C   0  0  0  0  0  0  0  0  0  0  0  0
    6.1961   48.6112   29.2171 O   0  0  0  0  0  0  0  0  0  0  0  0
    4.7648   48.6514   29.1433 C   0  0  1  0  0  0  0  0  0  0  0  0
    4.2461   47.5837   28.1673 C   0  0  0  0  0  0  0  0  0  0  0  0
    4.1103   48.6840   30.5257 C   0  0  0  0  0  0  0  0  0  0  0  0
    3.2797   47.6153   30.9628 C   0  0  0  0  0  0  0  0  0  0  0  0
    4.2504   49.8377   31.3751 C   0  0  0  0  0  0  0  0  0  0  0  0
    2.6674   47.7075   32.2048 C   0  0  0  0  0  0  0  0  0  0  0  0
    3.5886   49.8765   32.6232 C   0  0  0  0  0  0  0  0  0  0  0  0
    4.9971   50.9977   30.9705 N   0  0  0  0  0  0  0  0  0  0  0  0
    1.8420   46.7888   32.8245 O   0  0  0  0  0  0  0  0  0  0  0  0
    2.8165   48.7888   33.0003 C   0  0  0  0  0  0  0  0  0  0  0  0
    4.5342   52.2515   31.2973 O   0  0  0  0  0  0  0  0  0  0  0  0
    6.1575   50.8855   30.5281 O   0  0  0  0  0  0  0  0  0  0  0  0
    1.4506   47.3309   34.0931 C   0  0  0  0  0  0  0  0  0  0  0  0
    2.0944   48.6101   34.1647 O   0  0  0  0  0  0  0  0  0  0  0  0
    8.8112   40.1835   34.2130 O   0  0  0  0  0  0  0  0  0  0  0  0
   11.2397   40.7943   33.3684 O   0  0  0  0  0  0  0  0  0  0  0  0
   10.9125   40.6875   31.9969 C   0  0  0  0  0  0  0  0  0  0  0  0
   11.5169   39.3810   31.4420 C   0  0  0  0  0  0  0  0  0  0  0  0
   12.7500   39.0880   32.0758 O   0  0  0  0  0  0  0  0  0  0  0  0
   10.6043   38.1892   31.6658 C   0  0  0  0  0  0  0  0  0  0  0  0
   12.9395   37.6813   32.0279 C   0  0  0  0  0  0  0  0  0  0  0  0
    9.6353   38.0951   30.6499 O   0  0  0  0  0  0  0  0  0  0  0  0
   11.5804   37.0190   31.6934 C   0  0  0  0  0  0  0  0  0  0  0  0
   13.4851   37.2119   33.3244 N   0  0  0  0  0  0  0  0  0  0  0  0
   11.6118   36.3188   30.4673 O   0  0  0  0  0  0  0  0  0  0  0  0
   14.4801   36.3316   33.5732 C   0  0  0  0  0  0  0  0  0  0  0  0
   13.1139   37.6277   34.5692 C   0  0  0  0  0  0  0  0  0  0  0  0
   15.2076   35.6154   32.6744 N   0  0  0  0  0  0  0  0  0  0  0  0
   14.6756   36.2303   34.9186 C   0  0  0  0  0  0  0  0  0  0  0  0
   13.8215   37.0451   35.5786 N   0  0  0  0  0  0  0  0  0  0  0  0
   16.1643   34.7602   33.1551 C   0  0  0  0  0  0  0  0  0  0  0  0
   15.6526   35.3505   35.4134 C   0  0  0  0  0  0  0  0  0  0  0  0
   16.3796   34.6316   34.5046 N   0  0  0  0  0  0  0  0  0  0  0  0
   15.9000   35.1933   36.8093 N   0  0  0  0  0  0  0  0  0  0  0  0
    9.0098   45.4349   33.6669 H   0  0  0  0  0  0  0  0  0  0  0  0
   11.9349   45.6934   33.0932 H   0  0  0  0  0  0  0  0  0  0  0  0
   11.1131   46.1994   34.4886 H   0  0  0  0  0  0  0  0  0  0  0  0
    9.3520   43.8344   31.4760 H   0  0  0  0  0  0  0  0  0  0  0  0
   10.7313   44.8929   31.1679 H   0  0  0  0  0  0  0  0  0  0  0  0
    7.0137   44.7147   31.5809 H   0  0  0  0  0  0  0  0  0  0  0  0
   10.3466   47.1889   30.4144 H   0  0  0  0  0  0  0  0  0  0  0  0
    5.4782   46.2712   30.5138 H   0  0  0  0  0  0  0  0  0  0  0  0
    8.7943   48.7689   29.3457 H   0  0  0  0  0  0  0  0  0  0  0  0
    4.5004   49.6174   28.6607 H   0  0  0  0  0  0  0  0  0  0  0  0
    3.1428   47.6620   28.0634 H   0  0  0  0  0  0  0  0  0  0  0  0
    4.5122   46.5581   28.4886 H   0  0  0  0  0  0  0  0  0  0  0  0
    4.6971   47.7503   27.1660 H   0  0  0  0  0  0  0  0  0  0  0  0
    3.1077   46.7303   30.3674 H   0  0  0  0  0  0  0  0  0  0  0  0
    3.6765   50.7320   33.2806 H   0  0  0  0  0  0  0  0  0  0  0  0
    0.3480   47.4539   34.1345 H   0  0  0  0  0  0  0  0  0  0  0  0
    1.8058   46.6764   34.9165 H   0  0  0  0  0  0  0  0  0  0  0  0
    9.8216   40.7222   31.7644 H   0  0  0  0  0  0  0  0  0  0  0  0
   11.3811   41.5456   31.4692 H   0  0  0  0  0  0  0  0  0  0  0  0
   11.6986   39.5089   30.3498 H   0  0  0  0  0  0  0  0  0  0  0  0
   10.1109   38.2736   32.6629 H   0  0  0  0  0  0  0  0  0  0  0  0
   13.6783   37.4561   31.2271 H   0  0  0  0  0  0  0  0  0  0  0  0
    9.0020   37.3859   30.9347 H   0  0  0  0  0  0  0  0  0  0  0  0
   11.2808   36.3052   32.4921 H   0  0  0  0  0  0  0  0  0  0  0  0
   11.8818   36.9599   29.7584 H   0  0  0  0  0  0  0  0  0  0  0  0
   12.3303   38.3538   34.7445 H   0  0  0  0  0  0  0  0  0  0  0  0
   16.7564   34.1783   32.4624 H   0  0  0  0  0  0  0  0  0  0  0  0
   16.6347   34.5302   37.1419 H   0  0  0  0  0  0  0  0  0  0  0  0
   15.3532   35.7360   37.5142 H   0  0  0  0  0  0  0  0  0  0  0  0
  1  2  2  0
  1  3  1  0
  3  4  1  0
  4  5  1  0
  6  1  1  0
  7  6  1  0
  6  8  1  0
  8  9  1  0
  9 10  2  0
 11  9  1  0
 10 12  1  0
 13 11  2  0
 12 14  2  0
 14 13  1  0
 14 15  1  0
 15 16  1  0
 16 17  1  0
 16 18  1  0
 18 19  2  0
 20 18  1  0
 19 21  1  0
 22 20  2  0
 20 23  1  0
 21 24  1  0
 21 25  2  0
 25 22  1  0
 23 26  1  0
 23 27  2  0
 24 28  1  0
 25 29  1  0
 28 29  1  0
  4 30  2  0
  4 31  1  0
 32 31  1  0
 32 33  1  0
 33 34  1  0
 33 35  1  0
 34 36  1  0
 35 37  1  0
 35 38  1  0
 38 36  1  0
 36 39  1  0
 38 40  1  0
 41 39  1  0
 42 39  1  0
 43 41  2  0
 41 44  1  0
 45 42  2  0
 46 43  1  0
 44 47  2  0
 44 45  1  0
 48 46  2  0
 48 47  1  0
 47 49  1  0
  6 50  1  1
  7 51  1  0
  7 52  1  0
  8 53  1  0
  8 54  1  0
 10 55  1  0
 11 56  1  0
 12 57  1  0
 13 58  1  0
 16 59  1  6
 17 60  1  0
 17 61  1  0
 17 62  1  0
 19 63  1  0
 22 64  1  0
 28 65  1  0
 28 66  1  0
 32 67  1  0
 32 68  1  0
 33 69  1  0
 35 70  1  0
 36 71  1  0
 37 72  1  0
 38 73  1  0
 40 74  1  0
 42 75  1  0
 46 76  1  0
 49 77  1  0
 49 78  1  0
M  CHG  3   5  -1  23   1  26  -1
M  END
>  <EmbedRMS>  (243) 
0.0824475436104

$$$$

     RDKit          3D

 78 83  0  0  0  0  0  0  0  0999 V2000
   10.2803   43.7665   33.8250 C   0  0  0  0  0  0  0  0  0  0  0  0
   11.4110   43.5920   34.3667 O   0  0  0  0  0  0  0  0  0  0  0  0
    9.3619   42.7249   33.7345 O   0  0  0  0  0  0  0  0  0  0  0  0
    9.8900   41.2267   34.2940 P   0  0  0  0  0  0  0  0  0  0  0  0
   10.3735   41.4567   35.8833 O   0  0  0  0  0  0  0  0  0  0  0  0
    9.9457   45.0737   33.2112 C   0  0  1  0  0  0  0  0  0  0  0  0
   11.0264   46.0293   33.4706 N   0  0  0  0  0  0  0  0  0  0  0  0
    9.7535   44.8538   31.6950 C   0  0  0  0  0  0  0  0  0  0  0  0
    8.7955   45.8410   31.0847 C   0  0  0  0  0  0  0  0  0  0  0  0
    7.4087   45.6001   31.1001 C   0  0  0  0  0  0  0  0  0  0  0  0
    9.2831   46.9874   30.4395 C   0  0  0  0  0  0  0  0  0  0  0  0
    6.5283   46.5006   30.4848 C   0  0  0  0  0  0  0  0  0  0  0  0
    8.4027   47.8887   29.8299 C   0  0  0  0  0  0  0  0  0  0  0  0
    7.0135   47.6520   29.8500 C   0  0  0  0  0  0  0  0  0  0  0  0
    6.0849   48.5291   29.2651 O   0  0  0  0  0  0  0  0  0  0  0  0
    6.4050   49.7752   28.6423 C   0  0  1  0  0  0  0  0  0  0  0  0
    5.1848   50.3103   27.8937 C   0  0  0  0  0  0  0  0  0  0  0  0
    6.9160   50.8068   29.6378 C   0  0  0  0  0  0  0  0  0  0  0  0
    7.8638   51.7461   29.1638 C   0  0  0  0  0  0  0  0  0  0  0  0
    6.5268   50.8439   31.0222 C   0  0  0  0  0  0  0  0  0  0  0  0
    8.4069   52.6563   30.0601 C   0  0  0  0  0  0  0  0  0  0  0  0
    7.1273   51.7855   31.8896 C   0  0  0  0  0  0  0  0  0  0  0  0
    5.5474   49.9451   31.5658 N   0  0  0  0  0  0  0  0  0  0  0  0
    9.3430   53.6438   29.8202 O   0  0  0  0  0  0  0  0  0  0  0  0
    8.0574   52.6725   31.3660 C   0  0  0  0  0  0  0  0  0  0  0  0
    4.3223   49.8019   30.9589 O   0  0  0  0  0  0  0  0  0  0  0  0
    5.7178   49.4522   32.7001 O   0  0  0  0  0  0  0  0  0  0  0  0
    9.5957   54.3234   31.0576 C   0  0  0  0  0  0  0  0  0  0  0  0
    8.7540   53.6716   32.0184 O   0  0  0  0  0  0  0  0  0  0  0  0
    8.8124   40.1844   34.2133 O   0  0  0  0  0  0  0  0  0  0  0  0
   11.2405   40.7942   33.3692 O   0  0  0  0  0  0  0  0  0  0  0  0
   10.9150   40.6905   31.9972 C   0  0  0  0  0  0  0  0  0  0  0  0
   11.5252   39.3886   31.4375 C   0  0  0  0  0  0  0  0  0  0  0  0
   12.7499   39.0874   32.0799 O   0  0  0  0  0  0  0  0  0  0  0  0
   10.6092   38.1926   31.6470 C   0  0  0  0  0  0  0  0  0  0  0  0
   12.9332   37.6793   32.0294 C   0  0  0  0  0  0  0  0  0  0  0  0
    9.6122   38.0894   30.6542 O   0  0  0  0  0  0  0  0  0  0  0  0
   11.5743   37.0145   31.7024 C   0  0  0  0  0  0  0  0  0  0  0  0
   13.4844   37.2108   33.3241 N   0  0  0  0  0  0  0  0  0  0  0  0
   11.6297   36.3239   30.4740 O   0  0  0  0  0  0  0  0  0  0  0  0
   14.4802   36.3313   33.5727 C   0  0  0  0  0  0  0  0  0  0  0  0
   13.1139   37.6267   34.5693 C   0  0  0  0  0  0  0  0  0  0  0  0
   15.2075   35.6149   32.6739 N   0  0  0  0  0  0  0  0  0  0  0  0
   14.6761   36.2303   34.9182 C   0  0  0  0  0  0  0  0  0  0  0  0
   13.8220   37.0447   35.5785 N   0  0  0  0  0  0  0  0  0  0  0  0
   16.1643   34.7600   33.1547 C   0  0  0  0  0  0  0  0  0  0  0  0
   15.6529   35.3505   35.4130 C   0  0  0  0  0  0  0  0  0  0  0  0
   16.3798   34.6315   34.5042 N   0  0  0  0  0  0  0  0  0  0  0  0
   15.9003   35.1932   36.8090 N   0  0  0  0  0  0  0  0  0  0  0  0
    8.9994   45.4382   33.6722 H   0  0  0  0  0  0  0  0  0  0  0  0
   11.0502   46.2279   34.4979 H   0  0  0  0  0  0  0  0  0  0  0  0
   10.7759   46.9370   33.0157 H   0  0  0  0  0  0  0  0  0  0  0  0
    9.3635   43.8352   31.4716 H   0  0  0  0  0  0  0  0  0  0  0  0
   10.7406   44.9069   31.1836 H   0  0  0  0  0  0  0  0  0  0  0  0
    7.0130   44.7161   31.5848 H   0  0  0  0  0  0  0  0  0  0  0  0
   10.3473   47.1858   30.4060 H   0  0  0  0  0  0  0  0  0  0  0  0
    5.4635   46.3058   30.5075 H   0  0  0  0  0  0  0  0  0  0  0  0
    8.8155   48.7624   29.3461 H   0  0  0  0  0  0  0  0  0  0  0  0
    7.1844   49.5797   27.8716 H   0  0  0  0  0  0  0  0  0  0  0  0
    5.4624   51.2146   27.3109 H   0  0  0  0  0  0  0  0  0  0  0  0
    4.3664   50.5783   28.5911 H   0  0  0  0  0  0  0  0  0  0  0  0
    4.8111   49.5399   27.1863 H   0  0  0  0  0  0  0  0  0  0  0  0
    8.1800   51.7564   28.1281 H   0  0  0  0  0  0  0  0  0  0  0  0
    6.8615   51.8347   32.9378 H   0  0  0  0  0  0  0  0  0  0  0  0
   10.6622   54.2134   31.3453 H   0  0  0  0  0  0  0  0  0  0  0  0
    9.3192   55.3951   30.9705 H   0  0  0  0  0  0  0  0  0  0  0  0
   11.3800   41.5528   31.4730 H   0  0  0  0  0  0  0  0  0  0  0  0
    9.8242   40.7215   31.7641 H   0  0  0  0  0  0  0  0  0  0  0  0
   11.7266   39.5310   30.3513 H   0  0  0  0  0  0  0  0  0  0  0  0
   10.1110   38.2747   32.6387 H   0  0  0  0  0  0  0  0  0  0  0  0
   13.6652   37.4520   31.2226 H   0  0  0  0  0  0  0  0  0  0  0  0
   10.0511   38.1143   29.7645 H   0  0  0  0  0  0  0  0  0  0  0  0
   11.2762   36.3141   32.5189 H   0  0  0  0  0  0  0  0  0  0  0  0
   10.8593   35.6978   30.4640 H   0  0  0  0  0  0  0  0  0  0  0  0
   12.3295   38.3518   34.7450 H   0  0  0  0  0  0  0  0  0  0  0  0
   16.7564   34.1779   32.4620 H   0  0  0  0  0  0  0  0  0  0  0  0
   16.6349   34.5300   37.1416 H   0  0  0  0  0  0  0  0  0  0  0  0
   15.3534   35.7359   37.5138 H   0  0  0  0  0  0  0  0  0  0  0  0
  1  2  2  0
  1  3  1  0
  3  4  1  0
  4  5  1  0
  6  1  1  0
  7  6  1  0
  6  8  1  0
  8  9  1  0
  9 10  2  0
 11  9  1  0
 10 12  1  0
 13 11  2  0
 12 14  2  0
 14 13  1  0
 14 15  1  0
 15 16  1  0
 16 17  1  0
 16 18  1  0
 18 19  2  0
 20 18  1  0
 19 21  1  0
 22 20  2  0
 20 23  1  0
 21 24  1  0
 21 25  2  0
 25 22  1  0
 23 26  1  0
 23 27  2  0
 24 28  1  0
 25 29  1  0
 28 29  1  0
  4 30  2  0
  4 31  1  0
 32 31  1  0
 32 33  1  0
 33 34  1  0
 33 35  1  0
 34 36  1  0
 35 37  1  0
 35 38  1  0
 38 36  1  0
 36 39  1  0
 38 40  1  0
 41 39  1  0
 42 39  1  0
 43 41  2  0
 41 44  1  0
 45 42  2  0
 46 43  1  0
 44 47  2  0
 44 45  1  0
 48 46  2  0
 48 47  1  0
 47 49  1  0
  6 50  1  1
  7 51  1  0
  7 52  1  0
  8 53  1  0
  8 54  1  0
 10 55  1  0
 11 56  1  0
 12 57  1  0
 13 58  1  0
 16 59  1  6
 17 60  1  0
 17 61  1  0
 17 62  1  0
 19 63  1  0
 22 64  1  0
 28 65  1  0
 28 66  1  0
 32 67  1  0
 32 68  1  0
 33 69  1  0
 35 70  1  0
 36 71  1  0
 37 72  1  0
 38 73  1  0
 40 74  1  0
 42 75  1  0
 46 76  1  0
 49 77  1  0
 49 78  1  0
M  CHG  3   5  -1  23   1  26  -1
M  END
>  <EmbedRMS>  (244) 
0.0816558261217

$$$$

     RDKit          3D

 78 83  0  0  0  0  0  0  0  0999 V2000
   10.2838   43.7626   33.8275 C   0  0  0  0  0  0  0  0  0  0  0  0
   11.4103   43.5863   34.3766 O   0  0  0  0  0  0  0  0  0  0  0  0
    9.3630   42.7236   33.7353 O   0  0  0  0  0  0  0  0  0  0  0  0
    9.8893   41.2249   34.2943 P   0  0  0  0  0  0  0  0  0  0  0  0
   10.3727   41.4546   35.8837 O   0  0  0  0  0  0  0  0  0  0  0  0
    9.9549   45.0700   33.2063 C   0  0  1  0  0  0  0  0  0  0  0  0
   11.0198   46.0481   33.4570 N   0  0  0  0  0  0  0  0  0  0  0  0
    9.7505   44.8511   31.6922 C   0  0  0  0  0  0  0  0  0  0  0  0
    8.7944   45.8418   31.0869 C   0  0  0  0  0  0  0  0  0  0  0  0
    7.4076   45.6006   31.1006 C   0  0  0  0  0  0  0  0  0  0  0  0
    9.2826   46.9894   30.4448 C   0  0  0  0  0  0  0  0  0  0  0  0
    6.5259   46.5002   30.4858 C   0  0  0  0  0  0  0  0  0  0  0  0
    8.4008   47.8884   29.8335 C   0  0  0  0  0  0  0  0  0  0  0  0
    7.0194   47.6547   29.8449 C   0  0  0  0  0  0  0  0  0  0  0  0
    6.1826   48.5866   29.2096 O   0  0  0  0  0  0  0  0  0  0  0  0
    4.7618   48.4744   29.0835 C   0  0  1  0  0  0  0  0  0  0  0  0
    4.2133   49.7890   28.5335 C   0  0  0  0  0  0  0  0  0  0  0  0
    4.3834   47.3347   28.1509 C   0  0  0  0  0  0  0  0  0  0  0  0
    5.1778   47.1050   26.9999 C   0  0  0  0  0  0  0  0  0  0  0  0
    3.1952   46.5553   28.3462 C   0  0  0  0  0  0  0  0  0  0  0  0
    4.7848   46.1160   26.1080 C   0  0  0  0  0  0  0  0  0  0  0  0
    2.8365   45.5740   27.3959 C   0  0  0  0  0  0  0  0  0  0  0  0
    2.3333   46.7609   29.4734 N   0  0  0  0  0  0  0  0  0  0  0  0
    5.4028   45.7202   24.9374 O   0  0  0  0  0  0  0  0  0  0  0  0
    3.6635   45.3833   26.2971 C   0  0  0  0  0  0  0  0  0  0  0  0
    0.9721   46.8126   29.2819 O   0  0  0  0  0  0  0  0  0  0  0  0
    2.7718   46.6021   30.6307 O   0  0  0  0  0  0  0  0  0  0  0  0
    4.6188   44.6689   24.3569 C   0  0  0  0  0  0  0  0  0  0  0  0
    3.5172   44.4859   25.2569 O   0  0  0  0  0  0  0  0  0  0  0  0
    8.8113   40.1834   34.2130 O   0  0  0  0  0  0  0  0  0  0  0  0
   11.2399   40.7932   33.3693 O   0  0  0  0  0  0  0  0  0  0  0  0
   10.9143   40.6896   31.9973 C   0  0  0  0  0  0  0  0  0  0  0  0
   11.5260   39.3884   31.4375 C   0  0  0  0  0  0  0  0  0  0  0  0
   12.7504   39.0887   32.0815 O   0  0  0  0  0  0  0  0  0  0  0  0
   10.6115   38.1909   31.6460 C   0  0  0  0  0  0  0  0  0  0  0  0
   12.9357   37.6812   32.0303 C   0  0  0  0  0  0  0  0  0  0  0  0
    9.6145   38.0858   30.6533 O   0  0  0  0  0  0  0  0  0  0  0  0
   11.5769   37.0148   31.7012 C   0  0  0  0  0  0  0  0  0  0  0  0
   13.4849   37.2112   33.3247 N   0  0  0  0  0  0  0  0  0  0  0  0
   11.6193   36.3260   30.4724 O   0  0  0  0  0  0  0  0  0  0  0  0
   14.4802   36.3313   33.5730 C   0  0  0  0  0  0  0  0  0  0  0  0
   13.1141   37.6268   34.5697 C   0  0  0  0  0  0  0  0  0  0  0  0
   15.2075   35.6151   32.6741 N   0  0  0  0  0  0  0  0  0  0  0  0
   14.6761   36.2301   34.9184 C   0  0  0  0  0  0  0  0  0  0  0  0
   13.8220   37.0445   35.5789 N   0  0  0  0  0  0  0  0  0  0  0  0
   16.1642   34.7600   33.1547 C   0  0  0  0  0  0  0  0  0  0  0  0
   15.6529   35.3503   35.4132 C   0  0  0  0  0  0  0  0  0  0  0  0
   16.3798   34.6314   34.5042 N   0  0  0  0  0  0  0  0  0  0  0  0
   15.9004   35.1930   36.8090 N   0  0  0  0  0  0  0  0  0  0  0  0
    9.0099   45.4348   33.6669 H   0  0  0  0  0  0  0  0  0  0  0  0
   11.1132   46.1992   34.4884 H   0  0  0  0  0  0  0  0  0  0  0  0
   11.9349   45.6933   33.0928 H   0  0  0  0  0  0  0  0  0  0  0  0
   10.7309   44.8931   31.1675 H   0  0  0  0  0  0  0  0  0  0  0  0
    9.3518   43.8345   31.4758 H   0  0  0  0  0  0  0  0  0  0  0  0
    7.0124   44.7151   31.5832 H   0  0  0  0  0  0  0  0  0  0  0  0
   10.3466   47.1896   30.4151 H   0  0  0  0  0  0  0  0  0  0  0  0
    5.4682   46.2853   30.5155 H   0  0  0  0  0  0  0  0  0  0  0  0
    8.7937   48.7699   29.3428 H   0  0  0  0  0  0  0  0  0  0  0  0
    4.3341   48.3430   30.0960 H   0  0  0  0  0  0  0  0  0  0  0  0
    4.6445   50.0033   27.5320 H   0  0  0  0  0  0  0  0  0  0  0  0
    4.4770   50.6222   29.2190 H   0  0  0  0  0  0  0  0  0  0  0  0
    3.1064   49.7385   28.4499 H   0  0  0  0  0  0  0  0  0  0  0  0
    6.0676   47.6877   26.7984 H   0  0  0  0  0  0  0  0  0  0  0  0
    1.9441   44.9735   27.5177 H   0  0  0  0  0  0  0  0  0  0  0  0
    5.2171   43.7362   24.2892 H   0  0  0  0  0  0  0  0  0  0  0  0
    4.2490   44.9737   23.3555 H   0  0  0  0  0  0  0  0  0  0  0  0
   11.3782   41.5525   31.4732 H   0  0  0  0  0  0  0  0  0  0  0  0
    9.8233   40.7192   31.7644 H   0  0  0  0  0  0  0  0  0  0  0  0
   11.7282   39.5312   30.3515 H   0  0  0  0  0  0  0  0  0  0  0  0
   10.1127   38.2733   32.6376 H   0  0  0  0  0  0  0  0  0  0  0  0
   13.6692   37.4565   31.2242 H   0  0  0  0  0  0  0  0  0  0  0  0
   10.0533   38.1118   29.7635 H   0  0  0  0  0  0  0  0  0  0  0  0
   11.2607   36.3147   32.5101 H   0  0  0  0  0  0  0  0  0  0  0  0
   12.1496   35.5022   30.6323 H   0  0  0  0  0  0  0  0  0  0  0  0
   12.3301   38.3524   34.7455 H   0  0  0  0  0  0  0  0  0  0  0  0
   16.7563   34.1781   32.4619 H   0  0  0  0  0  0  0  0  0  0  0  0
   16.6351   34.5299   37.1416 H   0  0  0  0  0  0  0  0  0  0  0  0
   15.3536   35.7357   37.5140 H   0  0  0  0  0  0  0  0  0  0  0  0
  1  2  2  0
  1  3  1  0
  3  4  1  0
  4  5  1  0
  6  1  1  0
  7  6  1  0
  6  8  1  0
  8  9  1  0
  9 10  2  0
 11  9  1  0
 10 12  1  0
 13 11  2  0
 12 14  2  0
 14 13  1  0
 14 15  1  0
 15 16  1  0
 16 17  1  0
 16 18  1  0
 18 19  2  0
 20 18  1  0
 19 21  1  0
 22 20  2  0
 20 23  1  0
 21 24  1  0
 21 25  2  0
 25 22  1  0
 23 26  1  0
 23 27  2  0
 24 28  1  0
 25 29  1  0
 28 29  1  0
  4 30  2  0
  4 31  1  0
 32 31  1  0
 32 33  1  0
 33 34  1  0
 33 35  1  0
 34 36  1  0
 35 37  1  0
 35 38  1  0
 38 36  1  0
 36 39  1  0
 38 40  1  0
 41 39  1  0
 42 39  1  0
 43 41  2  0
 41 44  1  0
 45 42  2  0
 46 43  1  0
 44 47  2  0
 44 45  1  0
 48 46  2  0
 48 47  1  0
 47 49  1  0
  6 50  1  1
  7 51  1  0
  7 52  1  0
  8 53  1  0
  8 54  1  0
 10 55  1  0
 11 56  1  0
 12 57  1  0
 13 58  1  0
 16 59  1  1
 17 60  1  0
 17 61  1  0
 17 62  1  0
 19 63  1  0
 22 64  1  0
 28 65  1  0
 28 66  1  0
 32 67  1  0
 32 68  1  0
 33 69  1  0
 35 70  1  0
 36 71  1  0
 37 72  1  0
 38 73  1  0
 40 74  1  0
 42 75  1  0
 46 76  1  0
 49 77  1  0
 49 78  1  0
M  CHG  3   5  -1  23   1  26  -1
M  END
>  <EmbedRMS>  (245) 
0.0825186015534

$$$$

     RDKit          3D

 78 83  0  0  0  0  0  0  0  0999 V2000
   10.2836   43.7661   33.8256 C   0  0  0  0  0  0  0  0  0  0  0  0
   11.4103   43.5930   34.3753 O   0  0  0  0  0  0  0  0  0  0  0  0
    9.3640   42.7252   33.7347 O   0  0  0  0  0  0  0  0  0  0  0  0
    9.8908   41.2264   34.2939 P   0  0  0  0  0  0  0  0  0  0  0  0
   10.3732   41.4559   35.8836 O   0  0  0  0  0  0  0  0  0  0  0  0
    9.9547   45.0693   33.2035 C   0  0  1  0  0  0  0  0  0  0  0  0
   11.0273   46.0321   33.4756 N   0  0  0  0  0  0  0  0  0  0  0  0
    9.7467   44.8479   31.6876 C   0  0  0  0  0  0  0  0  0  0  0  0
    8.7924   45.8405   31.0842 C   0  0  0  0  0  0  0  0  0  0  0  0
    7.4058   45.6016   31.0993 C   0  0  0  0  0  0  0  0  0  0  0  0
    9.2821   46.9876   30.4426 C   0  0  0  0  0  0  0  0  0  0  0  0
    6.5271   46.5036   30.4847 C   0  0  0  0  0  0  0  0  0  0  0  0
    8.4033   47.8906   29.8324 C   0  0  0  0  0  0  0  0  0  0  0  0
    7.0134   47.6525   29.8456 C   0  0  0  0  0  0  0  0  0  0  0  0
    6.0822   48.5210   29.2519 O   0  0  0  0  0  0  0  0  0  0  0  0
    6.3902   49.6746   28.4626 C   0  0  1  0  0  0  0  0  0  0  0  0
    6.8880   49.2485   27.0769 C   0  0  0  0  0  0  0  0  0  0  0  0
    5.1423   50.5254   28.3176 C   0  0  0  0  0  0  0  0  0  0  0  0
    3.9120   49.8797   28.0380 C   0  0  0  0  0  0  0  0  0  0  0  0
    5.1616   51.9508   28.4895 C   0  0  0  0  0  0  0  0  0  0  0  0
    2.7567   50.6478   27.9800 C   0  0  0  0  0  0  0  0  0  0  0  0
    3.9501   52.6767   28.4370 C   0  0  0  0  0  0  0  0  0  0  0  0
    6.3858   52.6743   28.6916 N   0  0  0  0  0  0  0  0  0  0  0  0
    1.4614   50.2338   27.7360 O   0  0  0  0  0  0  0  0  0  0  0  0
    2.7741   51.9860   28.1768 C   0  0  0  0  0  0  0  0  0  0  0  0
    6.3979   53.7807   29.5094 O   0  0  0  0  0  0  0  0  0  0  0  0
    7.3707   52.4603   27.9553 O   0  0  0  0  0  0  0  0  0  0  0  0
    0.6119   51.3884   27.7823 C   0  0  0  0  0  0  0  0  0  0  0  0
    1.4908   52.4857   28.0661 O   0  0  0  0  0  0  0  0  0  0  0  0
    8.8127   40.1847   34.2122 O   0  0  0  0  0  0  0  0  0  0  0  0
   11.2421   40.7941   33.3697 O   0  0  0  0  0  0  0  0  0  0  0  0
   10.9187   40.6911   31.9971 C   0  0  0  0  0  0  0  0  0  0  0  0
   11.5172   39.3815   31.4407 C   0  0  0  0  0  0  0  0  0  0  0  0
   12.7493   39.0856   32.0728 O   0  0  0  0  0  0  0  0  0  0  0  0
   10.6023   38.1908   31.6665 C   0  0  0  0  0  0  0  0  0  0  0  0
   12.9319   37.6781   32.0281 C   0  0  0  0  0  0  0  0  0  0  0  0
    9.6392   38.0798   30.6452 O   0  0  0  0  0  0  0  0  0  0  0  0
   11.5715   37.0166   31.7056 C   0  0  0  0  0  0  0  0  0  0  0  0
   13.4846   37.2121   33.3235 N   0  0  0  0  0  0  0  0  0  0  0  0
   11.6187   36.3384   30.4695 O   0  0  0  0  0  0  0  0  0  0  0  0
   14.4801   36.3321   33.5724 C   0  0  0  0  0  0  0  0  0  0  0  0
   13.1137   37.6275   34.5687 C   0  0  0  0  0  0  0  0  0  0  0  0
   15.2073   35.6153   32.6738 N   0  0  0  0  0  0  0  0  0  0  0  0
   14.6759   36.2308   34.9179 C   0  0  0  0  0  0  0  0  0  0  0  0
   13.8216   37.0452   35.5781 N   0  0  0  0  0  0  0  0  0  0  0  0
   16.1640   34.7602   33.1546 C   0  0  0  0  0  0  0  0  0  0  0  0
   15.6526   35.3508   35.4129 C   0  0  0  0  0  0  0  0  0  0  0  0
   16.3794   34.6317   34.5041 N   0  0  0  0  0  0  0  0  0  0  0  0
   15.8999   35.1935   36.8088 N   0  0  0  0  0  0  0  0  0  0  0  0
    9.0121   45.4316   33.6713 H   0  0  0  0  0  0  0  0  0  0  0  0
   10.7258   46.9687   33.1214 H   0  0  0  0  0  0  0  0  0  0  0  0
   11.8906   45.7659   32.9469 H   0  0  0  0  0  0  0  0  0  0  0  0
   10.7231   44.8813   31.1556 H   0  0  0  0  0  0  0  0  0  0  0  0
    9.3416   43.8327   31.4762 H   0  0  0  0  0  0  0  0  0  0  0  0
    7.0085   44.7172   31.5820 H   0  0  0  0  0  0  0  0  0  0  0  0
   10.3466   47.1853   30.4134 H   0  0  0  0  0  0  0  0  0  0  0  0
    5.4625   46.3075   30.5039 H   0  0  0  0  0  0  0  0  0  0  0  0
    8.8209   48.7658   29.3568 H   0  0  0  0  0  0  0  0  0  0  0  0
    7.1789   50.2545   28.9808 H   0  0  0  0  0  0  0  0  0  0  0  0
    7.8288   48.6676   27.1610 H   0  0  0  0  0  0  0  0  0  0  0  0
    7.0880   50.1419   26.4483 H   0  0  0  0  0  0  0  0  0  0  0  0
    6.1300   48.6142   26.5698 H   0  0  0  0  0  0  0  0  0  0  0  0
    3.8554   48.8089   27.8880 H   0  0  0  0  0  0  0  0  0  0  0  0
    3.9306   53.7511   28.5669 H   0  0  0  0  0  0  0  0  0  0  0  0
    0.1152   51.5393   26.8010 H   0  0  0  0  0  0  0  0  0  0  0  0
   -0.1397   51.2801   28.5921 H   0  0  0  0  0  0  0  0  0  0  0  0
    9.8299   40.7410   31.7613 H   0  0  0  0  0  0  0  0  0  0  0  0
   11.3968   41.5460   31.4729 H   0  0  0  0  0  0  0  0  0  0  0  0
   11.6975   39.5067   30.3481 H   0  0  0  0  0  0  0  0  0  0  0  0
   10.1077   38.2648   32.6645 H   0  0  0  0  0  0  0  0  0  0  0  0
   13.6621   37.4467   31.2209 H   0  0  0  0  0  0  0  0  0  0  0  0
    8.8974   38.6944   30.8831 H   0  0  0  0  0  0  0  0  0  0  0  0
   11.2806   36.3073   32.5170 H   0  0  0  0  0  0  0  0  0  0  0  0
   10.8492   35.7110   30.4586 H   0  0  0  0  0  0  0  0  0  0  0  0
   12.3290   38.3524   34.7444 H   0  0  0  0  0  0  0  0  0  0  0  0
   16.7559   34.1780   32.4619 H   0  0  0  0  0  0  0  0  0  0  0  0
   15.3531   35.7363   37.5137 H   0  0  0  0  0  0  0  0  0  0  0  0
   16.6344   34.5301   37.1414 H   0  0  0  0  0  0  0  0  0  0  0  0
  1  2  2  0
  1  3  1  0
  3  4  1  0
  4  5  1  0
  6  1  1  0
  7  6  1  0
  6  8  1  0
  8  9  1  0
  9 10  2  0
 11  9  1  0
 10 12  1  0
 13 11  2  0
 12 14  2  0
 14 13  1  0
 14 15  1  0
 15 16  1  0
 16 17  1  0
 16 18  1  0
 18 19  2  0
 20 18  1  0
 19 21  1  0
 22 20  2  0
 20 23  1  0
 21 24  1  0
 21 25  2  0
 25 22  1  0
 23 26  1  0
 23 27  2  0
 24 28  1  0
 25 29  1  0
 28 29  1  0
  4 30  2  0
  4 31  1  0
 32 31  1  0
 32 33  1  0
 33 34  1  0
 33 35  1  0
 34 36  1  0
 35 37  1  0
 35 38  1  0
 38 36  1  0
 36 39  1  0
 38 40  1  0
 41 39  1  0
 42 39  1  0
 43 41  2  0
 41 44  1  0
 45 42  2  0
 46 43  1  0
 44 47  2  0
 44 45  1  0
 48 46  2  0
 48 47  1  0
 47 49  1  0
  6 50  1  1
  7 51  1  0
  7 52  1  0
  8 53  1  0
  8 54  1  0
 10 55  1  0
 11 56  1  0
 12 57  1  0
 13 58  1  0
 16 59  1  1
 17 60  1  0
 17 61  1  0
 17 62  1  0
 19 63  1  0
 22 64  1  0
 28 65  1  0
 28 66  1  0
 32 67  1  0
 32 68  1  0
 33 69  1  0
 35 70  1  0
 36 71  1  0
 37 72  1  0
 38 73  1  0
 40 74  1  0
 42 75  1  0
 46 76  1  0
 49 77  1  0
 49 78  1  0
M  CHG  3   5  -1  23   1  26  -1
M  END
>  <EmbedRMS>  (246) 
0.0829421568812

$$$$

     RDKit          3D

 78 83  0  0  0  0  0  0  0  0999 V2000
   10.2838   43.7627   33.8273 C   0  0  0  0  0  0  0  0  0  0  0  0
   11.4102   43.5865   34.3765 O   0  0  0  0  0  0  0  0  0  0  0  0
    9.3630   42.7236   33.7354 O   0  0  0  0  0  0  0  0  0  0  0  0
    9.8894   41.2250   34.2947 P   0  0  0  0  0  0  0  0  0  0  0  0
   10.3720   41.4548   35.8843 O   0  0  0  0  0  0  0  0  0  0  0  0
    9.9547   45.0700   33.2060 C   0  0  1  0  0  0  0  0  0  0  0  0
   11.0197   46.0481   33.4566 N   0  0  0  0  0  0  0  0  0  0  0  0
    9.7501   44.8511   31.6918 C   0  0  0  0  0  0  0  0  0  0  0  0
    8.7940   45.8419   31.0862 C   0  0  0  0  0  0  0  0  0  0  0  0
    7.4059   45.6010   31.1015 C   0  0  0  0  0  0  0  0  0  0  0  0
    9.2831   46.9914   30.4452 C   0  0  0  0  0  0  0  0  0  0  0  0
    6.5259   46.5030   30.4879 C   0  0  0  0  0  0  0  0  0  0  0  0
    8.4012   47.8916   29.8346 C   0  0  0  0  0  0  0  0  0  0  0  0
    7.0221   47.6454   29.8431 C   0  0  0  0  0  0  0  0  0  0  0  0
    6.1453   48.5439   29.2278 O   0  0  0  0  0  0  0  0  0  0  0  0
    5.6715   48.3908   27.8858 C   0  0  1  0  0  0  0  0  0  0  0  0
    6.7990   48.6390   26.8731 C   0  0  0  0  0  0  0  0  0  0  0  0
    4.9563   47.0559   27.6989 C   0  0  0  0  0  0  0  0  0  0  0  0
    5.6958   45.8990   27.3376 C   0  0  0  0  0  0  0  0  0  0  0  0
    3.5385   46.9388   27.8986 C   0  0  0  0  0  0  0  0  0  0  0  0
    5.0123   44.7077   27.1365 C   0  0  0  0  0  0  0  0  0  0  0  0
    2.8961   45.7036   27.6569 C   0  0  0  0  0  0  0  0  0  0  0  0
    2.7471   48.0406   28.3723 N   0  0  0  0  0  0  0  0  0  0  0  0
    5.5235   43.4752   26.7778 O   0  0  0  0  0  0  0  0  0  0  0  0
    3.6714   44.6158   27.2816 C   0  0  0  0  0  0  0  0  0  0  0  0
    1.4467   48.1819   27.9457 O   0  0  0  0  0  0  0  0  0  0  0  0
    3.1433   48.7330   29.3324 O   0  0  0  0  0  0  0  0  0  0  0  0
    4.4302   42.5512   26.6912 C   0  0  0  0  0  0  0  0  0  0  0  0
    3.2660   43.3210   27.0207 O   0  0  0  0  0  0  0  0  0  0  0  0
    8.8117   40.1832   34.2124 O   0  0  0  0  0  0  0  0  0  0  0  0
   11.2411   40.7939   33.3709 O   0  0  0  0  0  0  0  0  0  0  0  0
   10.9179   40.6920   31.9985 C   0  0  0  0  0  0  0  0  0  0  0  0
   11.5175   39.3837   31.4422 C   0  0  0  0  0  0  0  0  0  0  0  0
   12.7508   39.0887   32.0751 O   0  0  0  0  0  0  0  0  0  0  0  0
   10.6027   38.1916   31.6658 C   0  0  0  0  0  0  0  0  0  0  0  0
   12.9384   37.6818   32.0277 C   0  0  0  0  0  0  0  0  0  0  0  0
    9.6371   38.0805   30.6469 O   0  0  0  0  0  0  0  0  0  0  0  0
   11.5780   37.0215   31.6934 C   0  0  0  0  0  0  0  0  0  0  0  0
   13.4844   37.2120   33.3241 N   0  0  0  0  0  0  0  0  0  0  0  0
   11.6095   36.3201   30.4679 O   0  0  0  0  0  0  0  0  0  0  0  0
   14.4797   36.3318   33.5730 C   0  0  0  0  0  0  0  0  0  0  0  0
   13.1135   37.6278   34.5691 C   0  0  0  0  0  0  0  0  0  0  0  0
   15.2073   35.6155   32.6742 N   0  0  0  0  0  0  0  0  0  0  0  0
   14.6754   36.2305   34.9184 C   0  0  0  0  0  0  0  0  0  0  0  0
   13.8213   37.0452   35.5784 N   0  0  0  0  0  0  0  0  0  0  0  0
   16.1640   34.7604   33.1549 C   0  0  0  0  0  0  0  0  0  0  0  0
   15.6524   35.3507   35.4132 C   0  0  0  0  0  0  0  0  0  0  0  0
   16.3794   34.6318   34.5044 N   0  0  0  0  0  0  0  0  0  0  0  0
   15.8999   35.1934   36.8091 N   0  0  0  0  0  0  0  0  0  0  0  0
    9.0097   45.4349   33.6666 H   0  0  0  0  0  0  0  0  0  0  0  0
   11.1132   46.1992   34.4879 H   0  0  0  0  0  0  0  0  0  0  0  0
   11.9347   45.6934   33.0922 H   0  0  0  0  0  0  0  0  0  0  0  0
   10.7303   44.8930   31.1668 H   0  0  0  0  0  0  0  0  0  0  0  0
    9.3510   43.8346   31.4755 H   0  0  0  0  0  0  0  0  0  0  0  0
    7.0095   44.7170   31.5853 H   0  0  0  0  0  0  0  0  0  0  0  0
   10.3469   47.1926   30.4177 H   0  0  0  0  0  0  0  0  0  0  0  0
    5.4606   46.3114   30.5095 H   0  0  0  0  0  0  0  0  0  0  0  0
    8.7899   48.7765   29.3472 H   0  0  0  0  0  0  0  0  0  0  0  0
    4.9454   49.2085   27.6961 H   0  0  0  0  0  0  0  0  0  0  0  0
    6.4272   48.4787   25.8386 H   0  0  0  0  0  0  0  0  0  0  0  0
    7.6687   47.9758   27.0548 H   0  0  0  0  0  0  0  0  0  0  0  0
    7.1511   49.6889   26.9603 H   0  0  0  0  0  0  0  0  0  0  0  0
    6.7696   45.9145   27.2193 H   0  0  0  0  0  0  0  0  0  0  0  0
    1.8287   45.5866   27.7932 H   0  0  0  0  0  0  0  0  0  0  0  0
    4.5648   41.7275   27.4234 H   0  0  0  0  0  0  0  0  0  0  0  0
    4.3459   42.1515   25.6590 H   0  0  0  0  0  0  0  0  0  0  0  0
   11.3955   41.5477   31.4750 H   0  0  0  0  0  0  0  0  0  0  0  0
    9.8292   40.7410   31.7624 H   0  0  0  0  0  0  0  0  0  0  0  0
   11.6981   39.5116   30.3500 H   0  0  0  0  0  0  0  0  0  0  0  0
   10.1116   38.2603   32.6659 H   0  0  0  0  0  0  0  0  0  0  0  0
   13.6767   37.4556   31.2267 H   0  0  0  0  0  0  0  0  0  0  0  0
    8.8962   38.6953   30.8869 H   0  0  0  0  0  0  0  0  0  0  0  0
   11.2791   36.3072   32.4922 H   0  0  0  0  0  0  0  0  0  0  0  0
   11.8828   36.9598   29.7588 H   0  0  0  0  0  0  0  0  0  0  0  0
   12.3300   38.3539   34.7446 H   0  0  0  0  0  0  0  0  0  0  0  0
   16.7561   34.1785   32.4621 H   0  0  0  0  0  0  0  0  0  0  0  0
   15.3531   35.7360   37.5140 H   0  0  0  0  0  0  0  0  0  0  0  0
   16.6347   34.5303   37.1416 H   0  0  0  0  0  0  0  0  0  0  0  0
  1  2  2  0
  1  3  1  0
  3  4  1  0
  4  5  1  0
  6  1  1  0
  7  6  1  0
  6  8  1  0
  8  9  1  0
  9 10  2  0
 11  9  1  0
 10 12  1  0
 13 11  2  0
 12 14  2  0
 14 13  1  0
 14 15  1  0
 15 16  1  0
 16 17  1  0
 16 18  1  0
 18 19  2  0
 20 18  1  0
 19 21  1  0
 22 20  2  0
 20 23  1  0
 21 24  1  0
 21 25  2  0
 25 22  1  0
 23 26  1  0
 23 27  2  0
 24 28  1  0
 25 29  1  0
 28 29  1  0
  4 30  2  0
  4 31  1  0
 32 31  1  0
 32 33  1  0
 33 34  1  0
 33 35  1  0
 34 36  1  0
 35 37  1  0
 35 38  1  0
 38 36  1  0
 36 39  1  0
 38 40  1  0
 41 39  1  0
 42 39  1  0
 43 41  2  0
 41 44  1  0
 45 42  2  0
 46 43  1  0
 44 47  2  0
 44 45  1  0
 48 46  2  0
 48 47  1  0
 47 49  1  0
  6 50  1  1
  7 51  1  0
  7 52  1  0
  8 53  1  0
  8 54  1  0
 10 55  1  0
 11 56  1  0
 12 57  1  0
 13 58  1  0
 16 59  1  6
 17 60  1  0
 17 61  1  0
 17 62  1  0
 19 63  1  0
 22 64  1  0
 28 65  1  0
 28 66  1  0
 32 67  1  0
 32 68  1  0
 33 69  1  0
 35 70  1  0
 36 71  1  0
 37 72  1  0
 38 73  1  0
 40 74  1  0
 42 75  1  0
 46 76  1  0
 49 77  1  0
 49 78  1  0
M  CHG  3   5  -1  23   1  26  -1
M  END
>  <EmbedRMS>  (247) 
0.0829984526458

$$$$

     RDKit          3D

 78 83  0  0  0  0  0  0  0  0999 V2000
   10.2831   43.7662   33.8258 C   0  0  0  0  0  0  0  0  0  0  0  0
   11.4101   43.5933   34.3749 O   0  0  0  0  0  0  0  0  0  0  0  0
    9.3634   42.7253   33.7354 O   0  0  0  0  0  0  0  0  0  0  0  0
    9.8905   41.2267   34.2947 P   0  0  0  0  0  0  0  0  0  0  0  0
   10.3733   41.4559   35.8842 O   0  0  0  0  0  0  0  0  0  0  0  0
    9.9541   45.0695   33.2040 C   0  0  1  0  0  0  0  0  0  0  0  0
   11.0272   46.0318   33.4757 N   0  0  0  0  0  0  0  0  0  0  0  0
    9.7459   44.8481   31.6882 C   0  0  0  0  0  0  0  0  0  0  0  0
    8.7916   45.8407   31.0853 C   0  0  0  0  0  0  0  0  0  0  0  0
    7.4053   45.6031   31.1001 C   0  0  0  0  0  0  0  0  0  0  0  0
    9.2814   46.9869   30.4442 C   0  0  0  0  0  0  0  0  0  0  0  0
    6.5281   46.5052   30.4834 C   0  0  0  0  0  0  0  0  0  0  0  0
    8.4034   47.8891   29.8324 C   0  0  0  0  0  0  0  0  0  0  0  0
    7.0143   47.6537   29.8406 C   0  0  0  0  0  0  0  0  0  0  0  0
    6.0742   48.5042   29.2293 O   0  0  0  0  0  0  0  0  0  0  0  0
    6.3086   49.6773   28.4397 C   0  0  1  0  0  0  0  0  0  0  0  0
    6.7446   50.8483   29.3334 C   0  0  0  0  0  0  0  0  0  0  0  0
    7.1855   49.3916   27.2195 C   0  0  0  0  0  0  0  0  0  0  0  0
    8.4727   49.9829   27.0913 C   0  0  0  0  0  0  0  0  0  0  0  0
    6.6913   48.5801   26.1396 C   0  0  0  0  0  0  0  0  0  0  0  0
    9.2230   49.7131   25.9553 C   0  0  0  0  0  0  0  0  0  0  0  0
    7.4991   48.3539   25.0018 C   0  0  0  0  0  0  0  0  0  0  0  0
    5.3623   48.0335   26.1483 N   0  0  0  0  0  0  0  0  0  0  0  0
   10.4932   50.1568   25.6411 O   0  0  0  0  0  0  0  0  0  0  0  0
    8.7592   48.9294   24.9573 C   0  0  0  0  0  0  0  0  0  0  0  0
    4.9215   47.2777   27.2088 O   0  0  0  0  0  0  0  0  0  0  0  0
    4.6712   48.0694   25.1099 O   0  0  0  0  0  0  0  0  0  0  0  0
   10.8505   49.6067   24.3649 C   0  0  0  0  0  0  0  0  0  0  0  0
    9.7129   48.8322   23.9624 O   0  0  0  0  0  0  0  0  0  0  0  0
    8.8126   40.1848   34.2136 O   0  0  0  0  0  0  0  0  0  0  0  0
   11.2408   40.7941   33.3696 O   0  0  0  0  0  0  0  0  0  0  0  0
   10.9149   40.6900   31.9979 C   0  0  0  0  0  0  0  0  0  0  0  0
   11.5252   39.3883   31.4377 C   0  0  0  0  0  0  0  0  0  0  0  0
   12.7500   39.0870   32.0800 O   0  0  0  0  0  0  0  0  0  0  0  0
   10.6090   38.1925   31.6472 C   0  0  0  0  0  0  0  0  0  0  0  0
   12.9330   37.6790   32.0296 C   0  0  0  0  0  0  0  0  0  0  0  0
    9.6118   38.0900   30.6545 O   0  0  0  0  0  0  0  0  0  0  0  0
   11.5740   37.0141   31.7026 C   0  0  0  0  0  0  0  0  0  0  0  0
   13.4847   37.2108   33.3242 N   0  0  0  0  0  0  0  0  0  0  0  0
   11.6298   36.3244   30.4736 O   0  0  0  0  0  0  0  0  0  0  0  0
   14.4805   36.3313   33.5725 C   0  0  0  0  0  0  0  0  0  0  0  0
   13.1140   37.6265   34.5694 C   0  0  0  0  0  0  0  0  0  0  0  0
   15.2076   35.6147   32.6737 N   0  0  0  0  0  0  0  0  0  0  0  0
   14.6763   36.2300   34.9180 C   0  0  0  0  0  0  0  0  0  0  0  0
   13.8218   37.0439   35.5785 N   0  0  0  0  0  0  0  0  0  0  0  0
   16.1646   34.7597   33.1543 C   0  0  0  0  0  0  0  0  0  0  0  0
   15.6535   35.3506   35.4127 C   0  0  0  0  0  0  0  0  0  0  0  0
   16.3805   34.6318   34.5037 N   0  0  0  0  0  0  0  0  0  0  0  0
   15.9008   35.1930   36.8086 N   0  0  0  0  0  0  0  0  0  0  0  0
    9.0116   45.4321   33.6717 H   0  0  0  0  0  0  0  0  0  0  0  0
   11.8900   45.7652   32.9464 H   0  0  0  0  0  0  0  0  0  0  0  0
   10.7255   46.9687   33.1223 H   0  0  0  0  0  0  0  0  0  0  0  0
    9.3409   43.8331   31.4770 H   0  0  0  0  0  0  0  0  0  0  0  0
   10.7221   44.8815   31.1558 H   0  0  0  0  0  0  0  0  0  0  0  0
    7.0071   44.7195   31.5835 H   0  0  0  0  0  0  0  0  0  0  0  0
   10.3461   47.1840   30.4161 H   0  0  0  0  0  0  0  0  0  0  0  0
    5.4637   46.3063   30.4998 H   0  0  0  0  0  0  0  0  0  0  0  0
    8.8275   48.7568   29.3638 H   0  0  0  0  0  0  0  0  0  0  0  0
    5.3207   49.9897   28.0370 H   0  0  0  0  0  0  0  0  0  0  0  0
    5.9635   51.0376   30.0991 H   0  0  0  0  0  0  0  0  0  0  0  0
    7.6915   50.6380   29.8672 H   0  0  0  0  0  0  0  0  0  0  0  0
    6.8623   51.7720   28.7281 H   0  0  0  0  0  0  0  0  0  0  0  0
    8.8961   50.6265   27.8491 H   0  0  0  0  0  0  0  0  0  0  0  0
    7.1518   47.7442   24.1771 H   0  0  0  0  0  0  0  0  0  0  0  0
   11.7423   48.9529   24.4649 H   0  0  0  0  0  0  0  0  0  0  0  0
   11.0379   50.4215   23.6333 H   0  0  0  0  0  0  0  0  0  0  0  0
   11.3802   41.5521   31.4744 H   0  0  0  0  0  0  0  0  0  0  0  0
    9.8239   40.7219   31.7644 H   0  0  0  0  0  0  0  0  0  0  0  0
   11.7266   39.5307   30.3513 H   0  0  0  0  0  0  0  0  0  0  0  0
   10.1106   38.2753   32.6390 H   0  0  0  0  0  0  0  0  0  0  0  0
   13.6648   37.4515   31.2226 H   0  0  0  0  0  0  0  0  0  0  0  0
   10.0507   38.1144   29.7647 H   0  0  0  0  0  0  0  0  0  0  0  0
   11.2750   36.3133   32.5187 H   0  0  0  0  0  0  0  0  0  0  0  0
   10.8601   35.6975   30.4630 H   0  0  0  0  0  0  0  0  0  0  0  0
   12.3291   38.3512   34.7453 H   0  0  0  0  0  0  0  0  0  0  0  0
   16.7584   34.1791   32.4616 H   0  0  0  0  0  0  0  0  0  0  0  0
   16.6353   34.5300   37.1417 H   0  0  0  0  0  0  0  0  0  0  0  0
   15.3540   35.7358   37.5132 H   0  0  0  0  0  0  0  0  0  0  0  0
  1  2  2  0
  1  3  1  0
  3  4  1  0
  4  5  1  0
  6  1  1  0
  7  6  1  0
  6  8  1  0
  8  9  1  0
  9 10  2  0
 11  9  1  0
 10 12  1  0
 13 11  2  0
 12 14  2  0
 14 13  1  0
 14 15  1  0
 15 16  1  0
 16 17  1  0
 16 18  1  0
 18 19  2  0
 20 18  1  0
 19 21  1  0
 22 20  2  0
 20 23  1  0
 21 24  1  0
 21 25  2  0
 25 22  1  0
 23 26  1  0
 23 27  2  0
 24 28  1  0
 25 29  1  0
 28 29  1  0
  4 30  2  0
  4 31  1  0
 32 31  1  0
 32 33  1  0
 33 34  1  0
 33 35  1  0
 34 36  1  0
 35 37  1  0
 35 38  1  0
 38 36  1  0
 36 39  1  0
 38 40  1  0
 41 39  1  0
 42 39  1  0
 43 41  2  0
 41 44  1  0
 45 42  2  0
 46 43  1  0
 44 47  2  0
 44 45  1  0
 48 46  2  0
 48 47  1  0
 47 49  1  0
  6 50  1  1
  7 51  1  0
  7 52  1  0
  8 53  1  0
  8 54  1  0
 10 55  1  0
 11 56  1  0
 12 57  1  0
 13 58  1  0
 16 59  1  6
 17 60  1  0
 17 61  1  0
 17 62  1  0
 19 63  1  0
 22 64  1  0
 28 65  1  0
 28 66  1  0
 32 67  1  0
 32 68  1  0
 33 69  1  0
 35 70  1  0
 36 71  1  0
 37 72  1  0
 38 73  1  0
 40 74  1  0
 42 75  1  0
 46 76  1  0
 49 77  1  0
 49 78  1  0
M  CHG  3   5  -1  23   1  26  -1
M  END
>  <EmbedRMS>  (248) 
0.0817994419362

$$$$

     RDKit          3D

 78 83  0  0  0  0  0  0  0  0999 V2000
   10.2834   43.7661   33.8257 C   0  0  0  0  0  0  0  0  0  0  0  0
   11.4102   43.5930   34.3752 O   0  0  0  0  0  0  0  0  0  0  0  0
    9.3637   42.7255   33.7350 O   0  0  0  0  0  0  0  0  0  0  0  0
    9.8902   41.2267   34.2942 P   0  0  0  0  0  0  0  0  0  0  0  0
   10.3736   41.4560   35.8836 O   0  0  0  0  0  0  0  0  0  0  0  0
    9.9546   45.0694   33.2035 C   0  0  1  0  0  0  0  0  0  0  0  0
   11.0273   46.0321   33.4756 N   0  0  0  0  0  0  0  0  0  0  0  0
    9.7466   44.8479   31.6876 C   0  0  0  0  0  0  0  0  0  0  0  0
    8.7923   45.8405   31.0841 C   0  0  0  0  0  0  0  0  0  0  0  0
    7.4057   45.6016   31.0993 C   0  0  0  0  0  0  0  0  0  0  0  0
    9.2821   46.9877   30.4425 C   0  0  0  0  0  0  0  0  0  0  0  0
    6.5270   46.5036   30.4847 C   0  0  0  0  0  0  0  0  0  0  0  0
    8.4033   47.8906   29.8323 C   0  0  0  0  0  0  0  0  0  0  0  0
    7.0136   47.6525   29.8458 C   0  0  0  0  0  0  0  0  0  0  0  0
    6.0822   48.5207   29.2529 O   0  0  0  0  0  0  0  0  0  0  0  0
    6.3866   49.6699   28.4581 C   0  0  1  0  0  0  0  0  0  0  0  0
    6.9110   49.2659   27.0749 C   0  0  0  0  0  0  0  0  0  0  0  0
    5.1657   50.5634   28.3154 C   0  0  0  0  0  0  0  0  0  0  0  0
    5.3903   51.9587   28.2150 C   0  0  0  0  0  0  0  0  0  0  0  0
    3.8126   50.0719   28.3079 C   0  0  0  0  0  0  0  0  0  0  0  0
    4.2945   52.8079   28.1440 C   0  0  0  0  0  0  0  0  0  0  0  0
    2.7383   50.9886   28.2509 C   0  0  0  0  0  0  0  0  0  0  0  0
    3.5038   48.6704   28.3612 N   0  0  0  0  0  0  0  0  0  0  0  0
    4.2808   54.1863   28.0503 O   0  0  0  0  0  0  0  0  0  0  0  0
    3.0249   52.3438   28.1658 C   0  0  0  0  0  0  0  0  0  0  0  0
    2.4258   48.2385   29.0989 O   0  0  0  0  0  0  0  0  0  0  0  0
    4.0454   47.8749   27.5675 O   0  0  0  0  0  0  0  0  0  0  0  0
    2.9123   54.6133   28.0104 C   0  0  0  0  0  0  0  0  0  0  0  0
    2.1436   53.4050   28.0865 O   0  0  0  0  0  0  0  0  0  0  0  0
    8.8121   40.1850   34.2131 O   0  0  0  0  0  0  0  0  0  0  0  0
   11.2404   40.7941   33.3690 O   0  0  0  0  0  0  0  0  0  0  0  0
   10.9143   40.6898   31.9972 C   0  0  0  0  0  0  0  0  0  0  0  0
   11.5261   39.3885   31.4376 C   0  0  0  0  0  0  0  0  0  0  0  0
   12.7504   39.0888   32.0816 O   0  0  0  0  0  0  0  0  0  0  0  0
   10.6115   38.1910   31.6460 C   0  0  0  0  0  0  0  0  0  0  0  0
   12.9357   37.6812   32.0303 C   0  0  0  0  0  0  0  0  0  0  0  0
    9.6146   38.0859   30.6534 O   0  0  0  0  0  0  0  0  0  0  0  0
   11.5769   37.0148   31.7012 C   0  0  0  0  0  0  0  0  0  0  0  0
   13.4849   37.2112   33.3247 N   0  0  0  0  0  0  0  0  0  0  0  0
   11.6193   36.3261   30.4724 O   0  0  0  0  0  0  0  0  0  0  0  0
   14.4802   36.3313   33.5730 C   0  0  0  0  0  0  0  0  0  0  0  0
   13.1141   37.6268   34.5698 C   0  0  0  0  0  0  0  0  0  0  0  0
   15.2075   35.6151   32.6741 N   0  0  0  0  0  0  0  0  0  0  0  0
   14.6761   36.2300   34.9184 C   0  0  0  0  0  0  0  0  0  0  0  0
   13.8220   37.0445   35.5789 N   0  0  0  0  0  0  0  0  0  0  0  0
   16.1642   34.7600   33.1547 C   0  0  0  0  0  0  0  0  0  0  0  0
   15.6529   35.3503   35.4131 C   0  0  0  0  0  0  0  0  0  0  0  0
   16.3798   34.6314   34.5042 N   0  0  0  0  0  0  0  0  0  0  0  0
   15.9004   35.1930   36.8090 N   0  0  0  0  0  0  0  0  0  0  0  0
    9.0120   45.4317   33.6713 H   0  0  0  0  0  0  0  0  0  0  0  0
   11.8906   45.7658   32.9469 H   0  0  0  0  0  0  0  0  0  0  0  0
   10.7259   46.9687   33.1213 H   0  0  0  0  0  0  0  0  0  0  0  0
    9.3415   43.8327   31.4762 H   0  0  0  0  0  0  0  0  0  0  0  0
   10.7230   44.8812   31.1556 H   0  0  0  0  0  0  0  0  0  0  0  0
    7.0084   44.7171   31.5818 H   0  0  0  0  0  0  0  0  0  0  0  0
   10.3467   47.1852   30.4132 H   0  0  0  0  0  0  0  0  0  0  0  0
    5.4623   46.3078   30.5036 H   0  0  0  0  0  0  0  0  0  0  0  0
    8.8204   48.7657   29.3560 H   0  0  0  0  0  0  0  0  0  0  0  0
    7.1761   50.2549   28.9789 H   0  0  0  0  0  0  0  0  0  0  0  0
    7.2225   50.1704   26.5102 H   0  0  0  0  0  0  0  0  0  0  0  0
    7.7917   48.5987   27.1684 H   0  0  0  0  0  0  0  0  0  0  0  0
    6.1335   48.7364   26.4888 H   0  0  0  0  0  0  0  0  0  0  0  0
    6.3916   52.3711   28.2047 H   0  0  0  0  0  0  0  0  0  0  0  0
    1.7099   50.6510   28.2505 H   0  0  0  0  0  0  0  0  0  0  0  0
    2.7024   55.1415   27.0568 H   0  0  0  0  0  0  0  0  0  0  0  0
    2.6879   55.2656   28.8803 H   0  0  0  0  0  0  0  0  0  0  0  0
    9.8233   40.7191   31.7647 H   0  0  0  0  0  0  0  0  0  0  0  0
   11.3779   41.5526   31.4726 H   0  0  0  0  0  0  0  0  0  0  0  0
   11.7283   39.5312   30.3515 H   0  0  0  0  0  0  0  0  0  0  0  0
   10.1127   38.2734   32.6376 H   0  0  0  0  0  0  0  0  0  0  0  0
   13.6692   37.4566   31.2242 H   0  0  0  0  0  0  0  0  0  0  0  0
   10.0533   38.1118   29.7636 H   0  0  0  0  0  0  0  0  0  0  0  0
   11.2607   36.3148   32.5102 H   0  0  0  0  0  0  0  0  0  0  0  0
   12.1496   35.5023   30.6324 H   0  0  0  0  0  0  0  0  0  0  0  0
   12.3301   38.3524   34.7455 H   0  0  0  0  0  0  0  0  0  0  0  0
   16.7563   34.1781   32.4619 H   0  0  0  0  0  0  0  0  0  0  0  0
   15.3536   35.7357   37.5139 H   0  0  0  0  0  0  0  0  0  0  0  0
   16.6351   34.5298   37.1416 H   0  0  0  0  0  0  0  0  0  0  0  0
  1  2  2  0
  1  3  1  0
  3  4  1  0
  4  5  1  0
  6  1  1  0
  7  6  1  0
  6  8  1  0
  8  9  1  0
  9 10  2  0
 11  9  1  0
 10 12  1  0
 13 11  2  0
 12 14  2  0
 14 13  1  0
 14 15  1  0
 15 16  1  0
 16 17  1  0
 16 18  1  0
 18 19  2  0
 20 18  1  0
 19 21  1  0
 22 20  2  0
 20 23  1  0
 21 24  1  0
 21 25  2  0
 25 22  1  0
 23 26  1  0
 23 27  2  0
 24 28  1  0
 25 29  1  0
 28 29  1  0
  4 30  2  0
  4 31  1  0
 32 31  1  0
 32 33  1  0
 33 34  1  0
 33 35  1  0
 34 36  1  0
 35 37  1  0
 35 38  1  0
 38 36  1  0
 36 39  1  0
 38 40  1  0
 41 39  1  0
 42 39  1  0
 43 41  2  0
 41 44  1  0
 45 42  2  0
 46 43  1  0
 44 47  2  0
 44 45  1  0
 48 46  2  0
 48 47  1  0
 47 49  1  0
  6 50  1  1
  7 51  1  0
  7 52  1  0
  8 53  1  0
  8 54  1  0
 10 55  1  0
 11 56  1  0
 12 57  1  0
 13 58  1  0
 16 59  1  1
 17 60  1  0
 17 61  1  0
 17 62  1  0
 19 63  1  0
 22 64  1  0
 28 65  1  0
 28 66  1  0
 32 67  1  0
 32 68  1  0
 33 69  1  0
 35 70  1  0
 36 71  1  0
 37 72  1  0
 38 73  1  0
 40 74  1  0
 42 75  1  0
 46 76  1  0
 49 77  1  0
 49 78  1  0
M  CHG  3   5  -1  23   1  26  -1
M  END
>  <EmbedRMS>  (249) 
0.0816251300912

$$$$

     RDKit          3D

 78 83  0  0  0  0  0  0  0  0999 V2000
   10.2836   43.7661   33.8255 C   0  0  0  0  0  0  0  0  0  0  0  0
   11.4102   43.5930   34.3753 O   0  0  0  0  0  0  0  0  0  0  0  0
    9.3640   42.7253   33.7346 O   0  0  0  0  0  0  0  0  0  0  0  0
    9.8907   41.2265   34.2938 P   0  0  0  0  0  0  0  0  0  0  0  0
   10.3732   41.4559   35.8835 O   0  0  0  0  0  0  0  0  0  0  0  0
    9.9547   45.0694   33.2034 C   0  0  1  0  0  0  0  0  0  0  0  0
   11.0273   46.0322   33.4758 N   0  0  0  0  0  0  0  0  0  0  0  0
    9.7471   44.8483   31.6874 C   0  0  0  0  0  0  0  0  0  0  0  0
    8.7925   45.8407   31.0842 C   0  0  0  0  0  0  0  0  0  0  0  0
    7.4058   45.6011   31.0997 C   0  0  0  0  0  0  0  0  0  0  0  0
    9.2816   46.9882   30.4425 C   0  0  0  0  0  0  0  0  0  0  0  0
    6.5244   46.5014   30.4859 C   0  0  0  0  0  0  0  0  0  0  0  0
    8.4004   47.8887   29.8330 C   0  0  0  0  0  0  0  0  0  0  0  0
    7.0190   47.6555   29.8441 C   0  0  0  0  0  0  0  0  0  0  0  0
    6.1826   48.5879   29.2086 O   0  0  0  0  0  0  0  0  0  0  0  0
    4.7672   48.4551   29.0503 C   0  0  1  0  0  0  0  0  0  0  0  0
    4.2071   49.7717   28.5152 C   0  0  0  0  0  0  0  0  0  0  0  0
    4.4410   47.3234   28.0900 C   0  0  0  0  0  0  0  0  0  0  0  0
    5.2068   47.2008   26.9045 C   0  0  0  0  0  0  0  0  0  0  0  0
    3.4249   46.3504   28.3722 C   0  0  0  0  0  0  0  0  0  0  0  0
    4.9723   46.1143   26.0725 C   0  0  0  0  0  0  0  0  0  0  0  0
    3.2437   45.2565   27.4961 C   0  0  0  0  0  0  0  0  0  0  0  0
    2.5687   46.4602   29.5198 N   0  0  0  0  0  0  0  0  0  0  0  0
    5.6015   45.7893   24.8862 O   0  0  0  0  0  0  0  0  0  0  0  0
    4.0363   45.1804   26.3585 C   0  0  0  0  0  0  0  0  0  0  0  0
    2.1549   45.3232   30.1745 O   0  0  0  0  0  0  0  0  0  0  0  0
    2.0106   47.5445   29.7856 O   0  0  0  0  0  0  0  0  0  0  0  0
    5.0211   44.5727   24.3967 C   0  0  0  0  0  0  0  0  0  0  0  0
    4.0258   44.2186   25.3667 O   0  0  0  0  0  0  0  0  0  0  0  0
    8.8127   40.1848   34.2122 O   0  0  0  0  0  0  0  0  0  0  0  0
   11.2420   40.7941   33.3697 O   0  0  0  0  0  0  0  0  0  0  0  0
   10.9187   40.6911   31.9971 C   0  0  0  0  0  0  0  0  0  0  0  0
   11.5172   39.3815   31.4407 C   0  0  0  0  0  0  0  0  0  0  0  0
   12.7493   39.0856   32.0728 O   0  0  0  0  0  0  0  0  0  0  0  0
   10.6023   38.1908   31.6665 C   0  0  0  0  0  0  0  0  0  0  0  0
   12.9319   37.6781   32.0281 C   0  0  0  0  0  0  0  0  0  0  0  0
    9.6392   38.0798   30.6452 O   0  0  0  0  0  0  0  0  0  0  0  0
   11.5715   37.0166   31.7056 C   0  0  0  0  0  0  0  0  0  0  0  0
   13.4846   37.2121   33.3235 N   0  0  0  0  0  0  0  0  0  0  0  0
   11.6186   36.3383   30.4695 O   0  0  0  0  0  0  0  0  0  0  0  0
   14.4801   36.3321   33.5724 C   0  0  0  0  0  0  0  0  0  0  0  0
   13.1137   37.6276   34.5687 C   0  0  0  0  0  0  0  0  0  0  0  0
   15.2073   35.6153   32.6738 N   0  0  0  0  0  0  0  0  0  0  0  0
   14.6759   36.2308   34.9179 C   0  0  0  0  0  0  0  0  0  0  0  0
   13.8217   37.0452   35.5781 N   0  0  0  0  0  0  0  0  0  0  0  0
   16.1640   34.7602   33.1546 C   0  0  0  0  0  0  0  0  0  0  0  0
   15.6526   35.3508   35.4129 C   0  0  0  0  0  0  0  0  0  0  0  0
   16.3794   34.6317   34.5041 N   0  0  0  0  0  0  0  0  0  0  0  0
   15.8999   35.1935   36.8088 N   0  0  0  0  0  0  0  0  0  0  0  0
    9.0120   45.4315   33.6711 H   0  0  0  0  0  0  0  0  0  0  0  0
   10.7259   46.9688   33.1214 H   0  0  0  0  0  0  0  0  0  0  0  0
   11.8907   45.7659   32.9474 H   0  0  0  0  0  0  0  0  0  0  0  0
   10.7235   44.8823   31.1556 H   0  0  0  0  0  0  0  0  0  0  0  0
    9.3425   43.8330   31.4756 H   0  0  0  0  0  0  0  0  0  0  0  0
    7.0100   44.7165   31.5834 H   0  0  0  0  0  0  0  0  0  0  0  0
   10.3459   47.1867   30.4109 H   0  0  0  0  0  0  0  0  0  0  0  0
    5.4658   46.2887   30.5207 H   0  0  0  0  0  0  0  0  0  0  0  0
    8.7938   48.7699   29.3423 H   0  0  0  0  0  0  0  0  0  0  0  0
    4.3236   48.2863   30.0529 H   0  0  0  0  0  0  0  0  0  0  0  0
    4.4210   50.5899   29.2351 H   0  0  0  0  0  0  0  0  0  0  0  0
    3.1067   49.6983   28.3821 H   0  0  0  0  0  0  0  0  0  0  0  0
    4.6733   50.0281   27.5398 H   0  0  0  0  0  0  0  0  0  0  0  0
    5.9774   47.9181   26.6517 H   0  0  0  0  0  0  0  0  0  0  0  0
    2.4902   44.5025   27.6840 H   0  0  0  0  0  0  0  0  0  0  0  0
    4.5478   44.7439   23.4072 H   0  0  0  0  0  0  0  0  0  0  0  0
    5.7932   43.7776   24.3322 H   0  0  0  0  0  0  0  0  0  0  0  0
    9.8300   40.7410   31.7613 H   0  0  0  0  0  0  0  0  0  0  0  0
   11.3969   41.5460   31.4729 H   0  0  0  0  0  0  0  0  0  0  0  0
   11.6975   39.5067   30.3481 H   0  0  0  0  0  0  0  0  0  0  0  0
   10.1076   38.2648   32.6645 H   0  0  0  0  0  0  0  0  0  0  0  0
   13.6621   37.4467   31.2209 H   0  0  0  0  0  0  0  0  0  0  0  0
    8.8975   38.6945   30.8830 H   0  0  0  0  0  0  0  0  0  0  0  0
   11.2806   36.3073   32.5171 H   0  0  0  0  0  0  0  0  0  0  0  0
   10.8492   35.7110   30.4586 H   0  0  0  0  0  0  0  0  0  0  0  0
   12.3290   38.3524   34.7444 H   0  0  0  0  0  0  0  0  0  0  0  0
   16.7559   34.1780   32.4619 H   0  0  0  0  0  0  0  0  0  0  0  0
   16.6344   34.5301   37.1414 H   0  0  0  0  0  0  0  0  0  0  0  0
   15.3532   35.7362   37.5137 H   0  0  0  0  0  0  0  0  0  0  0  0
  1  2  2  0
  1  3  1  0
  3  4  1  0
  4  5  1  0
  6  1  1  0
  7  6  1  0
  6  8  1  0
  8  9  1  0
  9 10  2  0
 11  9  1  0
 10 12  1  0
 13 11  2  0
 12 14  2  0
 14 13  1  0
 14 15  1  0
 15 16  1  0
 16 17  1  0
 16 18  1  0
 18 19  2  0
 20 18  1  0
 19 21  1  0
 22 20  2  0
 20 23  1  0
 21 24  1  0
 21 25  2  0
 25 22  1  0
 23 26  1  0
 23 27  2  0
 24 28  1  0
 25 29  1  0
 28 29  1  0
  4 30  2  0
  4 31  1  0
 32 31  1  0
 32 33  1  0
 33 34  1  0
 33 35  1  0
 34 36  1  0
 35 37  1  0
 35 38  1  0
 38 36  1  0
 36 39  1  0
 38 40  1  0
 41 39  1  0
 42 39  1  0
 43 41  2  0
 41 44  1  0
 45 42  2  0
 46 43  1  0
 44 47  2  0
 44 45  1  0
 48 46  2  0
 48 47  1  0
 47 49  1  0
  6 50  1  1
  7 51  1  0
  7 52  1  0
  8 53  1  0
  8 54  1  0
 10 55  1  0
 11 56  1  0
 12 57  1  0
 13 58  1  0
 16 59  1  1
 17 60  1  0
 17 61  1  0
 17 62  1  0
 19 63  1  0
 22 64  1  0
 28 65  1  0
 28 66  1  0
 32 67  1  0
 32 68  1  0
 33 69  1  0
 35 70  1  0
 36 71  1  0
 37 72  1  0
 38 73  1  0
 40 74  1  0
 42 75  1  0
 46 76  1  0
 49 77  1  0
 49 78  1  0
M  CHG  3   5  -1  23   1  26  -1
M  END
>  <EmbedRMS>  (250) 
0.0829405480001

$$$$

     RDKit          3D

 78 83  0  0  0  0  0  0  0  0999 V2000
   10.2833   43.7663   33.8254 C   0  0  0  0  0  0  0  0  0  0  0  0
   11.4100   43.5931   34.3750 O   0  0  0  0  0  0  0  0  0  0  0  0
    9.3634   42.7257   33.7350 O   0  0  0  0  0  0  0  0  0  0  0  0
    9.8899   41.2270   34.2947 P   0  0  0  0  0  0  0  0  0  0  0  0
   10.3732   41.4563   35.8841 O   0  0  0  0  0  0  0  0  0  0  0  0
    9.9545   45.0696   33.2031 C   0  0  1  0  0  0  0  0  0  0  0  0
   11.0272   46.0322   33.4754 N   0  0  0  0  0  0  0  0  0  0  0  0
    9.7465   44.8484   31.6870 C   0  0  0  0  0  0  0  0  0  0  0  0
    8.7921   45.8409   31.0836 C   0  0  0  0  0  0  0  0  0  0  0  0
    7.4040   45.6015   31.1003 C   0  0  0  0  0  0  0  0  0  0  0  0
    9.2821   46.9902   30.4428 C   0  0  0  0  0  0  0  0  0  0  0  0
    6.5246   46.5043   30.4875 C   0  0  0  0  0  0  0  0  0  0  0  0
    8.4008   47.8918   29.8340 C   0  0  0  0  0  0  0  0  0  0  0  0
    7.0215   47.6464   29.8433 C   0  0  0  0  0  0  0  0  0  0  0  0
    6.1430   48.5442   29.2296 O   0  0  0  0  0  0  0  0  0  0  0  0
    5.7036   48.4183   27.8730 C   0  0  1  0  0  0  0  0  0  0  0  0
    6.8455   48.7184   26.8912 C   0  0  0  0  0  0  0  0  0  0  0  0
    5.0263   47.0728   27.6310 C   0  0  0  0  0  0  0  0  0  0  0  0
    5.8101   45.9335   27.3101 C   0  0  0  0  0  0  0  0  0  0  0  0
    3.6016   46.9296   27.7303 C   0  0  0  0  0  0  0  0  0  0  0  0
    5.1643   44.7324   27.0512 C   0  0  0  0  0  0  0  0  0  0  0  0
    2.9993   45.6849   27.4344 C   0  0  0  0  0  0  0  0  0  0  0  0
    2.7656   48.0139   28.1656 N   0  0  0  0  0  0  0  0  0  0  0  0
    5.7215   43.5132   26.7166 O   0  0  0  0  0  0  0  0  0  0  0  0
    3.8184   44.6150   27.1030 C   0  0  0  0  0  0  0  0  0  0  0  0
    3.1108   48.7479   29.2771 O   0  0  0  0  0  0  0  0  0  0  0  0
    1.6234   48.1550   27.6821 O   0  0  0  0  0  0  0  0  0  0  0  0
    4.6541   42.5708   26.5464 C   0  0  0  0  0  0  0  0  0  0  0  0
    3.4559   43.3161   26.8025 O   0  0  0  0  0  0  0  0  0  0  0  0
    8.8120   40.1851   34.2132 O   0  0  0  0  0  0  0  0  0  0  0  0
   11.2402   40.7947   33.3699 O   0  0  0  0  0  0  0  0  0  0  0  0
   10.9144   40.6914   31.9982 C   0  0  0  0  0  0  0  0  0  0  0  0
   11.5270   39.3912   31.4385 C   0  0  0  0  0  0  0  0  0  0  0  0
   12.7520   39.0911   32.0836 O   0  0  0  0  0  0  0  0  0  0  0  0
   10.6113   38.1932   31.6451 C   0  0  0  0  0  0  0  0  0  0  0  0
   12.9413   37.6838   32.0297 C   0  0  0  0  0  0  0  0  0  0  0  0
    9.6064   38.0878   30.6599 O   0  0  0  0  0  0  0  0  0  0  0  0
   11.5821   37.0198   31.6877 C   0  0  0  0  0  0  0  0  0  0  0  0
   13.4840   37.2105   33.3254 N   0  0  0  0  0  0  0  0  0  0  0  0
   11.6179   36.3072   30.4690 O   0  0  0  0  0  0  0  0  0  0  0  0
   14.4797   36.3309   33.5738 C   0  0  0  0  0  0  0  0  0  0  0  0
   13.1136   37.6269   34.5702 C   0  0  0  0  0  0  0  0  0  0  0  0
   15.2074   35.6152   32.6747 N   0  0  0  0  0  0  0  0  0  0  0  0
   14.6756   36.2298   34.9190 C   0  0  0  0  0  0  0  0  0  0  0  0
   13.8217   37.0445   35.5793 N   0  0  0  0  0  0  0  0  0  0  0  0
   16.1643   34.7603   33.1551 C   0  0  0  0  0  0  0  0  0  0  0  0
   15.6528   35.3503   35.4136 C   0  0  0  0  0  0  0  0  0  0  0  0
   16.3798   34.6316   34.5046 N   0  0  0  0  0  0  0  0  0  0  0  0
   15.9004   35.1930   36.8094 N   0  0  0  0  0  0  0  0  0  0  0  0
    9.0119   45.4319   33.6708 H   0  0  0  0  0  0  0  0  0  0  0  0
   11.8905   45.7659   32.9467 H   0  0  0  0  0  0  0  0  0  0  0  0
   10.7259   46.9688   33.1212 H   0  0  0  0  0  0  0  0  0  0  0  0
   10.7228   44.8822   31.1549 H   0  0  0  0  0  0  0  0  0  0  0  0
    9.3416   43.8332   31.4755 H   0  0  0  0  0  0  0  0  0  0  0  0
    7.0070   44.7174   31.5836 H   0  0  0  0  0  0  0  0  0  0  0  0
   10.3462   47.1896   30.4135 H   0  0  0  0  0  0  0  0  0  0  0  0
    5.4592   46.3129   30.5070 H   0  0  0  0  0  0  0  0  0  0  0  0
    8.7901   48.7773   29.3482 H   0  0  0  0  0  0  0  0  0  0  0  0
    4.9645   49.2257   27.6915 H   0  0  0  0  0  0  0  0  0  0  0  0
    7.1825   49.7684   27.0241 H   0  0  0  0  0  0  0  0  0  0  0  0
    7.7198   48.0586   27.0609 H   0  0  0  0  0  0  0  0  0  0  0  0
    6.4931   48.5929   25.8451 H   0  0  0  0  0  0  0  0  0  0  0  0
    6.8892   45.9708   27.2657 H   0  0  0  0  0  0  0  0  0  0  0  0
    1.9274   45.5480   27.4967 H   0  0  0  0  0  0  0  0  0  0  0  0
    4.7535   41.7418   27.2780 H   0  0  0  0  0  0  0  0  0  0  0  0
    4.6480   42.1810   25.5069 H   0  0  0  0  0  0  0  0  0  0  0  0
    9.8234   40.7201   31.7653 H   0  0  0  0  0  0  0  0  0  0  0  0
   11.3776   41.5549   31.4744 H   0  0  0  0  0  0  0  0  0  0  0  0
   11.7311   39.5363   30.3532 H   0  0  0  0  0  0  0  0  0  0  0  0
   10.1202   38.2697   32.6410 H   0  0  0  0  0  0  0  0  0  0  0  0
   13.6850   37.4639   31.2321 H   0  0  0  0  0  0  0  0  0  0  0  0
   10.0250   38.1794   29.7654 H   0  0  0  0  0  0  0  0  0  0  0  0
   11.2757   36.3136   32.4907 H   0  0  0  0  0  0  0  0  0  0  0  0
   11.9837   36.9111   29.7708 H   0  0  0  0  0  0  0  0  0  0  0  0
   12.3307   38.3537   34.7457 H   0  0  0  0  0  0  0  0  0  0  0  0
   16.7566   34.1787   32.4623 H   0  0  0  0  0  0  0  0  0  0  0  0
   16.6353   34.5301   37.1419 H   0  0  0  0  0  0  0  0  0  0  0  0
   15.3535   35.7355   37.5144 H   0  0  0  0  0  0  0  0  0  0  0  0
  1  2  2  0
  1  3  1  0
  3  4  1  0
  4  5  1  0
  6  1  1  0
  7  6  1  0
  6  8  1  0
  8  9  1  0
  9 10  2  0
 11  9  1  0
 10 12  1  0
 13 11  2  0
 12 14  2  0
 14 13  1  0
 14 15  1  0
 15 16  1  0
 16 17  1  0
 16 18  1  0
 18 19  2  0
 20 18  1  0
 19 21  1  0
 22 20  2  0
 20 23  1  0
 21 24  1  0
 21 25  2  0
 25 22  1  0
 23 26  1  0
 23 27  2  0
 24 28  1  0
 25 29  1  0
 28 29  1  0
  4 30  2  0
  4 31  1  0
 32 31  1  0
 32 33  1  0
 33 34  1  0
 33 35  1  0
 34 36  1  0
 35 37  1  0
 35 38  1  0
 38 36  1  0
 36 39  1  0
 38 40  1  0
 41 39  1  0
 42 39  1  0
 43 41  2  0
 41 44  1  0
 45 42  2  0
 46 43  1  0
 44 47  2  0
 44 45  1  0
 48 46  2  0
 48 47  1  0
 47 49  1  0
  6 50  1  1
  7 51  1  0
  7 52  1  0
  8 53  1  0
  8 54  1  0
 10 55  1  0
 11 56  1  0
 12 57  1  0
 13 58  1  0
 16 59  1  6
 17 60  1  0
 17 61  1  0
 17 62  1  0
 19 63  1  0
 22 64  1  0
 28 65  1  0
 28 66  1  0
 32 67  1  0
 32 68  1  0
 33 69  1  0
 35 70  1  0
 36 71  1  0
 37 72  1  0
 38 73  1  0
 40 74  1  0
 42 75  1  0
 46 76  1  0
 49 77  1  0
 49 78  1  0
M  CHG  3   5  -1  23   1  26  -1
M  END
>  <EmbedRMS>  (251) 
0.0809521365447

$$$$

     RDKit          3D

 78 83  0  0  0  0  0  0  0  0999 V2000
   10.2838   43.7627   33.8277 C   0  0  0  0  0  0  0  0  0  0  0  0
   11.4103   43.5864   34.3768 O   0  0  0  0  0  0  0  0  0  0  0  0
    9.3631   42.7236   33.7354 O   0  0  0  0  0  0  0  0  0  0  0  0
    9.8897   41.2248   34.2935 P   0  0  0  0  0  0  0  0  0  0  0  0
   10.3735   41.4543   35.8829 O   0  0  0  0  0  0  0  0  0  0  0  0
    9.9548   45.0700   33.2066 C   0  0  1  0  0  0  0  0  0  0  0  0
   11.0197   46.0482   33.4571 N   0  0  0  0  0  0  0  0  0  0  0  0
    9.7502   44.8509   31.6926 C   0  0  0  0  0  0  0  0  0  0  0  0
    8.7942   45.8419   31.0873 C   0  0  0  0  0  0  0  0  0  0  0  0
    7.4076   45.6006   31.0994 C   0  0  0  0  0  0  0  0  0  0  0  0
    9.2830   46.9887   30.4444 C   0  0  0  0  0  0  0  0  0  0  0  0
    6.5283   46.5012   30.4830 C   0  0  0  0  0  0  0  0  0  0  0  0
    8.4036   47.8891   29.8315 C   0  0  0  0  0  0  0  0  0  0  0  0
    7.0142   47.6535   29.8496 C   0  0  0  0  0  0  0  0  0  0  0  0
    6.0857   48.5249   29.2564 O   0  0  0  0  0  0  0  0  0  0  0  0
    6.3901   49.7923   28.6732 C   0  0  1  0  0  0  0  0  0  0  0  0
    5.1825   50.2905   27.8787 C   0  0  0  0  0  0  0  0  0  0  0  0
    6.8038   50.8056   29.7308 C   0  0  0  0  0  0  0  0  0  0  0  0
    8.0441   51.4700   29.5659 C   0  0  0  0  0  0  0  0  0  0  0  0
    5.9709   51.1535   30.8474 C   0  0  0  0  0  0  0  0  0  0  0  0
    8.4126   52.4336   30.4955 C   0  0  0  0  0  0  0  0  0  0  0  0
    6.3920   52.1520   31.7534 C   0  0  0  0  0  0  0  0  0  0  0  0
    4.7006   50.5282   31.0666 N   0  0  0  0  0  0  0  0  0  0  0  0
    9.5646   53.1955   30.5318 O   0  0  0  0  0  0  0  0  0  0  0  0
    7.6212   52.7611   31.5422 C   0  0  0  0  0  0  0  0  0  0  0  0
    4.6434   49.1971   31.4044 O   0  0  0  0  0  0  0  0  0  0  0  0
    3.6895   51.2379   31.2447 O   0  0  0  0  0  0  0  0  0  0  0  0
    9.4903   54.0553   31.6773 C   0  0  0  0  0  0  0  0  0  0  0  0
    8.2331   53.7456   32.2940 O   0  0  0  0  0  0  0  0  0  0  0  0
    8.8114   40.1834   34.2127 O   0  0  0  0  0  0  0  0  0  0  0  0
   11.2399   40.7938   33.3670 O   0  0  0  0  0  0  0  0  0  0  0  0
   10.9125   40.6857   31.9954 C   0  0  0  0  0  0  0  0  0  0  0  0
   11.5175   39.3786   31.4405 C   0  0  0  0  0  0  0  0  0  0  0  0
   12.7491   39.0863   32.0750 O   0  0  0  0  0  0  0  0  0  0  0  0
   10.6061   38.1867   31.6656 C   0  0  0  0  0  0  0  0  0  0  0  0
   12.9355   37.6795   32.0291 C   0  0  0  0  0  0  0  0  0  0  0  0
    9.6400   38.0902   30.6471 O   0  0  0  0  0  0  0  0  0  0  0  0
   11.5765   37.0145   31.7044 C   0  0  0  0  0  0  0  0  0  0  0  0
   13.4857   37.2124   33.3243 N   0  0  0  0  0  0  0  0  0  0  0  0
   11.6101   36.3397   30.4673 O   0  0  0  0  0  0  0  0  0  0  0  0
   14.4804   36.3319   33.5729 C   0  0  0  0  0  0  0  0  0  0  0  0
   13.1143   37.6276   34.5693 C   0  0  0  0  0  0  0  0  0  0  0  0
   15.2075   35.6152   32.6741 N   0  0  0  0  0  0  0  0  0  0  0  0
   14.6760   36.2304   34.9183 C   0  0  0  0  0  0  0  0  0  0  0  0
   13.8219   37.0450   35.5786 N   0  0  0  0  0  0  0  0  0  0  0  0
   16.1641   34.7600   33.1548 C   0  0  0  0  0  0  0  0  0  0  0  0
   15.6527   35.3505   35.4132 C   0  0  0  0  0  0  0  0  0  0  0  0
   16.3796   34.6315   34.5043 N   0  0  0  0  0  0  0  0  0  0  0  0
   15.9001   35.1932   36.8091 N   0  0  0  0  0  0  0  0  0  0  0  0
    9.0099   45.4350   33.6673 H   0  0  0  0  0  0  0  0  0  0  0  0
   11.9347   45.6935   33.0925 H   0  0  0  0  0  0  0  0  0  0  0  0
   11.1135   46.1991   34.4884 H   0  0  0  0  0  0  0  0  0  0  0  0
   10.7305   44.8925   31.1678 H   0  0  0  0  0  0  0  0  0  0  0  0
    9.3510   43.8344   31.4764 H   0  0  0  0  0  0  0  0  0  0  0  0
    7.0110   44.7153   31.5811 H   0  0  0  0  0  0  0  0  0  0  0  0
   10.3476   47.1862   30.4134 H   0  0  0  0  0  0  0  0  0  0  0  0
    5.4639   46.3043   30.5014 H   0  0  0  0  0  0  0  0  0  0  0  0
    8.8190   48.7560   29.3407 H   0  0  0  0  0  0  0  0  0  0  0  0
    7.2059   49.6501   27.9298 H   0  0  0  0  0  0  0  0  0  0  0  0
    4.9681   49.5859   27.0472 H   0  0  0  0  0  0  0  0  0  0  0  0
    4.2775   50.3558   28.5160 H   0  0  0  0  0  0  0  0  0  0  0  0
    5.3947   51.2911   27.4446 H   0  0  0  0  0  0  0  0  0  0  0  0
    8.7000   51.2510   28.7329 H   0  0  0  0  0  0  0  0  0  0  0  0
    5.7810   52.4346   32.6011 H   0  0  0  0  0  0  0  0  0  0  0  0
   10.3244   53.8362   32.3764 H   0  0  0  0  0  0  0  0  0  0  0  0
    9.5102   55.1192   31.3608 H   0  0  0  0  0  0  0  0  0  0  0  0
   11.3805   41.5437   31.4669 H   0  0  0  0  0  0  0  0  0  0  0  0
    9.8215   40.7199   31.7634 H   0  0  0  0  0  0  0  0  0  0  0  0
   11.6996   39.5042   30.3481 H   0  0  0  0  0  0  0  0  0  0  0  0
   10.1086   38.2767   32.6603 H   0  0  0  0  0  0  0  0  0  0  0  0
   13.6679   37.4518   31.2227 H   0  0  0  0  0  0  0  0  0  0  0  0
    9.0017   37.3867   30.9350 H   0  0  0  0  0  0  0  0  0  0  0  0
   11.2666   36.3062   32.5083 H   0  0  0  0  0  0  0  0  0  0  0  0
   12.1389   35.5126   30.6149 H   0  0  0  0  0  0  0  0  0  0  0  0
   12.3300   38.3529   34.7450 H   0  0  0  0  0  0  0  0  0  0  0  0
   16.7561   34.1779   32.4622 H   0  0  0  0  0  0  0  0  0  0  0  0
   16.6347   34.5299   37.1417 H   0  0  0  0  0  0  0  0  0  0  0  0
   15.3534   35.7360   37.5140 H   0  0  0  0  0  0  0  0  0  0  0  0
  1  2  2  0
  1  3  1  0
  3  4  1  0
  4  5  1  0
  6  1  1  0
  7  6  1  0
  6  8  1  0
  8  9  1  0
  9 10  2  0
 11  9  1  0
 10 12  1  0
 13 11  2  0
 12 14  2  0
 14 13  1  0
 14 15  1  0
 15 16  1  0
 16 17  1  0
 16 18  1  0
 18 19  2  0
 20 18  1  0
 19 21  1  0
 22 20  2  0
 20 23  1  0
 21 24  1  0
 21 25  2  0
 25 22  1  0
 23 26  1  0
 23 27  2  0
 24 28  1  0
 25 29  1  0
 28 29  1  0
  4 30  2  0
  4 31  1  0
 32 31  1  0
 32 33  1  0
 33 34  1  0
 33 35  1  0
 34 36  1  0
 35 37  1  0
 35 38  1  0
 38 36  1  0
 36 39  1  0
 38 40  1  0
 41 39  1  0
 42 39  1  0
 43 41  2  0
 41 44  1  0
 45 42  2  0
 46 43  1  0
 44 47  2  0
 44 45  1  0
 48 46  2  0
 48 47  1  0
 47 49  1  0
  6 50  1  1
  7 51  1  0
  7 52  1  0
  8 53  1  0
  8 54  1  0
 10 55  1  0
 11 56  1  0
 12 57  1  0
 13 58  1  0
 16 59  1  6
 17 60  1  0
 17 61  1  0
 17 62  1  0
 19 63  1  0
 22 64  1  0
 28 65  1  0
 28 66  1  0
 32 67  1  0
 32 68  1  0
 33 69  1  0
 35 70  1  0
 36 71  1  0
 37 72  1  0
 38 73  1  0
 40 74  1  0
 42 75  1  0
 46 76  1  0
 49 77  1  0
 49 78  1  0
M  CHG  3   5  -1  23   1  26  -1
M  END
>  <EmbedRMS>  (252) 
0.083286483609

$$$$

     RDKit          3D

 78 83  0  0  0  0  0  0  0  0999 V2000
   10.2834   43.7662   33.8256 C   0  0  0  0  0  0  0  0  0  0  0  0
   11.4101   43.5930   34.3752 O   0  0  0  0  0  0  0  0  0  0  0  0
    9.3637   42.7255   33.7348 O   0  0  0  0  0  0  0  0  0  0  0  0
    9.8907   41.2266   34.2934 P   0  0  0  0  0  0  0  0  0  0  0  0
   10.3743   41.4558   35.8827 O   0  0  0  0  0  0  0  0  0  0  0  0
    9.9547   45.0695   33.2034 C   0  0  1  0  0  0  0  0  0  0  0  0
   11.0273   46.0322   33.4758 N   0  0  0  0  0  0  0  0  0  0  0  0
    9.7471   44.8482   31.6874 C   0  0  0  0  0  0  0  0  0  0  0  0
    8.7926   45.8406   31.0839 C   0  0  0  0  0  0  0  0  0  0  0  0
    7.4058   45.6014   31.0995 C   0  0  0  0  0  0  0  0  0  0  0  0
    9.2817   46.9881   30.4427 C   0  0  0  0  0  0  0  0  0  0  0  0
    6.5244   46.5019   30.4856 C   0  0  0  0  0  0  0  0  0  0  0  0
    8.4004   47.8887   29.8339 C   0  0  0  0  0  0  0  0  0  0  0  0
    7.0188   47.6554   29.8435 C   0  0  0  0  0  0  0  0  0  0  0  0
    6.1849   48.5909   29.2093 O   0  0  0  0  0  0  0  0  0  0  0  0
    4.7801   48.4453   28.9976 C   0  0  1  0  0  0  0  0  0  0  0  0
    4.1904   49.7816   28.5451 C   0  0  0  0  0  0  0  0  0  0  0  0
    4.4791   47.3440   27.9897 C   0  0  0  0  0  0  0  0  0  0  0  0
    3.6091   46.3004   28.3923 C   0  0  0  0  0  0  0  0  0  0  0  0
    4.9833   47.3491   26.6429 C   0  0  0  0  0  0  0  0  0  0  0  0
    3.2758   45.3166   27.4712 C   0  0  0  0  0  0  0  0  0  0  0  0
    4.5947   46.3294   25.7461 C   0  0  0  0  0  0  0  0  0  0  0  0
    5.8536   48.3798   26.1567 N   0  0  0  0  0  0  0  0  0  0  0  0
    2.4560   44.2184   27.6467 O   0  0  0  0  0  0  0  0  0  0  0  0
    3.7464   45.3312   26.2038 C   0  0  0  0  0  0  0  0  0  0  0  0
    5.6120   48.9409   24.9241 O   0  0  0  0  0  0  0  0  0  0  0  0
    6.9621   48.5699   26.6953 O   0  0  0  0  0  0  0  0  0  0  0  0
    2.4118   43.4972   26.4079 C   0  0  0  0  0  0  0  0  0  0  0  0
    3.2493   44.2425   25.5136 O   0  0  0  0  0  0  0  0  0  0  0  0
    8.8123   40.1851   34.2128 O   0  0  0  0  0  0  0  0  0  0  0  0
   11.2406   40.7945   33.3671 O   0  0  0  0  0  0  0  0  0  0  0  0
   10.9134   40.6866   31.9955 C   0  0  0  0  0  0  0  0  0  0  0  0
   11.5166   39.3787   31.4405 C   0  0  0  0  0  0  0  0  0  0  0  0
   12.7486   39.0849   32.0734 O   0  0  0  0  0  0  0  0  0  0  0  0
   10.6039   38.1884   31.6670 C   0  0  0  0  0  0  0  0  0  0  0  0
   12.9329   37.6775   32.0284 C   0  0  0  0  0  0  0  0  0  0  0  0
    9.6374   38.0938   30.6484 O   0  0  0  0  0  0  0  0  0  0  0  0
   11.5737   37.0140   31.7056 C   0  0  0  0  0  0  0  0  0  0  0  0
   13.4853   37.2120   33.3238 N   0  0  0  0  0  0  0  0  0  0  0  0
   11.6209   36.3379   30.4684 O   0  0  0  0  0  0  0  0  0  0  0  0
   14.4804   36.3319   33.5726 C   0  0  0  0  0  0  0  0  0  0  0  0
   13.1141   37.6274   34.5689 C   0  0  0  0  0  0  0  0  0  0  0  0
   15.2075   35.6152   32.6740 N   0  0  0  0  0  0  0  0  0  0  0  0
   14.6761   36.2307   34.9181 C   0  0  0  0  0  0  0  0  0  0  0  0
   13.8219   37.0451   35.5783 N   0  0  0  0  0  0  0  0  0  0  0  0
   16.1642   34.7600   33.1547 C   0  0  0  0  0  0  0  0  0  0  0  0
   15.6528   35.3507   35.4130 C   0  0  0  0  0  0  0  0  0  0  0  0
   16.3796   34.6315   34.5042 N   0  0  0  0  0  0  0  0  0  0  0  0
   15.9001   35.1933   36.8090 N   0  0  0  0  0  0  0  0  0  0  0  0
    9.0119   45.4317   33.6709 H   0  0  0  0  0  0  0  0  0  0  0  0
   11.8907   45.7659   32.9474 H   0  0  0  0  0  0  0  0  0  0  0  0
   10.7260   46.9688   33.1215 H   0  0  0  0  0  0  0  0  0  0  0  0
   10.7235   44.8820   31.1556 H   0  0  0  0  0  0  0  0  0  0  0  0
    9.3425   43.8329   31.4757 H   0  0  0  0  0  0  0  0  0  0  0  0
    7.0098   44.7176   31.5845 H   0  0  0  0  0  0  0  0  0  0  0  0
   10.3460   47.1867   30.4113 H   0  0  0  0  0  0  0  0  0  0  0  0
    5.4666   46.2920   30.5267 H   0  0  0  0  0  0  0  0  0  0  0  0
    8.7939   48.7703   29.3438 H   0  0  0  0  0  0  0  0  0  0  0  0
    4.3011   48.2191   29.9762 H   0  0  0  0  0  0  0  0  0  0  0  0
    4.6880   50.1551   27.6275 H   0  0  0  0  0  0  0  0  0  0  0  0
    3.1019   49.6742   28.3502 H   0  0  0  0  0  0  0  0  0  0  0  0
    4.3298   50.5395   29.3450 H   0  0  0  0  0  0  0  0  0  0  0  0
    3.1928   46.2605   29.3909 H   0  0  0  0  0  0  0  0  0  0  0  0
    4.9548   46.3118   24.7253 H   0  0  0  0  0  0  0  0  0  0  0  0
    1.3721   43.4633   26.0203 H   0  0  0  0  0  0  0  0  0  0  0  0
    2.8150   42.4721   26.5456 H   0  0  0  0  0  0  0  0  0  0  0  0
   11.3826   41.5438   31.4669 H   0  0  0  0  0  0  0  0  0  0  0  0
    9.8225   40.7224   31.7632 H   0  0  0  0  0  0  0  0  0  0  0  0
   11.6979   39.5037   30.3479 H   0  0  0  0  0  0  0  0  0  0  0  0
   10.1084   38.2786   32.6627 H   0  0  0  0  0  0  0  0  0  0  0  0
   13.6638   37.4471   31.2214 H   0  0  0  0  0  0  0  0  0  0  0  0
    8.9762   37.4192   30.9532 H   0  0  0  0  0  0  0  0  0  0  0  0
   11.2821   36.3054   32.5172 H   0  0  0  0  0  0  0  0  0  0  0  0
   10.8656   35.6936   30.4654 H   0  0  0  0  0  0  0  0  0  0  0  0
   12.3294   38.3523   34.7444 H   0  0  0  0  0  0  0  0  0  0  0  0
   16.7561   34.1779   32.4621 H   0  0  0  0  0  0  0  0  0  0  0  0
   15.3533   35.7362   37.5138 H   0  0  0  0  0  0  0  0  0  0  0  0
   16.6346   34.5300   37.1415 H   0  0  0  0  0  0  0  0  0  0  0  0
  1  2  2  0
  1  3  1  0
  3  4  1  0
  4  5  1  0
  6  1  1  0
  7  6  1  0
  6  8  1  0
  8  9  1  0
  9 10  2  0
 11  9  1  0
 10 12  1  0
 13 11  2  0
 12 14  2  0
 14 13  1  0
 14 15  1  0
 15 16  1  0
 16 17  1  0
 16 18  1  0
 18 19  2  0
 20 18  1  0
 19 21  1  0
 22 20  2  0
 20 23  1  0
 21 24  1  0
 21 25  2  0
 25 22  1  0
 23 26  1  0
 23 27  2  0
 24 28  1  0
 25 29  1  0
 28 29  1  0
  4 30  2  0
  4 31  1  0
 32 31  1  0
 32 33  1  0
 33 34  1  0
 33 35  1  0
 34 36  1  0
 35 37  1  0
 35 38  1  0
 38 36  1  0
 36 39  1  0
 38 40  1  0
 41 39  1  0
 42 39  1  0
 43 41  2  0
 41 44  1  0
 45 42  2  0
 46 43  1  0
 44 47  2  0
 44 45  1  0
 48 46  2  0
 48 47  1  0
 47 49  1  0
  6 50  1  1
  7 51  1  0
  7 52  1  0
  8 53  1  0
  8 54  1  0
 10 55  1  0
 11 56  1  0
 12 57  1  0
 13 58  1  0
 16 59  1  1
 17 60  1  0
 17 61  1  0
 17 62  1  0
 19 63  1  0
 22 64  1  0
 28 65  1  0
 28 66  1  0
 32 67  1  0
 32 68  1  0
 33 69  1  0
 35 70  1  0
 36 71  1  0
 37 72  1  0
 38 73  1  0
 40 74  1  0
 42 75  1  0
 46 76  1  0
 49 77  1  0
 49 78  1  0
M  CHG  3   5  -1  23   1  26  -1
M  END
>  <EmbedRMS>  (253) 
0.0825599433605

$$$$

     RDKit          3D

 78 83  0  0  0  0  0  0  0  0999 V2000
   10.2834   43.7662   33.8255 C   0  0  0  0  0  0  0  0  0  0  0  0
   11.4101   43.5930   34.3752 O   0  0  0  0  0  0  0  0  0  0  0  0
    9.3636   42.7255   33.7348 O   0  0  0  0  0  0  0  0  0  0  0  0
    9.8905   41.2266   34.2933 P   0  0  0  0  0  0  0  0  0  0  0  0
   10.3743   41.4557   35.8827 O   0  0  0  0  0  0  0  0  0  0  0  0
    9.9547   45.0695   33.2034 C   0  0  1  0  0  0  0  0  0  0  0  0
   11.0274   46.0322   33.4759 N   0  0  0  0  0  0  0  0  0  0  0  0
    9.7471   44.8484   31.6874 C   0  0  0  0  0  0  0  0  0  0  0  0
    8.7925   45.8408   31.0842 C   0  0  0  0  0  0  0  0  0  0  0  0
    7.4058   45.6011   31.0998 C   0  0  0  0  0  0  0  0  0  0  0  0
    9.2816   46.9883   30.4426 C   0  0  0  0  0  0  0  0  0  0  0  0
    6.5245   46.5014   30.4859 C   0  0  0  0  0  0  0  0  0  0  0  0
    8.4003   47.8887   29.8331 C   0  0  0  0  0  0  0  0  0  0  0  0
    7.0189   47.6553   29.8438 C   0  0  0  0  0  0  0  0  0  0  0  0
    6.1826   48.5873   29.2076 O   0  0  0  0  0  0  0  0  0  0  0  0
    4.7683   48.4513   29.0425 C   0  0  1  0  0  0  0  0  0  0  0  0
    4.2079   49.7677   28.5069 C   0  0  0  0  0  0  0  0  0  0  0  0
    4.4503   47.3202   28.0792 C   0  0  0  0  0  0  0  0  0  0  0  0
    5.2114   47.2109   26.8894 C   0  0  0  0  0  0  0  0  0  0  0  0
    3.4492   46.3341   28.3645 C   0  0  0  0  0  0  0  0  0  0  0  0
    4.9844   46.1253   26.0540 C   0  0  0  0  0  0  0  0  0  0  0  0
    3.2738   45.2420   27.4837 C   0  0  0  0  0  0  0  0  0  0  0  0
    2.6012   46.4349   29.5192 N   0  0  0  0  0  0  0  0  0  0  0  0
    5.6107   45.8123   24.8630 O   0  0  0  0  0  0  0  0  0  0  0  0
    4.0605   45.1798   26.3411 C   0  0  0  0  0  0  0  0  0  0  0  0
    1.9633   47.6195   29.8056 O   0  0  0  0  0  0  0  0  0  0  0  0
    2.2618   45.4037   30.1355 O   0  0  0  0  0  0  0  0  0  0  0  0
    5.0410   44.5914   24.3713 C   0  0  0  0  0  0  0  0  0  0  0  0
    4.0550   44.2222   25.3452 O   0  0  0  0  0  0  0  0  0  0  0  0
    8.8121   40.1851   34.2128 O   0  0  0  0  0  0  0  0  0  0  0  0
   11.2403   40.7946   33.3668 O   0  0  0  0  0  0  0  0  0  0  0  0
   10.9126   40.6859   31.9954 C   0  0  0  0  0  0  0  0  0  0  0  0
   11.5175   39.3787   31.4405 C   0  0  0  0  0  0  0  0  0  0  0  0
   12.7490   39.0864   32.0752 O   0  0  0  0  0  0  0  0  0  0  0  0
   10.6060   38.1868   31.6656 C   0  0  0  0  0  0  0  0  0  0  0  0
   12.9355   37.6796   32.0292 C   0  0  0  0  0  0  0  0  0  0  0  0
    9.6399   38.0903   30.6471 O   0  0  0  0  0  0  0  0  0  0  0  0
   11.5765   37.0145   31.7044 C   0  0  0  0  0  0  0  0  0  0  0  0
   13.4858   37.2125   33.3244 N   0  0  0  0  0  0  0  0  0  0  0  0
   11.6101   36.3397   30.4673 O   0  0  0  0  0  0  0  0  0  0  0  0
   14.4805   36.3319   33.5729 C   0  0  0  0  0  0  0  0  0  0  0  0
   13.1143   37.6276   34.5694 C   0  0  0  0  0  0  0  0  0  0  0  0
   15.2076   35.6153   32.6741 N   0  0  0  0  0  0  0  0  0  0  0  0
   14.6760   36.2304   34.9184 C   0  0  0  0  0  0  0  0  0  0  0  0
   13.8219   37.0449   35.5786 N   0  0  0  0  0  0  0  0  0  0  0  0
   16.1641   34.7600   33.1548 C   0  0  0  0  0  0  0  0  0  0  0  0
   15.6528   35.3505   35.4132 C   0  0  0  0  0  0  0  0  0  0  0  0
   16.3795   34.6314   34.5043 N   0  0  0  0  0  0  0  0  0  0  0  0
   15.9002   35.1932   36.8091 N   0  0  0  0  0  0  0  0  0  0  0  0
    9.0120   45.4318   33.6711 H   0  0  0  0  0  0  0  0  0  0  0  0
   11.8908   45.7659   32.9475 H   0  0  0  0  0  0  0  0  0  0  0  0
   10.7261   46.9688   33.1214 H   0  0  0  0  0  0  0  0  0  0  0  0
   10.7236   44.8824   31.1556 H   0  0  0  0  0  0  0  0  0  0  0  0
    9.3425   43.8331   31.4756 H   0  0  0  0  0  0  0  0  0  0  0  0
    7.0100   44.7166   31.5836 H   0  0  0  0  0  0  0  0  0  0  0  0
   10.3459   47.1869   30.4111 H   0  0  0  0  0  0  0  0  0  0  0  0
    5.4659   46.2888   30.5210 H   0  0  0  0  0  0  0  0  0  0  0  0
    8.7937   48.7700   29.3423 H   0  0  0  0  0  0  0  0  0  0  0  0
    4.3195   48.2795   30.0423 H   0  0  0  0  0  0  0  0  0  0  0  0
    4.6818   50.0295   27.5367 H   0  0  0  0  0  0  0  0  0  0  0  0
    3.1091   49.6909   28.3633 H   0  0  0  0  0  0  0  0  0  0  0  0
    4.4122   50.5842   29.2315 H   0  0  0  0  0  0  0  0  0  0  0  0
    5.9729   47.9376   26.6359 H   0  0  0  0  0  0  0  0  0  0  0  0
    2.5301   44.4787   27.6732 H   0  0  0  0  0  0  0  0  0  0  0  0
    5.8214   43.8052   24.2992 H   0  0  0  0  0  0  0  0  0  0  0  0
    4.5605   44.7617   23.3851 H   0  0  0  0  0  0  0  0  0  0  0  0
   11.3803   41.5437   31.4664 H   0  0  0  0  0  0  0  0  0  0  0  0
    9.8215   40.7200   31.7636 H   0  0  0  0  0  0  0  0  0  0  0  0
   11.6998   39.5041   30.3482 H   0  0  0  0  0  0  0  0  0  0  0  0
   10.1085   38.2767   32.6603 H   0  0  0  0  0  0  0  0  0  0  0  0
   13.6679   37.4520   31.2229 H   0  0  0  0  0  0  0  0  0  0  0  0
    9.0016   37.3868   30.9350 H   0  0  0  0  0  0  0  0  0  0  0  0
   11.2666   36.3062   32.5084 H   0  0  0  0  0  0  0  0  0  0  0  0
   12.1389   35.5126   30.6150 H   0  0  0  0  0  0  0  0  0  0  0  0
   12.3300   38.3529   34.7449 H   0  0  0  0  0  0  0  0  0  0  0  0
   16.7560   34.1779   32.4620 H   0  0  0  0  0  0  0  0  0  0  0  0
   16.6347   34.5299   37.1416 H   0  0  0  0  0  0  0  0  0  0  0  0
   15.3534   35.7359   37.5140 H   0  0  0  0  0  0  0  0  0  0  0  0
  1  2  2  0
  1  3  1  0
  3  4  1  0
  4  5  1  0
  6  1  1  0
  7  6  1  0
  6  8  1  0
  8  9  1  0
  9 10  2  0
 11  9  1  0
 10 12  1  0
 13 11  2  0
 12 14  2  0
 14 13  1  0
 14 15  1  0
 15 16  1  0
 16 17  1  0
 16 18  1  0
 18 19  2  0
 20 18  1  0
 19 21  1  0
 22 20  2  0
 20 23  1  0
 21 24  1  0
 21 25  2  0
 25 22  1  0
 23 26  1  0
 23 27  2  0
 24 28  1  0
 25 29  1  0
 28 29  1  0
  4 30  2  0
  4 31  1  0
 32 31  1  0
 32 33  1  0
 33 34  1  0
 33 35  1  0
 34 36  1  0
 35 37  1  0
 35 38  1  0
 38 36  1  0
 36 39  1  0
 38 40  1  0
 41 39  1  0
 42 39  1  0
 43 41  2  0
 41 44  1  0
 45 42  2  0
 46 43  1  0
 44 47  2  0
 44 45  1  0
 48 46  2  0
 48 47  1  0
 47 49  1  0
  6 50  1  1
  7 51  1  0
  7 52  1  0
  8 53  1  0
  8 54  1  0
 10 55  1  0
 11 56  1  0
 12 57  1  0
 13 58  1  0
 16 59  1  1
 17 60  1  0
 17 61  1  0
 17 62  1  0
 19 63  1  0
 22 64  1  0
 28 65  1  0
 28 66  1  0
 32 67  1  0
 32 68  1  0
 33 69  1  0
 35 70  1  0
 36 71  1  0
 37 72  1  0
 38 73  1  0
 40 74  1  0
 42 75  1  0
 46 76  1  0
 49 77  1  0
 49 78  1  0
M  CHG  3   5  -1  23   1  26  -1
M  END
>  <EmbedRMS>  (254) 
0.0823945925433

$$$$

     RDKit          3D

 78 83  0  0  0  0  0  0  0  0999 V2000
   10.2843   43.7666   33.8261 C   0  0  0  0  0  0  0  0  0  0  0  0
   11.4113   43.5928   34.3754 O   0  0  0  0  0  0  0  0  0  0  0  0
    9.3641   42.7266   33.7352 O   0  0  0  0  0  0  0  0  0  0  0  0
    9.8900   41.2276   34.2944 P   0  0  0  0  0  0  0  0  0  0  0  0
   10.3742   41.4572   35.8834 O   0  0  0  0  0  0  0  0  0  0  0  0
    9.9563   45.0694   33.2025 C   0  0  1  0  0  0  0  0  0  0  0  0
   11.0299   46.0309   33.4732 N   0  0  0  0  0  0  0  0  0  0  0  0
    9.7461   44.8467   31.6865 C   0  0  0  0  0  0  0  0  0  0  0  0
    8.7919   45.8402   31.0825 C   0  0  0  0  0  0  0  0  0  0  0  0
    7.4050   45.5993   31.0951 C   0  0  0  0  0  0  0  0  0  0  0  0
    9.2806   46.9914   30.4455 C   0  0  0  0  0  0  0  0  0  0  0  0
    6.5237   46.4994   30.4799 C   0  0  0  0  0  0  0  0  0  0  0  0
    8.3978   47.8953   29.8417 C   0  0  0  0  0  0  0  0  0  0  0  0
    7.0177   47.6532   29.8461 C   0  0  0  0  0  0  0  0  0  0  0  0
    6.1655   48.5869   29.2393 O   0  0  0  0  0  0  0  0  0  0  0  0
    5.2798   48.2945   28.1515 C   0  0  1  0  0  0  0  0  0  0  0  0
    6.0801   47.7271   26.9673 C   0  0  0  0  0  0  0  0  0  0  0  0
    4.0843   47.4576   28.6094 C   0  0  0  0  0  0  0  0  0  0  0  0
    3.7920   46.2061   27.9982 C   0  0  0  0  0  0  0  0  0  0  0  0
    3.2495   47.9073   29.6939 C   0  0  0  0  0  0  0  0  0  0  0  0
    2.7214   45.4629   28.4746 C   0  0  0  0  0  0  0  0  0  0  0  0
    2.1817   47.0955   30.1419 C   0  0  0  0  0  0  0  0  0  0  0  0
    3.4843   49.1564   30.3696 N   0  0  0  0  0  0  0  0  0  0  0  0
    2.2668   44.2357   28.0310 O   0  0  0  0  0  0  0  0  0  0  0  0
    1.9503   45.8872   29.5003 C   0  0  0  0  0  0  0  0  0  0  0  0
    3.2355   49.2588   31.7184 O   0  0  0  0  0  0  0  0  0  0  0  0
    3.7094   50.1995   29.7213 O   0  0  0  0  0  0  0  0  0  0  0  0
    1.1311   43.8699   28.8281 C   0  0  0  0  0  0  0  0  0  0  0  0
    0.9655   44.9510   29.7574 O   0  0  0  0  0  0  0  0  0  0  0  0
    8.8117   40.1861   34.2127 O   0  0  0  0  0  0  0  0  0  0  0  0
   11.2401   40.7940   33.3703 O   0  0  0  0  0  0  0  0  0  0  0  0
   10.9147   40.6910   31.9985 C   0  0  0  0  0  0  0  0  0  0  0  0
   11.5275   39.3912   31.4387 C   0  0  0  0  0  0  0  0  0  0  0  0
   12.7529   39.0908   32.0826 O   0  0  0  0  0  0  0  0  0  0  0  0
   10.6118   38.1933   31.6452 C   0  0  0  0  0  0  0  0  0  0  0  0
   12.9413   37.6833   32.0298 C   0  0  0  0  0  0  0  0  0  0  0  0
    9.6072   38.0885   30.6597 O   0  0  0  0  0  0  0  0  0  0  0  0
   11.5818   37.0191   31.6881 C   0  0  0  0  0  0  0  0  0  0  0  0
   13.4840   37.2105   33.3256 N   0  0  0  0  0  0  0  0  0  0  0  0
   11.6174   36.3071   30.4693 O   0  0  0  0  0  0  0  0  0  0  0  0
   14.4798   36.3314   33.5741 C   0  0  0  0  0  0  0  0  0  0  0  0
   13.1137   37.6270   34.5702 C   0  0  0  0  0  0  0  0  0  0  0  0
   15.2066   35.6149   32.6752 N   0  0  0  0  0  0  0  0  0  0  0  0
   14.6756   36.2300   34.9195 C   0  0  0  0  0  0  0  0  0  0  0  0
   13.8211   37.0442   35.5795 N   0  0  0  0  0  0  0  0  0  0  0  0
   16.1627   34.7592   33.1557 C   0  0  0  0  0  0  0  0  0  0  0  0
   15.6531   35.3502   35.4142 C   0  0  0  0  0  0  0  0  0  0  0  0
   16.3791   34.6310   34.5049 N   0  0  0  0  0  0  0  0  0  0  0  0
   15.9023   35.1923   36.8097 N   0  0  0  0  0  0  0  0  0  0  0  0
    9.0154   45.4338   33.6711 H   0  0  0  0  0  0  0  0  0  0  0  0
   11.8907   45.7636   32.9414 H   0  0  0  0  0  0  0  0  0  0  0  0
   10.7287   46.9684   33.1208 H   0  0  0  0  0  0  0  0  0  0  0  0
   10.7221   44.8803   31.1535 H   0  0  0  0  0  0  0  0  0  0  0  0
    9.3389   43.8309   31.4770 H   0  0  0  0  0  0  0  0  0  0  0  0
    7.0088   44.7154   31.5794 H   0  0  0  0  0  0  0  0  0  0  0  0
   10.3445   47.1916   30.4168 H   0  0  0  0  0  0  0  0  0  0  0  0
    5.4639   46.3014   30.5273 H   0  0  0  0  0  0  0  0  0  0  0  0
    8.7875   48.7834   29.3595 H   0  0  0  0  0  0  0  0  0  0  0  0
    4.8746   49.2607   27.7857 H   0  0  0  0  0  0  0  0  0  0  0  0
    6.9026   48.4267   26.7050 H   0  0  0  0  0  0  0  0  0  0  0  0
    6.5313   46.7462   27.2288 H   0  0  0  0  0  0  0  0  0  0  0  0
    5.4278   47.6162   26.0745 H   0  0  0  0  0  0  0  0  0  0  0  0
    4.3711   45.8011   27.1817 H   0  0  0  0  0  0  0  0  0  0  0  0
    1.5418   47.4052   30.9587 H   0  0  0  0  0  0  0  0  0  0  0  0
    1.3310   42.9231   29.3720 H   0  0  0  0  0  0  0  0  0  0  0  0
    0.2289   43.7723   28.1885 H   0  0  0  0  0  0  0  0  0  0  0  0
    9.8237   40.7180   31.7654 H   0  0  0  0  0  0  0  0  0  0  0  0
   11.3771   41.5552   31.4747 H   0  0  0  0  0  0  0  0  0  0  0  0
   11.7311   39.5372   30.3538 H   0  0  0  0  0  0  0  0  0  0  0  0
   10.1206   38.2708   32.6407 H   0  0  0  0  0  0  0  0  0  0  0  0
   13.6860   37.4635   31.2336 H   0  0  0  0  0  0  0  0  0  0  0  0
   10.0258   38.1801   29.7651 H   0  0  0  0  0  0  0  0  0  0  0  0
   11.2747   36.3121   32.4909 H   0  0  0  0  0  0  0  0  0  0  0  0
   11.9855   36.9108   29.7721 H   0  0  0  0  0  0  0  0  0  0  0  0
   12.3322   38.3548   34.7458 H   0  0  0  0  0  0  0  0  0  0  0  0
   16.7530   34.1762   32.4627 H   0  0  0  0  0  0  0  0  0  0  0  0
   16.6374   34.5282   37.1399 H   0  0  0  0  0  0  0  0  0  0  0  0
   15.3562   35.7332   37.5165 H   0  0  0  0  0  0  0  0  0  0  0  0
  1  2  2  0
  1  3  1  0
  3  4  1  0
  4  5  1  0
  6  1  1  0
  7  6  1  0
  6  8  1  0
  8  9  1  0
  9 10  2  0
 11  9  1  0
 10 12  1  0
 13 11  2  0
 12 14  2  0
 14 13  1  0
 14 15  1  0
 15 16  1  0
 16 17  1  0
 16 18  1  0
 18 19  2  0
 20 18  1  0
 19 21  1  0
 22 20  2  0
 20 23  1  0
 21 24  1  0
 21 25  2  0
 25 22  1  0
 23 26  1  0
 23 27  2  0
 24 28  1  0
 25 29  1  0
 28 29  1  0
  4 30  2  0
  4 31  1  0
 32 31  1  0
 32 33  1  0
 33 34  1  0
 33 35  1  0
 34 36  1  0
 35 37  1  0
 35 38  1  0
 38 36  1  0
 36 39  1  0
 38 40  1  0
 41 39  1  0
 42 39  1  0
 43 41  2  0
 41 44  1  0
 45 42  2  0
 46 43  1  0
 44 47  2  0
 44 45  1  0
 48 46  2  0
 48 47  1  0
 47 49  1  0
  6 50  1  1
  7 51  1  0
  7 52  1  0
  8 53  1  0
  8 54  1  0
 10 55  1  0
 11 56  1  0
 12 57  1  0
 13 58  1  0
 16 59  1  6
 17 60  1  0
 17 61  1  0
 17 62  1  0
 19 63  1  0
 22 64  1  0
 28 65  1  0
 28 66  1  0
 32 67  1  0
 32 68  1  0
 33 69  1  0
 35 70  1  0
 36 71  1  0
 37 72  1  0
 38 73  1  0
 40 74  1  0
 42 75  1  0
 46 76  1  0
 49 77  1  0
 49 78  1  0
M  CHG  3   5  -1  23   1  26  -1
M  END
>  <EmbedRMS>  (255) 
0.0808316813621

$$$$

     RDKit          3D

 78 83  0  0  0  0  0  0  0  0999 V2000
   10.2836   43.7661   33.8256 C   0  0  0  0  0  0  0  0  0  0  0  0
   11.4103   43.5930   34.3753 O   0  0  0  0  0  0  0  0  0  0  0  0
    9.3641   42.7253   33.7346 O   0  0  0  0  0  0  0  0  0  0  0  0
    9.8908   41.2265   34.2938 P   0  0  0  0  0  0  0  0  0  0  0  0
   10.3732   41.4559   35.8835 O   0  0  0  0  0  0  0  0  0  0  0  0
    9.9548   45.0694   33.2036 C   0  0  1  0  0  0  0  0  0  0  0  0
   11.0274   46.0322   33.4760 N   0  0  0  0  0  0  0  0  0  0  0  0
    9.7471   44.8484   31.6876 C   0  0  0  0  0  0  0  0  0  0  0  0
    8.7926   45.8410   31.0846 C   0  0  0  0  0  0  0  0  0  0  0  0
    7.4061   45.6012   31.0993 C   0  0  0  0  0  0  0  0  0  0  0  0
    9.2817   46.9877   30.4421 C   0  0  0  0  0  0  0  0  0  0  0  0
    6.5243   46.5006   30.4844 C   0  0  0  0  0  0  0  0  0  0  0  0
    8.4004   47.8875   29.8321 C   0  0  0  0  0  0  0  0  0  0  0  0
    7.0183   47.6576   29.8461 C   0  0  0  0  0  0  0  0  0  0  0  0
    6.1882   48.5945   29.2077 O   0  0  0  0  0  0  0  0  0  0  0  0
    4.7582   48.5679   29.1697 C   0  0  1  0  0  0  0  0  0  0  0  0
    4.2102   49.0391   30.5261 C   0  0  0  0  0  0  0  0  0  0  0  0
    4.2949   49.3912   27.9684 C   0  0  0  0  0  0  0  0  0  0  0  0
    3.4164   50.5005   28.1226 C   0  0  0  0  0  0  0  0  0  0  0  0
    4.7810   49.0771   26.6499 C   0  0  0  0  0  0  0  0  0  0  0  0
    3.0770   51.2456   27.0014 C   0  0  0  0  0  0  0  0  0  0  0  0
    4.4099   49.8851   25.5516 C   0  0  0  0  0  0  0  0  0  0  0  0
    5.6637   47.9674   26.4079 N   0  0  0  0  0  0  0  0  0  0  0  0
    2.2527   52.3520   26.9248 O   0  0  0  0  0  0  0  0  0  0  0  0
    3.5545   50.9532   25.7720 C   0  0  0  0  0  0  0  0  0  0  0  0
    6.6404   48.0695   25.4442 O   0  0  0  0  0  0  0  0  0  0  0  0
    5.4311   46.8487   26.9092 O   0  0  0  0  0  0  0  0  0  0  0  0
    2.2115   52.7795   25.5567 C   0  0  0  0  0  0  0  0  0  0  0  0
    3.0569   51.8586   24.8545 O   0  0  0  0  0  0  0  0  0  0  0  0
    8.8127   40.1848   34.2122 O   0  0  0  0  0  0  0  0  0  0  0  0
   11.2420   40.7941   33.3697 O   0  0  0  0  0  0  0  0  0  0  0  0
   10.9187   40.6911   31.9971 C   0  0  0  0  0  0  0  0  0  0  0  0
   11.5172   39.3815   31.4407 C   0  0  0  0  0  0  0  0  0  0  0  0
   12.7493   39.0856   32.0728 O   0  0  0  0  0  0  0  0  0  0  0  0
   10.6023   38.1908   31.6665 C   0  0  0  0  0  0  0  0  0  0  0  0
   12.9319   37.6781   32.0281 C   0  0  0  0  0  0  0  0  0  0  0  0
    9.6392   38.0798   30.6452 O   0  0  0  0  0  0  0  0  0  0  0  0
   11.5715   37.0166   31.7056 C   0  0  0  0  0  0  0  0  0  0  0  0
   13.4847   37.2121   33.3235 N   0  0  0  0  0  0  0  0  0  0  0  0
   11.6187   36.3384   30.4695 O   0  0  0  0  0  0  0  0  0  0  0  0
   14.4801   36.3321   33.5724 C   0  0  0  0  0  0  0  0  0  0  0  0
   13.1137   37.6275   34.5688 C   0  0  0  0  0  0  0  0  0  0  0  0
   15.2073   35.6153   32.6738 N   0  0  0  0  0  0  0  0  0  0  0  0
   14.6759   36.2308   34.9179 C   0  0  0  0  0  0  0  0  0  0  0  0
   13.8216   37.0452   35.5781 N   0  0  0  0  0  0  0  0  0  0  0  0
   16.1640   34.7602   33.1546 C   0  0  0  0  0  0  0  0  0  0  0  0
   15.6526   35.3508   35.4129 C   0  0  0  0  0  0  0  0  0  0  0  0
   16.3794   34.6317   34.5041 N   0  0  0  0  0  0  0  0  0  0  0  0
   15.8999   35.1935   36.8088 N   0  0  0  0  0  0  0  0  0  0  0  0
    9.0121   45.4316   33.6713 H   0  0  0  0  0  0  0  0  0  0  0  0
   10.7260   46.9688   33.1215 H   0  0  0  0  0  0  0  0  0  0  0  0
   11.8908   45.7659   32.9476 H   0  0  0  0  0  0  0  0  0  0  0  0
    9.3425   43.8331   31.4758 H   0  0  0  0  0  0  0  0  0  0  0  0
   10.7236   44.8824   31.1558 H   0  0  0  0  0  0  0  0  0  0  0  0
    7.0107   44.7154   31.5813 H   0  0  0  0  0  0  0  0  0  0  0  0
   10.3460   47.1858   30.4097 H   0  0  0  0  0  0  0  0  0  0  0  0
    5.4677   46.2794   30.5145 H   0  0  0  0  0  0  0  0  0  0  0  0
    8.7944   48.7682   29.3409 H   0  0  0  0  0  0  0  0  0  0  0  0
    4.3927   47.5333   29.0088 H   0  0  0  0  0  0  0  0  0  0  0  0
    4.5375   50.0792   30.7383 H   0  0  0  0  0  0  0  0  0  0  0  0
    3.1013   48.9774   30.5392 H   0  0  0  0  0  0  0  0  0  0  0  0
    4.5893   48.3911   31.3426 H   0  0  0  0  0  0  0  0  0  0  0  0
    3.0066   50.7986   29.0760 H   0  0  0  0  0  0  0  0  0  0  0  0
    4.7659   49.6748   24.5513 H   0  0  0  0  0  0  0  0  0  0  0  0
    2.6095   53.8118   25.4646 H   0  0  0  0  0  0  0  0  0  0  0  0
    1.1736   52.7207   25.1669 H   0  0  0  0  0  0  0  0  0  0  0  0
   11.3968   41.5460   31.4729 H   0  0  0  0  0  0  0  0  0  0  0  0
    9.8300   40.7410   31.7613 H   0  0  0  0  0  0  0  0  0  0  0  0
   11.6975   39.5067   30.3481 H   0  0  0  0  0  0  0  0  0  0  0  0
   10.1077   38.2648   32.6645 H   0  0  0  0  0  0  0  0  0  0  0  0
   13.6621   37.4467   31.2209 H   0  0  0  0  0  0  0  0  0  0  0  0
    8.8975   38.6944   30.8831 H   0  0  0  0  0  0  0  0  0  0  0  0
   11.2806   36.3073   32.5170 H   0  0  0  0  0  0  0  0  0  0  0  0
   10.8492   35.7110   30.4586 H   0  0  0  0  0  0  0  0  0  0  0  0
   12.3290   38.3524   34.7444 H   0  0  0  0  0  0  0  0  0  0  0  0
   16.7559   34.1780   32.4619 H   0  0  0  0  0  0  0  0  0  0  0  0
   15.3532   35.7362   37.5137 H   0  0  0  0  0  0  0  0  0  0  0  0
   16.6344   34.5301   37.1414 H   0  0  0  0  0  0  0  0  0  0  0  0
  1  2  2  0
  1  3  1  0
  3  4  1  0
  4  5  1  0
  6  1  1  0
  7  6  1  0
  6  8  1  0
  8  9  1  0
  9 10  2  0
 11  9  1  0
 10 12  1  0
 13 11  2  0
 12 14  2  0
 14 13  1  0
 14 15  1  0
 15 16  1  0
 16 17  1  0
 16 18  1  0
 18 19  2  0
 20 18  1  0
 19 21  1  0
 22 20  2  0
 20 23  1  0
 21 24  1  0
 21 25  2  0
 25 22  1  0
 23 26  1  0
 23 27  2  0
 24 28  1  0
 25 29  1  0
 28 29  1  0
  4 30  2  0
  4 31  1  0
 32 31  1  0
 32 33  1  0
 33 34  1  0
 33 35  1  0
 34 36  1  0
 35 37  1  0
 35 38  1  0
 38 36  1  0
 36 39  1  0
 38 40  1  0
 41 39  1  0
 42 39  1  0
 43 41  2  0
 41 44  1  0
 45 42  2  0
 46 43  1  0
 44 47  2  0
 44 45  1  0
 48 46  2  0
 48 47  1  0
 47 49  1  0
  6 50  1  1
  7 51  1  0
  7 52  1  0
  8 53  1  0
  8 54  1  0
 10 55  1  0
 11 56  1  0
 12 57  1  0
 13 58  1  0
 16 59  1  6
 17 60  1  0
 17 61  1  0
 17 62  1  0
 19 63  1  0
 22 64  1  0
 28 65  1  0
 28 66  1  0
 32 67  1  0
 32 68  1  0
 33 69  1  0
 35 70  1  0
 36 71  1  0
 37 72  1  0
 38 73  1  0
 40 74  1  0
 42 75  1  0
 46 76  1  0
 49 77  1  0
 49 78  1  0
M  CHG  3   5  -1  23   1  26  -1
M  END
>  <EmbedRMS>  (256) 
0.0829198582936

$$$$

     RDKit          3D

 78 83  0  0  0  0  0  0  0  0999 V2000
   10.2833   43.7663   33.8254 C   0  0  0  0  0  0  0  0  0  0  0  0
   11.4100   43.5931   34.3750 O   0  0  0  0  0  0  0  0  0  0  0  0
    9.3634   42.7257   33.7351 O   0  0  0  0  0  0  0  0  0  0  0  0
    9.8902   41.2269   34.2941 P   0  0  0  0  0  0  0  0  0  0  0  0
   10.3739   41.4561   35.8834 O   0  0  0  0  0  0  0  0  0  0  0  0
    9.9545   45.0696   33.2031 C   0  0  1  0  0  0  0  0  0  0  0  0
   11.0272   46.0322   33.4754 N   0  0  0  0  0  0  0  0  0  0  0  0
    9.7465   44.8484   31.6870 C   0  0  0  0  0  0  0  0  0  0  0  0
    8.7920   45.8409   31.0836 C   0  0  0  0  0  0  0  0  0  0  0  0
    7.4040   45.6015   31.1002 C   0  0  0  0  0  0  0  0  0  0  0  0
    9.2821   46.9902   30.4428 C   0  0  0  0  0  0  0  0  0  0  0  0
    6.5246   46.5043   30.4873 C   0  0  0  0  0  0  0  0  0  0  0  0
    8.4008   47.8919   29.8341 C   0  0  0  0  0  0  0  0  0  0  0  0
    7.0215   47.6465   29.8433 C   0  0  0  0  0  0  0  0  0  0  0  0
    6.1425   48.5437   29.2296 O   0  0  0  0  0  0  0  0  0  0  0  0
    5.7122   48.4239   27.8696 C   0  0  1  0  0  0  0  0  0  0  0  0
    6.8565   48.7415   26.8963 C   0  0  0  0  0  0  0  0  0  0  0  0
    5.0489   47.0740   27.6137 C   0  0  0  0  0  0  0  0  0  0  0  0
    5.8459   45.9433   27.2949 C   0  0  0  0  0  0  0  0  0  0  0  0
    3.6245   46.9178   27.6975 C   0  0  0  0  0  0  0  0  0  0  0  0
    5.2133   44.7381   27.0226 C   0  0  0  0  0  0  0  0  0  0  0  0
    3.0362   45.6696   27.3884 C   0  0  0  0  0  0  0  0  0  0  0  0
    2.7748   47.9921   28.1309 N   0  0  0  0  0  0  0  0  0  0  0  0
    5.7847   43.5257   26.6871 O   0  0  0  0  0  0  0  0  0  0  0  0
    3.8681   44.6088   27.0596 C   0  0  0  0  0  0  0  0  0  0  0  0
    3.1017   48.7211   29.2511 O   0  0  0  0  0  0  0  0  0  0  0  0
    1.6366   48.1267   27.6361 O   0  0  0  0  0  0  0  0  0  0  0  0
    4.7274   42.5751   26.5004 C   0  0  0  0  0  0  0  0  0  0  0  0
    3.5201   43.3085   26.7482 O   0  0  0  0  0  0  0  0  0  0  0  0
    8.8121   40.1852   34.2131 O   0  0  0  0  0  0  0  0  0  0  0  0
   11.2401   40.7952   33.3681 O   0  0  0  0  0  0  0  0  0  0  0  0
   10.9125   40.6877   31.9968 C   0  0  0  0  0  0  0  0  0  0  0  0
   11.5169   39.3811   31.4420 C   0  0  0  0  0  0  0  0  0  0  0  0
   12.7500   39.0881   32.0759 O   0  0  0  0  0  0  0  0  0  0  0  0
   10.6042   38.1893   31.6659 C   0  0  0  0  0  0  0  0  0  0  0  0
   12.9395   37.6814   32.0280 C   0  0  0  0  0  0  0  0  0  0  0  0
    9.6353   38.0951   30.6499 O   0  0  0  0  0  0  0  0  0  0  0  0
   11.5803   37.0191   31.6934 C   0  0  0  0  0  0  0  0  0  0  0  0
   13.4851   37.2119   33.3244 N   0  0  0  0  0  0  0  0  0  0  0  0
   11.6118   36.3189   30.4674 O   0  0  0  0  0  0  0  0  0  0  0  0
   14.4801   36.3316   33.5732 C   0  0  0  0  0  0  0  0  0  0  0  0
   13.1139   37.6277   34.5692 C   0  0  0  0  0  0  0  0  0  0  0  0
   15.2076   35.6154   32.6744 N   0  0  0  0  0  0  0  0  0  0  0  0
   14.6756   36.2303   34.9186 C   0  0  0  0  0  0  0  0  0  0  0  0
   13.8215   37.0451   35.5786 N   0  0  0  0  0  0  0  0  0  0  0  0
   16.1642   34.7602   33.1551 C   0  0  0  0  0  0  0  0  0  0  0  0
   15.6526   35.3505   35.4134 C   0  0  0  0  0  0  0  0  0  0  0  0
   16.3796   34.6316   34.5045 N   0  0  0  0  0  0  0  0  0  0  0  0
   15.9001   35.1933   36.8093 N   0  0  0  0  0  0  0  0  0  0  0  0
    9.0119   45.4319   33.6708 H   0  0  0  0  0  0  0  0  0  0  0  0
   11.8905   45.7659   32.9466 H   0  0  0  0  0  0  0  0  0  0  0  0
   10.7258   46.9689   33.1212 H   0  0  0  0  0  0  0  0  0  0  0  0
   10.7228   44.8822   31.1549 H   0  0  0  0  0  0  0  0  0  0  0  0
    9.3415   43.8332   31.4755 H   0  0  0  0  0  0  0  0  0  0  0  0
    7.0069   44.7172   31.5833 H   0  0  0  0  0  0  0  0  0  0  0  0
   10.3462   47.1897   30.4137 H   0  0  0  0  0  0  0  0  0  0  0  0
    5.4593   46.3126   30.5060 H   0  0  0  0  0  0  0  0  0  0  0  0
    8.7902   48.7777   29.3490 H   0  0  0  0  0  0  0  0  0  0  0  0
    4.9669   49.2260   27.6899 H   0  0  0  0  0  0  0  0  0  0  0  0
    6.5100   48.6233   25.8474 H   0  0  0  0  0  0  0  0  0  0  0  0
    7.1851   49.7927   27.0406 H   0  0  0  0  0  0  0  0  0  0  0  0
    7.7349   48.0865   27.0636 H   0  0  0  0  0  0  0  0  0  0  0  0
    6.9250   45.9902   27.2619 H   0  0  0  0  0  0  0  0  0  0  0  0
    1.9650   45.5230   27.4390 H   0  0  0  0  0  0  0  0  0  0  0  0
    4.7355   42.1911   25.4588 H   0  0  0  0  0  0  0  0  0  0  0  0
    4.8264   41.7428   27.2284 H   0  0  0  0  0  0  0  0  0  0  0  0
    9.8215   40.7222   31.7646 H   0  0  0  0  0  0  0  0  0  0  0  0
   11.3808   41.5457   31.4685 H   0  0  0  0  0  0  0  0  0  0  0  0
   11.6986   39.5089   30.3499 H   0  0  0  0  0  0  0  0  0  0  0  0
   10.1108   38.2737   32.6630 H   0  0  0  0  0  0  0  0  0  0  0  0
   13.6783   37.4562   31.2271 H   0  0  0  0  0  0  0  0  0  0  0  0
    9.0019   37.3861   30.9348 H   0  0  0  0  0  0  0  0  0  0  0  0
   11.2807   36.3053   32.4922 H   0  0  0  0  0  0  0  0  0  0  0  0
   11.8818   36.9600   29.7584 H   0  0  0  0  0  0  0  0  0  0  0  0
   12.3303   38.3538   34.7445 H   0  0  0  0  0  0  0  0  0  0  0  0
   16.7563   34.1783   32.4623 H   0  0  0  0  0  0  0  0  0  0  0  0
   15.3532   35.7359   37.5142 H   0  0  0  0  0  0  0  0  0  0  0  0
   16.6348   34.5301   37.1418 H   0  0  0  0  0  0  0  0  0  0  0  0
  1  2  2  0
  1  3  1  0
  3  4  1  0
  4  5  1  0
  6  1  1  0
  7  6  1  0
  6  8  1  0
  8  9  1  0
  9 10  2  0
 11  9  1  0
 10 12  1  0
 13 11  2  0
 12 14  2  0
 14 13  1  0
 14 15  1  0
 15 16  1  0
 16 17  1  0
 16 18  1  0
 18 19  2  0
 20 18  1  0
 19 21  1  0
 22 20  2  0
 20 23  1  0
 21 24  1  0
 21 25  2  0
 25 22  1  0
 23 26  1  0
 23 27  2  0
 24 28  1  0
 25 29  1  0
 28 29  1  0
  4 30  2  0
  4 31  1  0
 32 31  1  0
 32 33  1  0
 33 34  1  0
 33 35  1  0
 34 36  1  0
 35 37  1  0
 35 38  1  0
 38 36  1  0
 36 39  1  0
 38 40  1  0
 41 39  1  0
 42 39  1  0
 43 41  2  0
 41 44  1  0
 45 42  2  0
 46 43  1  0
 44 47  2  0
 44 45  1  0
 48 46  2  0
 48 47  1  0
 47 49  1  0
  6 50  1  1
  7 51  1  0
  7 52  1  0
  8 53  1  0
  8 54  1  0
 10 55  1  0
 11 56  1  0
 12 57  1  0
 13 58  1  0
 16 59  1  6
 17 60  1  0
 17 61  1  0
 17 62  1  0
 19 63  1  0
 22 64  1  0
 28 65  1  0
 28 66  1  0
 32 67  1  0
 32 68  1  0
 33 69  1  0
 35 70  1  0
 36 71  1  0
 37 72  1  0
 38 73  1  0
 40 74  1  0
 42 75  1  0
 46 76  1  0
 49 77  1  0
 49 78  1  0
M  CHG  3   5  -1  23   1  26  -1
M  END
>  <EmbedRMS>  (257) 
0.0816878903422

$$$$

     RDKit          3D

 78 83  0  0  0  0  0  0  0  0999 V2000
   10.2838   43.7627   33.8277 C   0  0  0  0  0  0  0  0  0  0  0  0
   11.4103   43.5863   34.3766 O   0  0  0  0  0  0  0  0  0  0  0  0
    9.3628   42.7238   33.7357 O   0  0  0  0  0  0  0  0  0  0  0  0
    9.8890   41.2252   34.2949 P   0  0  0  0  0  0  0  0  0  0  0  0
   10.3723   41.4548   35.8843 O   0  0  0  0  0  0  0  0  0  0  0  0
    9.9549   45.0700   33.2065 C   0  0  1  0  0  0  0  0  0  0  0  0
   11.0199   46.0481   33.4572 N   0  0  0  0  0  0  0  0  0  0  0  0
    9.7506   44.8512   31.6924 C   0  0  0  0  0  0  0  0  0  0  0  0
    8.7945   45.8420   31.0872 C   0  0  0  0  0  0  0  0  0  0  0  0
    7.4079   45.6006   31.1002 C   0  0  0  0  0  0  0  0  0  0  0  0
    9.2827   46.9889   30.4444 C   0  0  0  0  0  0  0  0  0  0  0  0
    6.5255   46.4993   30.4845 C   0  0  0  0  0  0  0  0  0  0  0  0
    8.4010   47.8874   29.8326 C   0  0  0  0  0  0  0  0  0  0  0  0
    7.0188   47.6568   29.8466 C   0  0  0  0  0  0  0  0  0  0  0  0
    6.1872   48.5940   29.2109 O   0  0  0  0  0  0  0  0  0  0  0  0
    4.7552   48.5838   29.2042 C   0  0  1  0  0  0  0  0  0  0  0  0
    4.2246   49.0326   30.5704 C   0  0  0  0  0  0  0  0  0  0  0  0
    4.2219   49.5092   28.1197 C   0  0  0  0  0  0  0  0  0  0  0  0
    5.0521   50.5445   27.6149 C   0  0  0  0  0  0  0  0  0  0  0  0
    2.8616   49.4260   27.6632 C   0  0  0  0  0  0  0  0  0  0  0  0
    4.5204   51.4341   26.6906 C   0  0  0  0  0  0  0  0  0  0  0  0
    2.3738   50.3705   26.7331 C   0  0  0  0  0  0  0  0  0  0  0  0
    1.9607   48.4173   28.1441 N   0  0  0  0  0  0  0  0  0  0  0  0
    5.1406   52.5038   26.0741 O   0  0  0  0  0  0  0  0  0  0  0  0
    3.2383   51.3516   26.2694 C   0  0  0  0  0  0  0  0  0  0  0  0
    0.6598   48.7551   28.4378 O   0  0  0  0  0  0  0  0  0  0  0  0
    2.2603   47.2100   28.0481 O   0  0  0  0  0  0  0  0  0  0  0  0
    4.1848   53.1303   25.2077 C   0  0  0  0  0  0  0  0  0  0  0  0
    2.9833   52.3631   25.3634 O   0  0  0  0  0  0  0  0  0  0  0  0
    8.8112   40.1834   34.2131 O   0  0  0  0  0  0  0  0  0  0  0  0
   11.2398   40.7938   33.3702 O   0  0  0  0  0  0  0  0  0  0  0  0
   10.9144   40.6912   31.9983 C   0  0  0  0  0  0  0  0  0  0  0  0
   11.5270   39.3911   31.4385 C   0  0  0  0  0  0  0  0  0  0  0  0
   12.7520   39.0911   32.0835 O   0  0  0  0  0  0  0  0  0  0  0  0
   10.6113   38.1931   31.6451 C   0  0  0  0  0  0  0  0  0  0  0  0
   12.9413   37.6837   32.0297 C   0  0  0  0  0  0  0  0  0  0  0  0
    9.6064   38.0877   30.6599 O   0  0  0  0  0  0  0  0  0  0  0  0
   11.5822   37.0197   31.6876 C   0  0  0  0  0  0  0  0  0  0  0  0
   13.4840   37.2104   33.3254 N   0  0  0  0  0  0  0  0  0  0  0  0
   11.6179   36.3071   30.4690 O   0  0  0  0  0  0  0  0  0  0  0  0
   14.4797   36.3309   33.5738 C   0  0  0  0  0  0  0  0  0  0  0  0
   13.1136   37.6269   34.5702 C   0  0  0  0  0  0  0  0  0  0  0  0
   15.2074   35.6152   32.6747 N   0  0  0  0  0  0  0  0  0  0  0  0
   14.6756   36.2298   34.9190 C   0  0  0  0  0  0  0  0  0  0  0  0
   13.8217   37.0445   35.5793 N   0  0  0  0  0  0  0  0  0  0  0  0
   16.1643   34.7603   33.1551 C   0  0  0  0  0  0  0  0  0  0  0  0
   15.6528   35.3503   35.4136 C   0  0  0  0  0  0  0  0  0  0  0  0
   16.3798   34.6316   34.5046 N   0  0  0  0  0  0  0  0  0  0  0  0
   15.9004   35.1930   36.8094 N   0  0  0  0  0  0  0  0  0  0  0  0
    9.0099   45.4350   33.6670 H   0  0  0  0  0  0  0  0  0  0  0  0
   11.1133   46.1992   34.4885 H   0  0  0  0  0  0  0  0  0  0  0  0
   11.9350   45.6933   33.0930 H   0  0  0  0  0  0  0  0  0  0  0  0
    9.3519   43.8345   31.4760 H   0  0  0  0  0  0  0  0  0  0  0  0
   10.7310   44.8932   31.1677 H   0  0  0  0  0  0  0  0  0  0  0  0
    7.0131   44.7143   31.5819 H   0  0  0  0  0  0  0  0  0  0  0  0
   10.3467   47.1889   30.4142 H   0  0  0  0  0  0  0  0  0  0  0  0
    5.4688   46.2771   30.5122 H   0  0  0  0  0  0  0  0  0  0  0  0
    8.7944   48.7689   29.3422 H   0  0  0  0  0  0  0  0  0  0  0  0
    4.4223   47.5522   28.9854 H   0  0  0  0  0  0  0  0  0  0  0  0
    4.5541   50.0715   30.7864 H   0  0  0  0  0  0  0  0  0  0  0  0
    4.6037   48.3709   31.3754 H   0  0  0  0  0  0  0  0  0  0  0  0
    3.1151   48.9951   30.5896 H   0  0  0  0  0  0  0  0  0  0  0  0
    6.0750   50.6742   27.9426 H   0  0  0  0  0  0  0  0  0  0  0  0
    1.3528   50.3320   26.3753 H   0  0  0  0  0  0  0  0  0  0  0  0
    4.5339   53.0861   24.1548 H   0  0  0  0  0  0  0  0  0  0  0  0
    4.0121   54.1809   25.5222 H   0  0  0  0  0  0  0  0  0  0  0  0
   11.3780   41.5548   31.4750 H   0  0  0  0  0  0  0  0  0  0  0  0
    9.8235   40.7202   31.7651 H   0  0  0  0  0  0  0  0  0  0  0  0
   11.7311   39.5363   30.3531 H   0  0  0  0  0  0  0  0  0  0  0  0
   10.1203   38.2695   32.6410 H   0  0  0  0  0  0  0  0  0  0  0  0
   13.6850   37.4638   31.2321 H   0  0  0  0  0  0  0  0  0  0  0  0
   10.0251   38.1792   29.7654 H   0  0  0  0  0  0  0  0  0  0  0  0
   11.2757   36.3135   32.4907 H   0  0  0  0  0  0  0  0  0  0  0  0
   11.9838   36.9111   29.7708 H   0  0  0  0  0  0  0  0  0  0  0  0
   12.3307   38.3536   34.7457 H   0  0  0  0  0  0  0  0  0  0  0  0
   16.7566   34.1787   32.4623 H   0  0  0  0  0  0  0  0  0  0  0  0
   15.3535   35.7355   37.5144 H   0  0  0  0  0  0  0  0  0  0  0  0
   16.6353   34.5301   37.1419 H   0  0  0  0  0  0  0  0  0  0  0  0
  1  2  2  0
  1  3  1  0
  3  4  1  0
  4  5  1  0
  6  1  1  0
  7  6  1  0
  6  8  1  0
  8  9  1  0
  9 10  2  0
 11  9  1  0
 10 12  1  0
 13 11  2  0
 12 14  2  0
 14 13  1  0
 14 15  1  0
 15 16  1  0
 16 17  1  0
 16 18  1  0
 18 19  2  0
 20 18  1  0
 19 21  1  0
 22 20  2  0
 20 23  1  0
 21 24  1  0
 21 25  2  0
 25 22  1  0
 23 26  1  0
 23 27  2  0
 24 28  1  0
 25 29  1  0
 28 29  1  0
  4 30  2  0
  4 31  1  0
 32 31  1  0
 32 33  1  0
 33 34  1  0
 33 35  1  0
 34 36  1  0
 35 37  1  0
 35 38  1  0
 38 36  1  0
 36 39  1  0
 38 40  1  0
 41 39  1  0
 42 39  1  0
 43 41  2  0
 41 44  1  0
 45 42  2  0
 46 43  1  0
 44 47  2  0
 44 45  1  0
 48 46  2  0
 48 47  1  0
 47 49  1  0
  6 50  1  1
  7 51  1  0
  7 52  1  0
  8 53  1  0
  8 54  1  0
 10 55  1  0
 11 56  1  0
 12 57  1  0
 13 58  1  0
 16 59  1  6
 17 60  1  0
 17 61  1  0
 17 62  1  0
 19 63  1  0
 22 64  1  0
 28 65  1  0
 28 66  1  0
 32 67  1  0
 32 68  1  0
 33 69  1  0
 35 70  1  0
 36 71  1  0
 37 72  1  0
 38 73  1  0
 40 74  1  0
 42 75  1  0
 46 76  1  0
 49 77  1  0
 49 78  1  0
M  CHG  3   5  -1  23   1  26  -1
M  END
>  <EmbedRMS>  (258) 
0.0817112255579

$$$$

     RDKit          3D

 78 83  0  0  0  0  0  0  0  0999 V2000
   10.2804   43.7664   33.8249 C   0  0  0  0  0  0  0  0  0  0  0  0
   11.4111   43.5919   34.3667 O   0  0  0  0  0  0  0  0  0  0  0  0
    9.3619   42.7249   33.7346 O   0  0  0  0  0  0  0  0  0  0  0  0
    9.8900   41.2267   34.2944 P   0  0  0  0  0  0  0  0  0  0  0  0
   10.3728   41.4567   35.8838 O   0  0  0  0  0  0  0  0  0  0  0  0
    9.9460   45.0736   33.2110 C   0  0  1  0  0  0  0  0  0  0  0  0
   11.0267   46.0292   33.4707 N   0  0  0  0  0  0  0  0  0  0  0  0
    9.7541   44.8540   31.6947 C   0  0  0  0  0  0  0  0  0  0  0  0
    8.7958   45.8409   31.0844 C   0  0  0  0  0  0  0  0  0  0  0  0
    7.4091   45.6003   31.1015 C   0  0  0  0  0  0  0  0  0  0  0  0
    9.2824   46.9881   30.4402 C   0  0  0  0  0  0  0  0  0  0  0  0
    6.5260   46.4996   30.4875 C   0  0  0  0  0  0  0  0  0  0  0  0
    8.3995   47.8878   29.8322 C   0  0  0  0  0  0  0  0  0  0  0  0
    7.0182   47.6534   29.8440 C   0  0  0  0  0  0  0  0  0  0  0  0
    6.1822   48.5869   29.2090 O   0  0  0  0  0  0  0  0  0  0  0  0
    4.7716   48.4532   29.0308 C   0  0  1  0  0  0  0  0  0  0  0  0
    4.1865   49.7918   28.5799 C   0  0  0  0  0  0  0  0  0  0  0  0
    4.4392   47.3497   28.0368 C   0  0  0  0  0  0  0  0  0  0  0  0
    3.5490   46.3282   28.4503 C   0  0  0  0  0  0  0  0  0  0  0  0
    4.9411   47.3332   26.6917 C   0  0  0  0  0  0  0  0  0  0  0  0
    3.1963   45.3422   27.5381 C   0  0  0  0  0  0  0  0  0  0  0  0
    4.5360   46.3124   25.8035 C   0  0  0  0  0  0  0  0  0  0  0  0
    5.8360   48.3413   26.2068 N   0  0  0  0  0  0  0  0  0  0  0  0
    2.3555   44.2617   27.7236 O   0  0  0  0  0  0  0  0  0  0  0  0
    3.6678   45.3353   26.2704 C   0  0  0  0  0  0  0  0  0  0  0  0
    7.1138   48.4182   26.7072 O   0  0  0  0  0  0  0  0  0  0  0  0
    5.5688   48.9403   25.1450 O   0  0  0  0  0  0  0  0  0  0  0  0
    2.2982   43.5292   26.4920 C   0  0  0  0  0  0  0  0  0  0  0  0
    3.1501   44.2495   25.5908 O   0  0  0  0  0  0  0  0  0  0  0  0
    8.8127   40.1842   34.2128 O   0  0  0  0  0  0  0  0  0  0  0  0
   11.2414   40.7950   33.3705 O   0  0  0  0  0  0  0  0  0  0  0  0
   10.9178   40.6922   31.9982 C   0  0  0  0  0  0  0  0  0  0  0  0
   11.5175   39.3837   31.4423 C   0  0  0  0  0  0  0  0  0  0  0  0
   12.7507   39.0887   32.0753 O   0  0  0  0  0  0  0  0  0  0  0  0
   10.6027   38.1916   31.6659 C   0  0  0  0  0  0  0  0  0  0  0  0
   12.9384   37.6819   32.0278 C   0  0  0  0  0  0  0  0  0  0  0  0
    9.6371   38.0805   30.6470 O   0  0  0  0  0  0  0  0  0  0  0  0
   11.5780   37.0215   31.6935 C   0  0  0  0  0  0  0  0  0  0  0  0
   13.4844   37.2119   33.3242 N   0  0  0  0  0  0  0  0  0  0  0  0
   11.6095   36.3201   30.4679 O   0  0  0  0  0  0  0  0  0  0  0  0
   14.4797   36.3318   33.5730 C   0  0  0  0  0  0  0  0  0  0  0  0
   13.1135   37.6278   34.5691 C   0  0  0  0  0  0  0  0  0  0  0  0
   15.2073   35.6155   32.6742 N   0  0  0  0  0  0  0  0  0  0  0  0
   14.6754   36.2305   34.9184 C   0  0  0  0  0  0  0  0  0  0  0  0
   13.8213   37.0452   35.5785 N   0  0  0  0  0  0  0  0  0  0  0  0
   16.1640   34.7604   33.1549 C   0  0  0  0  0  0  0  0  0  0  0  0
   15.6524   35.3507   35.4132 C   0  0  0  0  0  0  0  0  0  0  0  0
   16.3794   34.6318   34.5044 N   0  0  0  0  0  0  0  0  0  0  0  0
   15.9000   35.1934   36.8091 N   0  0  0  0  0  0  0  0  0  0  0  0
    8.9995   45.4381   33.6719 H   0  0  0  0  0  0  0  0  0  0  0  0
   10.7764   46.9369   33.0157 H   0  0  0  0  0  0  0  0  0  0  0  0
   11.0501   46.2277   34.4981 H   0  0  0  0  0  0  0  0  0  0  0  0
    9.3646   43.8353   31.4710 H   0  0  0  0  0  0  0  0  0  0  0  0
   10.7413   44.9077   31.1834 H   0  0  0  0  0  0  0  0  0  0  0  0
    7.0148   44.7168   31.5884 H   0  0  0  0  0  0  0  0  0  0  0  0
   10.3462   47.1883   30.4062 H   0  0  0  0  0  0  0  0  0  0  0  0
    5.4686   46.2874   30.5287 H   0  0  0  0  0  0  0  0  0  0  0  0
    8.7917   48.7693   29.3410 H   0  0  0  0  0  0  0  0  0  0  0  0
    4.3113   48.2376   30.0208 H   0  0  0  0  0  0  0  0  0  0  0  0
    4.6696   50.1519   27.6491 H   0  0  0  0  0  0  0  0  0  0  0  0
    4.3503   50.5546   29.3705 H   0  0  0  0  0  0  0  0  0  0  0  0
    3.0930   49.6945   28.4080 H   0  0  0  0  0  0  0  0  0  0  0  0
    3.1344   46.3059   29.4501 H   0  0  0  0  0  0  0  0  0  0  0  0
    4.8974   46.2798   24.7836 H   0  0  0  0  0  0  0  0  0  0  0  0
    2.6819   42.4980   26.6402 H   0  0  0  0  0  0  0  0  0  0  0  0
    1.2582   43.5110   26.1040 H   0  0  0  0  0  0  0  0  0  0  0  0
   11.3950   41.5477   31.4741 H   0  0  0  0  0  0  0  0  0  0  0  0
    9.8290   40.7408   31.7624 H   0  0  0  0  0  0  0  0  0  0  0  0
   11.6982   39.5114   30.3500 H   0  0  0  0  0  0  0  0  0  0  0  0
   10.1117   38.2604   32.6660 H   0  0  0  0  0  0  0  0  0  0  0  0
   13.6767   37.4557   31.2267 H   0  0  0  0  0  0  0  0  0  0  0  0
    8.8960   38.6950   30.8872 H   0  0  0  0  0  0  0  0  0  0  0  0
   11.2791   36.3072   32.4922 H   0  0  0  0  0  0  0  0  0  0  0  0
   11.8828   36.9598   29.7589 H   0  0  0  0  0  0  0  0  0  0  0  0
   12.3300   38.3539   34.7446 H   0  0  0  0  0  0  0  0  0  0  0  0
   16.7561   34.1785   32.4622 H   0  0  0  0  0  0  0  0  0  0  0  0
   16.6347   34.5303   37.1416 H   0  0  0  0  0  0  0  0  0  0  0  0
   15.3531   35.7360   37.5140 H   0  0  0  0  0  0  0  0  0  0  0  0
  1  2  2  0
  1  3  1  0
  3  4  1  0
  4  5  1  0
  6  1  1  0
  7  6  1  0
  6  8  1  0
  8  9  1  0
  9 10  2  0
 11  9  1  0
 10 12  1  0
 13 11  2  0
 12 14  2  0
 14 13  1  0
 14 15  1  0
 15 16  1  0
 16 17  1  0
 16 18  1  0
 18 19  2  0
 20 18  1  0
 19 21  1  0
 22 20  2  0
 20 23  1  0
 21 24  1  0
 21 25  2  0
 25 22  1  0
 23 26  1  0
 23 27  2  0
 24 28  1  0
 25 29  1  0
 28 29  1  0
  4 30  2  0
  4 31  1  0
 32 31  1  0
 32 33  1  0
 33 34  1  0
 33 35  1  0
 34 36  1  0
 35 37  1  0
 35 38  1  0
 38 36  1  0
 36 39  1  0
 38 40  1  0
 41 39  1  0
 42 39  1  0
 43 41  2  0
 41 44  1  0
 45 42  2  0
 46 43  1  0
 44 47  2  0
 44 45  1  0
 48 46  2  0
 48 47  1  0
 47 49  1  0
  6 50  1  1
  7 51  1  0
  7 52  1  0
  8 53  1  0
  8 54  1  0
 10 55  1  0
 11 56  1  0
 12 57  1  0
 13 58  1  0
 16 59  1  1
 17 60  1  0
 17 61  1  0
 17 62  1  0
 19 63  1  0
 22 64  1  0
 28 65  1  0
 28 66  1  0
 32 67  1  0
 32 68  1  0
 33 69  1  0
 35 70  1  0
 36 71  1  0
 37 72  1  0
 38 73  1  0
 40 74  1  0
 42 75  1  0
 46 76  1  0
 49 77  1  0
 49 78  1  0
M  CHG  3   5  -1  23   1  26  -1
M  END
>  <EmbedRMS>  (259) 
0.0817982592782

$$$$

     RDKit          3D

 78 83  0  0  0  0  0  0  0  0999 V2000
   10.2834   43.7662   33.8257 C   0  0  0  0  0  0  0  0  0  0  0  0
   11.4102   43.5930   34.3752 O   0  0  0  0  0  0  0  0  0  0  0  0
    9.3635   42.7257   33.7352 O   0  0  0  0  0  0  0  0  0  0  0  0
    9.8902   41.2269   34.2942 P   0  0  0  0  0  0  0  0  0  0  0  0
   10.3739   41.4560   35.8835 O   0  0  0  0  0  0  0  0  0  0  0  0
    9.9548   45.0696   33.2036 C   0  0  1  0  0  0  0  0  0  0  0  0
   11.0274   46.0322   33.4760 N   0  0  0  0  0  0  0  0  0  0  0  0
    9.7471   44.8484   31.6877 C   0  0  0  0  0  0  0  0  0  0  0  0
    8.7926   45.8411   31.0847 C   0  0  0  0  0  0  0  0  0  0  0  0
    7.4060   45.6011   31.0992 C   0  0  0  0  0  0  0  0  0  0  0  0
    9.2817   46.9876   30.4419 C   0  0  0  0  0  0  0  0  0  0  0  0
    6.5243   46.5006   30.4842 C   0  0  0  0  0  0  0  0  0  0  0  0
    8.4005   47.8874   29.8317 C   0  0  0  0  0  0  0  0  0  0  0  0
    7.0182   47.6579   29.8467 C   0  0  0  0  0  0  0  0  0  0  0  0
    6.1869   48.5961   29.2121 O   0  0  0  0  0  0  0  0  0  0  0  0
    4.7557   48.5949   29.2205 C   0  0  1  0  0  0  0  0  0  0  0  0
    4.2354   49.0452   30.5902 C   0  0  0  0  0  0  0  0  0  0  0  0
    4.2514   49.5406   28.1465 C   0  0  0  0  0  0  0  0  0  0  0  0
    4.8805   50.8029   28.0068 C   0  0  0  0  0  0  0  0  0  0  0  0
    3.1880   49.1853   27.2495 C   0  0  0  0  0  0  0  0  0  0  0  0
    4.4713   51.6387   26.9763 C   0  0  0  0  0  0  0  0  0  0  0  0
    2.8277   50.0707   26.2084 C   0  0  0  0  0  0  0  0  0  0  0  0
    2.4546   47.9583   27.3900 N   0  0  0  0  0  0  0  0  0  0  0  0
    4.9462   52.8941   26.6485 O   0  0  0  0  0  0  0  0  0  0  0  0
    3.4926   51.2858   26.1118 C   0  0  0  0  0  0  0  0  0  0  0  0
    2.0050   47.2995   26.2690 O   0  0  0  0  0  0  0  0  0  0  0  0
    2.0162   47.6131   28.5065 O   0  0  0  0  0  0  0  0  0  0  0  0
    4.2168   53.3580   25.5042 C   0  0  0  0  0  0  0  0  0  0  0  0
    3.2988   52.3006   25.1945 O   0  0  0  0  0  0  0  0  0  0  0  0
    8.8120   40.1851   34.2131 O   0  0  0  0  0  0  0  0  0  0  0  0
   11.2402   40.7951   33.3682 O   0  0  0  0  0  0  0  0  0  0  0  0
   10.9126   40.6877   31.9968 C   0  0  0  0  0  0  0  0  0  0  0  0
   11.5169   39.3811   31.4420 C   0  0  0  0  0  0  0  0  0  0  0  0
   12.7500   39.0881   32.0759 O   0  0  0  0  0  0  0  0  0  0  0  0
   10.6043   38.1893   31.6659 C   0  0  0  0  0  0  0  0  0  0  0  0
   12.9395   37.6813   32.0280 C   0  0  0  0  0  0  0  0  0  0  0  0
    9.6353   38.0951   30.6499 O   0  0  0  0  0  0  0  0  0  0  0  0
   11.5804   37.0191   31.6934 C   0  0  0  0  0  0  0  0  0  0  0  0
   13.4851   37.2119   33.3244 N   0  0  0  0  0  0  0  0  0  0  0  0
   11.6118   36.3189   30.4673 O   0  0  0  0  0  0  0  0  0  0  0  0
   14.4801   36.3316   33.5732 C   0  0  0  0  0  0  0  0  0  0  0  0
   13.1139   37.6277   34.5692 C   0  0  0  0  0  0  0  0  0  0  0  0
   15.2076   35.6154   32.6744 N   0  0  0  0  0  0  0  0  0  0  0  0
   14.6756   36.2303   34.9186 C   0  0  0  0  0  0  0  0  0  0  0  0
   13.8215   37.0451   35.5786 N   0  0  0  0  0  0  0  0  0  0  0  0
   16.1642   34.7602   33.1551 C   0  0  0  0  0  0  0  0  0  0  0  0
   15.6526   35.3505   35.4134 C   0  0  0  0  0  0  0  0  0  0  0  0
   16.3796   34.6316   34.5045 N   0  0  0  0  0  0  0  0  0  0  0  0
   15.9001   35.1933   36.8093 N   0  0  0  0  0  0  0  0  0  0  0  0
    9.0121   45.4318   33.6713 H   0  0  0  0  0  0  0  0  0  0  0  0
   10.7262   46.9688   33.1215 H   0  0  0  0  0  0  0  0  0  0  0  0
   11.8909   45.7658   32.9477 H   0  0  0  0  0  0  0  0  0  0  0  0
    9.3425   43.8332   31.4759 H   0  0  0  0  0  0  0  0  0  0  0  0
   10.7236   44.8825   31.1559 H   0  0  0  0  0  0  0  0  0  0  0  0
    7.0107   44.7149   31.5805 H   0  0  0  0  0  0  0  0  0  0  0  0
   10.3460   47.1857   30.4096 H   0  0  0  0  0  0  0  0  0  0  0  0
    5.4677   46.2783   30.5110 H   0  0  0  0  0  0  0  0  0  0  0  0
    8.7944   48.7687   29.3414 H   0  0  0  0  0  0  0  0  0  0  0  0
    4.4039   47.5665   29.0070 H   0  0  0  0  0  0  0  0  0  0  0  0
    4.5522   48.3356   31.3813 H   0  0  0  0  0  0  0  0  0  0  0  0
    3.1255   49.0858   30.5861 H   0  0  0  0  0  0  0  0  0  0  0  0
    4.6312   50.0515   30.8446 H   0  0  0  0  0  0  0  0  0  0  0  0
    5.6768   51.1156   28.6705 H   0  0  0  0  0  0  0  0  0  0  0  0
    2.0336   49.8303   25.5134 H   0  0  0  0  0  0  0  0  0  0  0  0
    3.6617   54.2867   25.7533 H   0  0  0  0  0  0  0  0  0  0  0  0
    4.9073   53.5280   24.6517 H   0  0  0  0  0  0  0  0  0  0  0  0
    9.8216   40.7222   31.7646 H   0  0  0  0  0  0  0  0  0  0  0  0
   11.3808   41.5456   31.4686 H   0  0  0  0  0  0  0  0  0  0  0  0
   11.6986   39.5089   30.3499 H   0  0  0  0  0  0  0  0  0  0  0  0
   10.1109   38.2737   32.6630 H   0  0  0  0  0  0  0  0  0  0  0  0
   13.6783   37.4561   31.2271 H   0  0  0  0  0  0  0  0  0  0  0  0
    9.0020   37.3860   30.9348 H   0  0  0  0  0  0  0  0  0  0  0  0
   11.2807   36.3053   32.4921 H   0  0  0  0  0  0  0  0  0  0  0  0
   11.8819   36.9599   29.7584 H   0  0  0  0  0  0  0  0  0  0  0  0
   12.3303   38.3538   34.7446 H   0  0  0  0  0  0  0  0  0  0  0  0
   16.7563   34.1783   32.4624 H   0  0  0  0  0  0  0  0  0  0  0  0
   16.6348   34.5301   37.1418 H   0  0  0  0  0  0  0  0  0  0  0  0
   15.3532   35.7359   37.5142 H   0  0  0  0  0  0  0  0  0  0  0  0
  1  2  2  0
  1  3  1  0
  3  4  1  0
  4  5  1  0
  6  1  1  0
  7  6  1  0
  6  8  1  0
  8  9  1  0
  9 10  2  0
 11  9  1  0
 10 12  1  0
 13 11  2  0
 12 14  2  0
 14 13  1  0
 14 15  1  0
 15 16  1  0
 16 17  1  0
 16 18  1  0
 18 19  2  0
 20 18  1  0
 19 21  1  0
 22 20  2  0
 20 23  1  0
 21 24  1  0
 21 25  2  0
 25 22  1  0
 23 26  1  0
 23 27  2  0
 24 28  1  0
 25 29  1  0
 28 29  1  0
  4 30  2  0
  4 31  1  0
 32 31  1  0
 32 33  1  0
 33 34  1  0
 33 35  1  0
 34 36  1  0
 35 37  1  0
 35 38  1  0
 38 36  1  0
 36 39  1  0
 38 40  1  0
 41 39  1  0
 42 39  1  0
 43 41  2  0
 41 44  1  0
 45 42  2  0
 46 43  1  0
 44 47  2  0
 44 45  1  0
 48 46  2  0
 48 47  1  0
 47 49  1  0
  6 50  1  1
  7 51  1  0
  7 52  1  0
  8 53  1  0
  8 54  1  0
 10 55  1  0
 11 56  1  0
 12 57  1  0
 13 58  1  0
 16 59  1  6
 17 60  1  0
 17 61  1  0
 17 62  1  0
 19 63  1  0
 22 64  1  0
 28 65  1  0
 28 66  1  0
 32 67  1  0
 32 68  1  0
 33 69  1  0
 35 70  1  0
 36 71  1  0
 37 72  1  0
 38 73  1  0
 40 74  1  0
 42 75  1  0
 46 76  1  0
 49 77  1  0
 49 78  1  0
M  CHG  3   5  -1  23   1  26  -1
M  END
>  <EmbedRMS>  (260) 
0.0815393828713

$$$$

     RDKit          3D

 78 83  0  0  0  0  0  0  0  0999 V2000
   10.2804   43.7664   33.8249 C   0  0  0  0  0  0  0  0  0  0  0  0
   11.4111   43.5918   34.3666 O   0  0  0  0  0  0  0  0  0  0  0  0
    9.3619   42.7249   33.7344 O   0  0  0  0  0  0  0  0  0  0  0  0
    9.8899   41.2267   34.2940 P   0  0  0  0  0  0  0  0  0  0  0  0
   10.3734   41.4567   35.8833 O   0  0  0  0  0  0  0  0  0  0  0  0
    9.9460   45.0736   33.2111 C   0  0  1  0  0  0  0  0  0  0  0  0
   11.0267   46.0292   33.4708 N   0  0  0  0  0  0  0  0  0  0  0  0
    9.7541   44.8542   31.6947 C   0  0  0  0  0  0  0  0  0  0  0  0
    8.7957   45.8411   31.0846 C   0  0  0  0  0  0  0  0  0  0  0  0
    7.4090   45.6001   31.1016 C   0  0  0  0  0  0  0  0  0  0  0  0
    9.2823   46.9883   30.4401 C   0  0  0  0  0  0  0  0  0  0  0  0
    6.5259   46.4992   30.4875 C   0  0  0  0  0  0  0  0  0  0  0  0
    8.3995   47.8879   29.8317 C   0  0  0  0  0  0  0  0  0  0  0  0
    7.0185   47.6534   29.8444 C   0  0  0  0  0  0  0  0  0  0  0  0
    6.1805   48.5845   29.2090 O   0  0  0  0  0  0  0  0  0  0  0  0
    4.7657   48.4487   29.0485 C   0  0  1  0  0  0  0  0  0  0  0  0
    4.2039   49.7649   28.5137 C   0  0  0  0  0  0  0  0  0  0  0  0
    4.4443   47.3171   28.0869 C   0  0  0  0  0  0  0  0  0  0  0  0
    5.2018   47.2066   26.8949 C   0  0  0  0  0  0  0  0  0  0  0  0
    3.4432   46.3321   28.3757 C   0  0  0  0  0  0  0  0  0  0  0  0
    4.9714   46.1208   26.0607 C   0  0  0  0  0  0  0  0  0  0  0  0
    3.2642   45.2397   27.4959 C   0  0  0  0  0  0  0  0  0  0  0  0
    2.5987   46.4341   29.5328 N   0  0  0  0  0  0  0  0  0  0  0  0
    5.5937   45.8067   24.8679 O   0  0  0  0  0  0  0  0  0  0  0  0
    4.0474   45.1762   26.3510 C   0  0  0  0  0  0  0  0  0  0  0  0
    1.9625   47.6193   29.8205 O   0  0  0  0  0  0  0  0  0  0  0  0
    2.2603   45.4035   30.1506 O   0  0  0  0  0  0  0  0  0  0  0  0
    5.0214   44.5862   24.3785 C   0  0  0  0  0  0  0  0  0  0  0  0
    4.0381   44.2182   25.3555 O   0  0  0  0  0  0  0  0  0  0  0  0
    8.8123   40.1844   34.2133 O   0  0  0  0  0  0  0  0  0  0  0  0
   11.2405   40.7942   33.3691 O   0  0  0  0  0  0  0  0  0  0  0  0
   10.9150   40.6905   31.9972 C   0  0  0  0  0  0  0  0  0  0  0  0
   11.5252   39.3886   31.4375 C   0  0  0  0  0  0  0  0  0  0  0  0
   12.7499   39.0874   32.0799 O   0  0  0  0  0  0  0  0  0  0  0  0
   10.6092   38.1926   31.6470 C   0  0  0  0  0  0  0  0  0  0  0  0
   12.9332   37.6793   32.0294 C   0  0  0  0  0  0  0  0  0  0  0  0
    9.6121   38.0894   30.6542 O   0  0  0  0  0  0  0  0  0  0  0  0
   11.5743   37.0145   31.7024 C   0  0  0  0  0  0  0  0  0  0  0  0
   13.4844   37.2108   33.3241 N   0  0  0  0  0  0  0  0  0  0  0  0
   11.6297   36.3239   30.4740 O   0  0  0  0  0  0  0  0  0  0  0  0
   14.4802   36.3313   33.5726 C   0  0  0  0  0  0  0  0  0  0  0  0
   13.1138   37.6266   34.5692 C   0  0  0  0  0  0  0  0  0  0  0  0
   15.2075   35.6149   32.6739 N   0  0  0  0  0  0  0  0  0  0  0  0
   14.6761   36.2303   34.9181 C   0  0  0  0  0  0  0  0  0  0  0  0
   13.8220   37.0447   35.5785 N   0  0  0  0  0  0  0  0  0  0  0  0
   16.1643   34.7600   33.1547 C   0  0  0  0  0  0  0  0  0  0  0  0
   15.6529   35.3505   35.4130 C   0  0  0  0  0  0  0  0  0  0  0  0
   16.3798   34.6315   34.5042 N   0  0  0  0  0  0  0  0  0  0  0  0
   15.9003   35.1932   36.8090 N   0  0  0  0  0  0  0  0  0  0  0  0
    8.9995   45.4381   33.6720 H   0  0  0  0  0  0  0  0  0  0  0  0
   11.0502   46.2277   34.4982 H   0  0  0  0  0  0  0  0  0  0  0  0
   10.7765   46.9369   33.0159 H   0  0  0  0  0  0  0  0  0  0  0  0
    9.3647   43.8354   31.4709 H   0  0  0  0  0  0  0  0  0  0  0  0
   10.7412   44.9080   31.1834 H   0  0  0  0  0  0  0  0  0  0  0  0
    7.0148   44.7161   31.5875 H   0  0  0  0  0  0  0  0  0  0  0  0
   10.3462   47.1883   30.4059 H   0  0  0  0  0  0  0  0  0  0  0  0
    5.4676   46.2857   30.5241 H   0  0  0  0  0  0  0  0  0  0  0  0
    8.7916   48.7691   29.3397 H   0  0  0  0  0  0  0  0  0  0  0  0
    4.3200   48.2776   30.0498 H   0  0  0  0  0  0  0  0  0  0  0  0
    3.1047   49.6883   28.3736 H   0  0  0  0  0  0  0  0  0  0  0  0
    4.6748   50.0260   27.5419 H   0  0  0  0  0  0  0  0  0  0  0  0
    4.4107   50.5818   29.2372 H   0  0  0  0  0  0  0  0  0  0  0  0
    5.9630   47.9326   26.6387 H   0  0  0  0  0  0  0  0  0  0  0  0
    2.5203   44.4771   27.6879 H   0  0  0  0  0  0  0  0  0  0  0  0
    5.8009   43.7992   24.3043 H   0  0  0  0  0  0  0  0  0  0  0  0
    4.5380   44.7565   23.3937 H   0  0  0  0  0  0  0  0  0  0  0  0
   11.3800   41.5528   31.4730 H   0  0  0  0  0  0  0  0  0  0  0  0
    9.8241   40.7215   31.7641 H   0  0  0  0  0  0  0  0  0  0  0  0
   11.7266   39.5310   30.3513 H   0  0  0  0  0  0  0  0  0  0  0  0
   10.1110   38.2747   32.6387 H   0  0  0  0  0  0  0  0  0  0  0  0
   13.6652   37.4520   31.2226 H   0  0  0  0  0  0  0  0  0  0  0  0
   10.0511   38.1143   29.7645 H   0  0  0  0  0  0  0  0  0  0  0  0
   11.2762   36.3141   32.5189 H   0  0  0  0  0  0  0  0  0  0  0  0
   10.8593   35.6978   30.4639 H   0  0  0  0  0  0  0  0  0  0  0  0
   12.3294   38.3518   34.7449 H   0  0  0  0  0  0  0  0  0  0  0  0
   16.7564   34.1780   32.4620 H   0  0  0  0  0  0  0  0  0  0  0  0
   15.3534   35.7359   37.5138 H   0  0  0  0  0  0  0  0  0  0  0  0
   16.6348   34.5300   37.1415 H   0  0  0  0  0  0  0  0  0  0  0  0
  1  2  2  0
  1  3  1  0
  3  4  1  0
  4  5  1  0
  6  1  1  0
  7  6  1  0
  6  8  1  0
  8  9  1  0
  9 10  2  0
 11  9  1  0
 10 12  1  0
 13 11  2  0
 12 14  2  0
 14 13  1  0
 14 15  1  0
 15 16  1  0
 16 17  1  0
 16 18  1  0
 18 19  2  0
 20 18  1  0
 19 21  1  0
 22 20  2  0
 20 23  1  0
 21 24  1  0
 21 25  2  0
 25 22  1  0
 23 26  1  0
 23 27  2  0
 24 28  1  0
 25 29  1  0
 28 29  1  0
  4 30  2  0
  4 31  1  0
 32 31  1  0
 32 33  1  0
 33 34  1  0
 33 35  1  0
 34 36  1  0
 35 37  1  0
 35 38  1  0
 38 36  1  0
 36 39  1  0
 38 40  1  0
 41 39  1  0
 42 39  1  0
 43 41  2  0
 41 44  1  0
 45 42  2  0
 46 43  1  0
 44 47  2  0
 44 45  1  0
 48 46  2  0
 48 47  1  0
 47 49  1  0
  6 50  1  1
  7 51  1  0
  7 52  1  0
  8 53  1  0
  8 54  1  0
 10 55  1  0
 11 56  1  0
 12 57  1  0
 13 58  1  0
 16 59  1  1
 17 60  1  0
 17 61  1  0
 17 62  1  0
 19 63  1  0
 22 64  1  0
 28 65  1  0
 28 66  1  0
 32 67  1  0
 32 68  1  0
 33 69  1  0
 35 70  1  0
 36 71  1  0
 37 72  1  0
 38 73  1  0
 40 74  1  0
 42 75  1  0
 46 76  1  0
 49 77  1  0
 49 78  1  0
M  CHG  3   5  -1  23   1  26  -1
M  END
>  <EmbedRMS>  (261) 
0.0816397391194

$$$$

     RDKit          3D

 78 83  0  0  0  0  0  0  0  0999 V2000
   10.2850   43.7660   33.8258 C   0  0  0  0  0  0  0  0  0  0  0  0
   11.4106   43.5932   34.3781 O   0  0  0  0  0  0  0  0  0  0  0  0
    9.3653   42.7253   33.7346 O   0  0  0  0  0  0  0  0  0  0  0  0
    9.8909   41.2262   34.2945 P   0  0  0  0  0  0  0  0  0  0  0  0
   10.3735   41.4533   35.8845 O   0  0  0  0  0  0  0  0  0  0  0  0
    9.9579   45.0693   33.2021 C   0  0  1  0  0  0  0  0  0  0  0  0
   11.0311   46.0306   33.4755 N   0  0  0  0  0  0  0  0  0  0  0  0
    9.7505   44.8494   31.6854 C   0  0  0  0  0  0  0  0  0  0  0  0
    8.7951   45.8420   31.0829 C   0  0  0  0  0  0  0  0  0  0  0  0
    7.4104   45.5976   31.0962 C   0  0  0  0  0  0  0  0  0  0  0  0
    9.2807   46.9906   30.4395 C   0  0  0  0  0  0  0  0  0  0  0  0
    6.5285   46.4957   30.4830 C   0  0  0  0  0  0  0  0  0  0  0  0
    8.3970   47.8925   29.8320 C   0  0  0  0  0  0  0  0  0  0  0  0
    7.0074   47.6530   29.8544 C   0  0  0  0  0  0  0  0  0  0  0  0
    6.0586   48.5126   29.2731 O   0  0  0  0  0  0  0  0  0  0  0  0
    6.2717   49.8288   28.7488 C   0  0  1  0  0  0  0  0  0  0  0  0
    6.6484   50.7929   29.8843 C   0  0  0  0  0  0  0  0  0  0  0  0
    7.1947   49.8161   27.5304 C   0  0  0  0  0  0  0  0  0  0  0  0
    8.2704   50.7396   27.4258 C   0  0  0  0  0  0  0  0  0  0  0  0
    6.9807   48.8824   26.4556 C   0  0  0  0  0  0  0  0  0  0  0  0
    9.0835   50.6940   26.3016 C   0  0  0  0  0  0  0  0  0  0  0  0
    7.8599   48.8711   25.3479 C   0  0  0  0  0  0  0  0  0  0  0  0
    5.8925   47.9438   26.4666 N   0  0  0  0  0  0  0  0  0  0  0  0
   10.1636   51.4978   25.9926 O   0  0  0  0  0  0  0  0  0  0  0  0
    8.8887   49.7985   25.3081 C   0  0  0  0  0  0  0  0  0  0  0  0
    6.0569   46.7046   25.8892 O   0  0  0  0  0  0  0  0  0  0  0  0
    4.7442   48.3050   26.7977 O   0  0  0  0  0  0  0  0  0  0  0  0
   10.6762   51.0794   24.7192 C   0  0  0  0  0  0  0  0  0  0  0  0
    9.8348   49.9893   24.3191 O   0  0  0  0  0  0  0  0  0  0  0  0
    8.8129   40.1843   34.2118 O   0  0  0  0  0  0  0  0  0  0  0  0
   11.2409   40.7952   33.3689 O   0  0  0  0  0  0  0  0  0  0  0  0
   10.9128   40.6888   31.9977 C   0  0  0  0  0  0  0  0  0  0  0  0
   11.5173   39.3822   31.4428 C   0  0  0  0  0  0  0  0  0  0  0  0
   12.7507   39.0885   32.0758 O   0  0  0  0  0  0  0  0  0  0  0  0
   10.6055   38.1896   31.6664 C   0  0  0  0  0  0  0  0  0  0  0  0
   12.9399   37.6814   32.0276 C   0  0  0  0  0  0  0  0  0  0  0  0
    9.6349   38.0958   30.6519 O   0  0  0  0  0  0  0  0  0  0  0  0
   11.5810   37.0191   31.6928 C   0  0  0  0  0  0  0  0  0  0  0  0
   13.4836   37.2117   33.3242 N   0  0  0  0  0  0  0  0  0  0  0  0
   11.6121   36.3182   30.4670 O   0  0  0  0  0  0  0  0  0  0  0  0
   14.4786   36.3319   33.5732 C   0  0  0  0  0  0  0  0  0  0  0  0
   13.1118   37.6277   34.5688 C   0  0  0  0  0  0  0  0  0  0  0  0
   15.2063   35.6163   32.6743 N   0  0  0  0  0  0  0  0  0  0  0  0
   14.6743   36.2310   34.9185 C   0  0  0  0  0  0  0  0  0  0  0  0
   13.8197   37.0455   35.5783 N   0  0  0  0  0  0  0  0  0  0  0  0
   16.1635   34.7621   33.1549 C   0  0  0  0  0  0  0  0  0  0  0  0
   15.6514   35.3517   35.4135 C   0  0  0  0  0  0  0  0  0  0  0  0
   16.3790   34.6334   34.5045 N   0  0  0  0  0  0  0  0  0  0  0  0
   15.8970   35.1928   36.8096 N   0  0  0  0  0  0  0  0  0  0  0  0
    9.0160   45.4343   33.6680 H   0  0  0  0  0  0  0  0  0  0  0  0
   11.8937   45.7646   32.9455 H   0  0  0  0  0  0  0  0  0  0  0  0
   10.7289   46.9676   33.1233 H   0  0  0  0  0  0  0  0  0  0  0  0
   10.7273   44.8885   31.1546 H   0  0  0  0  0  0  0  0  0  0  0  0
    9.3478   43.8330   31.4717 H   0  0  0  0  0  0  0  0  0  0  0  0
    7.0184   44.7095   31.5752 H   0  0  0  0  0  0  0  0  0  0  0  0
   10.3455   47.1879   30.4026 H   0  0  0  0  0  0  0  0  0  0  0  0
    5.4647   46.2930   30.5027 H   0  0  0  0  0  0  0  0  0  0  0  0
    8.8122   48.7582   29.3417 H   0  0  0  0  0  0  0  0  0  0  0  0
    5.2867   50.1880   28.3824 H   0  0  0  0  0  0  0  0  0  0  0  0
    7.6599   50.5776   30.2810 H   0  0  0  0  0  0  0  0  0  0  0  0
    6.6062   51.8445   29.5306 H   0  0  0  0  0  0  0  0  0  0  0  0
    5.9197   50.6884   30.7165 H   0  0  0  0  0  0  0  0  0  0  0  0
    8.4823   51.4782   28.1846 H   0  0  0  0  0  0  0  0  0  0  0  0
    7.7270   48.1785   24.5269 H   0  0  0  0  0  0  0  0  0  0  0  0
   10.6042   51.9119   23.9871 H   0  0  0  0  0  0  0  0  0  0  0  0
   11.7254   50.7326   24.8216 H   0  0  0  0  0  0  0  0  0  0  0  0
    9.8216   40.7230   31.7657 H   0  0  0  0  0  0  0  0  0  0  0  0
   11.3792   41.5486   31.4699 H   0  0  0  0  0  0  0  0  0  0  0  0
   11.6980   39.5120   30.3513 H   0  0  0  0  0  0  0  0  0  0  0  0
   10.1157   38.2726   32.6652 H   0  0  0  0  0  0  0  0  0  0  0  0
   13.6797   37.4552   31.2275 H   0  0  0  0  0  0  0  0  0  0  0  0
    9.0031   37.3854   30.9367 H   0  0  0  0  0  0  0  0  0  0  0  0
   11.2809   36.3054   32.4917 H   0  0  0  0  0  0  0  0  0  0  0  0
   11.8817   36.9585   29.7572 H   0  0  0  0  0  0  0  0  0  0  0  0
   12.3274   38.3537   34.7436 H   0  0  0  0  0  0  0  0  0  0  0  0
   16.7558   34.1815   32.4619 H   0  0  0  0  0  0  0  0  0  0  0  0
   15.3541   35.7381   37.5160 H   0  0  0  0  0  0  0  0  0  0  0  0
   16.6345   34.5326   37.1409 H   0  0  0  0  0  0  0  0  0  0  0  0
  1  2  2  0
  1  3  1  0
  3  4  1  0
  4  5  1  0
  6  1  1  0
  7  6  1  0
  6  8  1  0
  8  9  1  0
  9 10  2  0
 11  9  1  0
 10 12  1  0
 13 11  2  0
 12 14  2  0
 14 13  1  0
 14 15  1  0
 15 16  1  0
 16 17  1  0
 16 18  1  0
 18 19  2  0
 20 18  1  0
 19 21  1  0
 22 20  2  0
 20 23  1  0
 21 24  1  0
 21 25  2  0
 25 22  1  0
 23 26  1  0
 23 27  2  0
 24 28  1  0
 25 29  1  0
 28 29  1  0
  4 30  2  0
  4 31  1  0
 32 31  1  0
 32 33  1  0
 33 34  1  0
 33 35  1  0
 34 36  1  0
 35 37  1  0
 35 38  1  0
 38 36  1  0
 36 39  1  0
 38 40  1  0
 41 39  1  0
 42 39  1  0
 43 41  2  0
 41 44  1  0
 45 42  2  0
 46 43  1  0
 44 47  2  0
 44 45  1  0
 48 46  2  0
 48 47  1  0
 47 49  1  0
  6 50  1  1
  7 51  1  0
  7 52  1  0
  8 53  1  0
  8 54  1  0
 10 55  1  0
 11 56  1  0
 12 57  1  0
 13 58  1  0
 16 59  1  6
 17 60  1  0
 17 61  1  0
 17 62  1  0
 19 63  1  0
 22 64  1  0
 28 65  1  0
 28 66  1  0
 32 67  1  0
 32 68  1  0
 33 69  1  0
 35 70  1  0
 36 71  1  0
 37 72  1  0
 38 73  1  0
 40 74  1  0
 42 75  1  0
 46 76  1  0
 49 77  1  0
 49 78  1  0
M  CHG  3   5  -1  23   1  26  -1
M  END
>  <EmbedRMS>  (262) 
0.0819791992001

$$$$

     RDKit          3D

 78 83  0  0  0  0  0  0  0  0999 V2000
   10.2834   43.7662   33.8257 C   0  0  0  0  0  0  0  0  0  0  0  0
   11.4102   43.5931   34.3752 O   0  0  0  0  0  0  0  0  0  0  0  0
    9.3638   42.7255   33.7349 O   0  0  0  0  0  0  0  0  0  0  0  0
    9.8907   41.2266   34.2933 P   0  0  0  0  0  0  0  0  0  0  0  0
   10.3743   41.4557   35.8828 O   0  0  0  0  0  0  0  0  0  0  0  0
    9.9546   45.0695   33.2036 C   0  0  1  0  0  0  0  0  0  0  0  0
   11.0272   46.0323   33.4756 N   0  0  0  0  0  0  0  0  0  0  0  0
    9.7466   44.8481   31.6877 C   0  0  0  0  0  0  0  0  0  0  0  0
    8.7923   45.8407   31.0844 C   0  0  0  0  0  0  0  0  0  0  0  0
    7.4056   45.6013   31.0986 C   0  0  0  0  0  0  0  0  0  0  0  0
    9.2823   46.9875   30.4421 C   0  0  0  0  0  0  0  0  0  0  0  0
    6.5268   46.5030   30.4834 C   0  0  0  0  0  0  0  0  0  0  0  0
    8.4032   47.8894   29.8313 C   0  0  0  0  0  0  0  0  0  0  0  0
    7.0140   47.6538   29.8488 C   0  0  0  0  0  0  0  0  0  0  0  0
    6.0883   48.5283   29.2566 O   0  0  0  0  0  0  0  0  0  0  0  0
    6.4090   49.7698   28.6219 C   0  0  1  0  0  0  0  0  0  0  0  0
    5.1593   50.3004   27.9233 C   0  0  0  0  0  0  0  0  0  0  0  0
    6.8990   50.7921   29.6352 C   0  0  0  0  0  0  0  0  0  0  0  0
    6.2863   50.8316   30.9126 C   0  0  0  0  0  0  0  0  0  0  0  0
    7.8865   51.7781   29.3037 C   0  0  0  0  0  0  0  0  0  0  0  0
    6.6798   51.8174   31.8080 C   0  0  0  0  0  0  0  0  0  0  0  0
    8.2345   52.7674   30.2495 C   0  0  0  0  0  0  0  0  0  0  0  0
    8.5198   51.8107   28.0177 N   0  0  0  0  0  0  0  0  0  0  0  0
    6.2280   52.0390   33.0947 O   0  0  0  0  0  0  0  0  0  0  0  0
    7.6122   52.7447   31.4904 C   0  0  0  0  0  0  0  0  0  0  0  0
    8.6591   53.0130   27.3640 O   0  0  0  0  0  0  0  0  0  0  0  0
    9.1913   50.8337   27.6285 O   0  0  0  0  0  0  0  0  0  0  0  0
    6.9249   53.1779   33.6182 C   0  0  0  0  0  0  0  0  0  0  0  0
    7.7982   53.5980   32.5610 O   0  0  0  0  0  0  0  0  0  0  0  0
    8.8123   40.1851   34.2127 O   0  0  0  0  0  0  0  0  0  0  0  0
   11.2407   40.7945   33.3670 O   0  0  0  0  0  0  0  0  0  0  0  0
   10.9134   40.6866   31.9954 C   0  0  0  0  0  0  0  0  0  0  0  0
   11.5167   39.3787   31.4404 C   0  0  0  0  0  0  0  0  0  0  0  0
   12.7486   39.0849   32.0735 O   0  0  0  0  0  0  0  0  0  0  0  0
   10.6039   38.1884   31.6669 C   0  0  0  0  0  0  0  0  0  0  0  0
   12.9329   37.6776   32.0284 C   0  0  0  0  0  0  0  0  0  0  0  0
    9.6374   38.0938   30.6484 O   0  0  0  0  0  0  0  0  0  0  0  0
   11.5737   37.0141   31.7055 C   0  0  0  0  0  0  0  0  0  0  0  0
   13.4853   37.2120   33.3238 N   0  0  0  0  0  0  0  0  0  0  0  0
   11.6210   36.3379   30.4683 O   0  0  0  0  0  0  0  0  0  0  0  0
   14.4804   36.3319   33.5726 C   0  0  0  0  0  0  0  0  0  0  0  0
   13.1141   37.6275   34.5689 C   0  0  0  0  0  0  0  0  0  0  0  0
   15.2076   35.6152   32.6740 N   0  0  0  0  0  0  0  0  0  0  0  0
   14.6761   36.2306   34.9181 C   0  0  0  0  0  0  0  0  0  0  0  0
   13.8218   37.0451   35.5783 N   0  0  0  0  0  0  0  0  0  0  0  0
   16.1642   34.7600   33.1548 C   0  0  0  0  0  0  0  0  0  0  0  0
   15.6527   35.3506   35.4131 C   0  0  0  0  0  0  0  0  0  0  0  0
   16.3795   34.6315   34.5043 N   0  0  0  0  0  0  0  0  0  0  0  0
   15.9000   35.1933   36.8090 N   0  0  0  0  0  0  0  0  0  0  0  0
    9.0120   45.4318   33.6714 H   0  0  0  0  0  0  0  0  0  0  0  0
   11.8905   45.7661   32.9469 H   0  0  0  0  0  0  0  0  0  0  0  0
   10.7257   46.9689   33.1214 H   0  0  0  0  0  0  0  0  0  0  0  0
   10.7230   44.8814   31.1557 H   0  0  0  0  0  0  0  0  0  0  0  0
    9.3414   43.8329   31.4763 H   0  0  0  0  0  0  0  0  0  0  0  0
    7.0083   44.7165   31.5807 H   0  0  0  0  0  0  0  0  0  0  0  0
   10.3469   47.1845   30.4110 H   0  0  0  0  0  0  0  0  0  0  0  0
    5.4621   46.3078   30.5028 H   0  0  0  0  0  0  0  0  0  0  0  0
    8.8162   48.7620   29.3479 H   0  0  0  0  0  0  0  0  0  0  0  0
    7.1612   49.5712   27.8343 H   0  0  0  0  0  0  0  0  0  0  0  0
    4.3456   50.4761   28.6594 H   0  0  0  0  0  0  0  0  0  0  0  0
    4.8058   49.5614   27.1733 H   0  0  0  0  0  0  0  0  0  0  0  0
    5.3875   51.2531   27.3988 H   0  0  0  0  0  0  0  0  0  0  0  0
    5.5172   50.1243   31.1958 H   0  0  0  0  0  0  0  0  0  0  0  0
    8.9748   53.5245   30.0244 H   0  0  0  0  0  0  0  0  0  0  0  0
    7.5167   52.8885   34.5118 H   0  0  0  0  0  0  0  0  0  0  0  0
    6.2065   53.9871   33.8661 H   0  0  0  0  0  0  0  0  0  0  0  0
   11.3827   41.5438   31.4669 H   0  0  0  0  0  0  0  0  0  0  0  0
    9.8225   40.7225   31.7631 H   0  0  0  0  0  0  0  0  0  0  0  0
   11.6979   39.5037   30.3478 H   0  0  0  0  0  0  0  0  0  0  0  0
   10.1084   38.2787   32.6627 H   0  0  0  0  0  0  0  0  0  0  0  0
   13.6638   37.4472   31.2214 H   0  0  0  0  0  0  0  0  0  0  0  0
    8.9763   37.4191   30.9532 H   0  0  0  0  0  0  0  0  0  0  0  0
   11.2821   36.3054   32.5172 H   0  0  0  0  0  0  0  0  0  0  0  0
   10.8658   35.6935   30.4652 H   0  0  0  0  0  0  0  0  0  0  0  0
   12.3293   38.3523   34.7445 H   0  0  0  0  0  0  0  0  0  0  0  0
   16.7561   34.1778   32.4621 H   0  0  0  0  0  0  0  0  0  0  0  0
   16.6345   34.5300   37.1416 H   0  0  0  0  0  0  0  0  0  0  0  0
   15.3533   35.7361   37.5138 H   0  0  0  0  0  0  0  0  0  0  0  0
  1  2  2  0
  1  3  1  0
  3  4  1  0
  4  5  1  0
  6  1  1  0
  7  6  1  0
  6  8  1  0
  8  9  1  0
  9 10  2  0
 11  9  1  0
 10 12  1  0
 13 11  2  0
 12 14  2  0
 14 13  1  0
 14 15  1  0
 15 16  1  0
 16 17  1  0
 16 18  1  0
 18 19  2  0
 20 18  1  0
 19 21  1  0
 22 20  2  0
 20 23  1  0
 21 24  1  0
 21 25  2  0
 25 22  1  0
 23 26  1  0
 23 27  2  0
 24 28  1  0
 25 29  1  0
 28 29  1  0
  4 30  2  0
  4 31  1  0
 32 31  1  0
 32 33  1  0
 33 34  1  0
 33 35  1  0
 34 36  1  0
 35 37  1  0
 35 38  1  0
 38 36  1  0
 36 39  1  0
 38 40  1  0
 41 39  1  0
 42 39  1  0
 43 41  2  0
 41 44  1  0
 45 42  2  0
 46 43  1  0
 44 47  2  0
 44 45  1  0
 48 46  2  0
 48 47  1  0
 47 49  1  0
  6 50  1  1
  7 51  1  0
  7 52  1  0
  8 53  1  0
  8 54  1  0
 10 55  1  0
 11 56  1  0
 12 57  1  0
 13 58  1  0
 16 59  1  6
 17 60  1  0
 17 61  1  0
 17 62  1  0
 19 63  1  0
 22 64  1  0
 28 65  1  0
 28 66  1  0
 32 67  1  0
 32 68  1  0
 33 69  1  0
 35 70  1  0
 36 71  1  0
 37 72  1  0
 38 73  1  0
 40 74  1  0
 42 75  1  0
 46 76  1  0
 49 77  1  0
 49 78  1  0
M  CHG  3   5  -1  23   1  26  -1
M  END
>  <EmbedRMS>  (263) 
0.0825650275778

$$$$

     RDKit          3D

 78 83  0  0  0  0  0  0  0  0999 V2000
   10.2838   43.7627   33.8272 C   0  0  0  0  0  0  0  0  0  0  0  0
   11.4102   43.5864   34.3765 O   0  0  0  0  0  0  0  0  0  0  0  0
    9.3630   42.7236   33.7352 O   0  0  0  0  0  0  0  0  0  0  0  0
    9.8894   41.2249   34.2943 P   0  0  0  0  0  0  0  0  0  0  0  0
   10.3726   41.4547   35.8838 O   0  0  0  0  0  0  0  0  0  0  0  0
    9.9547   45.0700   33.2059 C   0  0  1  0  0  0  0  0  0  0  0  0
   11.0197   46.0481   33.4567 N   0  0  0  0  0  0  0  0  0  0  0  0
    9.7501   44.8512   31.6917 C   0  0  0  0  0  0  0  0  0  0  0  0
    8.7940   45.8419   31.0862 C   0  0  0  0  0  0  0  0  0  0  0  0
    7.4060   45.6010   31.1013 C   0  0  0  0  0  0  0  0  0  0  0  0
    9.2831   46.9915   30.4453 C   0  0  0  0  0  0  0  0  0  0  0  0
    6.5259   46.5029   30.4877 C   0  0  0  0  0  0  0  0  0  0  0  0
    8.4012   47.8917   29.8348 C   0  0  0  0  0  0  0  0  0  0  0  0
    7.0221   47.6454   29.8433 C   0  0  0  0  0  0  0  0  0  0  0  0
    6.1445   48.5433   29.2282 O   0  0  0  0  0  0  0  0  0  0  0  0
    5.6799   48.3961   27.8823 C   0  0  1  0  0  0  0  0  0  0  0  0
    6.8094   48.6669   26.8778 C   0  0  0  0  0  0  0  0  0  0  0  0
    4.9826   47.0539   27.6799 C   0  0  0  0  0  0  0  0  0  0  0  0
    5.7397   45.9087   27.3178 C   0  0  0  0  0  0  0  0  0  0  0  0
    3.5647   46.9180   27.8659 C   0  0  0  0  0  0  0  0  0  0  0  0
    5.0729   44.7106   27.1019 C   0  0  0  0  0  0  0  0  0  0  0  0
    2.9398   45.6767   27.6095 C   0  0  0  0  0  0  0  0  0  0  0  0
    2.7556   48.0063   28.3407 N   0  0  0  0  0  0  0  0  0  0  0  0
    5.6026   43.4871   26.7394 O   0  0  0  0  0  0  0  0  0  0  0  0
    3.7319   44.6012   27.2339 C   0  0  0  0  0  0  0  0  0  0  0  0
    1.4575   48.1351   27.9033 O   0  0  0  0  0  0  0  0  0  0  0  0
    3.1344   48.6954   29.3101 O   0  0  0  0  0  0  0  0  0  0  0  0
    4.5217   42.5503   26.6361 C   0  0  0  0  0  0  0  0  0  0  0  0
    3.3450   43.3034   26.9601 O   0  0  0  0  0  0  0  0  0  0  0  0
    8.8113   40.1834   34.2129 O   0  0  0  0  0  0  0  0  0  0  0  0
   11.2401   40.7931   33.3695 O   0  0  0  0  0  0  0  0  0  0  0  0
   10.9151   40.6903   31.9974 C   0  0  0  0  0  0  0  0  0  0  0  0
   11.5252   39.3886   31.4375 C   0  0  0  0  0  0  0  0  0  0  0  0
   12.7500   39.0873   32.0798 O   0  0  0  0  0  0  0  0  0  0  0  0
   10.6092   38.1926   31.6469 C   0  0  0  0  0  0  0  0  0  0  0  0
   12.9332   37.6792   32.0294 C   0  0  0  0  0  0  0  0  0  0  0  0
    9.6121   38.0894   30.6542 O   0  0  0  0  0  0  0  0  0  0  0  0
   11.5743   37.0144   31.7023 C   0  0  0  0  0  0  0  0  0  0  0  0
   13.4844   37.2108   33.3241 N   0  0  0  0  0  0  0  0  0  0  0  0
   11.6297   36.3239   30.4740 O   0  0  0  0  0  0  0  0  0  0  0  0
   14.4802   36.3313   33.5726 C   0  0  0  0  0  0  0  0  0  0  0  0
   13.1139   37.6267   34.5692 C   0  0  0  0  0  0  0  0  0  0  0  0
   15.2075   35.6149   32.6739 N   0  0  0  0  0  0  0  0  0  0  0  0
   14.6761   36.2303   34.9181 C   0  0  0  0  0  0  0  0  0  0  0  0
   13.8220   37.0447   35.5784 N   0  0  0  0  0  0  0  0  0  0  0  0
   16.1643   34.7600   33.1547 C   0  0  0  0  0  0  0  0  0  0  0  0
   15.6529   35.3505   35.4130 C   0  0  0  0  0  0  0  0  0  0  0  0
   16.3798   34.6315   34.5042 N   0  0  0  0  0  0  0  0  0  0  0  0
   15.9002   35.1932   36.8090 N   0  0  0  0  0  0  0  0  0  0  0  0
    9.0097   45.4349   33.6665 H   0  0  0  0  0  0  0  0  0  0  0  0
   11.1132   46.1991   34.4880 H   0  0  0  0  0  0  0  0  0  0  0  0
   11.9347   45.6934   33.0922 H   0  0  0  0  0  0  0  0  0  0  0  0
   10.7303   44.8931   31.1668 H   0  0  0  0  0  0  0  0  0  0  0  0
    9.3510   43.8346   31.4754 H   0  0  0  0  0  0  0  0  0  0  0  0
    7.0095   44.7167   31.5849 H   0  0  0  0  0  0  0  0  0  0  0  0
   10.3469   47.1927   30.4179 H   0  0  0  0  0  0  0  0  0  0  0  0
    5.4607   46.3109   30.5084 H   0  0  0  0  0  0  0  0  0  0  0  0
    8.7899   48.7770   29.3479 H   0  0  0  0  0  0  0  0  0  0  0  0
    4.9448   49.2065   27.6959 H   0  0  0  0  0  0  0  0  0  0  0  0
    7.1492   49.7197   26.9769 H   0  0  0  0  0  0  0  0  0  0  0  0
    6.4444   48.5126   25.8400 H   0  0  0  0  0  0  0  0  0  0  0  0
    7.6856   48.0117   27.0570 H   0  0  0  0  0  0  0  0  0  0  0  0
    6.8143   45.9382   27.2098 H   0  0  0  0  0  0  0  0  0  0  0  0
    1.8728   45.5456   27.7353 H   0  0  0  0  0  0  0  0  0  0  0  0
    4.6597   41.7231   27.3635 H   0  0  0  0  0  0  0  0  0  0  0  0
    4.4519   42.1571   25.6002 H   0  0  0  0  0  0  0  0  0  0  0  0
    9.8243   40.7216   31.7640 H   0  0  0  0  0  0  0  0  0  0  0  0
   11.3805   41.5528   31.4739 H   0  0  0  0  0  0  0  0  0  0  0  0
   11.7265   39.5311   30.3512 H   0  0  0  0  0  0  0  0  0  0  0  0
   10.1110   38.2746   32.6386 H   0  0  0  0  0  0  0  0  0  0  0  0
   13.6652   37.4519   31.2226 H   0  0  0  0  0  0  0  0  0  0  0  0
   10.0511   38.1144   29.7644 H   0  0  0  0  0  0  0  0  0  0  0  0
   11.2762   36.3141   32.5189 H   0  0  0  0  0  0  0  0  0  0  0  0
   10.8592   35.6978   30.4639 H   0  0  0  0  0  0  0  0  0  0  0  0
   12.3295   38.3518   34.7449 H   0  0  0  0  0  0  0  0  0  0  0  0
   16.7563   34.1779   32.4620 H   0  0  0  0  0  0  0  0  0  0  0  0
   16.6348   34.5300   37.1416 H   0  0  0  0  0  0  0  0  0  0  0  0
   15.3534   35.7359   37.5138 H   0  0  0  0  0  0  0  0  0  0  0  0
  1  2  2  0
  1  3  1  0
  3  4  1  0
  4  5  1  0
  6  1  1  0
  7  6  1  0
  6  8  1  0
  8  9  1  0
  9 10  2  0
 11  9  1  0
 10 12  1  0
 13 11  2  0
 12 14  2  0
 14 13  1  0
 14 15  1  0
 15 16  1  0
 16 17  1  0
 16 18  1  0
 18 19  2  0
 20 18  1  0
 19 21  1  0
 22 20  2  0
 20 23  1  0
 21 24  1  0
 21 25  2  0
 25 22  1  0
 23 26  1  0
 23 27  2  0
 24 28  1  0
 25 29  1  0
 28 29  1  0
  4 30  2  0
  4 31  1  0
 32 31  1  0
 32 33  1  0
 33 34  1  0
 33 35  1  0
 34 36  1  0
 35 37  1  0
 35 38  1  0
 38 36  1  0
 36 39  1  0
 38 40  1  0
 41 39  1  0
 42 39  1  0
 43 41  2  0
 41 44  1  0
 45 42  2  0
 46 43  1  0
 44 47  2  0
 44 45  1  0
 48 46  2  0
 48 47  1  0
 47 49  1  0
  6 50  1  1
  7 51  1  0
  7 52  1  0
  8 53  1  0
  8 54  1  0
 10 55  1  0
 11 56  1  0
 12 57  1  0
 13 58  1  0
 16 59  1  6
 17 60  1  0
 17 61  1  0
 17 62  1  0
 19 63  1  0
 22 64  1  0
 28 65  1  0
 28 66  1  0
 32 67  1  0
 32 68  1  0
 33 69  1  0
 35 70  1  0
 36 71  1  0
 37 72  1  0
 38 73  1  0
 40 74  1  0
 42 75  1  0
 46 76  1  0
 49 77  1  0
 49 78  1  0
M  CHG  3   5  -1  23   1  26  -1
M  END
>  <EmbedRMS>  (264) 
0.0828414767329

$$$$

     RDKit          3D

 78 83  0  0  0  0  0  0  0  0999 V2000
   10.2806   43.7664   33.8251 C   0  0  0  0  0  0  0  0  0  0  0  0
   11.4111   43.5914   34.3671 O   0  0  0  0  0  0  0  0  0  0  0  0
    9.3614   42.7253   33.7351 O   0  0  0  0  0  0  0  0  0  0  0  0
    9.8897   41.2266   34.2939 P   0  0  0  0  0  0  0  0  0  0  0  0
   10.3737   41.4573   35.8827 O   0  0  0  0  0  0  0  0  0  0  0  0
    9.9463   45.0741   33.2119 C   0  0  1  0  0  0  0  0  0  0  0  0
   11.0265   46.0303   33.4714 N   0  0  0  0  0  0  0  0  0  0  0  0
    9.7525   44.8552   31.6959 C   0  0  0  0  0  0  0  0  0  0  0  0
    8.7945   45.8431   31.0867 C   0  0  0  0  0  0  0  0  0  0  0  0
    7.4071   45.5997   31.0992 C   0  0  0  0  0  0  0  0  0  0  0  0
    9.2824   46.9909   30.4417 C   0  0  0  0  0  0  0  0  0  0  0  0
    6.5267   46.4977   30.4793 C   0  0  0  0  0  0  0  0  0  0  0  0
    8.4008   47.8898   29.8296 C   0  0  0  0  0  0  0  0  0  0  0  0
    7.0172   47.6501   29.8501 C   0  0  0  0  0  0  0  0  0  0  0  0
    6.1185   48.5296   29.2333 O   0  0  0  0  0  0  0  0  0  0  0  0
    5.7728   49.8127   29.7693 C   0  0  1  0  0  0  0  0  0  0  0  0
    5.1536   49.6478   31.1676 C   0  0  0  0  0  0  0  0  0  0  0  0
    6.9564   50.7753   29.6796 C   0  0  0  0  0  0  0  0  0  0  0  0
    7.5405   51.3320   30.8509 C   0  0  0  0  0  0  0  0  0  0  0  0
    7.5454   51.0796   28.4032 C   0  0  0  0  0  0  0  0  0  0  0  0
    8.6643   52.1369   30.7185 C   0  0  0  0  0  0  0  0  0  0  0  0
    8.6959   51.8993   28.3353 C   0  0  0  0  0  0  0  0  0  0  0  0
    7.0203   50.5350   27.1804 N   0  0  0  0  0  0  0  0  0  0  0  0
    9.3910   52.7631   31.7131 O   0  0  0  0  0  0  0  0  0  0  0  0
    9.2185   52.4075   29.5154 C   0  0  0  0  0  0  0  0  0  0  0  0
    5.6809   50.6382   26.8882 O   0  0  0  0  0  0  0  0  0  0  0  0
    7.8016   50.1588   26.2820 O   0  0  0  0  0  0  0  0  0  0  0  0
   10.4720   53.4726   31.0913 C   0  0  0  0  0  0  0  0  0  0  0  0
   10.3230   53.2207   29.6868 O   0  0  0  0  0  0  0  0  0  0  0  0
    8.8130   40.1833   34.2135 O   0  0  0  0  0  0  0  0  0  0  0  0
   11.2414   40.7946   33.3707 O   0  0  0  0  0  0  0  0  0  0  0  0
   10.9190   40.6926   31.9982 C   0  0  0  0  0  0  0  0  0  0  0  0
   11.5176   39.3838   31.4421 C   0  0  0  0  0  0  0  0  0  0  0  0
   12.7514   39.0891   32.0741 O   0  0  0  0  0  0  0  0  0  0  0  0
   10.6030   38.1917   31.6667 C   0  0  0  0  0  0  0  0  0  0  0  0
   12.9390   37.6822   32.0274 C   0  0  0  0  0  0  0  0  0  0  0  0
    9.6365   38.0800   30.6489 O   0  0  0  0  0  0  0  0  0  0  0  0
   11.5785   37.0216   31.6942 C   0  0  0  0  0  0  0  0  0  0  0  0
   13.4851   37.2128   33.3239 N   0  0  0  0  0  0  0  0  0  0  0  0
   11.6106   36.3196   30.4691 O   0  0  0  0  0  0  0  0  0  0  0  0
   14.4799   36.3316   33.5728 C   0  0  0  0  0  0  0  0  0  0  0  0
   13.1139   37.6292   34.5688 C   0  0  0  0  0  0  0  0  0  0  0  0
   15.2067   35.6139   32.6742 N   0  0  0  0  0  0  0  0  0  0  0  0
   14.6754   36.2303   34.9181 C   0  0  0  0  0  0  0  0  0  0  0  0
   13.8214   37.0459   35.5781 N   0  0  0  0  0  0  0  0  0  0  0  0
   16.1630   34.7578   33.1546 C   0  0  0  0  0  0  0  0  0  0  0  0
   15.6526   35.3503   35.4129 C   0  0  0  0  0  0  0  0  0  0  0  0
   16.3791   34.6302   34.5041 N   0  0  0  0  0  0  0  0  0  0  0  0
   15.8996   35.1935   36.8089 N   0  0  0  0  0  0  0  0  0  0  0  0
    9.0010   45.4384   33.6744 H   0  0  0  0  0  0  0  0  0  0  0  0
   11.0491   46.2282   34.4991 H   0  0  0  0  0  0  0  0  0  0  0  0
   10.7759   46.9380   33.0158 H   0  0  0  0  0  0  0  0  0  0  0  0
   10.7389   44.9080   31.1841 H   0  0  0  0  0  0  0  0  0  0  0  0
    9.3628   43.8366   31.4727 H   0  0  0  0  0  0  0  0  0  0  0  0
    7.0119   44.7139   31.5815 H   0  0  0  0  0  0  0  0  0  0  0  0
   10.3469   47.1885   30.4051 H   0  0  0  0  0  0  0  0  0  0  0  0
    5.4620   46.3014   30.4937 H   0  0  0  0  0  0  0  0  0  0  0  0
    8.8027   48.7567   29.3244 H   0  0  0  0  0  0  0  0  0  0  0  0
    4.9559   50.2315   29.1474 H   0  0  0  0  0  0  0  0  0  0  0  0
    4.8083   50.6295   31.5565 H   0  0  0  0  0  0  0  0  0  0  0  0
    4.2724   48.9736   31.1041 H   0  0  0  0  0  0  0  0  0  0  0  0
    5.8804   49.1999   31.8785 H   0  0  0  0  0  0  0  0  0  0  0  0
    7.1596   51.1423   31.8439 H   0  0  0  0  0  0  0  0  0  0  0  0
    9.1620   52.1371   27.3866 H   0  0  0  0  0  0  0  0  0  0  0  0
   11.4460   53.0780   31.4487 H   0  0  0  0  0  0  0  0  0  0  0  0
   10.3865   54.5605   31.2980 H   0  0  0  0  0  0  0  0  0  0  0  0
    9.8305   40.7424   31.7618 H   0  0  0  0  0  0  0  0  0  0  0  0
   11.3993   41.5475   31.4756 H   0  0  0  0  0  0  0  0  0  0  0  0
   11.6970   39.5110   30.3496 H   0  0  0  0  0  0  0  0  0  0  0  0
   10.1125   38.2616   32.6672 H   0  0  0  0  0  0  0  0  0  0  0  0
   13.6762   37.4555   31.2252 H   0  0  0  0  0  0  0  0  0  0  0  0
    8.8963   38.6955   30.8894 H   0  0  0  0  0  0  0  0  0  0  0  0
   11.2791   36.3073   32.4926 H   0  0  0  0  0  0  0  0  0  0  0  0
   11.8838   36.9591   29.7602 H   0  0  0  0  0  0  0  0  0  0  0  0
   12.3320   38.3582   34.7441 H   0  0  0  0  0  0  0  0  0  0  0  0
   16.7537   34.1740   32.4612 H   0  0  0  0  0  0  0  0  0  0  0  0
   15.3517   35.7370   37.5124 H   0  0  0  0  0  0  0  0  0  0  0  0
   16.6344   34.5309   37.1427 H   0  0  0  0  0  0  0  0  0  0  0  0
  1  2  2  0
  1  3  1  0
  3  4  1  0
  4  5  1  0
  6  1  1  0
  7  6  1  0
  6  8  1  0
  8  9  1  0
  9 10  2  0
 11  9  1  0
 10 12  1  0
 13 11  2  0
 12 14  2  0
 14 13  1  0
 14 15  1  0
 15 16  1  0
 16 17  1  0
 16 18  1  0
 18 19  2  0
 20 18  1  0
 19 21  1  0
 22 20  2  0
 20 23  1  0
 21 24  1  0
 21 25  2  0
 25 22  1  0
 23 26  1  0
 23 27  2  0
 24 28  1  0
 25 29  1  0
 28 29  1  0
  4 30  2  0
  4 31  1  0
 32 31  1  0
 32 33  1  0
 33 34  1  0
 33 35  1  0
 34 36  1  0
 35 37  1  0
 35 38  1  0
 38 36  1  0
 36 39  1  0
 38 40  1  0
 41 39  1  0
 42 39  1  0
 43 41  2  0
 41 44  1  0
 45 42  2  0
 46 43  1  0
 44 47  2  0
 44 45  1  0
 48 46  2  0
 48 47  1  0
 47 49  1  0
  6 50  1  1
  7 51  1  0
  7 52  1  0
  8 53  1  0
  8 54  1  0
 10 55  1  0
 11 56  1  0
 12 57  1  0
 13 58  1  0
 16 59  1  6
 17 60  1  0
 17 61  1  0
 17 62  1  0
 19 63  1  0
 22 64  1  0
 28 65  1  0
 28 66  1  0
 32 67  1  0
 32 68  1  0
 33 69  1  0
 35 70  1  0
 36 71  1  0
 37 72  1  0
 38 73  1  0
 40 74  1  0
 42 75  1  0
 46 76  1  0
 49 77  1  0
 49 78  1  0
M  CHG  3   5  -1  23   1  26  -1
M  END
>  <EmbedRMS>  (265) 
0.0818211328008

$$$$

     RDKit          3D

 78 83  0  0  0  0  0  0  0  0999 V2000
   10.2835   43.7661   33.8255 C   0  0  0  0  0  0  0  0  0  0  0  0
   11.4102   43.5930   34.3753 O   0  0  0  0  0  0  0  0  0  0  0  0
    9.3639   42.7253   33.7347 O   0  0  0  0  0  0  0  0  0  0  0  0
    9.8906   41.2265   34.2938 P   0  0  0  0  0  0  0  0  0  0  0  0
   10.3733   41.4559   35.8835 O   0  0  0  0  0  0  0  0  0  0  0  0
    9.9547   45.0694   33.2035 C   0  0  1  0  0  0  0  0  0  0  0  0
   11.0273   46.0321   33.4759 N   0  0  0  0  0  0  0  0  0  0  0  0
    9.7471   44.8483   31.6875 C   0  0  0  0  0  0  0  0  0  0  0  0
    8.7925   45.8409   31.0843 C   0  0  0  0  0  0  0  0  0  0  0  0
    7.4058   45.6012   31.0996 C   0  0  0  0  0  0  0  0  0  0  0  0
    9.2817   46.9881   30.4424 C   0  0  0  0  0  0  0  0  0  0  0  0
    6.5246   46.5015   30.4855 C   0  0  0  0  0  0  0  0  0  0  0  0
    8.4003   47.8884   29.8327 C   0  0  0  0  0  0  0  0  0  0  0  0
    7.0188   47.6556   29.8446 C   0  0  0  0  0  0  0  0  0  0  0  0
    6.1825   48.5882   29.2096 O   0  0  0  0  0  0  0  0  0  0  0  0
    4.7616   48.4770   29.0838 C   0  0  1  0  0  0  0  0  0  0  0  0
    4.2139   49.7918   28.5337 C   0  0  0  0  0  0  0  0  0  0  0  0
    4.3820   47.3374   28.1515 C   0  0  0  0  0  0  0  0  0  0  0  0
    5.1768   47.1058   27.0011 C   0  0  0  0  0  0  0  0  0  0  0  0
    3.1923   46.5603   28.3462 C   0  0  0  0  0  0  0  0  0  0  0  0
    4.7825   46.1172   26.1092 C   0  0  0  0  0  0  0  0  0  0  0  0
    2.8323   45.5794   27.3960 C   0  0  0  0  0  0  0  0  0  0  0  0
    2.3301   46.7678   29.4729 N   0  0  0  0  0  0  0  0  0  0  0  0
    5.4005   45.7198   24.9391 O   0  0  0  0  0  0  0  0  0  0  0  0
    3.6596   45.3868   26.2978 C   0  0  0  0  0  0  0  0  0  0  0  0
    0.9691   46.8219   29.2807 O   0  0  0  0  0  0  0  0  0  0  0  0
    2.7677   46.6085   30.6305 O   0  0  0  0  0  0  0  0  0  0  0  0
    4.6148   44.6699   24.3585 C   0  0  0  0  0  0  0  0  0  0  0  0
    3.5122   44.4894   25.2577 O   0  0  0  0  0  0  0  0  0  0  0  0
    8.8126   40.1847   34.2122 O   0  0  0  0  0  0  0  0  0  0  0  0
   11.2418   40.7943   33.3694 O   0  0  0  0  0  0  0  0  0  0  0  0
   10.9179   40.6904   31.9970 C   0  0  0  0  0  0  0  0  0  0  0  0
   11.5181   39.3814   31.4408 C   0  0  0  0  0  0  0  0  0  0  0  0
   12.7497   39.0870   32.0746 O   0  0  0  0  0  0  0  0  0  0  0  0
   10.6045   38.1891   31.6655 C   0  0  0  0  0  0  0  0  0  0  0  0
   12.9344   37.6801   32.0290 C   0  0  0  0  0  0  0  0  0  0  0  0
    9.6418   38.0758   30.6441 O   0  0  0  0  0  0  0  0  0  0  0  0
   11.5741   37.0170   31.7045 C   0  0  0  0  0  0  0  0  0  0  0  0
   13.4851   37.2126   33.3241 N   0  0  0  0  0  0  0  0  0  0  0  0
   11.6079   36.3407   30.4680 O   0  0  0  0  0  0  0  0  0  0  0  0
   14.4801   36.3321   33.5727 C   0  0  0  0  0  0  0  0  0  0  0  0
   13.1140   37.6277   34.5693 C   0  0  0  0  0  0  0  0  0  0  0  0
   15.2073   35.6155   32.6739 N   0  0  0  0  0  0  0  0  0  0  0  0
   14.6758   36.2306   34.9182 C   0  0  0  0  0  0  0  0  0  0  0  0
   13.8217   37.0450   35.5785 N   0  0  0  0  0  0  0  0  0  0  0  0
   16.1639   34.7602   33.1546 C   0  0  0  0  0  0  0  0  0  0  0  0
   15.6526   35.3506   35.4130 C   0  0  0  0  0  0  0  0  0  0  0  0
   16.3794   34.6316   34.5041 N   0  0  0  0  0  0  0  0  0  0  0  0
   15.9001   35.1933   36.8089 N   0  0  0  0  0  0  0  0  0  0  0  0
    9.0121   45.4316   33.6712 H   0  0  0  0  0  0  0  0  0  0  0  0
   10.7260   46.9688   33.1215 H   0  0  0  0  0  0  0  0  0  0  0  0
   11.8908   45.7659   32.9474 H   0  0  0  0  0  0  0  0  0  0  0  0
    9.3424   43.8331   31.4757 H   0  0  0  0  0  0  0  0  0  0  0  0
   10.7235   44.8823   31.1556 H   0  0  0  0  0  0  0  0  0  0  0  0
    7.0099   44.7161   31.5824 H   0  0  0  0  0  0  0  0  0  0  0  0
   10.3459   47.1865   30.4106 H   0  0  0  0  0  0  0  0  0  0  0  0
    5.4668   46.2876   30.5159 H   0  0  0  0  0  0  0  0  0  0  0  0
    8.7937   48.7696   29.3418 H   0  0  0  0  0  0  0  0  0  0  0  0
    4.3341   48.3459   30.0964 H   0  0  0  0  0  0  0  0  0  0  0  0
    4.6448   50.0055   27.5319 H   0  0  0  0  0  0  0  0  0  0  0  0
    3.1069   49.7422   28.4506 H   0  0  0  0  0  0  0  0  0  0  0  0
    4.4786   50.6250   29.2188 H   0  0  0  0  0  0  0  0  0  0  0  0
    6.0678   47.6868   26.7999 H   0  0  0  0  0  0  0  0  0  0  0  0
    1.9387   44.9807   27.5174 H   0  0  0  0  0  0  0  0  0  0  0  0
    4.2462   44.9751   23.3568 H   0  0  0  0  0  0  0  0  0  0  0  0
    5.2114   43.7360   24.2915 H   0  0  0  0  0  0  0  0  0  0  0  0
    9.8290   40.7386   31.7617 H   0  0  0  0  0  0  0  0  0  0  0  0
   11.3945   41.5459   31.4722 H   0  0  0  0  0  0  0  0  0  0  0  0
   11.6994   39.5070   30.3484 H   0  0  0  0  0  0  0  0  0  0  0  0
   10.1090   38.2634   32.6632 H   0  0  0  0  0  0  0  0  0  0  0  0
   13.6662   37.4515   31.2224 H   0  0  0  0  0  0  0  0  0  0  0  0
    8.9010   38.6926   30.8793 H   0  0  0  0  0  0  0  0  0  0  0  0
   11.2650   36.3083   32.5087 H   0  0  0  0  0  0  0  0  0  0  0  0
   12.1372   35.5140   30.6163 H   0  0  0  0  0  0  0  0  0  0  0  0
   12.3297   38.3530   34.7450 H   0  0  0  0  0  0  0  0  0  0  0  0
   16.7558   34.1781   32.4618 H   0  0  0  0  0  0  0  0  0  0  0  0
   16.6346   34.5300   37.1414 H   0  0  0  0  0  0  0  0  0  0  0  0
   15.3533   35.7360   37.5138 H   0  0  0  0  0  0  0  0  0  0  0  0
  1  2  2  0
  1  3  1  0
  3  4  1  0
  4  5  1  0
  6  1  1  0
  7  6  1  0
  6  8  1  0
  8  9  1  0
  9 10  2  0
 11  9  1  0
 10 12  1  0
 13 11  2  0
 12 14  2  0
 14 13  1  0
 14 15  1  0
 15 16  1  0
 16 17  1  0
 16 18  1  0
 18 19  2  0
 20 18  1  0
 19 21  1  0
 22 20  2  0
 20 23  1  0
 21 24  1  0
 21 25  2  0
 25 22  1  0
 23 26  1  0
 23 27  2  0
 24 28  1  0
 25 29  1  0
 28 29  1  0
  4 30  2  0
  4 31  1  0
 32 31  1  0
 32 33  1  0
 33 34  1  0
 33 35  1  0
 34 36  1  0
 35 37  1  0
 35 38  1  0
 38 36  1  0
 36 39  1  0
 38 40  1  0
 41 39  1  0
 42 39  1  0
 43 41  2  0
 41 44  1  0
 45 42  2  0
 46 43  1  0
 44 47  2  0
 44 45  1  0
 48 46  2  0
 48 47  1  0
 47 49  1  0
  6 50  1  1
  7 51  1  0
  7 52  1  0
  8 53  1  0
  8 54  1  0
 10 55  1  0
 11 56  1  0
 12 57  1  0
 13 58  1  0
 16 59  1  1
 17 60  1  0
 17 61  1  0
 17 62  1  0
 19 63  1  0
 22 64  1  0
 28 65  1  0
 28 66  1  0
 32 67  1  0
 32 68  1  0
 33 69  1  0
 35 70  1  0
 36 71  1  0
 37 72  1  0
 38 73  1  0
 40 74  1  0
 42 75  1  0
 46 76  1  0
 49 77  1  0
 49 78  1  0
M  CHG  3   5  -1  23   1  26  -1
M  END
>  <EmbedRMS>  (266) 
0.0828247902617

$$$$

     RDKit          3D

 78 83  0  0  0  0  0  0  0  0999 V2000
   10.2805   43.7664   33.8250 C   0  0  0  0  0  0  0  0  0  0  0  0
   11.4111   43.5918   34.3667 O   0  0  0  0  0  0  0  0  0  0  0  0
    9.3619   42.7249   33.7347 O   0  0  0  0  0  0  0  0  0  0  0  0
    9.8900   41.2267   34.2944 P   0  0  0  0  0  0  0  0  0  0  0  0
   10.3728   41.4567   35.8839 O   0  0  0  0  0  0  0  0  0  0  0  0
    9.9460   45.0736   33.2113 C   0  0  1  0  0  0  0  0  0  0  0  0
   11.0267   46.0292   33.4709 N   0  0  0  0  0  0  0  0  0  0  0  0
    9.7540   44.8542   31.6950 C   0  0  0  0  0  0  0  0  0  0  0  0
    8.7958   45.8413   31.0851 C   0  0  0  0  0  0  0  0  0  0  0  0
    7.4092   45.6000   31.1008 C   0  0  0  0  0  0  0  0  0  0  0  0
    9.2824   46.9875   30.4395 C   0  0  0  0  0  0  0  0  0  0  0  0
    6.5257   46.4984   30.4856 C   0  0  0  0  0  0  0  0  0  0  0  0
    8.3998   47.8866   29.8305 C   0  0  0  0  0  0  0  0  0  0  0  0
    7.0177   47.6563   29.8473 C   0  0  0  0  0  0  0  0  0  0  0  0
    6.1855   48.5939   29.2132 O   0  0  0  0  0  0  0  0  0  0  0  0
    4.7556   48.5959   29.2265 C   0  0  1  0  0  0  0  0  0  0  0  0
    4.2338   49.0434   30.5987 C   0  0  0  0  0  0  0  0  0  0  0  0
    4.2602   49.5342   28.1406 C   0  0  0  0  0  0  0  0  0  0  0  0
    4.6621   50.8928   28.1836 C   0  0  0  0  0  0  0  0  0  0  0  0
    3.3716   49.1022   27.1006 C   0  0  0  0  0  0  0  0  0  0  0  0
    4.1449   51.7695   27.2389 C   0  0  0  0  0  0  0  0  0  0  0  0
    2.8641   50.0435   26.1764 C   0  0  0  0  0  0  0  0  0  0  0  0
    3.0036   47.7240   26.9500 N   0  0  0  0  0  0  0  0  0  0  0  0
    4.3862   53.1228   27.0999 O   0  0  0  0  0  0  0  0  0  0  0  0
    3.2792   51.3642   26.2817 C   0  0  0  0  0  0  0  0  0  0  0  0
    3.9831   46.7691   26.8025 O   0  0  0  0  0  0  0  0  0  0  0  0
    1.8221   47.4224   26.6831 O   0  0  0  0  0  0  0  0  0  0  0  0
    3.6217   53.5959   25.9825 C   0  0  0  0  0  0  0  0  0  0  0  0
    2.9299   52.4406   25.4891 O   0  0  0  0  0  0  0  0  0  0  0  0
    8.8127   40.1842   34.2128 O   0  0  0  0  0  0  0  0  0  0  0  0
   11.2414   40.7950   33.3705 O   0  0  0  0  0  0  0  0  0  0  0  0
   10.9178   40.6921   31.9983 C   0  0  0  0  0  0  0  0  0  0  0  0
   11.5175   39.3837   31.4423 C   0  0  0  0  0  0  0  0  0  0  0  0
   12.7507   39.0887   32.0753 O   0  0  0  0  0  0  0  0  0  0  0  0
   10.6027   38.1916   31.6659 C   0  0  0  0  0  0  0  0  0  0  0  0
   12.9384   37.6819   32.0278 C   0  0  0  0  0  0  0  0  0  0  0  0
    9.6371   38.0805   30.6470 O   0  0  0  0  0  0  0  0  0  0  0  0
   11.5780   37.0215   31.6935 C   0  0  0  0  0  0  0  0  0  0  0  0
   13.4844   37.2119   33.3242 N   0  0  0  0  0  0  0  0  0  0  0  0
   11.6095   36.3201   30.4679 O   0  0  0  0  0  0  0  0  0  0  0  0
   14.4797   36.3318   33.5730 C   0  0  0  0  0  0  0  0  0  0  0  0
   13.1136   37.6278   34.5691 C   0  0  0  0  0  0  0  0  0  0  0  0
   15.2073   35.6155   32.6742 N   0  0  0  0  0  0  0  0  0  0  0  0
   14.6754   36.2305   34.9184 C   0  0  0  0  0  0  0  0  0  0  0  0
   13.8213   37.0452   35.5785 N   0  0  0  0  0  0  0  0  0  0  0  0
   16.1640   34.7604   33.1549 C   0  0  0  0  0  0  0  0  0  0  0  0
   15.6525   35.3507   35.4132 C   0  0  0  0  0  0  0  0  0  0  0  0
   16.3794   34.6318   34.5044 N   0  0  0  0  0  0  0  0  0  0  0  0
   15.9000   35.1934   36.8091 N   0  0  0  0  0  0  0  0  0  0  0  0
    8.9996   45.4381   33.6723 H   0  0  0  0  0  0  0  0  0  0  0  0
   10.7765   46.9369   33.0160 H   0  0  0  0  0  0  0  0  0  0  0  0
   11.0503   46.2277   34.4983 H   0  0  0  0  0  0  0  0  0  0  0  0
   10.7412   44.9078   31.1837 H   0  0  0  0  0  0  0  0  0  0  0  0
    9.3645   43.8354   31.4712 H   0  0  0  0  0  0  0  0  0  0  0  0
    7.0155   44.7141   31.5839 H   0  0  0  0  0  0  0  0  0  0  0  0
   10.3463   47.1871   30.4047 H   0  0  0  0  0  0  0  0  0  0  0  0
    5.4698   46.2739   30.5131 H   0  0  0  0  0  0  0  0  0  0  0  0
    8.7925   48.7678   29.3391 H   0  0  0  0  0  0  0  0  0  0  0  0
    4.3809   47.5715   29.0481 H   0  0  0  0  0  0  0  0  0  0  0  0
    4.6630   50.0259   30.8864 H   0  0  0  0  0  0  0  0  0  0  0  0
    3.1258   49.1236   30.5779 H   0  0  0  0  0  0  0  0  0  0  0  0
    4.5109   48.3062   31.3796 H   0  0  0  0  0  0  0  0  0  0  0  0
    5.3473   51.2577   28.9380 H   0  0  0  0  0  0  0  0  0  0  0  0
    2.1889   49.7466   25.3841 H   0  0  0  0  0  0  0  0  0  0  0  0
    2.8938   54.3660   26.3137 H   0  0  0  0  0  0  0  0  0  0  0  0
    4.2963   54.0019   25.1999 H   0  0  0  0  0  0  0  0  0  0  0  0
   11.3950   41.5477   31.4741 H   0  0  0  0  0  0  0  0  0  0  0  0
    9.8290   40.7408   31.7625 H   0  0  0  0  0  0  0  0  0  0  0  0
   11.6982   39.5114   30.3500 H   0  0  0  0  0  0  0  0  0  0  0  0
   10.1117   38.2604   32.6661 H   0  0  0  0  0  0  0  0  0  0  0  0
   13.6767   37.4556   31.2267 H   0  0  0  0  0  0  0  0  0  0  0  0
    8.8960   38.6950   30.8873 H   0  0  0  0  0  0  0  0  0  0  0  0
   11.2791   36.3072   32.4922 H   0  0  0  0  0  0  0  0  0  0  0  0
   11.8828   36.9598   29.7589 H   0  0  0  0  0  0  0  0  0  0  0  0
   12.3300   38.3539   34.7446 H   0  0  0  0  0  0  0  0  0  0  0  0
   16.7561   34.1785   32.4622 H   0  0  0  0  0  0  0  0  0  0  0  0
   16.6347   34.5303   37.1416 H   0  0  0  0  0  0  0  0  0  0  0  0
   15.3531   35.7360   37.5140 H   0  0  0  0  0  0  0  0  0  0  0  0
  1  2  2  0
  1  3  1  0
  3  4  1  0
  4  5  1  0
  6  1  1  0
  7  6  1  0
  6  8  1  0
  8  9  1  0
  9 10  2  0
 11  9  1  0
 10 12  1  0
 13 11  2  0
 12 14  2  0
 14 13  1  0
 14 15  1  0
 15 16  1  0
 16 17  1  0
 16 18  1  0
 18 19  2  0
 20 18  1  0
 19 21  1  0
 22 20  2  0
 20 23  1  0
 21 24  1  0
 21 25  2  0
 25 22  1  0
 23 26  1  0
 23 27  2  0
 24 28  1  0
 25 29  1  0
 28 29  1  0
  4 30  2  0
  4 31  1  0
 32 31  1  0
 32 33  1  0
 33 34  1  0
 33 35  1  0
 34 36  1  0
 35 37  1  0
 35 38  1  0
 38 36  1  0
 36 39  1  0
 38 40  1  0
 41 39  1  0
 42 39  1  0
 43 41  2  0
 41 44  1  0
 45 42  2  0
 46 43  1  0
 44 47  2  0
 44 45  1  0
 48 46  2  0
 48 47  1  0
 47 49  1  0
  6 50  1  1
  7 51  1  0
  7 52  1  0
  8 53  1  0
  8 54  1  0
 10 55  1  0
 11 56  1  0
 12 57  1  0
 13 58  1  0
 16 59  1  6
 17 60  1  0
 17 61  1  0
 17 62  1  0
 19 63  1  0
 22 64  1  0
 28 65  1  0
 28 66  1  0
 32 67  1  0
 32 68  1  0
 33 69  1  0
 35 70  1  0
 36 71  1  0
 37 72  1  0
 38 73  1  0
 40 74  1  0
 42 75  1  0
 46 76  1  0
 49 77  1  0
 49 78  1  0
M  CHG  3   5  -1  23   1  26  -1
M  END
>  <EmbedRMS>  (267) 
0.0817706166297

$$$$

     RDKit          3D

 78 83  0  0  0  0  0  0  0  0999 V2000
   10.2830   43.7675   33.8279 C   0  0  0  0  0  0  0  0  0  0  0  0
   11.4101   43.5954   34.3769 O   0  0  0  0  0  0  0  0  0  0  0  0
    9.3642   42.7263   33.7384 O   0  0  0  0  0  0  0  0  0  0  0  0
    9.8928   41.2277   34.2954 P   0  0  0  0  0  0  0  0  0  0  0  0
   10.3764   41.4572   35.8851 O   0  0  0  0  0  0  0  0  0  0  0  0
    9.9533   45.0694   33.2042 C   0  0  1  0  0  0  0  0  0  0  0  0
   11.0262   46.0337   33.4741 N   0  0  0  0  0  0  0  0  0  0  0  0
    9.7421   44.8455   31.6887 C   0  0  0  0  0  0  0  0  0  0  0  0
    8.7893   45.8401   31.0883 C   0  0  0  0  0  0  0  0  0  0  0  0
    7.4021   45.5998   31.0915 C   0  0  0  0  0  0  0  0  0  0  0  0
    9.2824   46.9855   30.4488 C   0  0  0  0  0  0  0  0  0  0  0  0
    6.5270   46.4994   30.4674 C   0  0  0  0  0  0  0  0  0  0  0  0
    8.4069   47.8892   29.8402 C   0  0  0  0  0  0  0  0  0  0  0  0
    7.0188   47.6580   29.8498 C   0  0  0  0  0  0  0  0  0  0  0  0
    6.1042   48.5444   29.2566 O   0  0  0  0  0  0  0  0  0  0  0  0
    6.1107   49.9722   29.4083 C   0  0  1  0  0  0  0  0  0  0  0  0
    6.0317   50.3359   30.9011 C   0  0  0  0  0  0  0  0  0  0  0  0
    7.2509   50.6233   28.6196 C   0  0  0  0  0  0  0  0  0  0  0  0
    8.1942   51.4661   29.2748 C   0  0  0  0  0  0  0  0  0  0  0  0
    7.4271   50.3504   27.2124 C   0  0  0  0  0  0  0  0  0  0  0  0
    9.2671   51.9619   28.5472 C   0  0  0  0  0  0  0  0  0  0  0  0
    8.5421   50.8921   26.5276 C   0  0  0  0  0  0  0  0  0  0  0  0
    6.5149   49.5145   26.4716 N   0  0  0  0  0  0  0  0  0  0  0  0
   10.3059   52.7574   28.9915 O   0  0  0  0  0  0  0  0  0  0  0  0
    9.4332   51.6901   27.2324 C   0  0  0  0  0  0  0  0  0  0  0  0
    6.9724   48.7794   25.4028 O   0  0  0  0  0  0  0  0  0  0  0  0
    5.2868   49.5814   26.6678 O   0  0  0  0  0  0  0  0  0  0  0  0
   11.1804   53.0031   27.8781 C   0  0  0  0  0  0  0  0  0  0  0  0
   10.5819   52.3079   26.7730 O   0  0  0  0  0  0  0  0  0  0  0  0
    8.8137   40.1874   34.2122 O   0  0  0  0  0  0  0  0  0  0  0  0
   11.2432   40.7942   33.3699 O   0  0  0  0  0  0  0  0  0  0  0  0
   10.9183   40.6890   31.9978 C   0  0  0  0  0  0  0  0  0  0  0  0
   11.5168   39.3802   31.4402 C   0  0  0  0  0  0  0  0  0  0  0  0
   12.7497   39.0846   32.0706 O   0  0  0  0  0  0  0  0  0  0  0  0
   10.6013   38.1896   31.6657 C   0  0  0  0  0  0  0  0  0  0  0  0
   12.9322   37.6772   32.0272 C   0  0  0  0  0  0  0  0  0  0  0  0
    9.6361   38.0790   30.6461 O   0  0  0  0  0  0  0  0  0  0  0  0
   11.5715   37.0160   31.7045 C   0  0  0  0  0  0  0  0  0  0  0  0
   13.4857   37.2129   33.3232 N   0  0  0  0  0  0  0  0  0  0  0  0
   11.6182   36.3394   30.4676 O   0  0  0  0  0  0  0  0  0  0  0  0
   14.4823   36.3338   33.5722 C   0  0  0  0  0  0  0  0  0  0  0  0
   13.1132   37.6278   34.5683 C   0  0  0  0  0  0  0  0  0  0  0  0
   15.2067   35.6135   32.6740 N   0  0  0  0  0  0  0  0  0  0  0  0
   14.6772   36.2323   34.9177 C   0  0  0  0  0  0  0  0  0  0  0  0
   13.8204   37.0445   35.5778 N   0  0  0  0  0  0  0  0  0  0  0  0
   16.1615   34.7559   33.1542 C   0  0  0  0  0  0  0  0  0  0  0  0
   15.6535   35.3520   35.4126 C   0  0  0  0  0  0  0  0  0  0  0  0
   16.3783   34.6293   34.5040 N   0  0  0  0  0  0  0  0  0  0  0  0
   15.9026   35.1989   36.8087 N   0  0  0  0  0  0  0  0  0  0  0  0
    9.0098   45.4300   33.6734 H   0  0  0  0  0  0  0  0  0  0  0  0
   11.8920   45.7685   32.9487 H   0  0  0  0  0  0  0  0  0  0  0  0
   10.7256   46.9710   33.1206 H   0  0  0  0  0  0  0  0  0  0  0  0
   10.7152   44.8734   31.1504 H   0  0  0  0  0  0  0  0  0  0  0  0
    9.3328   43.8321   31.4780 H   0  0  0  0  0  0  0  0  0  0  0  0
    7.0005   44.7113   31.5606 H   0  0  0  0  0  0  0  0  0  0  0  0
   10.3475   47.1807   30.4153 H   0  0  0  0  0  0  0  0  0  0  0  0
    5.4629   46.3011   30.4760 H   0  0  0  0  0  0  0  0  0  0  0  0
    8.8324   48.7479   29.3528 H   0  0  0  0  0  0  0  0  0  0  0  0
    5.1637   50.3558   28.9759 H   0  0  0  0  0  0  0  0  0  0  0  0
    5.1585   49.8262   31.3602 H   0  0  0  0  0  0  0  0  0  0  0  0
    5.8985   51.4304   31.0300 H   0  0  0  0  0  0  0  0  0  0  0  0
    6.9457   50.0043   31.4384 H   0  0  0  0  0  0  0  0  0  0  0  0
    8.1330   51.7126   30.3254 H   0  0  0  0  0  0  0  0  0  0  0  0
    8.7107   50.7007   25.4739 H   0  0  0  0  0  0  0  0  0  0  0  0
   11.2376   54.0921   27.6611 H   0  0  0  0  0  0  0  0  0  0  0  0
   12.1906   52.5931   28.0838 H   0  0  0  0  0  0  0  0  0  0  0  0
    9.8303   40.7394   31.7625 H   0  0  0  0  0  0  0  0  0  0  0  0
   11.3934   41.5435   31.4729 H   0  0  0  0  0  0  0  0  0  0  0  0
   11.6978   39.5060   30.3478 H   0  0  0  0  0  0  0  0  0  0  0  0
   10.1056   38.2620   32.6625 H   0  0  0  0  0  0  0  0  0  0  0  0
   13.6623   37.4434   31.2201 H   0  0  0  0  0  0  0  0  0  0  0  0
    8.8980   38.6995   30.8818 H   0  0  0  0  0  0  0  0  0  0  0  0
   11.2825   36.3061   32.5158 H   0  0  0  0  0  0  0  0  0  0  0  0
   10.8502   35.7105   30.4572 H   0  0  0  0  0  0  0  0  0  0  0  0
   12.3278   38.3531   34.7432 H   0  0  0  0  0  0  0  0  0  0  0  0
   16.7528   34.1742   32.4593 H   0  0  0  0  0  0  0  0  0  0  0  0
   16.6338   34.5321   37.1399 H   0  0  0  0  0  0  0  0  0  0  0  0
   15.3525   35.7369   37.5153 H   0  0  0  0  0  0  0  0  0  0  0  0
  1  2  2  0
  1  3  1  0
  3  4  1  0
  4  5  1  0
  6  1  1  0
  7  6  1  0
  6  8  1  0
  8  9  1  0
  9 10  2  0
 11  9  1  0
 10 12  1  0
 13 11  2  0
 12 14  2  0
 14 13  1  0
 14 15  1  0
 15 16  1  0
 16 17  1  0
 16 18  1  0
 18 19  2  0
 20 18  1  0
 19 21  1  0
 22 20  2  0
 20 23  1  0
 21 24  1  0
 21 25  2  0
 25 22  1  0
 23 26  1  0
 23 27  2  0
 24 28  1  0
 25 29  1  0
 28 29  1  0
  4 30  2  0
  4 31  1  0
 32 31  1  0
 32 33  1  0
 33 34  1  0
 33 35  1  0
 34 36  1  0
 35 37  1  0
 35 38  1  0
 38 36  1  0
 36 39  1  0
 38 40  1  0
 41 39  1  0
 42 39  1  0
 43 41  2  0
 41 44  1  0
 45 42  2  0
 46 43  1  0
 44 47  2  0
 44 45  1  0
 48 46  2  0
 48 47  1  0
 47 49  1  0
  6 50  1  1
  7 51  1  0
  7 52  1  0
  8 53  1  0
  8 54  1  0
 10 55  1  0
 11 56  1  0
 12 57  1  0
 13 58  1  0
 16 59  1  6
 17 60  1  0
 17 61  1  0
 17 62  1  0
 19 63  1  0
 22 64  1  0
 28 65  1  0
 28 66  1  0
 32 67  1  0
 32 68  1  0
 33 69  1  0
 35 70  1  0
 36 71  1  0
 37 72  1  0
 38 73  1  0
 40 74  1  0
 42 75  1  0
 46 76  1  0
 49 77  1  0
 49 78  1  0
M  CHG  3   5  -1  23   1  26  -1
M  END
>  <EmbedRMS>  (268) 
0.0830981961943

$$$$

     RDKit          3D

 78 83  0  0  0  0  0  0  0  0999 V2000
   10.2838   43.7627   33.8277 C   0  0  0  0  0  0  0  0  0  0  0  0
   11.4103   43.5863   34.3767 O   0  0  0  0  0  0  0  0  0  0  0  0
    9.3630   42.7236   33.7355 O   0  0  0  0  0  0  0  0  0  0  0  0
    9.8894   41.2249   34.2944 P   0  0  0  0  0  0  0  0  0  0  0  0
   10.3728   41.4546   35.8838 O   0  0  0  0  0  0  0  0  0  0  0  0
    9.9548   45.0700   33.2066 C   0  0  1  0  0  0  0  0  0  0  0  0
   11.0198   46.0481   33.4569 N   0  0  0  0  0  0  0  0  0  0  0  0
    9.7500   44.8509   31.6926 C   0  0  0  0  0  0  0  0  0  0  0  0
    8.7941   45.8419   31.0874 C   0  0  0  0  0  0  0  0  0  0  0  0
    7.4075   45.6006   31.0993 C   0  0  0  0  0  0  0  0  0  0  0  0
    9.2831   46.9885   30.4443 C   0  0  0  0  0  0  0  0  0  0  0  0
    6.5284   46.5013   30.4829 C   0  0  0  0  0  0  0  0  0  0  0  0
    8.4037   47.8890   29.8314 C   0  0  0  0  0  0  0  0  0  0  0  0
    7.0144   47.6537   29.8500 C   0  0  0  0  0  0  0  0  0  0  0  0
    6.0861   48.5256   29.2577 O   0  0  0  0  0  0  0  0  0  0  0  0
    6.3841   49.8081   28.7046 C   0  0  1  0  0  0  0  0  0  0  0  0
    5.1770   50.3174   27.9160 C   0  0  0  0  0  0  0  0  0  0  0  0
    6.7918   50.8009   29.7852 C   0  0  0  0  0  0  0  0  0  0  0  0
    8.0414   51.4540   29.6442 C   0  0  0  0  0  0  0  0  0  0  0  0
    5.9480   51.1457   30.8975 C   0  0  0  0  0  0  0  0  0  0  0  0
    8.4091   52.4027   30.5889 C   0  0  0  0  0  0  0  0  0  0  0  0
    6.3696   52.1315   31.8169 C   0  0  0  0  0  0  0  0  0  0  0  0
    4.6628   50.5420   31.0975 N   0  0  0  0  0  0  0  0  0  0  0  0
    9.5693   53.1506   30.6481 O   0  0  0  0  0  0  0  0  0  0  0  0
    7.6082   52.7281   31.6283 C   0  0  0  0  0  0  0  0  0  0  0  0
    3.5871   51.3366   31.4198 O   0  0  0  0  0  0  0  0  0  0  0  0
    4.5675   49.3092   31.2593 O   0  0  0  0  0  0  0  0  0  0  0  0
    9.4902   53.9989   31.8017 C   0  0  0  0  0  0  0  0  0  0  0  0
    8.2215   53.6975   32.3985 O   0  0  0  0  0  0  0  0  0  0  0  0
    8.8113   40.1834   34.2130 O   0  0  0  0  0  0  0  0  0  0  0  0
   11.2399   40.7932   33.3693 O   0  0  0  0  0  0  0  0  0  0  0  0
   10.9143   40.6896   31.9973 C   0  0  0  0  0  0  0  0  0  0  0  0
   11.5260   39.3884   31.4375 C   0  0  0  0  0  0  0  0  0  0  0  0
   12.7504   39.0887   32.0815 O   0  0  0  0  0  0  0  0  0  0  0  0
   10.6115   38.1909   31.6460 C   0  0  0  0  0  0  0  0  0  0  0  0
   12.9357   37.6812   32.0303 C   0  0  0  0  0  0  0  0  0  0  0  0
    9.6146   38.0858   30.6533 O   0  0  0  0  0  0  0  0  0  0  0  0
   11.5769   37.0148   31.7012 C   0  0  0  0  0  0  0  0  0  0  0  0
   13.4849   37.2112   33.3247 N   0  0  0  0  0  0  0  0  0  0  0  0
   11.6193   36.3260   30.4724 O   0  0  0  0  0  0  0  0  0  0  0  0
   14.4802   36.3313   33.5730 C   0  0  0  0  0  0  0  0  0  0  0  0
   13.1141   37.6268   34.5697 C   0  0  0  0  0  0  0  0  0  0  0  0
   15.2074   35.6151   32.6741 N   0  0  0  0  0  0  0  0  0  0  0  0
   14.6761   36.2301   34.9184 C   0  0  0  0  0  0  0  0  0  0  0  0
   13.8220   37.0445   35.5789 N   0  0  0  0  0  0  0  0  0  0  0  0
   16.1642   34.7600   33.1547 C   0  0  0  0  0  0  0  0  0  0  0  0
   15.6529   35.3503   35.4132 C   0  0  0  0  0  0  0  0  0  0  0  0
   16.3798   34.6314   34.5042 N   0  0  0  0  0  0  0  0  0  0  0  0
   15.9004   35.1930   36.8090 N   0  0  0  0  0  0  0  0  0  0  0  0
    9.0099   45.4350   33.6674 H   0  0  0  0  0  0  0  0  0  0  0  0
   11.9348   45.6933   33.0924 H   0  0  0  0  0  0  0  0  0  0  0  0
   11.1135   46.1994   34.4882 H   0  0  0  0  0  0  0  0  0  0  0  0
    9.3506   43.8344   31.4765 H   0  0  0  0  0  0  0  0  0  0  0  0
   10.7302   44.8922   31.1677 H   0  0  0  0  0  0  0  0  0  0  0  0
    7.0108   44.7154   31.5809 H   0  0  0  0  0  0  0  0  0  0  0  0
   10.3477   47.1858   30.4129 H   0  0  0  0  0  0  0  0  0  0  0  0
    5.4639   46.3047   30.5013 H   0  0  0  0  0  0  0  0  0  0  0  0
    8.8191   48.7546   29.3387 H   0  0  0  0  0  0  0  0  0  0  0  0
    7.2022   49.6856   27.9602 H   0  0  0  0  0  0  0  0  0  0  0  0
    4.2688   50.3649   28.5500 H   0  0  0  0  0  0  0  0  0  0  0  0
    4.9697   49.6303   27.0684 H   0  0  0  0  0  0  0  0  0  0  0  0
    5.3863   51.3281   27.5045 H   0  0  0  0  0  0  0  0  0  0  0  0
    8.7054   51.2389   28.8167 H   0  0  0  0  0  0  0  0  0  0  0  0
    5.7522   52.4140   32.6601 H   0  0  0  0  0  0  0  0  0  0  0  0
    9.5265   55.0659   31.4971 H   0  0  0  0  0  0  0  0  0  0  0  0
   10.3123   53.7626   32.5094 H   0  0  0  0  0  0  0  0  0  0  0  0
   11.3782   41.5526   31.4733 H   0  0  0  0  0  0  0  0  0  0  0  0
    9.8233   40.7191   31.7644 H   0  0  0  0  0  0  0  0  0  0  0  0
   11.7282   39.5312   30.3515 H   0  0  0  0  0  0  0  0  0  0  0  0
   10.1127   38.2733   32.6376 H   0  0  0  0  0  0  0  0  0  0  0  0
   13.6693   37.4565   31.2242 H   0  0  0  0  0  0  0  0  0  0  0  0
   10.0533   38.1117   29.7635 H   0  0  0  0  0  0  0  0  0  0  0  0
   11.2607   36.3147   32.5101 H   0  0  0  0  0  0  0  0  0  0  0  0
   12.1496   35.5022   30.6323 H   0  0  0  0  0  0  0  0  0  0  0  0
   12.3301   38.3524   34.7455 H   0  0  0  0  0  0  0  0  0  0  0  0
   16.7563   34.1781   32.4619 H   0  0  0  0  0  0  0  0  0  0  0  0
   16.6351   34.5298   37.1415 H   0  0  0  0  0  0  0  0  0  0  0  0
   15.3536   35.7357   37.5140 H   0  0  0  0  0  0  0  0  0  0  0  0
  1  2  2  0
  1  3  1  0
  3  4  1  0
  4  5  1  0
  6  1  1  0
  7  6  1  0
  6  8  1  0
  8  9  1  0
  9 10  2  0
 11  9  1  0
 10 12  1  0
 13 11  2  0
 12 14  2  0
 14 13  1  0
 14 15  1  0
 15 16  1  0
 16 17  1  0
 16 18  1  0
 18 19  2  0
 20 18  1  0
 19 21  1  0
 22 20  2  0
 20 23  1  0
 21 24  1  0
 21 25  2  0
 25 22  1  0
 23 26  1  0
 23 27  2  0
 24 28  1  0
 25 29  1  0
 28 29  1  0
  4 30  2  0
  4 31  1  0
 32 31  1  0
 32 33  1  0
 33 34  1  0
 33 35  1  0
 34 36  1  0
 35 37  1  0
 35 38  1  0
 38 36  1  0
 36 39  1  0
 38 40  1  0
 41 39  1  0
 42 39  1  0
 43 41  2  0
 41 44  1  0
 45 42  2  0
 46 43  1  0
 44 47  2  0
 44 45  1  0
 48 46  2  0
 48 47  1  0
 47 49  1  0
  6 50  1  1
  7 51  1  0
  7 52  1  0
  8 53  1  0
  8 54  1  0
 10 55  1  0
 11 56  1  0
 12 57  1  0
 13 58  1  0
 16 59  1  6
 17 60  1  0
 17 61  1  0
 17 62  1  0
 19 63  1  0
 22 64  1  0
 28 65  1  0
 28 66  1  0
 32 67  1  0
 32 68  1  0
 33 69  1  0
 35 70  1  0
 36 71  1  0
 37 72  1  0
 38 73  1  0
 40 74  1  0
 42 75  1  0
 46 76  1  0
 49 77  1  0
 49 78  1  0
M  CHG  3   5  -1  23   1  26  -1
M  END
>  <EmbedRMS>  (269) 
0.0825199016958

$$$$

     RDKit          3D

 78 83  0  0  0  0  0  0  0  0999 V2000
   10.2803   43.7665   33.8249 C   0  0  0  0  0  0  0  0  0  0  0  0
   11.4110   43.5918   34.3666 O   0  0  0  0  0  0  0  0  0  0  0  0
    9.3616   42.7251   33.7347 O   0  0  0  0  0  0  0  0  0  0  0  0
    9.8895   41.2269   34.2945 P   0  0  0  0  0  0  0  0  0  0  0  0
   10.3731   41.4568   35.8837 O   0  0  0  0  0  0  0  0  0  0  0  0
    9.9460   45.0737   33.2111 C   0  0  1  0  0  0  0  0  0  0  0  0
   11.0267   46.0292   33.4708 N   0  0  0  0  0  0  0  0  0  0  0  0
    9.7540   44.8542   31.6947 C   0  0  0  0  0  0  0  0  0  0  0  0
    8.7957   45.8412   31.0848 C   0  0  0  0  0  0  0  0  0  0  0  0
    7.4089   45.6001   31.1015 C   0  0  0  0  0  0  0  0  0  0  0  0
    9.2823   46.9882   30.4399 C   0  0  0  0  0  0  0  0  0  0  0  0
    6.5258   46.4991   30.4872 C   0  0  0  0  0  0  0  0  0  0  0  0
    8.3997   47.8877   29.8314 C   0  0  0  0  0  0  0  0  0  0  0  0
    7.0186   47.6537   29.8449 C   0  0  0  0  0  0  0  0  0  0  0  0
    6.1813   48.5829   29.2053 O   0  0  0  0  0  0  0  0  0  0  0  0
    4.7630   48.4635   29.0750 C   0  0  1  0  0  0  0  0  0  0  0  0
    4.1745   49.7819   28.5739 C   0  0  0  0  0  0  0  0  0  0  0  0
    4.3592   47.3162   28.1601 C   0  0  0  0  0  0  0  0  0  0  0  0
    3.1405   46.6568   28.4520 C   0  0  0  0  0  0  0  0  0  0  0  0
    5.1626   46.8474   27.0627 C   0  0  0  0  0  0  0  0  0  0  0  0
    2.7746   45.5602   27.6837 C   0  0  0  0  0  0  0  0  0  0  0  0
    4.7434   45.7153   26.3263 C   0  0  0  0  0  0  0  0  0  0  0  0
    6.3928   47.4866   26.6876 N   0  0  0  0  0  0  0  0  0  0  0  0
    1.6463   44.7707   27.7962 O   0  0  0  0  0  0  0  0  0  0  0  0
    3.5439   45.1069   26.6685 C   0  0  0  0  0  0  0  0  0  0  0  0
    6.4341   48.8438   26.4737 O   0  0  0  0  0  0  0  0  0  0  0  0
    7.3746   46.7943   26.3481 O   0  0  0  0  0  0  0  0  0  0  0  0
    1.7135   43.7566   26.7844 C   0  0  0  0  0  0  0  0  0  0  0  0
    2.9411   44.0082   26.0869 O   0  0  0  0  0  0  0  0  0  0  0  0
    8.8122   40.1844   34.2135 O   0  0  0  0  0  0  0  0  0  0  0  0
   11.2401   40.7950   33.3698 O   0  0  0  0  0  0  0  0  0  0  0  0
   10.9143   40.6914   31.9980 C   0  0  0  0  0  0  0  0  0  0  0  0
   11.5269   39.3912   31.4385 C   0  0  0  0  0  0  0  0  0  0  0  0
   12.7519   39.0911   32.0837 O   0  0  0  0  0  0  0  0  0  0  0  0
   10.6113   38.1932   31.6451 C   0  0  0  0  0  0  0  0  0  0  0  0
   12.9413   37.6838   32.0297 C   0  0  0  0  0  0  0  0  0  0  0  0
    9.6064   38.0878   30.6599 O   0  0  0  0  0  0  0  0  0  0  0  0
   11.5822   37.0197   31.6877 C   0  0  0  0  0  0  0  0  0  0  0  0
   13.4840   37.2105   33.3254 N   0  0  0  0  0  0  0  0  0  0  0  0
   11.6179   36.3072   30.4690 O   0  0  0  0  0  0  0  0  0  0  0  0
   14.4797   36.3309   33.5738 C   0  0  0  0  0  0  0  0  0  0  0  0
   13.1136   37.6269   34.5702 C   0  0  0  0  0  0  0  0  0  0  0  0
   15.2074   35.6152   32.6747 N   0  0  0  0  0  0  0  0  0  0  0  0
   14.6756   36.2298   34.9190 C   0  0  0  0  0  0  0  0  0  0  0  0
   13.8217   37.0445   35.5793 N   0  0  0  0  0  0  0  0  0  0  0  0
   16.1643   34.7603   33.1551 C   0  0  0  0  0  0  0  0  0  0  0  0
   15.6528   35.3503   35.4136 C   0  0  0  0  0  0  0  0  0  0  0  0
   16.3798   34.6316   34.5046 N   0  0  0  0  0  0  0  0  0  0  0  0
   15.9004   35.1930   36.8094 N   0  0  0  0  0  0  0  0  0  0  0  0
    8.9996   45.4382   33.6720 H   0  0  0  0  0  0  0  0  0  0  0  0
   11.0502   46.2278   34.4981 H   0  0  0  0  0  0  0  0  0  0  0  0
   10.7766   46.9369   33.0157 H   0  0  0  0  0  0  0  0  0  0  0  0
    9.3645   43.8355   31.4710 H   0  0  0  0  0  0  0  0  0  0  0  0
   10.7411   44.9080   31.1834 H   0  0  0  0  0  0  0  0  0  0  0  0
    7.0148   44.7154   31.5862 H   0  0  0  0  0  0  0  0  0  0  0  0
   10.3462   47.1878   30.4051 H   0  0  0  0  0  0  0  0  0  0  0  0
    5.4675   46.2829   30.5187 H   0  0  0  0  0  0  0  0  0  0  0  0
    8.7916   48.7678   29.3376 H   0  0  0  0  0  0  0  0  0  0  0  0
    4.3408   48.2984   30.0919 H   0  0  0  0  0  0  0  0  0  0  0  0
    3.0646   49.7321   28.5858 H   0  0  0  0  0  0  0  0  0  0  0  0
    4.5058   50.0074   27.5408 H   0  0  0  0  0  0  0  0  0  0  0  0
    4.4940   50.6120   29.2390 H   0  0  0  0  0  0  0  0  0  0  0  0
    2.5034   46.9809   29.2654 H   0  0  0  0  0  0  0  0  0  0  0  0
    5.3285   45.3335   25.4995 H   0  0  0  0  0  0  0  0  0  0  0  0
    1.7374   42.7495   27.2509 H   0  0  0  0  0  0  0  0  0  0  0  0
    0.8523   43.8493   26.0899 H   0  0  0  0  0  0  0  0  0  0  0  0
   11.3775   41.5548   31.4741 H   0  0  0  0  0  0  0  0  0  0  0  0
    9.8233   40.7200   31.7651 H   0  0  0  0  0  0  0  0  0  0  0  0
   11.7312   39.5362   30.3532 H   0  0  0  0  0  0  0  0  0  0  0  0
   10.1202   38.2696   32.6410 H   0  0  0  0  0  0  0  0  0  0  0  0
   13.6850   37.4639   31.2321 H   0  0  0  0  0  0  0  0  0  0  0  0
   10.0250   38.1792   29.7654 H   0  0  0  0  0  0  0  0  0  0  0  0
   11.2757   36.3135   32.4907 H   0  0  0  0  0  0  0  0  0  0  0  0
   11.9838   36.9111   29.7708 H   0  0  0  0  0  0  0  0  0  0  0  0
   12.3307   38.3536   34.7458 H   0  0  0  0  0  0  0  0  0  0  0  0
   16.7566   34.1787   32.4623 H   0  0  0  0  0  0  0  0  0  0  0  0
   15.3535   35.7355   37.5144 H   0  0  0  0  0  0  0  0  0  0  0  0
   16.6353   34.5301   37.1419 H   0  0  0  0  0  0  0  0  0  0  0  0
  1  2  2  0
  1  3  1  0
  3  4  1  0
  4  5  1  0
  6  1  1  0
  7  6  1  0
  6  8  1  0
  8  9  1  0
  9 10  2  0
 11  9  1  0
 10 12  1  0
 13 11  2  0
 12 14  2  0
 14 13  1  0
 14 15  1  0
 15 16  1  0
 16 17  1  0
 16 18  1  0
 18 19  2  0
 20 18  1  0
 19 21  1  0
 22 20  2  0
 20 23  1  0
 21 24  1  0
 21 25  2  0
 25 22  1  0
 23 26  1  0
 23 27  2  0
 24 28  1  0
 25 29  1  0
 28 29  1  0
  4 30  2  0
  4 31  1  0
 32 31  1  0
 32 33  1  0
 33 34  1  0
 33 35  1  0
 34 36  1  0
 35 37  1  0
 35 38  1  0
 38 36  1  0
 36 39  1  0
 38 40  1  0
 41 39  1  0
 42 39  1  0
 43 41  2  0
 41 44  1  0
 45 42  2  0
 46 43  1  0
 44 47  2  0
 44 45  1  0
 48 46  2  0
 48 47  1  0
 47 49  1  0
  6 50  1  1
  7 51  1  0
  7 52  1  0
  8 53  1  0
  8 54  1  0
 10 55  1  0
 11 56  1  0
 12 57  1  0
 13 58  1  0
 16 59  1  1
 17 60  1  0
 17 61  1  0
 17 62  1  0
 19 63  1  0
 22 64  1  0
 28 65  1  0
 28 66  1  0
 32 67  1  0
 32 68  1  0
 33 69  1  0
 35 70  1  0
 36 71  1  0
 37 72  1  0
 38 73  1  0
 40 74  1  0
 42 75  1  0
 46 76  1  0
 49 77  1  0
 49 78  1  0
M  CHG  3   5  -1  23   1  26  -1
M  END
>  <EmbedRMS>  (270) 
0.0806488596114

$$$$

     RDKit          3D

 78 83  0  0  0  0  0  0  0  0999 V2000
   10.2839   43.7626   33.8276 C   0  0  0  0  0  0  0  0  0  0  0  0
   11.4104   43.5862   34.3767 O   0  0  0  0  0  0  0  0  0  0  0  0
    9.3631   42.7236   33.7353 O   0  0  0  0  0  0  0  0  0  0  0  0
    9.8894   41.2249   34.2944 P   0  0  0  0  0  0  0  0  0  0  0  0
   10.3726   41.4546   35.8838 O   0  0  0  0  0  0  0  0  0  0  0  0
    9.9550   45.0700   33.2065 C   0  0  1  0  0  0  0  0  0  0  0  0
   11.0199   46.0481   33.4572 N   0  0  0  0  0  0  0  0  0  0  0  0
    9.7506   44.8512   31.6924 C   0  0  0  0  0  0  0  0  0  0  0  0
    8.7945   45.8422   31.0874 C   0  0  0  0  0  0  0  0  0  0  0  0
    7.4079   45.6005   31.1000 C   0  0  0  0  0  0  0  0  0  0  0  0
    9.2827   46.9888   30.4443 C   0  0  0  0  0  0  0  0  0  0  0  0
    6.5255   46.4992   30.4841 C   0  0  0  0  0  0  0  0  0  0  0  0
    8.4010   47.8871   29.8323 C   0  0  0  0  0  0  0  0  0  0  0  0
    7.0187   47.6571   29.8473 C   0  0  0  0  0  0  0  0  0  0  0  0
    6.1880   48.5950   29.2119 O   0  0  0  0  0  0  0  0  0  0  0  0
    4.7602   48.6209   29.2523 C   0  0  1  0  0  0  0  0  0  0  0  0
    4.2503   49.0441   30.6371 C   0  0  0  0  0  0  0  0  0  0  0  0
    4.2341   49.5452   28.1645 C   0  0  0  0  0  0  0  0  0  0  0  0
    3.3952   48.9835   27.1690 C   0  0  0  0  0  0  0  0  0  0  0  0
    4.5098   50.9574   28.1257 C   0  0  0  0  0  0  0  0  0  0  0  0
    2.8532   49.8197   26.2023 C   0  0  0  0  0  0  0  0  0  0  0  0
    3.9147   51.7589   27.1258 C   0  0  0  0  0  0  0  0  0  0  0  0
    5.3613   51.5993   29.0860 N   0  0  0  0  0  0  0  0  0  0  0  0
    2.0155   49.4904   25.1540 O   0  0  0  0  0  0  0  0  0  0  0  0
    3.0992   51.1488   26.1835 C   0  0  0  0  0  0  0  0  0  0  0  0
    4.9984   52.8214   29.6029 O   0  0  0  0  0  0  0  0  0  0  0  0
    6.5291   51.1974   29.2599 O   0  0  0  0  0  0  0  0  0  0  0  0
    1.7183   50.6927   24.4309 C   0  0  0  0  0  0  0  0  0  0  0  0
    2.4304   51.7278   25.1222 O   0  0  0  0  0  0  0  0  0  0  0  0
    8.8113   40.1834   34.2129 O   0  0  0  0  0  0  0  0  0  0  0  0
   11.2402   40.7930   33.3696 O   0  0  0  0  0  0  0  0  0  0  0  0
   10.9151   40.6903   31.9975 C   0  0  0  0  0  0  0  0  0  0  0  0
   11.5252   39.3885   31.4375 C   0  0  0  0  0  0  0  0  0  0  0  0
   12.7500   39.0873   32.0798 O   0  0  0  0  0  0  0  0  0  0  0  0
   10.6092   38.1925   31.6469 C   0  0  0  0  0  0  0  0  0  0  0  0
   12.9332   37.6792   32.0294 C   0  0  0  0  0  0  0  0  0  0  0  0
    9.6122   38.0894   30.6542 O   0  0  0  0  0  0  0  0  0  0  0  0
   11.5743   37.0144   31.7024 C   0  0  0  0  0  0  0  0  0  0  0  0
   13.4844   37.2107   33.3241 N   0  0  0  0  0  0  0  0  0  0  0  0
   11.6297   36.3238   30.4740 O   0  0  0  0  0  0  0  0  0  0  0  0
   14.4802   36.3313   33.5726 C   0  0  0  0  0  0  0  0  0  0  0  0
   13.1139   37.6267   34.5692 C   0  0  0  0  0  0  0  0  0  0  0  0
   15.2075   35.6149   32.6739 N   0  0  0  0  0  0  0  0  0  0  0  0
   14.6761   36.2303   34.9181 C   0  0  0  0  0  0  0  0  0  0  0  0
   13.8220   37.0447   35.5784 N   0  0  0  0  0  0  0  0  0  0  0  0
   16.1643   34.7600   33.1547 C   0  0  0  0  0  0  0  0  0  0  0  0
   15.6529   35.3505   35.4130 C   0  0  0  0  0  0  0  0  0  0  0  0
   16.3798   34.6315   34.5042 N   0  0  0  0  0  0  0  0  0  0  0  0
   15.9003   35.1932   36.8090 N   0  0  0  0  0  0  0  0  0  0  0  0
    9.0099   45.4348   33.6671 H   0  0  0  0  0  0  0  0  0  0  0  0
   11.9350   45.6933   33.0930 H   0  0  0  0  0  0  0  0  0  0  0  0
   11.1133   46.1992   34.4886 H   0  0  0  0  0  0  0  0  0  0  0  0
   10.7310   44.8933   31.1677 H   0  0  0  0  0  0  0  0  0  0  0  0
    9.3518   43.8346   31.4759 H   0  0  0  0  0  0  0  0  0  0  0  0
    7.0133   44.7134   31.5802 H   0  0  0  0  0  0  0  0  0  0  0  0
   10.3467   47.1888   30.4141 H   0  0  0  0  0  0  0  0  0  0  0  0
    5.4698   46.2732   30.5067 H   0  0  0  0  0  0  0  0  0  0  0  0
    8.7944   48.7688   29.3422 H   0  0  0  0  0  0  0  0  0  0  0  0
    4.3818   47.5944   29.0563 H   0  0  0  0  0  0  0  0  0  0  0  0
    4.4861   48.2657   31.3908 H   0  0  0  0  0  0  0  0  0  0  0  0
    4.7206   49.9900   30.9715 H   0  0  0  0  0  0  0  0  0  0  0  0
    3.1473   49.1754   30.6146 H   0  0  0  0  0  0  0  0  0  0  0  0
    3.1582   47.9272   27.1528 H   0  0  0  0  0  0  0  0  0  0  0  0
    4.0980   52.8246   27.0764 H   0  0  0  0  0  0  0  0  0  0  0  0
    0.6271   50.8959   24.4556 H   0  0  0  0  0  0  0  0  0  0  0  0
    2.0807   50.6112   23.3847 H   0  0  0  0  0  0  0  0  0  0  0  0
   11.3806   41.5528   31.4740 H   0  0  0  0  0  0  0  0  0  0  0  0
    9.8243   40.7216   31.7640 H   0  0  0  0  0  0  0  0  0  0  0  0
   11.7265   39.5311   30.3512 H   0  0  0  0  0  0  0  0  0  0  0  0
   10.1110   38.2746   32.6387 H   0  0  0  0  0  0  0  0  0  0  0  0
   13.6652   37.4518   31.2226 H   0  0  0  0  0  0  0  0  0  0  0  0
   10.0511   38.1142   29.7645 H   0  0  0  0  0  0  0  0  0  0  0  0
   11.2762   36.3141   32.5189 H   0  0  0  0  0  0  0  0  0  0  0  0
   10.8593   35.6977   30.4640 H   0  0  0  0  0  0  0  0  0  0  0  0
   12.3295   38.3518   34.7449 H   0  0  0  0  0  0  0  0  0  0  0  0
   16.7564   34.1779   32.4620 H   0  0  0  0  0  0  0  0  0  0  0  0
   15.3534   35.7359   37.5138 H   0  0  0  0  0  0  0  0  0  0  0  0
   16.6349   34.5300   37.1415 H   0  0  0  0  0  0  0  0  0  0  0  0
  1  2  2  0
  1  3  1  0
  3  4  1  0
  4  5  1  0
  6  1  1  0
  7  6  1  0
  6  8  1  0
  8  9  1  0
  9 10  2  0
 11  9  1  0
 10 12  1  0
 13 11  2  0
 12 14  2  0
 14 13  1  0
 14 15  1  0
 15 16  1  0
 16 17  1  0
 16 18  1  0
 18 19  2  0
 20 18  1  0
 19 21  1  0
 22 20  2  0
 20 23  1  0
 21 24  1  0
 21 25  2  0
 25 22  1  0
 23 26  1  0
 23 27  2  0
 24 28  1  0
 25 29  1  0
 28 29  1  0
  4 30  2  0
  4 31  1  0
 32 31  1  0
 32 33  1  0
 33 34  1  0
 33 35  1  0
 34 36  1  0
 35 37  1  0
 35 38  1  0
 38 36  1  0
 36 39  1  0
 38 40  1  0
 41 39  1  0
 42 39  1  0
 43 41  2  0
 41 44  1  0
 45 42  2  0
 46 43  1  0
 44 47  2  0
 44 45  1  0
 48 46  2  0
 48 47  1  0
 47 49  1  0
  6 50  1  1
  7 51  1  0
  7 52  1  0
  8 53  1  0
  8 54  1  0
 10 55  1  0
 11 56  1  0
 12 57  1  0
 13 58  1  0
 16 59  1  6
 17 60  1  0
 17 61  1  0
 17 62  1  0
 19 63  1  0
 22 64  1  0
 28 65  1  0
 28 66  1  0
 32 67  1  0
 32 68  1  0
 33 69  1  0
 35 70  1  0
 36 71  1  0
 37 72  1  0
 38 73  1  0
 40 74  1  0
 42 75  1  0
 46 76  1  0
 49 77  1  0
 49 78  1  0
M  CHG  3   5  -1  23   1  26  -1
M  END
>  <EmbedRMS>  (271) 
0.0826873967344

$$$$

     RDKit          3D

 78 83  0  0  0  0  0  0  0  0999 V2000
   10.2838   43.7627   33.8278 C   0  0  0  0  0  0  0  0  0  0  0  0
   11.4103   43.5863   34.3767 O   0  0  0  0  0  0  0  0  0  0  0  0
    9.3628   42.7238   33.7358 O   0  0  0  0  0  0  0  0  0  0  0  0
    9.8891   41.2252   34.2949 P   0  0  0  0  0  0  0  0  0  0  0  0
   10.3724   41.4548   35.8843 O   0  0  0  0  0  0  0  0  0  0  0  0
    9.9548   45.0700   33.2066 C   0  0  1  0  0  0  0  0  0  0  0  0
   11.0198   46.0481   33.4569 N   0  0  0  0  0  0  0  0  0  0  0  0
    9.7500   44.8509   31.6926 C   0  0  0  0  0  0  0  0  0  0  0  0
    8.7941   45.8419   31.0874 C   0  0  0  0  0  0  0  0  0  0  0  0
    7.4075   45.6007   31.0995 C   0  0  0  0  0  0  0  0  0  0  0  0
    9.2831   46.9886   30.4444 C   0  0  0  0  0  0  0  0  0  0  0  0
    6.5284   46.5013   30.4830 C   0  0  0  0  0  0  0  0  0  0  0  0
    8.4037   47.8891   29.8315 C   0  0  0  0  0  0  0  0  0  0  0  0
    7.0143   47.6536   29.8496 C   0  0  0  0  0  0  0  0  0  0  0  0
    6.0858   48.5252   29.2565 O   0  0  0  0  0  0  0  0  0  0  0  0
    6.3910   49.7913   28.6708 C   0  0  1  0  0  0  0  0  0  0  0  0
    5.1833   50.2889   27.8761 C   0  0  0  0  0  0  0  0  0  0  0  0
    6.8059   50.8062   29.7262 C   0  0  0  0  0  0  0  0  0  0  0  0
    8.0460   51.4704   29.5591 C   0  0  0  0  0  0  0  0  0  0  0  0
    5.9739   51.1560   30.8429 C   0  0  0  0  0  0  0  0  0  0  0  0
    8.4154   52.4356   30.4868 C   0  0  0  0  0  0  0  0  0  0  0  0
    6.3957   52.1561   31.7467 C   0  0  0  0  0  0  0  0  0  0  0  0
    4.7043   50.5305   31.0644 N   0  0  0  0  0  0  0  0  0  0  0  0
    9.5675   53.1974   30.5211 O   0  0  0  0  0  0  0  0  0  0  0  0
    7.6247   52.7649   31.5336 C   0  0  0  0  0  0  0  0  0  0  0  0
    4.6487   49.2011   31.4091 O   0  0  0  0  0  0  0  0  0  0  0  0
    3.6924   51.2399   31.2389 O   0  0  0  0  0  0  0  0  0  0  0  0
    9.4941   54.0589   31.6653 C   0  0  0  0  0  0  0  0  0  0  0  0
    8.2372   53.7505   32.2833 O   0  0  0  0  0  0  0  0  0  0  0  0
    8.8112   40.1834   34.2131 O   0  0  0  0  0  0  0  0  0  0  0  0
   11.2398   40.7938   33.3702 O   0  0  0  0  0  0  0  0  0  0  0  0
   10.9144   40.6912   31.9983 C   0  0  0  0  0  0  0  0  0  0  0  0
   11.5270   39.3911   31.4385 C   0  0  0  0  0  0  0  0  0  0  0  0
   12.7520   39.0911   32.0836 O   0  0  0  0  0  0  0  0  0  0  0  0
   10.6114   38.1931   31.6451 C   0  0  0  0  0  0  0  0  0  0  0  0
   12.9413   37.6837   32.0297 C   0  0  0  0  0  0  0  0  0  0  0  0
    9.6064   38.0877   30.6599 O   0  0  0  0  0  0  0  0  0  0  0  0
   11.5822   37.0197   31.6876 C   0  0  0  0  0  0  0  0  0  0  0  0
   13.4840   37.2104   33.3254 N   0  0  0  0  0  0  0  0  0  0  0  0
   11.6179   36.3071   30.4690 O   0  0  0  0  0  0  0  0  0  0  0  0
   14.4797   36.3309   33.5738 C   0  0  0  0  0  0  0  0  0  0  0  0
   13.1136   37.6269   34.5702 C   0  0  0  0  0  0  0  0  0  0  0  0
   15.2074   35.6152   32.6747 N   0  0  0  0  0  0  0  0  0  0  0  0
   14.6756   36.2298   34.9190 C   0  0  0  0  0  0  0  0  0  0  0  0
   13.8217   37.0445   35.5793 N   0  0  0  0  0  0  0  0  0  0  0  0
   16.1643   34.7603   33.1551 C   0  0  0  0  0  0  0  0  0  0  0  0
   15.6528   35.3503   35.4136 C   0  0  0  0  0  0  0  0  0  0  0  0
   16.3798   34.6316   34.5046 N   0  0  0  0  0  0  0  0  0  0  0  0
   15.9004   35.1930   36.8094 N   0  0  0  0  0  0  0  0  0  0  0  0
    9.0099   45.4351   33.6673 H   0  0  0  0  0  0  0  0  0  0  0  0
   11.9348   45.6933   33.0924 H   0  0  0  0  0  0  0  0  0  0  0  0
   11.1135   46.1994   34.4881 H   0  0  0  0  0  0  0  0  0  0  0  0
    9.3506   43.8344   31.4765 H   0  0  0  0  0  0  0  0  0  0  0  0
   10.7302   44.8922   31.1677 H   0  0  0  0  0  0  0  0  0  0  0  0
    7.0108   44.7154   31.5811 H   0  0  0  0  0  0  0  0  0  0  0  0
   10.3476   47.1862   30.4135 H   0  0  0  0  0  0  0  0  0  0  0  0
    5.4639   46.3044   30.5012 H   0  0  0  0  0  0  0  0  0  0  0  0
    8.8192   48.7559   29.3407 H   0  0  0  0  0  0  0  0  0  0  0  0
    7.2063   49.6469   27.9272 H   0  0  0  0  0  0  0  0  0  0  0  0
    4.2788   50.3561   28.5138 H   0  0  0  0  0  0  0  0  0  0  0  0
    5.3961   51.2884   27.4399 H   0  0  0  0  0  0  0  0  0  0  0  0
    4.9679   49.5831   27.0459 H   0  0  0  0  0  0  0  0  0  0  0  0
    8.7012   51.2499   28.7259 H   0  0  0  0  0  0  0  0  0  0  0  0
    5.7852   52.4403   32.5943 H   0  0  0  0  0  0  0  0  0  0  0  0
    9.5140   55.1224   31.3472 H   0  0  0  0  0  0  0  0  0  0  0  0
   10.3285   53.8408   32.3644 H   0  0  0  0  0  0  0  0  0  0  0  0
    9.8235   40.7202   31.7651 H   0  0  0  0  0  0  0  0  0  0  0  0
   11.3780   41.5548   31.4751 H   0  0  0  0  0  0  0  0  0  0  0  0
   11.7311   39.5363   30.3532 H   0  0  0  0  0  0  0  0  0  0  0  0
   10.1203   38.2695   32.6410 H   0  0  0  0  0  0  0  0  0  0  0  0
   13.6850   37.4638   31.2321 H   0  0  0  0  0  0  0  0  0  0  0  0
   10.0250   38.1792   29.7654 H   0  0  0  0  0  0  0  0  0  0  0  0
   11.2757   36.3135   32.4907 H   0  0  0  0  0  0  0  0  0  0  0  0
   11.9838   36.9111   29.7708 H   0  0  0  0  0  0  0  0  0  0  0  0
   12.3307   38.3536   34.7457 H   0  0  0  0  0  0  0  0  0  0  0  0
   16.7566   34.1786   32.4623 H   0  0  0  0  0  0  0  0  0  0  0  0
   16.6353   34.5301   37.1419 H   0  0  0  0  0  0  0  0  0  0  0  0
   15.3535   35.7355   37.5144 H   0  0  0  0  0  0  0  0  0  0  0  0
  1  2  2  0
  1  3  1  0
  3  4  1  0
  4  5  1  0
  6  1  1  0
  7  6  1  0
  6  8  1  0
  8  9  1  0
  9 10  2  0
 11  9  1  0
 10 12  1  0
 13 11  2  0
 12 14  2  0
 14 13  1  0
 14 15  1  0
 15 16  1  0
 16 17  1  0
 16 18  1  0
 18 19  2  0
 20 18  1  0
 19 21  1  0
 22 20  2  0
 20 23  1  0
 21 24  1  0
 21 25  2  0
 25 22  1  0
 23 26  1  0
 23 27  2  0
 24 28  1  0
 25 29  1  0
 28 29  1  0
  4 30  2  0
  4 31  1  0
 32 31  1  0
 32 33  1  0
 33 34  1  0
 33 35  1  0
 34 36  1  0
 35 37  1  0
 35 38  1  0
 38 36  1  0
 36 39  1  0
 38 40  1  0
 41 39  1  0
 42 39  1  0
 43 41  2  0
 41 44  1  0
 45 42  2  0
 46 43  1  0
 44 47  2  0
 44 45  1  0
 48 46  2  0
 48 47  1  0
 47 49  1  0
  6 50  1  1
  7 51  1  0
  7 52  1  0
  8 53  1  0
  8 54  1  0
 10 55  1  0
 11 56  1  0
 12 57  1  0
 13 58  1  0
 16 59  1  6
 17 60  1  0
 17 61  1  0
 17 62  1  0
 19 63  1  0
 22 64  1  0
 28 65  1  0
 28 66  1  0
 32 67  1  0
 32 68  1  0
 33 69  1  0
 35 70  1  0
 36 71  1  0
 37 72  1  0
 38 73  1  0
 40 74  1  0
 42 75  1  0
 46 76  1  0
 49 77  1  0
 49 78  1  0
M  CHG  3   5  -1  23   1  26  -1
M  END
>  <EmbedRMS>  (272) 
0.0817359645637

$$$$

     RDKit          3D

 78 83  0  0  0  0  0  0  0  0999 V2000
   10.2805   43.7664   33.8249 C   0  0  0  0  0  0  0  0  0  0  0  0
   11.4111   43.5918   34.3667 O   0  0  0  0  0  0  0  0  0  0  0  0
    9.3619   42.7249   33.7344 O   0  0  0  0  0  0  0  0  0  0  0  0
    9.8899   41.2266   34.2940 P   0  0  0  0  0  0  0  0  0  0  0  0
   10.3734   41.4567   35.8833 O   0  0  0  0  0  0  0  0  0  0  0  0
    9.9460   45.0736   33.2112 C   0  0  1  0  0  0  0  0  0  0  0  0
   11.0267   46.0292   33.4709 N   0  0  0  0  0  0  0  0  0  0  0  0
    9.7541   44.8542   31.6949 C   0  0  0  0  0  0  0  0  0  0  0  0
    8.7958   45.8413   31.0850 C   0  0  0  0  0  0  0  0  0  0  0  0
    7.4092   45.6001   31.1010 C   0  0  0  0  0  0  0  0  0  0  0  0
    9.2824   46.9877   30.4396 C   0  0  0  0  0  0  0  0  0  0  0  0
    6.5257   46.4984   30.4858 C   0  0  0  0  0  0  0  0  0  0  0  0
    8.3997   47.8868   29.8308 C   0  0  0  0  0  0  0  0  0  0  0  0
    7.0178   47.6558   29.8467 C   0  0  0  0  0  0  0  0  0  0  0  0
    6.1861   48.5918   29.2092 O   0  0  0  0  0  0  0  0  0  0  0  0
    4.7560   48.5638   29.1728 C   0  0  1  0  0  0  0  0  0  0  0  0
    4.2091   49.0341   30.5300 C   0  0  0  0  0  0  0  0  0  0  0  0
    4.2905   49.3867   27.9722 C   0  0  0  0  0  0  0  0  0  0  0  0
    3.4101   50.4944   28.1275 C   0  0  0  0  0  0  0  0  0  0  0  0
    4.7759   49.0739   26.6531 C   0  0  0  0  0  0  0  0  0  0  0  0
    3.0683   51.2392   27.0068 C   0  0  0  0  0  0  0  0  0  0  0  0
    4.4025   49.8816   25.5554 C   0  0  0  0  0  0  0  0  0  0  0  0
    5.6602   47.9658   26.4100 N   0  0  0  0  0  0  0  0  0  0  0  0
    2.2419   52.3442   26.9313 O   0  0  0  0  0  0  0  0  0  0  0  0
    3.5453   50.9482   25.7770 C   0  0  0  0  0  0  0  0  0  0  0  0
    6.6359   48.0698   25.4454 O   0  0  0  0  0  0  0  0  0  0  0  0
    5.4300   46.8466   26.9112 O   0  0  0  0  0  0  0  0  0  0  0  0
    2.1987   52.7720   25.5633 C   0  0  0  0  0  0  0  0  0  0  0  0
    3.0453   51.8529   24.8602 O   0  0  0  0  0  0  0  0  0  0  0  0
    8.8123   40.1844   34.2133 O   0  0  0  0  0  0  0  0  0  0  0  0
   11.2405   40.7942   33.3692 O   0  0  0  0  0  0  0  0  0  0  0  0
   10.9150   40.6905   31.9972 C   0  0  0  0  0  0  0  0  0  0  0  0
   11.5252   39.3886   31.4375 C   0  0  0  0  0  0  0  0  0  0  0  0
   12.7499   39.0874   32.0799 O   0  0  0  0  0  0  0  0  0  0  0  0
   10.6092   38.1926   31.6470 C   0  0  0  0  0  0  0  0  0  0  0  0
   12.9332   37.6793   32.0294 C   0  0  0  0  0  0  0  0  0  0  0  0
    9.6122   38.0894   30.6542 O   0  0  0  0  0  0  0  0  0  0  0  0
   11.5743   37.0145   31.7024 C   0  0  0  0  0  0  0  0  0  0  0  0
   13.4844   37.2108   33.3241 N   0  0  0  0  0  0  0  0  0  0  0  0
   11.6298   36.3239   30.4740 O   0  0  0  0  0  0  0  0  0  0  0  0
   14.4802   36.3313   33.5727 C   0  0  0  0  0  0  0  0  0  0  0  0
   13.1138   37.6267   34.5692 C   0  0  0  0  0  0  0  0  0  0  0  0
   15.2075   35.6149   32.6739 N   0  0  0  0  0  0  0  0  0  0  0  0
   14.6761   36.2303   34.9181 C   0  0  0  0  0  0  0  0  0  0  0  0
   13.8220   37.0447   35.5785 N   0  0  0  0  0  0  0  0  0  0  0  0
   16.1643   34.7600   33.1547 C   0  0  0  0  0  0  0  0  0  0  0  0
   15.6529   35.3505   35.4130 C   0  0  0  0  0  0  0  0  0  0  0  0
   16.3798   34.6315   34.5042 N   0  0  0  0  0  0  0  0  0  0  0  0
   15.9003   35.1932   36.8090 N   0  0  0  0  0  0  0  0  0  0  0  0
    8.9996   45.4381   33.6722 H   0  0  0  0  0  0  0  0  0  0  0  0
   11.0502   46.2277   34.4983 H   0  0  0  0  0  0  0  0  0  0  0  0
   10.7766   46.9369   33.0160 H   0  0  0  0  0  0  0  0  0  0  0  0
   10.7412   44.9080   31.1836 H   0  0  0  0  0  0  0  0  0  0  0  0
    9.3646   43.8355   31.4710 H   0  0  0  0  0  0  0  0  0  0  0  0
    7.0155   44.7148   31.5851 H   0  0  0  0  0  0  0  0  0  0  0  0
   10.3463   47.1872   30.4047 H   0  0  0  0  0  0  0  0  0  0  0  0
    5.4694   46.2762   30.5173 H   0  0  0  0  0  0  0  0  0  0  0  0
    8.7923   48.7675   29.3385 H   0  0  0  0  0  0  0  0  0  0  0  0
    4.3916   47.5288   29.0122 H   0  0  0  0  0  0  0  0  0  0  0  0
    4.5350   50.0748   30.7416 H   0  0  0  0  0  0  0  0  0  0  0  0
    4.5903   48.3868   31.3460 H   0  0  0  0  0  0  0  0  0  0  0  0
    3.1003   48.9707   30.5445 H   0  0  0  0  0  0  0  0  0  0  0  0
    3.0004   50.7914   29.0813 H   0  0  0  0  0  0  0  0  0  0  0  0
    4.7580   49.6722   24.5547 H   0  0  0  0  0  0  0  0  0  0  0  0
    1.1606   52.7112   25.1744 H   0  0  0  0  0  0  0  0  0  0  0  0
    2.5946   53.8051   25.4712 H   0  0  0  0  0  0  0  0  0  0  0  0
   11.3800   41.5528   31.4730 H   0  0  0  0  0  0  0  0  0  0  0  0
    9.8242   40.7215   31.7641 H   0  0  0  0  0  0  0  0  0  0  0  0
   11.7266   39.5310   30.3513 H   0  0  0  0  0  0  0  0  0  0  0  0
   10.1110   38.2747   32.6387 H   0  0  0  0  0  0  0  0  0  0  0  0
   13.6652   37.4520   31.2226 H   0  0  0  0  0  0  0  0  0  0  0  0
   10.0511   38.1143   29.7645 H   0  0  0  0  0  0  0  0  0  0  0  0
   11.2762   36.3141   32.5189 H   0  0  0  0  0  0  0  0  0  0  0  0
   10.8593   35.6978   30.4640 H   0  0  0  0  0  0  0  0  0  0  0  0
   12.3295   38.3518   34.7449 H   0  0  0  0  0  0  0  0  0  0  0  0
   16.7564   34.1779   32.4620 H   0  0  0  0  0  0  0  0  0  0  0  0
   16.6349   34.5300   37.1415 H   0  0  0  0  0  0  0  0  0  0  0  0
   15.3534   35.7359   37.5138 H   0  0  0  0  0  0  0  0  0  0  0  0
  1  2  2  0
  1  3  1  0
  3  4  1  0
  4  5  1  0
  6  1  1  0
  7  6  1  0
  6  8  1  0
  8  9  1  0
  9 10  2  0
 11  9  1  0
 10 12  1  0
 13 11  2  0
 12 14  2  0
 14 13  1  0
 14 15  1  0
 15 16  1  0
 16 17  1  0
 16 18  1  0
 18 19  2  0
 20 18  1  0
 19 21  1  0
 22 20  2  0
 20 23  1  0
 21 24  1  0
 21 25  2  0
 25 22  1  0
 23 26  1  0
 23 27  2  0
 24 28  1  0
 25 29  1  0
 28 29  1  0
  4 30  2  0
  4 31  1  0
 32 31  1  0
 32 33  1  0
 33 34  1  0
 33 35  1  0
 34 36  1  0
 35 37  1  0
 35 38  1  0
 38 36  1  0
 36 39  1  0
 38 40  1  0
 41 39  1  0
 42 39  1  0
 43 41  2  0
 41 44  1  0
 45 42  2  0
 46 43  1  0
 44 47  2  0
 44 45  1  0
 48 46  2  0
 48 47  1  0
 47 49  1  0
  6 50  1  1
  7 51  1  0
  7 52  1  0
  8 53  1  0
  8 54  1  0
 10 55  1  0
 11 56  1  0
 12 57  1  0
 13 58  1  0
 16 59  1  6
 17 60  1  0
 17 61  1  0
 17 62  1  0
 19 63  1  0
 22 64  1  0
 28 65  1  0
 28 66  1  0
 32 67  1  0
 32 68  1  0
 33 69  1  0
 35 70  1  0
 36 71  1  0
 37 72  1  0
 38 73  1  0
 40 74  1  0
 42 75  1  0
 46 76  1  0
 49 77  1  0
 49 78  1  0
M  CHG  3   5  -1  23   1  26  -1
M  END
>  <EmbedRMS>  (273) 
0.0816172210739

$$$$

     RDKit          3D

 78 83  0  0  0  0  0  0  0  0999 V2000
   10.2835   43.7662   33.8259 C   0  0  0  0  0  0  0  0  0  0  0  0
   11.4103   43.5929   34.3753 O   0  0  0  0  0  0  0  0  0  0  0  0
    9.3636   42.7257   33.7354 O   0  0  0  0  0  0  0  0  0  0  0  0
    9.8902   41.2268   34.2942 P   0  0  0  0  0  0  0  0  0  0  0  0
   10.3739   41.4559   35.8835 O   0  0  0  0  0  0  0  0  0  0  0  0
    9.9548   45.0695   33.2039 C   0  0  1  0  0  0  0  0  0  0  0  0
   11.0276   46.0321   33.4756 N   0  0  0  0  0  0  0  0  0  0  0  0
    9.7464   44.8482   31.6881 C   0  0  0  0  0  0  0  0  0  0  0  0
    8.7922   45.8415   31.0859 C   0  0  0  0  0  0  0  0  0  0  0  0
    7.4059   45.6014   31.0986 C   0  0  0  0  0  0  0  0  0  0  0  0
    9.2819   46.9869   30.4417 C   0  0  0  0  0  0  0  0  0  0  0  0
    6.5277   46.5021   30.4815 C   0  0  0  0  0  0  0  0  0  0  0  0
    8.4031   47.8884   29.8303 C   0  0  0  0  0  0  0  0  0  0  0  0
    7.0128   47.6558   29.8497 C   0  0  0  0  0  0  0  0  0  0  0  0
    6.0769   48.5193   29.2468 O   0  0  0  0  0  0  0  0  0  0  0  0
    6.2876   49.8713   28.8057 C   0  0  1  0  0  0  0  0  0  0  0  0
    6.8969   50.7209   29.9399 C   0  0  0  0  0  0  0  0  0  0  0  0
    7.0631   49.9649   27.4885 C   0  0  0  0  0  0  0  0  0  0  0  0
    7.4981   48.7833   26.8300 C   0  0  0  0  0  0  0  0  0  0  0  0
    7.3560   51.2353   26.8801 C   0  0  0  0  0  0  0  0  0  0  0  0
    8.2676   48.9019   25.6806 C   0  0  0  0  0  0  0  0  0  0  0  0
    8.1601   51.2930   25.7201 C   0  0  0  0  0  0  0  0  0  0  0  0
    6.8212   52.4632   27.3949 N   0  0  0  0  0  0  0  0  0  0  0  0
    8.8109   47.8961   24.9044 O   0  0  0  0  0  0  0  0  0  0  0  0
    8.5936   50.1033   25.1552 C   0  0  0  0  0  0  0  0  0  0  0  0
    7.5911   53.6032   27.3773 O   0  0  0  0  0  0  0  0  0  0  0  0
    5.5982   52.5660   27.6208 O   0  0  0  0  0  0  0  0  0  0  0  0
    9.5269   48.5091   23.8237 C   0  0  0  0  0  0  0  0  0  0  0  0
    9.3614   49.9197   24.0213 O   0  0  0  0  0  0  0  0  0  0  0  0
    8.8120   40.1851   34.2131 O   0  0  0  0  0  0  0  0  0  0  0  0
   11.2402   40.7951   33.3682 O   0  0  0  0  0  0  0  0  0  0  0  0
   10.9125   40.6877   31.9969 C   0  0  0  0  0  0  0  0  0  0  0  0
   11.5169   39.3811   31.4421 C   0  0  0  0  0  0  0  0  0  0  0  0
   12.7500   39.0881   32.0759 O   0  0  0  0  0  0  0  0  0  0  0  0
   10.6042   38.1893   31.6659 C   0  0  0  0  0  0  0  0  0  0  0  0
   12.9395   37.6814   32.0279 C   0  0  0  0  0  0  0  0  0  0  0  0
    9.6353   38.0952   30.6499 O   0  0  0  0  0  0  0  0  0  0  0  0
   11.5804   37.0191   31.6934 C   0  0  0  0  0  0  0  0  0  0  0  0
   13.4851   37.2119   33.3244 N   0  0  0  0  0  0  0  0  0  0  0  0
   11.6118   36.3189   30.4673 O   0  0  0  0  0  0  0  0  0  0  0  0
   14.4801   36.3316   33.5732 C   0  0  0  0  0  0  0  0  0  0  0  0
   13.1139   37.6277   34.5692 C   0  0  0  0  0  0  0  0  0  0  0  0
   15.2076   35.6154   32.6744 N   0  0  0  0  0  0  0  0  0  0  0  0
   14.6756   36.2303   34.9186 C   0  0  0  0  0  0  0  0  0  0  0  0
   13.8215   37.0451   35.5786 N   0  0  0  0  0  0  0  0  0  0  0  0
   16.1642   34.7602   33.1551 C   0  0  0  0  0  0  0  0  0  0  0  0
   15.6526   35.3506   35.4134 C   0  0  0  0  0  0  0  0  0  0  0  0
   16.3796   34.6316   34.5045 N   0  0  0  0  0  0  0  0  0  0  0  0
   15.9001   35.1933   36.8093 N   0  0  0  0  0  0  0  0  0  0  0  0
    9.0124   45.4319   33.6720 H   0  0  0  0  0  0  0  0  0  0  0  0
   11.8908   45.7655   32.9469 H   0  0  0  0  0  0  0  0  0  0  0  0
   10.7263   46.9686   33.1210 H   0  0  0  0  0  0  0  0  0  0  0  0
    9.3408   43.8332   31.4767 H   0  0  0  0  0  0  0  0  0  0  0  0
   10.7226   44.8814   31.1558 H   0  0  0  0  0  0  0  0  0  0  0  0
    7.0086   44.7160   31.5795 H   0  0  0  0  0  0  0  0  0  0  0  0
   10.3472   47.1791   30.4027 H   0  0  0  0  0  0  0  0  0  0  0  0
    5.4635   46.3038   30.4975 H   0  0  0  0  0  0  0  0  0  0  0  0
    8.8230   48.7391   29.3173 H   0  0  0  0  0  0  0  0  0  0  0  0
    5.2736   50.2760   28.6065 H   0  0  0  0  0  0  0  0  0  0  0  0
    6.5971   50.3145   30.9291 H   0  0  0  0  0  0  0  0  0  0  0  0
    8.0039   50.7509   29.8851 H   0  0  0  0  0  0  0  0  0  0  0  0
    6.5262   51.7646   29.8961 H   0  0  0  0  0  0  0  0  0  0  0  0
    7.2570   47.7943   27.1906 H   0  0  0  0  0  0  0  0  0  0  0  0
    8.4059   52.2372   25.2512 H   0  0  0  0  0  0  0  0  0  0  0  0
    9.0881   48.2044   22.8505 H   0  0  0  0  0  0  0  0  0  0  0  0
   10.6025   48.2388   23.8732 H   0  0  0  0  0  0  0  0  0  0  0  0
    9.8215   40.7222   31.7647 H   0  0  0  0  0  0  0  0  0  0  0  0
   11.3808   41.5456   31.4687 H   0  0  0  0  0  0  0  0  0  0  0  0
   11.6986   39.5089   30.3499 H   0  0  0  0  0  0  0  0  0  0  0  0
   10.1108   38.2737   32.6630 H   0  0  0  0  0  0  0  0  0  0  0  0
   13.6784   37.4562   31.2271 H   0  0  0  0  0  0  0  0  0  0  0  0
    9.0020   37.3861   30.9347 H   0  0  0  0  0  0  0  0  0  0  0  0
   11.2807   36.3052   32.4920 H   0  0  0  0  0  0  0  0  0  0  0  0
   11.8818   36.9600   29.7584 H   0  0  0  0  0  0  0  0  0  0  0  0
   12.3304   38.3539   34.7445 H   0  0  0  0  0  0  0  0  0  0  0  0
   16.7564   34.1783   32.4624 H   0  0  0  0  0  0  0  0  0  0  0  0
   15.3532   35.7359   37.5141 H   0  0  0  0  0  0  0  0  0  0  0  0
   16.6348   34.5301   37.1419 H   0  0  0  0  0  0  0  0  0  0  0  0
  1  2  2  0
  1  3  1  0
  3  4  1  0
  4  5  1  0
  6  1  1  0
  7  6  1  0
  6  8  1  0
  8  9  1  0
  9 10  2  0
 11  9  1  0
 10 12  1  0
 13 11  2  0
 12 14  2  0
 14 13  1  0
 14 15  1  0
 15 16  1  0
 16 17  1  0
 16 18  1  0
 18 19  2  0
 20 18  1  0
 19 21  1  0
 22 20  2  0
 20 23  1  0
 21 24  1  0
 21 25  2  0
 25 22  1  0
 23 26  1  0
 23 27  2  0
 24 28  1  0
 25 29  1  0
 28 29  1  0
  4 30  2  0
  4 31  1  0
 32 31  1  0
 32 33  1  0
 33 34  1  0
 33 35  1  0
 34 36  1  0
 35 37  1  0
 35 38  1  0
 38 36  1  0
 36 39  1  0
 38 40  1  0
 41 39  1  0
 42 39  1  0
 43 41  2  0
 41 44  1  0
 45 42  2  0
 46 43  1  0
 44 47  2  0
 44 45  1  0
 48 46  2  0
 48 47  1  0
 47 49  1  0
  6 50  1  1
  7 51  1  0
  7 52  1  0
  8 53  1  0
  8 54  1  0
 10 55  1  0
 11 56  1  0
 12 57  1  0
 13 58  1  0
 16 59  1  6
 17 60  1  0
 17 61  1  0
 17 62  1  0
 19 63  1  0
 22 64  1  0
 28 65  1  0
 28 66  1  0
 32 67  1  0
 32 68  1  0
 33 69  1  0
 35 70  1  0
 36 71  1  0
 37 72  1  0
 38 73  1  0
 40 74  1  0
 42 75  1  0
 46 76  1  0
 49 77  1  0
 49 78  1  0
M  CHG  3   5  -1  23   1  26  -1
M  END
>  <EmbedRMS>  (274) 
0.0815444077071

$$$$

     RDKit          3D

 78 83  0  0  0  0  0  0  0  0999 V2000
   10.2838   43.7626   33.8276 C   0  0  0  0  0  0  0  0  0  0  0  0
   11.4102   43.5863   34.3770 O   0  0  0  0  0  0  0  0  0  0  0  0
    9.3630   42.7237   33.7354 O   0  0  0  0  0  0  0  0  0  0  0  0
    9.8893   41.2249   34.2942 P   0  0  0  0  0  0  0  0  0  0  0  0
   10.3729   41.4547   35.8836 O   0  0  0  0  0  0  0  0  0  0  0  0
    9.9550   45.0699   33.2064 C   0  0  1  0  0  0  0  0  0  0  0  0
   11.0200   46.0480   33.4571 N   0  0  0  0  0  0  0  0  0  0  0  0
    9.7506   44.8512   31.6924 C   0  0  0  0  0  0  0  0  0  0  0  0
    8.7944   45.8422   31.0874 C   0  0  0  0  0  0  0  0  0  0  0  0
    7.4079   45.6005   31.1001 C   0  0  0  0  0  0  0  0  0  0  0  0
    9.2826   46.9889   30.4443 C   0  0  0  0  0  0  0  0  0  0  0  0
    6.5256   46.4992   30.4842 C   0  0  0  0  0  0  0  0  0  0  0  0
    8.4009   47.8871   29.8322 C   0  0  0  0  0  0  0  0  0  0  0  0
    7.0187   47.6573   29.8475 C   0  0  0  0  0  0  0  0  0  0  0  0
    6.1877   48.5957   29.2129 O   0  0  0  0  0  0  0  0  0  0  0  0
    4.7602   48.6223   29.2554 C   0  0  1  0  0  0  0  0  0  0  0  0
    4.2547   49.0481   30.6407 C   0  0  0  0  0  0  0  0  0  0  0  0
    4.2344   49.5470   28.1686 C   0  0  0  0  0  0  0  0  0  0  0  0
    3.3879   48.9909   27.1766 C   0  0  0  0  0  0  0  0  0  0  0  0
    4.5213   50.9554   28.1280 C   0  0  0  0  0  0  0  0  0  0  0  0
    2.8515   49.8306   26.2095 C   0  0  0  0  0  0  0  0  0  0  0  0
    3.9338   51.7615   27.1268 C   0  0  0  0  0  0  0  0  0  0  0  0
    5.3826   51.5842   29.0871 N   0  0  0  0  0  0  0  0  0  0  0  0
    2.0084   49.5074   25.1636 O   0  0  0  0  0  0  0  0  0  0  0  0
    3.1104   51.1574   26.1874 C   0  0  0  0  0  0  0  0  0  0  0  0
    6.6930   51.1853   29.2026 O   0  0  0  0  0  0  0  0  0  0  0  0
    5.0309   52.6550   29.6236 O   0  0  0  0  0  0  0  0  0  0  0  0
    1.7215   50.7109   24.4386 C   0  0  0  0  0  0  0  0  0  0  0  0
    2.4451   51.7406   25.1262 O   0  0  0  0  0  0  0  0  0  0  0  0
    8.8112   40.1834   34.2129 O   0  0  0  0  0  0  0  0  0  0  0  0
   11.2399   40.7933   33.3691 O   0  0  0  0  0  0  0  0  0  0  0  0
   10.9142   40.6895   31.9972 C   0  0  0  0  0  0  0  0  0  0  0  0
   11.5261   39.3883   31.4375 C   0  0  0  0  0  0  0  0  0  0  0  0
   12.7505   39.0888   32.0814 O   0  0  0  0  0  0  0  0  0  0  0  0
   10.6115   38.1909   31.6460 C   0  0  0  0  0  0  0  0  0  0  0  0
   12.9357   37.6812   32.0303 C   0  0  0  0  0  0  0  0  0  0  0  0
    9.6146   38.0859   30.6533 O   0  0  0  0  0  0  0  0  0  0  0  0
   11.5770   37.0147   31.7013 C   0  0  0  0  0  0  0  0  0  0  0  0
   13.4849   37.2112   33.3247 N   0  0  0  0  0  0  0  0  0  0  0  0
   11.6193   36.3260   30.4725 O   0  0  0  0  0  0  0  0  0  0  0  0
   14.4802   36.3313   33.5730 C   0  0  0  0  0  0  0  0  0  0  0  0
   13.1141   37.6268   34.5698 C   0  0  0  0  0  0  0  0  0  0  0  0
   15.2074   35.6150   32.6741 N   0  0  0  0  0  0  0  0  0  0  0  0
   14.6760   36.2300   34.9184 C   0  0  0  0  0  0  0  0  0  0  0  0
   13.8220   37.0445   35.5789 N   0  0  0  0  0  0  0  0  0  0  0  0
   16.1642   34.7600   33.1547 C   0  0  0  0  0  0  0  0  0  0  0  0
   15.6529   35.3503   35.4131 C   0  0  0  0  0  0  0  0  0  0  0  0
   16.3797   34.6315   34.5042 N   0  0  0  0  0  0  0  0  0  0  0  0
   15.9005   35.1930   36.8090 N   0  0  0  0  0  0  0  0  0  0  0  0
    9.0100   45.4348   33.6670 H   0  0  0  0  0  0  0  0  0  0  0  0
   11.1133   46.1991   34.4885 H   0  0  0  0  0  0  0  0  0  0  0  0
   11.9351   45.6931   33.0929 H   0  0  0  0  0  0  0  0  0  0  0  0
    9.3518   43.8346   31.4758 H   0  0  0  0  0  0  0  0  0  0  0  0
   10.7309   44.8933   31.1675 H   0  0  0  0  0  0  0  0  0  0  0  0
    7.0132   44.7135   31.5803 H   0  0  0  0  0  0  0  0  0  0  0  0
   10.3466   47.1888   30.4138 H   0  0  0  0  0  0  0  0  0  0  0  0
    5.4700   46.2735   30.5070 H   0  0  0  0  0  0  0  0  0  0  0  0
    8.7942   48.7687   29.3420 H   0  0  0  0  0  0  0  0  0  0  0  0
    4.3798   47.5964   29.0601 H   0  0  0  0  0  0  0  0  0  0  0  0
    4.4854   48.2671   31.3933 H   0  0  0  0  0  0  0  0  0  0  0  0
    4.7339   49.9897   30.9746 H   0  0  0  0  0  0  0  0  0  0  0  0
    3.1526   49.1878   30.6199 H   0  0  0  0  0  0  0  0  0  0  0  0
    3.1419   47.9366   27.1630 H   0  0  0  0  0  0  0  0  0  0  0  0
    4.1280   52.8254   27.0765 H   0  0  0  0  0  0  0  0  0  0  0  0
    0.6325   50.9251   24.4652 H   0  0  0  0  0  0  0  0  0  0  0  0
    2.0809   50.6236   23.3918 H   0  0  0  0  0  0  0  0  0  0  0  0
   11.3781   41.5523   31.4731 H   0  0  0  0  0  0  0  0  0  0  0  0
    9.8232   40.7189   31.7642 H   0  0  0  0  0  0  0  0  0  0  0  0
   11.7284   39.5312   30.3514 H   0  0  0  0  0  0  0  0  0  0  0  0
   10.1127   38.2731   32.6376 H   0  0  0  0  0  0  0  0  0  0  0  0
   13.6693   37.4566   31.2242 H   0  0  0  0  0  0  0  0  0  0  0  0
   10.0535   38.1118   29.7635 H   0  0  0  0  0  0  0  0  0  0  0  0
   11.2607   36.3147   32.5103 H   0  0  0  0  0  0  0  0  0  0  0  0
   12.1496   35.5022   30.6325 H   0  0  0  0  0  0  0  0  0  0  0  0
   12.3300   38.3523   34.7455 H   0  0  0  0  0  0  0  0  0  0  0  0
   16.7563   34.1780   32.4620 H   0  0  0  0  0  0  0  0  0  0  0  0
   15.3538   35.7356   37.5140 H   0  0  0  0  0  0  0  0  0  0  0  0
   16.6353   34.5297   37.1413 H   0  0  0  0  0  0  0  0  0  0  0  0
  1  2  2  0
  1  3  1  0
  3  4  1  0
  4  5  1  0
  6  1  1  0
  7  6  1  0
  6  8  1  0
  8  9  1  0
  9 10  2  0
 11  9  1  0
 10 12  1  0
 13 11  2  0
 12 14  2  0
 14 13  1  0
 14 15  1  0
 15 16  1  0
 16 17  1  0
 16 18  1  0
 18 19  2  0
 20 18  1  0
 19 21  1  0
 22 20  2  0
 20 23  1  0
 21 24  1  0
 21 25  2  0
 25 22  1  0
 23 26  1  0
 23 27  2  0
 24 28  1  0
 25 29  1  0
 28 29  1  0
  4 30  2  0
  4 31  1  0
 32 31  1  0
 32 33  1  0
 33 34  1  0
 33 35  1  0
 34 36  1  0
 35 37  1  0
 35 38  1  0
 38 36  1  0
 36 39  1  0
 38 40  1  0
 41 39  1  0
 42 39  1  0
 43 41  2  0
 41 44  1  0
 45 42  2  0
 46 43  1  0
 44 47  2  0
 44 45  1  0
 48 46  2  0
 48 47  1  0
 47 49  1  0
  6 50  1  1
  7 51  1  0
  7 52  1  0
  8 53  1  0
  8 54  1  0
 10 55  1  0
 11 56  1  0
 12 57  1  0
 13 58  1  0
 16 59  1  6
 17 60  1  0
 17 61  1  0
 17 62  1  0
 19 63  1  0
 22 64  1  0
 28 65  1  0
 28 66  1  0
 32 67  1  0
 32 68  1  0
 33 69  1  0
 35 70  1  0
 36 71  1  0
 37 72  1  0
 38 73  1  0
 40 74  1  0
 42 75  1  0
 46 76  1  0
 49 77  1  0
 49 78  1  0
M  CHG  3   5  -1  23   1  26  -1
M  END
>  <EmbedRMS>  (275) 
0.082479492775

$$$$

     RDKit          3D

 78 83  0  0  0  0  0  0  0  0999 V2000
   10.2805   43.7663   33.8249 C   0  0  0  0  0  0  0  0  0  0  0  0
   11.4111   43.5918   34.3667 O   0  0  0  0  0  0  0  0  0  0  0  0
    9.3621   42.7248   33.7343 O   0  0  0  0  0  0  0  0  0  0  0  0
    9.8903   41.2264   34.2936 P   0  0  0  0  0  0  0  0  0  0  0  0
   10.3732   41.4564   35.8831 O   0  0  0  0  0  0  0  0  0  0  0  0
    9.9460   45.0736   33.2113 C   0  0  1  0  0  0  0  0  0  0  0  0
   11.0267   46.0292   33.4710 N   0  0  0  0  0  0  0  0  0  0  0  0
    9.7541   44.8543   31.6950 C   0  0  0  0  0  0  0  0  0  0  0  0
    8.7958   45.8414   31.0852 C   0  0  0  0  0  0  0  0  0  0  0  0
    7.4092   45.6000   31.1007 C   0  0  0  0  0  0  0  0  0  0  0  0
    9.2824   46.9875   30.4393 C   0  0  0  0  0  0  0  0  0  0  0  0
    6.5257   46.4983   30.4855 C   0  0  0  0  0  0  0  0  0  0  0  0
    8.3997   47.8864   29.8301 C   0  0  0  0  0  0  0  0  0  0  0  0
    7.0176   47.6565   29.8480 C   0  0  0  0  0  0  0  0  0  0  0  0
    6.1855   48.5948   29.2150 O   0  0  0  0  0  0  0  0  0  0  0  0
    4.7579   48.6227   29.2618 C   0  0  1  0  0  0  0  0  0  0  0  0
    4.2548   49.0455   30.6491 C   0  0  0  0  0  0  0  0  0  0  0  0
    4.2283   49.5487   28.1772 C   0  0  0  0  0  0  0  0  0  0  0  0
    3.3835   48.9893   27.1854 C   0  0  0  0  0  0  0  0  0  0  0  0
    4.5061   50.9605   28.1383 C   0  0  0  0  0  0  0  0  0  0  0  0
    2.8380   49.8273   26.2222 C   0  0  0  0  0  0  0  0  0  0  0  0
    3.9074   51.7639   27.1420 C   0  0  0  0  0  0  0  0  0  0  0  0
    5.3633   51.6001   29.0949 N   0  0  0  0  0  0  0  0  0  0  0  0
    1.9943   49.5004   25.1779 O   0  0  0  0  0  0  0  0  0  0  0  0
    3.0861   51.1560   26.2033 C   0  0  0  0  0  0  0  0  0  0  0  0
    5.0048   52.8222   29.6150 O   0  0  0  0  0  0  0  0  0  0  0  0
    6.5315   51.1964   29.2624 O   0  0  0  0  0  0  0  0  0  0  0  0
    1.6953   50.7038   24.4575 C   0  0  0  0  0  0  0  0  0  0  0  0
    2.4128   51.7371   25.1460 O   0  0  0  0  0  0  0  0  0  0  0  0
    8.8128   40.1841   34.2125 O   0  0  0  0  0  0  0  0  0  0  0  0
   11.2416   40.7945   33.3692 O   0  0  0  0  0  0  0  0  0  0  0  0
   10.9178   40.6904   31.9968 C   0  0  0  0  0  0  0  0  0  0  0  0
   11.5181   39.3813   31.4408 C   0  0  0  0  0  0  0  0  0  0  0  0
   12.7497   39.0870   32.0746 O   0  0  0  0  0  0  0  0  0  0  0  0
   10.6045   38.1891   31.6655 C   0  0  0  0  0  0  0  0  0  0  0  0
   12.9344   37.6801   32.0290 C   0  0  0  0  0  0  0  0  0  0  0  0
    9.6419   38.0758   30.6440 O   0  0  0  0  0  0  0  0  0  0  0  0
   11.5741   37.0170   31.7045 C   0  0  0  0  0  0  0  0  0  0  0  0
   13.4851   37.2126   33.3241 N   0  0  0  0  0  0  0  0  0  0  0  0
   11.6079   36.3407   30.4680 O   0  0  0  0  0  0  0  0  0  0  0  0
   14.4801   36.3321   33.5727 C   0  0  0  0  0  0  0  0  0  0  0  0
   13.1140   37.6277   34.5693 C   0  0  0  0  0  0  0  0  0  0  0  0
   15.2073   35.6155   32.6739 N   0  0  0  0  0  0  0  0  0  0  0  0
   14.6758   36.2306   34.9182 C   0  0  0  0  0  0  0  0  0  0  0  0
   13.8217   37.0450   35.5785 N   0  0  0  0  0  0  0  0  0  0  0  0
   16.1639   34.7602   33.1546 C   0  0  0  0  0  0  0  0  0  0  0  0
   15.6526   35.3506   35.4130 C   0  0  0  0  0  0  0  0  0  0  0  0
   16.3794   34.6316   34.5041 N   0  0  0  0  0  0  0  0  0  0  0  0
   15.9001   35.1933   36.8089 N   0  0  0  0  0  0  0  0  0  0  0  0
    8.9996   45.4381   33.6723 H   0  0  0  0  0  0  0  0  0  0  0  0
   11.0503   46.2276   34.4984 H   0  0  0  0  0  0  0  0  0  0  0  0
   10.7765   46.9369   33.0160 H   0  0  0  0  0  0  0  0  0  0  0  0
   10.7412   44.9081   31.1837 H   0  0  0  0  0  0  0  0  0  0  0  0
    9.3646   43.8355   31.4711 H   0  0  0  0  0  0  0  0  0  0  0  0
    7.0156   44.7137   31.5832 H   0  0  0  0  0  0  0  0  0  0  0  0
   10.3463   47.1871   30.4043 H   0  0  0  0  0  0  0  0  0  0  0  0
    5.4700   46.2725   30.5102 H   0  0  0  0  0  0  0  0  0  0  0  0
    8.7922   48.7678   29.3389 H   0  0  0  0  0  0  0  0  0  0  0  0
    4.3772   47.5968   29.0666 H   0  0  0  0  0  0  0  0  0  0  0  0
    4.7279   49.9903   30.9822 H   0  0  0  0  0  0  0  0  0  0  0  0
    4.4927   48.2661   31.4011 H   0  0  0  0  0  0  0  0  0  0  0  0
    3.1519   49.1783   30.6316 H   0  0  0  0  0  0  0  0  0  0  0  0
    3.1445   47.9334   27.1695 H   0  0  0  0  0  0  0  0  0  0  0  0
    4.0922   52.8293   27.0927 H   0  0  0  0  0  0  0  0  0  0  0  0
    0.6047   50.9089   24.4881 H   0  0  0  0  0  0  0  0  0  0  0  0
    2.0521   50.6227   23.4093 H   0  0  0  0  0  0  0  0  0  0  0  0
   11.3944   41.5458   31.4719 H   0  0  0  0  0  0  0  0  0  0  0  0
    9.8289   40.7385   31.7615 H   0  0  0  0  0  0  0  0  0  0  0  0
   11.6995   39.5068   30.3484 H   0  0  0  0  0  0  0  0  0  0  0  0
   10.1090   38.2634   32.6632 H   0  0  0  0  0  0  0  0  0  0  0  0
   13.6662   37.4515   31.2224 H   0  0  0  0  0  0  0  0  0  0  0  0
    8.9008   38.6923   30.8793 H   0  0  0  0  0  0  0  0  0  0  0  0
   11.2650   36.3083   32.5087 H   0  0  0  0  0  0  0  0  0  0  0  0
   12.1372   35.5141   30.6163 H   0  0  0  0  0  0  0  0  0  0  0  0
   12.3297   38.3530   34.7450 H   0  0  0  0  0  0  0  0  0  0  0  0
   16.7558   34.1781   32.4619 H   0  0  0  0  0  0  0  0  0  0  0  0
   16.6346   34.5300   37.1414 H   0  0  0  0  0  0  0  0  0  0  0  0
   15.3533   35.7360   37.5138 H   0  0  0  0  0  0  0  0  0  0  0  0
  1  2  2  0
  1  3  1  0
  3  4  1  0
  4  5  1  0
  6  1  1  0
  7  6  1  0
  6  8  1  0
  8  9  1  0
  9 10  2  0
 11  9  1  0
 10 12  1  0
 13 11  2  0
 12 14  2  0
 14 13  1  0
 14 15  1  0
 15 16  1  0
 16 17  1  0
 16 18  1  0
 18 19  2  0
 20 18  1  0
 19 21  1  0
 22 20  2  0
 20 23  1  0
 21 24  1  0
 21 25  2  0
 25 22  1  0
 23 26  1  0
 23 27  2  0
 24 28  1  0
 25 29  1  0
 28 29  1  0
  4 30  2  0
  4 31  1  0
 32 31  1  0
 32 33  1  0
 33 34  1  0
 33 35  1  0
 34 36  1  0
 35 37  1  0
 35 38  1  0
 38 36  1  0
 36 39  1  0
 38 40  1  0
 41 39  1  0
 42 39  1  0
 43 41  2  0
 41 44  1  0
 45 42  2  0
 46 43  1  0
 44 47  2  0
 44 45  1  0
 48 46  2  0
 48 47  1  0
 47 49  1  0
  6 50  1  1
  7 51  1  0
  7 52  1  0
  8 53  1  0
  8 54  1  0
 10 55  1  0
 11 56  1  0
 12 57  1  0
 13 58  1  0
 16 59  1  6
 17 60  1  0
 17 61  1  0
 17 62  1  0
 19 63  1  0
 22 64  1  0
 28 65  1  0
 28 66  1  0
 32 67  1  0
 32 68  1  0
 33 69  1  0
 35 70  1  0
 36 71  1  0
 37 72  1  0
 38 73  1  0
 40 74  1  0
 42 75  1  0
 46 76  1  0
 49 77  1  0
 49 78  1  0
M  CHG  3   5  -1  23   1  26  -1
M  END
>  <EmbedRMS>  (276) 
0.082629258318

$$$$

     RDKit          3D

 78 83  0  0  0  0  0  0  0  0999 V2000
   10.2804   43.7664   33.8249 C   0  0  0  0  0  0  0  0  0  0  0  0
   11.4111   43.5919   34.3667 O   0  0  0  0  0  0  0  0  0  0  0  0
    9.3619   42.7249   33.7346 O   0  0  0  0  0  0  0  0  0  0  0  0
    9.8900   41.2267   34.2944 P   0  0  0  0  0  0  0  0  0  0  0  0
   10.3728   41.4567   35.8838 O   0  0  0  0  0  0  0  0  0  0  0  0
    9.9460   45.0736   33.2110 C   0  0  1  0  0  0  0  0  0  0  0  0
   11.0267   46.0292   33.4707 N   0  0  0  0  0  0  0  0  0  0  0  0
    9.7541   44.8540   31.6947 C   0  0  0  0  0  0  0  0  0  0  0  0
    8.7958   45.8409   31.0843 C   0  0  0  0  0  0  0  0  0  0  0  0
    7.4091   45.6003   31.1016 C   0  0  0  0  0  0  0  0  0  0  0  0
    9.2824   46.9882   30.4403 C   0  0  0  0  0  0  0  0  0  0  0  0
    6.5260   46.4996   30.4876 C   0  0  0  0  0  0  0  0  0  0  0  0
    8.3995   47.8879   29.8324 C   0  0  0  0  0  0  0  0  0  0  0  0
    7.0182   47.6531   29.8438 C   0  0  0  0  0  0  0  0  0  0  0  0
    6.1824   48.5864   29.2087 O   0  0  0  0  0  0  0  0  0  0  0  0
    4.7777   48.4380   28.9984 C   0  0  1  0  0  0  0  0  0  0  0  0
    4.1864   49.7713   28.5390 C   0  0  0  0  0  0  0  0  0  0  0  0
    4.4772   47.3309   27.9966 C   0  0  0  0  0  0  0  0  0  0  0  0
    3.6080   46.2891   28.4051 C   0  0  0  0  0  0  0  0  0  0  0  0
    4.9819   47.3284   26.6500 C   0  0  0  0  0  0  0  0  0  0  0  0
    3.2767   45.2988   27.4901 C   0  0  0  0  0  0  0  0  0  0  0  0
    4.5955   46.3024   25.7595 C   0  0  0  0  0  0  0  0  0  0  0  0
    5.8507   48.3574   26.1578 N   0  0  0  0  0  0  0  0  0  0  0  0
    2.4584   44.2005   27.6720 O   0  0  0  0  0  0  0  0  0  0  0  0
    3.7483   45.3059   26.2230 C   0  0  0  0  0  0  0  0  0  0  0  0
    5.6076   48.9117   24.9225 O   0  0  0  0  0  0  0  0  0  0  0  0
    6.9595   48.5515   26.6946 O   0  0  0  0  0  0  0  0  0  0  0  0
    2.4165   43.4710   26.4380 C   0  0  0  0  0  0  0  0  0  0  0  0
    3.2534   44.2119   25.5395 O   0  0  0  0  0  0  0  0  0  0  0  0
    8.8127   40.1842   34.2128 O   0  0  0  0  0  0  0  0  0  0  0  0
   11.2414   40.7950   33.3705 O   0  0  0  0  0  0  0  0  0  0  0  0
   10.9178   40.6922   31.9982 C   0  0  0  0  0  0  0  0  0  0  0  0
   11.5175   39.3837   31.4423 C   0  0  0  0  0  0  0  0  0  0  0  0
   12.7507   39.0887   32.0753 O   0  0  0  0  0  0  0  0  0  0  0  0
   10.6027   38.1916   31.6658 C   0  0  0  0  0  0  0  0  0  0  0  0
   12.9384   37.6819   32.0278 C   0  0  0  0  0  0  0  0  0  0  0  0
    9.6371   38.0805   30.6470 O   0  0  0  0  0  0  0  0  0  0  0  0
   11.5780   37.0215   31.6935 C   0  0  0  0  0  0  0  0  0  0  0  0
   13.4844   37.2119   33.3242 N   0  0  0  0  0  0  0  0  0  0  0  0
   11.6095   36.3201   30.4679 O   0  0  0  0  0  0  0  0  0  0  0  0
   14.4797   36.3318   33.5730 C   0  0  0  0  0  0  0  0  0  0  0  0
   13.1136   37.6278   34.5691 C   0  0  0  0  0  0  0  0  0  0  0  0
   15.2073   35.6155   32.6742 N   0  0  0  0  0  0  0  0  0  0  0  0
   14.6754   36.2305   34.9184 C   0  0  0  0  0  0  0  0  0  0  0  0
   13.8213   37.0452   35.5785 N   0  0  0  0  0  0  0  0  0  0  0  0
   16.1640   34.7604   33.1549 C   0  0  0  0  0  0  0  0  0  0  0  0
   15.6525   35.3507   35.4132 C   0  0  0  0  0  0  0  0  0  0  0  0
   16.3794   34.6318   34.5044 N   0  0  0  0  0  0  0  0  0  0  0  0
   15.8999   35.1934   36.8091 N   0  0  0  0  0  0  0  0  0  0  0  0
    8.9995   45.4381   33.6719 H   0  0  0  0  0  0  0  0  0  0  0  0
   10.7764   46.9369   33.0157 H   0  0  0  0  0  0  0  0  0  0  0  0
   11.0501   46.2277   34.4981 H   0  0  0  0  0  0  0  0  0  0  0  0
   10.7413   44.9077   31.1834 H   0  0  0  0  0  0  0  0  0  0  0  0
    9.3646   43.8352   31.4710 H   0  0  0  0  0  0  0  0  0  0  0  0
    7.0147   44.7171   31.5890 H   0  0  0  0  0  0  0  0  0  0  0  0
   10.3462   47.1884   30.4063 H   0  0  0  0  0  0  0  0  0  0  0  0
    5.4685   46.2888   30.5306 H   0  0  0  0  0  0  0  0  0  0  0  0
    8.7916   48.7693   29.3409 H   0  0  0  0  0  0  0  0  0  0  0  0
    4.2995   48.2164   29.9785 H   0  0  0  0  0  0  0  0  0  0  0  0
    4.6837   50.1406   27.6196 H   0  0  0  0  0  0  0  0  0  0  0  0
    3.0979   49.6615   28.3444 H   0  0  0  0  0  0  0  0  0  0  0  0
    4.3247   50.5334   29.3351 H   0  0  0  0  0  0  0  0  0  0  0  0
    3.1911   46.2548   29.4036 H   0  0  0  0  0  0  0  0  0  0  0  0
    4.9562   46.2789   24.7391 H   0  0  0  0  0  0  0  0  0  0  0  0
    2.8215   42.4476   26.5829 H   0  0  0  0  0  0  0  0  0  0  0  0
    1.3771   43.4325   26.0497 H   0  0  0  0  0  0  0  0  0  0  0  0
    9.8290   40.7408   31.7624 H   0  0  0  0  0  0  0  0  0  0  0  0
   11.3950   41.5477   31.4741 H   0  0  0  0  0  0  0  0  0  0  0  0
   11.6982   39.5114   30.3500 H   0  0  0  0  0  0  0  0  0  0  0  0
   10.1117   38.2604   32.6660 H   0  0  0  0  0  0  0  0  0  0  0  0
   13.6767   37.4557   31.2267 H   0  0  0  0  0  0  0  0  0  0  0  0
    8.8961   38.6951   30.8871 H   0  0  0  0  0  0  0  0  0  0  0  0
   11.2791   36.3072   32.4923 H   0  0  0  0  0  0  0  0  0  0  0  0
   11.8828   36.9598   29.7589 H   0  0  0  0  0  0  0  0  0  0  0  0
   12.3300   38.3539   34.7446 H   0  0  0  0  0  0  0  0  0  0  0  0
   16.7561   34.1785   32.4621 H   0  0  0  0  0  0  0  0  0  0  0  0
   16.6347   34.5303   37.1416 H   0  0  0  0  0  0  0  0  0  0  0  0
   15.3531   35.7360   37.5140 H   0  0  0  0  0  0  0  0  0  0  0  0
  1  2  2  0
  1  3  1  0
  3  4  1  0
  4  5  1  0
  6  1  1  0
  7  6  1  0
  6  8  1  0
  8  9  1  0
  9 10  2  0
 11  9  1  0
 10 12  1  0
 13 11  2  0
 12 14  2  0
 14 13  1  0
 14 15  1  0
 15 16  1  0
 16 17  1  0
 16 18  1  0
 18 19  2  0
 20 18  1  0
 19 21  1  0
 22 20  2  0
 20 23  1  0
 21 24  1  0
 21 25  2  0
 25 22  1  0
 23 26  1  0
 23 27  2  0
 24 28  1  0
 25 29  1  0
 28 29  1  0
  4 30  2  0
  4 31  1  0
 32 31  1  0
 32 33  1  0
 33 34  1  0
 33 35  1  0
 34 36  1  0
 35 37  1  0
 35 38  1  0
 38 36  1  0
 36 39  1  0
 38 40  1  0
 41 39  1  0
 42 39  1  0
 43 41  2  0
 41 44  1  0
 45 42  2  0
 46 43  1  0
 44 47  2  0
 44 45  1  0
 48 46  2  0
 48 47  1  0
 47 49  1  0
  6 50  1  1
  7 51  1  0
  7 52  1  0
  8 53  1  0
  8 54  1  0
 10 55  1  0
 11 56  1  0
 12 57  1  0
 13 58  1  0
 16 59  1  1
 17 60  1  0
 17 61  1  0
 17 62  1  0
 19 63  1  0
 22 64  1  0
 28 65  1  0
 28 66  1  0
 32 67  1  0
 32 68  1  0
 33 69  1  0
 35 70  1  0
 36 71  1  0
 37 72  1  0
 38 73  1  0
 40 74  1  0
 42 75  1  0
 46 76  1  0
 49 77  1  0
 49 78  1  0
M  CHG  3   5  -1  23   1  26  -1
M  END
>  <EmbedRMS>  (277) 
0.0818012575875

$$$$

     RDKit          3D

 78 83  0  0  0  0  0  0  0  0999 V2000
   10.2834   43.7662   33.8256 C   0  0  0  0  0  0  0  0  0  0  0  0
   11.4102   43.5929   34.3752 O   0  0  0  0  0  0  0  0  0  0  0  0
    9.3637   42.7255   33.7348 O   0  0  0  0  0  0  0  0  0  0  0  0
    9.8905   41.2266   34.2933 P   0  0  0  0  0  0  0  0  0  0  0  0
   10.3743   41.4557   35.8827 O   0  0  0  0  0  0  0  0  0  0  0  0
    9.9548   45.0695   33.2036 C   0  0  1  0  0  0  0  0  0  0  0  0
   11.0274   46.0322   33.4760 N   0  0  0  0  0  0  0  0  0  0  0  0
    9.7471   44.8484   31.6876 C   0  0  0  0  0  0  0  0  0  0  0  0
    8.7926   45.8410   31.0846 C   0  0  0  0  0  0  0  0  0  0  0  0
    7.4059   45.6010   31.0991 C   0  0  0  0  0  0  0  0  0  0  0  0
    9.2817   46.9876   30.4419 C   0  0  0  0  0  0  0  0  0  0  0  0
    6.5242   46.5006   30.4842 C   0  0  0  0  0  0  0  0  0  0  0  0
    8.4005   47.8875   29.8318 C   0  0  0  0  0  0  0  0  0  0  0  0
    7.0184   47.6579   29.8470 C   0  0  0  0  0  0  0  0  0  0  0  0
    6.1877   48.5964   29.2129 O   0  0  0  0  0  0  0  0  0  0  0  0
    4.7579   48.6019   29.2250 C   0  0  1  0  0  0  0  0  0  0  0  0
    4.2161   49.0239   30.5960 C   0  0  0  0  0  0  0  0  0  0  0  0
    4.2122   49.5183   28.1425 C   0  0  0  0  0  0  0  0  0  0  0  0
    2.9611   49.1757   27.5726 C   0  0  0  0  0  0  0  0  0  0  0  0
    4.9063   50.6807   27.6554 C   0  0  0  0  0  0  0  0  0  0  0  0
    2.4606   49.9583   26.5409 C   0  0  0  0  0  0  0  0  0  0  0  0
    4.3522   51.4287   26.5908 C   0  0  0  0  0  0  0  0  0  0  0  0
    6.1534   51.1178   28.2177 N   0  0  0  0  0  0  0  0  0  0  0  0
    1.2783   49.8052   25.8427 O   0  0  0  0  0  0  0  0  0  0  0  0
    3.1287   51.0343   26.0679 C   0  0  0  0  0  0  0  0  0  0  0  0
    6.2721   51.3113   29.5737 O   0  0  0  0  0  0  0  0  0  0  0  0
    7.0588   51.5393   27.4688 O   0  0  0  0  0  0  0  0  0  0  0  0
    1.2009   50.8549   24.8686 C   0  0  0  0  0  0  0  0  0  0  0  0
    2.4027   51.6168   25.0469 O   0  0  0  0  0  0  0  0  0  0  0  0
    8.8121   40.1851   34.2128 O   0  0  0  0  0  0  0  0  0  0  0  0
   11.2403   40.7946   33.3668 O   0  0  0  0  0  0  0  0  0  0  0  0
   10.9126   40.6859   31.9954 C   0  0  0  0  0  0  0  0  0  0  0  0
   11.5175   39.3787   31.4405 C   0  0  0  0  0  0  0  0  0  0  0  0
   12.7490   39.0864   32.0752 O   0  0  0  0  0  0  0  0  0  0  0  0
   10.6061   38.1868   31.6656 C   0  0  0  0  0  0  0  0  0  0  0  0
   12.9356   37.6796   32.0292 C   0  0  0  0  0  0  0  0  0  0  0  0
    9.6399   38.0903   30.6471 O   0  0  0  0  0  0  0  0  0  0  0  0
   11.5765   37.0145   31.7044 C   0  0  0  0  0  0  0  0  0  0  0  0
   13.4858   37.2125   33.3244 N   0  0  0  0  0  0  0  0  0  0  0  0
   11.6101   36.3397   30.4673 O   0  0  0  0  0  0  0  0  0  0  0  0
   14.4805   36.3319   33.5729 C   0  0  0  0  0  0  0  0  0  0  0  0
   13.1143   37.6277   34.5694 C   0  0  0  0  0  0  0  0  0  0  0  0
   15.2076   35.6153   32.6741 N   0  0  0  0  0  0  0  0  0  0  0  0
   14.6760   36.2304   34.9184 C   0  0  0  0  0  0  0  0  0  0  0  0
   13.8219   37.0449   35.5786 N   0  0  0  0  0  0  0  0  0  0  0  0
   16.1641   34.7600   33.1548 C   0  0  0  0  0  0  0  0  0  0  0  0
   15.6528   35.3505   35.4132 C   0  0  0  0  0  0  0  0  0  0  0  0
   16.3795   34.6314   34.5043 N   0  0  0  0  0  0  0  0  0  0  0  0
   15.9002   35.1932   36.8091 N   0  0  0  0  0  0  0  0  0  0  0  0
    9.0121   45.4318   33.6713 H   0  0  0  0  0  0  0  0  0  0  0  0
   10.7261   46.9688   33.1215 H   0  0  0  0  0  0  0  0  0  0  0  0
   11.8908   45.7658   32.9476 H   0  0  0  0  0  0  0  0  0  0  0  0
   10.7236   44.8824   31.1558 H   0  0  0  0  0  0  0  0  0  0  0  0
    9.3425   43.8332   31.4758 H   0  0  0  0  0  0  0  0  0  0  0  0
    7.0106   44.7149   31.5805 H   0  0  0  0  0  0  0  0  0  0  0  0
   10.3460   47.1858   30.4097 H   0  0  0  0  0  0  0  0  0  0  0  0
    5.4673   46.2793   30.5113 H   0  0  0  0  0  0  0  0  0  0  0  0
    8.7940   48.7692   29.3418 H   0  0  0  0  0  0  0  0  0  0  0  0
    4.4038   47.5710   29.0045 H   0  0  0  0  0  0  0  0  0  0  0  0
    3.1095   48.9272   30.6113 H   0  0  0  0  0  0  0  0  0  0  0  0
    4.6287   48.3781   31.3974 H   0  0  0  0  0  0  0  0  0  0  0  0
    4.4798   50.0758   30.8249 H   0  0  0  0  0  0  0  0  0  0  0  0
    2.3998   48.3158   27.9165 H   0  0  0  0  0  0  0  0  0  0  0  0
    4.8524   52.3050   26.1987 H   0  0  0  0  0  0  0  0  0  0  0  0
    1.1668   50.4270   23.8447 H   0  0  0  0  0  0  0  0  0  0  0  0
    0.3117   51.4915   25.0598 H   0  0  0  0  0  0  0  0  0  0  0  0
    9.8215   40.7200   31.7636 H   0  0  0  0  0  0  0  0  0  0  0  0
   11.3803   41.5437   31.4664 H   0  0  0  0  0  0  0  0  0  0  0  0
   11.6999   39.5042   30.3482 H   0  0  0  0  0  0  0  0  0  0  0  0
   10.1085   38.2767   32.6603 H   0  0  0  0  0  0  0  0  0  0  0  0
   13.6679   37.4520   31.2229 H   0  0  0  0  0  0  0  0  0  0  0  0
    9.0016   37.3868   30.9349 H   0  0  0  0  0  0  0  0  0  0  0  0
   11.2666   36.3062   32.5084 H   0  0  0  0  0  0  0  0  0  0  0  0
   12.1389   35.5126   30.6150 H   0  0  0  0  0  0  0  0  0  0  0  0
   12.3300   38.3529   34.7449 H   0  0  0  0  0  0  0  0  0  0  0  0
   16.7560   34.1779   32.4621 H   0  0  0  0  0  0  0  0  0  0  0  0
   15.3534   35.7359   37.5140 H   0  0  0  0  0  0  0  0  0  0  0  0
   16.6347   34.5299   37.1416 H   0  0  0  0  0  0  0  0  0  0  0  0
  1  2  2  0
  1  3  1  0
  3  4  1  0
  4  5  1  0
  6  1  1  0
  7  6  1  0
  6  8  1  0
  8  9  1  0
  9 10  2  0
 11  9  1  0
 10 12  1  0
 13 11  2  0
 12 14  2  0
 14 13  1  0
 14 15  1  0
 15 16  1  0
 16 17  1  0
 16 18  1  0
 18 19  2  0
 20 18  1  0
 19 21  1  0
 22 20  2  0
 20 23  1  0
 21 24  1  0
 21 25  2  0
 25 22  1  0
 23 26  1  0
 23 27  2  0
 24 28  1  0
 25 29  1  0
 28 29  1  0
  4 30  2  0
  4 31  1  0
 32 31  1  0
 32 33  1  0
 33 34  1  0
 33 35  1  0
 34 36  1  0
 35 37  1  0
 35 38  1  0
 38 36  1  0
 36 39  1  0
 38 40  1  0
 41 39  1  0
 42 39  1  0
 43 41  2  0
 41 44  1  0
 45 42  2  0
 46 43  1  0
 44 47  2  0
 44 45  1  0
 48 46  2  0
 48 47  1  0
 47 49  1  0
  6 50  1  1
  7 51  1  0
  7 52  1  0
  8 53  1  0
  8 54  1  0
 10 55  1  0
 11 56  1  0
 12 57  1  0
 13 58  1  0
 16 59  1  6
 17 60  1  0
 17 61  1  0
 17 62  1  0
 19 63  1  0
 22 64  1  0
 28 65  1  0
 28 66  1  0
 32 67  1  0
 32 68  1  0
 33 69  1  0
 35 70  1  0
 36 71  1  0
 37 72  1  0
 38 73  1  0
 40 74  1  0
 42 75  1  0
 46 76  1  0
 49 77  1  0
 49 78  1  0
M  CHG  3   5  -1  23   1  26  -1
M  END
>  <EmbedRMS>  (278) 
0.0823741629071

$$$$

     RDKit          3D

 78 83  0  0  0  0  0  0  0  0999 V2000
   10.2835   43.7661   33.8257 C   0  0  0  0  0  0  0  0  0  0  0  0
   11.4102   43.5930   34.3753 O   0  0  0  0  0  0  0  0  0  0  0  0
    9.3638   42.7255   33.7349 O   0  0  0  0  0  0  0  0  0  0  0  0
    9.8907   41.2265   34.2933 P   0  0  0  0  0  0  0  0  0  0  0  0
   10.3743   41.4556   35.8828 O   0  0  0  0  0  0  0  0  0  0  0  0
    9.9547   45.0694   33.2036 C   0  0  1  0  0  0  0  0  0  0  0  0
   11.0274   46.0321   33.4756 N   0  0  0  0  0  0  0  0  0  0  0  0
    9.7468   44.8478   31.6877 C   0  0  0  0  0  0  0  0  0  0  0  0
    8.7923   45.8402   31.0844 C   0  0  0  0  0  0  0  0  0  0  0  0
    7.4063   45.6016   31.0993 C   0  0  0  0  0  0  0  0  0  0  0  0
    9.2812   46.9870   30.4430 C   0  0  0  0  0  0  0  0  0  0  0  0
    6.5286   46.5038   30.4841 C   0  0  0  0  0  0  0  0  0  0  0  0
    8.4021   47.8895   29.8326 C   0  0  0  0  0  0  0  0  0  0  0  0
    7.0130   47.6545   29.8451 C   0  0  0  0  0  0  0  0  0  0  0  0
    6.0695   48.5089   29.2455 O   0  0  0  0  0  0  0  0  0  0  0  0
    6.2973   49.7121   28.4998 C   0  0  1  0  0  0  0  0  0  0  0  0
    6.7323   50.8508   29.4355 C   0  0  0  0  0  0  0  0  0  0  0  0
    7.1689   49.4769   27.2646 C   0  0  0  0  0  0  0  0  0  0  0  0
    8.4460   50.0922   27.1475 C   0  0  0  0  0  0  0  0  0  0  0  0
    6.6749   48.7018   26.1569 C   0  0  0  0  0  0  0  0  0  0  0  0
    9.1823   49.8920   25.9882 C   0  0  0  0  0  0  0  0  0  0  0  0
    7.4680   48.5474   24.9974 C   0  0  0  0  0  0  0  0  0  0  0  0
    5.3594   48.1222   26.1571 N   0  0  0  0  0  0  0  0  0  0  0  0
   10.4373   50.3776   25.6747 O   0  0  0  0  0  0  0  0  0  0  0  0
    8.7152   49.1513   24.9599 C   0  0  0  0  0  0  0  0  0  0  0  0
    4.6203   48.1147   24.9966 O   0  0  0  0  0  0  0  0  0  0  0  0
    4.9675   47.4333   27.1198 O   0  0  0  0  0  0  0  0  0  0  0  0
   10.7787   49.9074   24.3637 C   0  0  0  0  0  0  0  0  0  0  0  0
    9.6504   49.1288   23.9431 O   0  0  0  0  0  0  0  0  0  0  0  0
    8.8123   40.1850   34.2127 O   0  0  0  0  0  0  0  0  0  0  0  0
   11.2407   40.7945   33.3670 O   0  0  0  0  0  0  0  0  0  0  0  0
   10.9135   40.6866   31.9954 C   0  0  0  0  0  0  0  0  0  0  0  0
   11.5167   39.3787   31.4404 C   0  0  0  0  0  0  0  0  0  0  0  0
   12.7486   39.0849   32.0734 O   0  0  0  0  0  0  0  0  0  0  0  0
   10.6039   38.1884   31.6669 C   0  0  0  0  0  0  0  0  0  0  0  0
   12.9329   37.6775   32.0284 C   0  0  0  0  0  0  0  0  0  0  0  0
    9.6373   38.0938   30.6485 O   0  0  0  0  0  0  0  0  0  0  0  0
   11.5737   37.0141   31.7055 C   0  0  0  0  0  0  0  0  0  0  0  0
   13.4853   37.2120   33.3238 N   0  0  0  0  0  0  0  0  0  0  0  0
   11.6209   36.3379   30.4684 O   0  0  0  0  0  0  0  0  0  0  0  0
   14.4804   36.3319   33.5726 C   0  0  0  0  0  0  0  0  0  0  0  0
   13.1141   37.6274   34.5689 C   0  0  0  0  0  0  0  0  0  0  0  0
   15.2076   35.6152   32.6740 N   0  0  0  0  0  0  0  0  0  0  0  0
   14.6761   36.2307   34.9181 C   0  0  0  0  0  0  0  0  0  0  0  0
   13.8218   37.0451   35.5783 N   0  0  0  0  0  0  0  0  0  0  0  0
   16.1642   34.7600   33.1548 C   0  0  0  0  0  0  0  0  0  0  0  0
   15.6528   35.3507   35.4131 C   0  0  0  0  0  0  0  0  0  0  0  0
   16.3795   34.6315   34.5043 N   0  0  0  0  0  0  0  0  0  0  0  0
   15.9001   35.1933   36.8090 N   0  0  0  0  0  0  0  0  0  0  0  0
    9.0121   45.4317   33.6713 H   0  0  0  0  0  0  0  0  0  0  0  0
   11.8906   45.7658   32.9470 H   0  0  0  0  0  0  0  0  0  0  0  0
   10.7259   46.9687   33.1212 H   0  0  0  0  0  0  0  0  0  0  0  0
    9.3419   43.8325   31.4763 H   0  0  0  0  0  0  0  0  0  0  0  0
   10.7232   44.8814   31.1557 H   0  0  0  0  0  0  0  0  0  0  0  0
    7.0086   44.7169   31.5811 H   0  0  0  0  0  0  0  0  0  0  0  0
   10.3458   47.1849   30.4134 H   0  0  0  0  0  0  0  0  0  0  0  0
    5.4643   46.3055   30.5014 H   0  0  0  0  0  0  0  0  0  0  0  0
    8.8245   48.7574   29.3621 H   0  0  0  0  0  0  0  0  0  0  0  0
    5.3066   50.0362   28.1132 H   0  0  0  0  0  0  0  0  0  0  0  0
    5.9532   51.0075   30.2115 H   0  0  0  0  0  0  0  0  0  0  0  0
    7.6834   50.6247   29.9556 H   0  0  0  0  0  0  0  0  0  0  0  0
    6.8417   51.7971   28.8638 H   0  0  0  0  0  0  0  0  0  0  0  0
    8.8693   50.7085   27.9273 H   0  0  0  0  0  0  0  0  0  0  0  0
    7.1201   47.9705   24.1502 H   0  0  0  0  0  0  0  0  0  0  0  0
   10.9304   50.7652   23.6755 H   0  0  0  0  0  0  0  0  0  0  0  0
   11.6878   49.2718   24.4082 H   0  0  0  0  0  0  0  0  0  0  0  0
    9.8226   40.7226   31.7631 H   0  0  0  0  0  0  0  0  0  0  0  0
   11.3828   41.5438   31.4669 H   0  0  0  0  0  0  0  0  0  0  0  0
   11.6978   39.5037   30.3478 H   0  0  0  0  0  0  0  0  0  0  0  0
   10.1084   38.2787   32.6627 H   0  0  0  0  0  0  0  0  0  0  0  0
   13.6638   37.4472   31.2214 H   0  0  0  0  0  0  0  0  0  0  0  0
    8.9763   37.4191   30.9532 H   0  0  0  0  0  0  0  0  0  0  0  0
   11.2821   36.3054   32.5172 H   0  0  0  0  0  0  0  0  0  0  0  0
   10.8657   35.6935   30.4653 H   0  0  0  0  0  0  0  0  0  0  0  0
   12.3293   38.3522   34.7444 H   0  0  0  0  0  0  0  0  0  0  0  0
   16.7561   34.1778   32.4621 H   0  0  0  0  0  0  0  0  0  0  0  0
   16.6346   34.5300   37.1416 H   0  0  0  0  0  0  0  0  0  0  0  0
   15.3533   35.7362   37.5138 H   0  0  0  0  0  0  0  0  0  0  0  0
  1  2  2  0
  1  3  1  0
  3  4  1  0
  4  5  1  0
  6  1  1  0
  7  6  1  0
  6  8  1  0
  8  9  1  0
  9 10  2  0
 11  9  1  0
 10 12  1  0
 13 11  2  0
 12 14  2  0
 14 13  1  0
 14 15  1  0
 15 16  1  0
 16 17  1  0
 16 18  1  0
 18 19  2  0
 20 18  1  0
 19 21  1  0
 22 20  2  0
 20 23  1  0
 21 24  1  0
 21 25  2  0
 25 22  1  0
 23 26  1  0
 23 27  2  0
 24 28  1  0
 25 29  1  0
 28 29  1  0
  4 30  2  0
  4 31  1  0
 32 31  1  0
 32 33  1  0
 33 34  1  0
 33 35  1  0
 34 36  1  0
 35 37  1  0
 35 38  1  0
 38 36  1  0
 36 39  1  0
 38 40  1  0
 41 39  1  0
 42 39  1  0
 43 41  2  0
 41 44  1  0
 45 42  2  0
 46 43  1  0
 44 47  2  0
 44 45  1  0
 48 46  2  0
 48 47  1  0
 47 49  1  0
  6 50  1  1
  7 51  1  0
  7 52  1  0
  8 53  1  0
  8 54  1  0
 10 55  1  0
 11 56  1  0
 12 57  1  0
 13 58  1  0
 16 59  1  6
 17 60  1  0
 17 61  1  0
 17 62  1  0
 19 63  1  0
 22 64  1  0
 28 65  1  0
 28 66  1  0
 32 67  1  0
 32 68  1  0
 33 69  1  0
 35 70  1  0
 36 71  1  0
 37 72  1  0
 38 73  1  0
 40 74  1  0
 42 75  1  0
 46 76  1  0
 49 77  1  0
 49 78  1  0
M  CHG  3   5  -1  23   1  26  -1
M  END
>  <EmbedRMS>  (279) 
0.0825501193789

$$$$

     RDKit          3D

 78 83  0  0  0  0  0  0  0  0999 V2000
   10.2803   43.7666   33.8251 C   0  0  0  0  0  0  0  0  0  0  0  0
   11.4110   43.5919   34.3667 O   0  0  0  0  0  0  0  0  0  0  0  0
    9.3616   42.7252   33.7349 O   0  0  0  0  0  0  0  0  0  0  0  0
    9.8896   41.2269   34.2945 P   0  0  0  0  0  0  0  0  0  0  0  0
   10.3732   41.4568   35.8838 O   0  0  0  0  0  0  0  0  0  0  0  0
    9.9458   45.0737   33.2113 C   0  0  1  0  0  0  0  0  0  0  0  0
   11.0266   46.0293   33.4705 N   0  0  0  0  0  0  0  0  0  0  0  0
    9.7534   44.8539   31.6951 C   0  0  0  0  0  0  0  0  0  0  0  0
    8.7955   45.8411   31.0849 C   0  0  0  0  0  0  0  0  0  0  0  0
    7.4087   45.6001   31.1000 C   0  0  0  0  0  0  0  0  0  0  0  0
    9.2831   46.9874   30.4395 C   0  0  0  0  0  0  0  0  0  0  0  0
    6.5282   46.5006   30.4845 C   0  0  0  0  0  0  0  0  0  0  0  0
    8.4027   47.8885   29.8297 C   0  0  0  0  0  0  0  0  0  0  0  0
    7.0134   47.6524   29.8502 C   0  0  0  0  0  0  0  0  0  0  0  0
    6.0859   48.5267   29.2602 O   0  0  0  0  0  0  0  0  0  0  0  0
    6.4017   49.7895   28.6673 C   0  0  1  0  0  0  0  0  0  0  0  0
    5.1595   50.3217   27.9548 C   0  0  0  0  0  0  0  0  0  0  0  0
    6.8563   50.7777   29.7282 C   0  0  0  0  0  0  0  0  0  0  0  0
    6.1336   50.8442   30.9448 C   0  0  0  0  0  0  0  0  0  0  0  0
    8.0213   51.5963   29.5589 C   0  0  0  0  0  0  0  0  0  0  0  0
    6.6031   51.6780   31.9507 C   0  0  0  0  0  0  0  0  0  0  0  0
    8.4604   52.4150   30.6248 C   0  0  0  0  0  0  0  0  0  0  0  0
    8.7500   51.6214   28.3216 N   0  0  0  0  0  0  0  0  0  0  0  0
    6.0732   51.8886   33.2091 O   0  0  0  0  0  0  0  0  0  0  0  0
    7.7201   52.4261   31.7996 C   0  0  0  0  0  0  0  0  0  0  0  0
    8.0811   51.7790   27.1299 O   0  0  0  0  0  0  0  0  0  0  0  0
    9.9939   51.7257   28.3324 O   0  0  0  0  0  0  0  0  0  0  0  0
    6.9125   52.8310   33.8904 C   0  0  0  0  0  0  0  0  0  0  0  0
    7.9517   53.1485   32.9543 O   0  0  0  0  0  0  0  0  0  0  0  0
    8.8122   40.1844   34.2135 O   0  0  0  0  0  0  0  0  0  0  0  0
   11.2401   40.7950   33.3698 O   0  0  0  0  0  0  0  0  0  0  0  0
   10.9143   40.6914   31.9981 C   0  0  0  0  0  0  0  0  0  0  0  0
   11.5269   39.3911   31.4385 C   0  0  0  0  0  0  0  0  0  0  0  0
   12.7519   39.0911   32.0837 O   0  0  0  0  0  0  0  0  0  0  0  0
   10.6113   38.1932   31.6451 C   0  0  0  0  0  0  0  0  0  0  0  0
   12.9413   37.6838   32.0297 C   0  0  0  0  0  0  0  0  0  0  0  0
    9.6064   38.0877   30.6599 O   0  0  0  0  0  0  0  0  0  0  0  0
   11.5822   37.0197   31.6877 C   0  0  0  0  0  0  0  0  0  0  0  0
   13.4840   37.2104   33.3254 N   0  0  0  0  0  0  0  0  0  0  0  0
   11.6179   36.3072   30.4690 O   0  0  0  0  0  0  0  0  0  0  0  0
   14.4797   36.3309   33.5738 C   0  0  0  0  0  0  0  0  0  0  0  0
   13.1136   37.6269   34.5702 C   0  0  0  0  0  0  0  0  0  0  0  0
   15.2074   35.6152   32.6747 N   0  0  0  0  0  0  0  0  0  0  0  0
   14.6756   36.2298   34.9190 C   0  0  0  0  0  0  0  0  0  0  0  0
   13.8217   37.0445   35.5793 N   0  0  0  0  0  0  0  0  0  0  0  0
   16.1643   34.7603   33.1551 C   0  0  0  0  0  0  0  0  0  0  0  0
   15.6528   35.3503   35.4136 C   0  0  0  0  0  0  0  0  0  0  0  0
   16.3798   34.6316   34.5046 N   0  0  0  0  0  0  0  0  0  0  0  0
   15.9004   35.1930   36.8094 N   0  0  0  0  0  0  0  0  0  0  0  0
    8.9995   45.4384   33.6724 H   0  0  0  0  0  0  0  0  0  0  0  0
   11.0504   46.2280   34.4979 H   0  0  0  0  0  0  0  0  0  0  0  0
   10.7763   46.9369   33.0155 H   0  0  0  0  0  0  0  0  0  0  0  0
   10.7405   44.9069   31.1836 H   0  0  0  0  0  0  0  0  0  0  0  0
    9.3634   43.8353   31.4717 H   0  0  0  0  0  0  0  0  0  0  0  0
    7.0130   44.7157   31.5840 H   0  0  0  0  0  0  0  0  0  0  0  0
   10.3474   47.1852   30.4050 H   0  0  0  0  0  0  0  0  0  0  0  0
    5.4637   46.3044   30.5053 H   0  0  0  0  0  0  0  0  0  0  0  0
    8.8161   48.7587   29.3410 H   0  0  0  0  0  0  0  0  0  0  0  0
    7.1828   49.6232   27.8975 H   0  0  0  0  0  0  0  0  0  0  0  0
    5.3732   51.3064   27.4875 H   0  0  0  0  0  0  0  0  0  0  0  0
    4.3166   50.4359   28.6694 H   0  0  0  0  0  0  0  0  0  0  0  0
    4.8527   49.6124   27.1571 H   0  0  0  0  0  0  0  0  0  0  0  0
    5.2464   50.2458   31.1094 H   0  0  0  0  0  0  0  0  0  0  0  0
    9.3385   53.0408   30.5303 H   0  0  0  0  0  0  0  0  0  0  0  0
    6.3355   53.7442   34.1466 H   0  0  0  0  0  0  0  0  0  0  0  0
    7.3462   52.3699   34.8024 H   0  0  0  0  0  0  0  0  0  0  0  0
    9.8233   40.7200   31.7652 H   0  0  0  0  0  0  0  0  0  0  0  0
   11.3774   41.5548   31.4741 H   0  0  0  0  0  0  0  0  0  0  0  0
   11.7312   39.5361   30.3532 H   0  0  0  0  0  0  0  0  0  0  0  0
   10.1203   38.2696   32.6410 H   0  0  0  0  0  0  0  0  0  0  0  0
   13.6850   37.4639   31.2321 H   0  0  0  0  0  0  0  0  0  0  0  0
   10.0251   38.1792   29.7654 H   0  0  0  0  0  0  0  0  0  0  0  0
   11.2757   36.3135   32.4908 H   0  0  0  0  0  0  0  0  0  0  0  0
   11.9838   36.9111   29.7708 H   0  0  0  0  0  0  0  0  0  0  0  0
   12.3307   38.3536   34.7458 H   0  0  0  0  0  0  0  0  0  0  0  0
   16.7566   34.1787   32.4623 H   0  0  0  0  0  0  0  0  0  0  0  0
   16.6353   34.5301   37.1419 H   0  0  0  0  0  0  0  0  0  0  0  0
   15.3535   35.7355   37.5144 H   0  0  0  0  0  0  0  0  0  0  0  0
  1  2  2  0
  1  3  1  0
  3  4  1  0
  4  5  1  0
  6  1  1  0
  7  6  1  0
  6  8  1  0
  8  9  1  0
  9 10  2  0
 11  9  1  0
 10 12  1  0
 13 11  2  0
 12 14  2  0
 14 13  1  0
 14 15  1  0
 15 16  1  0
 16 17  1  0
 16 18  1  0
 18 19  2  0
 20 18  1  0
 19 21  1  0
 22 20  2  0
 20 23  1  0
 21 24  1  0
 21 25  2  0
 25 22  1  0
 23 26  1  0
 23 27  2  0
 24 28  1  0
 25 29  1  0
 28 29  1  0
  4 30  2  0
  4 31  1  0
 32 31  1  0
 32 33  1  0
 33 34  1  0
 33 35  1  0
 34 36  1  0
 35 37  1  0
 35 38  1  0
 38 36  1  0
 36 39  1  0
 38 40  1  0
 41 39  1  0
 42 39  1  0
 43 41  2  0
 41 44  1  0
 45 42  2  0
 46 43  1  0
 44 47  2  0
 44 45  1  0
 48 46  2  0
 48 47  1  0
 47 49  1  0
  6 50  1  1
  7 51  1  0
  7 52  1  0
  8 53  1  0
  8 54  1  0
 10 55  1  0
 11 56  1  0
 12 57  1  0
 13 58  1  0
 16 59  1  6
 17 60  1  0
 17 61  1  0
 17 62  1  0
 19 63  1  0
 22 64  1  0
 28 65  1  0
 28 66  1  0
 32 67  1  0
 32 68  1  0
 33 69  1  0
 35 70  1  0
 36 71  1  0
 37 72  1  0
 38 73  1  0
 40 74  1  0
 42 75  1  0
 46 76  1  0
 49 77  1  0
 49 78  1  0
M  CHG  3   5  -1  23   1  26  -1
M  END
>  <EmbedRMS>  (280) 
0.080654274797

$$$$

     RDKit          3D

 78 83  0  0  0  0  0  0  0  0999 V2000
   10.2803   43.7665   33.8250 C   0  0  0  0  0  0  0  0  0  0  0  0
   11.4110   43.5919   34.3666 O   0  0  0  0  0  0  0  0  0  0  0  0
    9.3618   42.7250   33.7345 O   0  0  0  0  0  0  0  0  0  0  0  0
    9.8898   41.2267   34.2940 P   0  0  0  0  0  0  0  0  0  0  0  0
   10.3735   41.4566   35.8832 O   0  0  0  0  0  0  0  0  0  0  0  0
    9.9459   45.0736   33.2111 C   0  0  1  0  0  0  0  0  0  0  0  0
   11.0265   46.0293   33.4709 N   0  0  0  0  0  0  0  0  0  0  0  0
    9.7542   44.8540   31.6948 C   0  0  0  0  0  0  0  0  0  0  0  0
    8.7961   45.8409   31.0845 C   0  0  0  0  0  0  0  0  0  0  0  0
    7.4098   45.6003   31.1008 C   0  0  0  0  0  0  0  0  0  0  0  0
    9.2824   46.9872   30.4395 C   0  0  0  0  0  0  0  0  0  0  0  0
    6.5265   46.4990   30.4865 C   0  0  0  0  0  0  0  0  0  0  0  0
    8.3993   47.8864   29.8318 C   0  0  0  0  0  0  0  0  0  0  0  0
    7.0169   47.6561   29.8459 C   0  0  0  0  0  0  0  0  0  0  0  0
    6.1901   48.6086   29.2220 O   0  0  0  0  0  0  0  0  0  0  0  0
    4.7618   48.5817   29.0956 C   0  0  1  0  0  0  0  0  0  0  0  0
    4.3431   47.5082   28.0785 C   0  0  0  0  0  0  0  0  0  0  0  0
    4.0749   48.5343   30.4619 C   0  0  0  0  0  0  0  0  0  0  0  0
    3.0560   47.5802   30.7332 C   0  0  0  0  0  0  0  0  0  0  0  0
    4.4686   49.4399   31.5083 C   0  0  0  0  0  0  0  0  0  0  0  0
    2.5114   47.5298   32.0091 C   0  0  0  0  0  0  0  0  0  0  0  0
    3.8868   49.3271   32.7910 C   0  0  0  0  0  0  0  0  0  0  0  0
    5.4569   50.4626   31.2969 N   0  0  0  0  0  0  0  0  0  0  0  0
    1.5329   46.6814   32.4908 O   0  0  0  0  0  0  0  0  0  0  0  0
    2.9124   48.3620   32.9951 C   0  0  0  0  0  0  0  0  0  0  0  0
    6.3033   50.8185   32.3216 O   0  0  0  0  0  0  0  0  0  0  0  0
    5.4304   51.1676   30.2676 O   0  0  0  0  0  0  0  0  0  0  0  0
    1.3068   47.0043   33.8695 C   0  0  0  0  0  0  0  0  0  0  0  0
    2.2082   48.0834   34.1508 O   0  0  0  0  0  0  0  0  0  0  0  0
    8.8122   40.1844   34.2134 O   0  0  0  0  0  0  0  0  0  0  0  0
   11.2402   40.7944   33.3688 O   0  0  0  0  0  0  0  0  0  0  0  0
   10.9142   40.6898   31.9971 C   0  0  0  0  0  0  0  0  0  0  0  0
   11.5260   39.3884   31.4376 C   0  0  0  0  0  0  0  0  0  0  0  0
   12.7504   39.0888   32.0816 O   0  0  0  0  0  0  0  0  0  0  0  0
   10.6114   38.1909   31.6460 C   0  0  0  0  0  0  0  0  0  0  0  0
   12.9357   37.6812   32.0303 C   0  0  0  0  0  0  0  0  0  0  0  0
    9.6145   38.0858   30.6534 O   0  0  0  0  0  0  0  0  0  0  0  0
   11.5769   37.0148   31.7012 C   0  0  0  0  0  0  0  0  0  0  0  0
   13.4849   37.2112   33.3247 N   0  0  0  0  0  0  0  0  0  0  0  0
   11.6193   36.3261   30.4724 O   0  0  0  0  0  0  0  0  0  0  0  0
   14.4802   36.3313   33.5730 C   0  0  0  0  0  0  0  0  0  0  0  0
   13.1141   37.6268   34.5698 C   0  0  0  0  0  0  0  0  0  0  0  0
   15.2075   35.6151   32.6741 N   0  0  0  0  0  0  0  0  0  0  0  0
   14.6761   36.2300   34.9184 C   0  0  0  0  0  0  0  0  0  0  0  0
   13.8221   37.0445   35.5789 N   0  0  0  0  0  0  0  0  0  0  0  0
   16.1642   34.7600   33.1547 C   0  0  0  0  0  0  0  0  0  0  0  0
   15.6529   35.3503   35.4131 C   0  0  0  0  0  0  0  0  0  0  0  0
   16.3798   34.6314   34.5042 N   0  0  0  0  0  0  0  0  0  0  0  0
   15.9004   35.1930   36.8090 N   0  0  0  0  0  0  0  0  0  0  0  0
    8.9993   45.4382   33.6719 H   0  0  0  0  0  0  0  0  0  0  0  0
   11.0499   46.2278   34.4983 H   0  0  0  0  0  0  0  0  0  0  0  0
   10.7762   46.9370   33.0160 H   0  0  0  0  0  0  0  0  0  0  0  0
   10.7415   44.9078   31.1837 H   0  0  0  0  0  0  0  0  0  0  0  0
    9.3648   43.8353   31.4710 H   0  0  0  0  0  0  0  0  0  0  0  0
    7.0157   44.7161   31.5867 H   0  0  0  0  0  0  0  0  0  0  0  0
   10.3461   47.1876   30.4055 H   0  0  0  0  0  0  0  0  0  0  0  0
    5.4735   46.2768   30.5271 H   0  0  0  0  0  0  0  0  0  0  0  0
    8.7922   48.7695   29.3439 H   0  0  0  0  0  0  0  0  0  0  0  0
    4.4630   49.5452   28.6316 H   0  0  0  0  0  0  0  0  0  0  0  0
    4.9226   47.6420   27.1405 H   0  0  0  0  0  0  0  0  0  0  0  0
    3.2662   47.6144   27.8276 H   0  0  0  0  0  0  0  0  0  0  0  0
    4.5327   46.4837   28.4555 H   0  0  0  0  0  0  0  0  0  0  0  0
    2.7014   46.8777   29.9934 H   0  0  0  0  0  0  0  0  0  0  0  0
    4.1714   49.9879   33.5996 H   0  0  0  0  0  0  0  0  0  0  0  0
    0.2570   47.3328   34.0199 H   0  0  0  0  0  0  0  0  0  0  0  0
    1.5426   46.1305   34.5124 H   0  0  0  0  0  0  0  0  0  0  0  0
    9.8232   40.7190   31.7645 H   0  0  0  0  0  0  0  0  0  0  0  0
   11.3777   41.5525   31.4723 H   0  0  0  0  0  0  0  0  0  0  0  0
   11.7283   39.5311   30.3515 H   0  0  0  0  0  0  0  0  0  0  0  0
   10.1127   38.2734   32.6377 H   0  0  0  0  0  0  0  0  0  0  0  0
   13.6692   37.4566   31.2242 H   0  0  0  0  0  0  0  0  0  0  0  0
   10.0533   38.1118   29.7636 H   0  0  0  0  0  0  0  0  0  0  0  0
   11.2607   36.3148   32.5102 H   0  0  0  0  0  0  0  0  0  0  0  0
   12.1496   35.5023   30.6324 H   0  0  0  0  0  0  0  0  0  0  0  0
   12.3301   38.3524   34.7455 H   0  0  0  0  0  0  0  0  0  0  0  0
   16.7563   34.1781   32.4619 H   0  0  0  0  0  0  0  0  0  0  0  0
   15.3536   35.7357   37.5139 H   0  0  0  0  0  0  0  0  0  0  0  0
   16.6351   34.5298   37.1415 H   0  0  0  0  0  0  0  0  0  0  0  0
  1  2  2  0
  1  3  1  0
  3  4  1  0
  4  5  1  0
  6  1  1  0
  7  6  1  0
  6  8  1  0
  8  9  1  0
  9 10  2  0
 11  9  1  0
 10 12  1  0
 13 11  2  0
 12 14  2  0
 14 13  1  0
 14 15  1  0
 15 16  1  0
 16 17  1  0
 16 18  1  0
 18 19  2  0
 20 18  1  0
 19 21  1  0
 22 20  2  0
 20 23  1  0
 21 24  1  0
 21 25  2  0
 25 22  1  0
 23 26  1  0
 23 27  2  0
 24 28  1  0
 25 29  1  0
 28 29  1  0
  4 30  2  0
  4 31  1  0
 32 31  1  0
 32 33  1  0
 33 34  1  0
 33 35  1  0
 34 36  1  0
 35 37  1  0
 35 38  1  0
 38 36  1  0
 36 39  1  0
 38 40  1  0
 41 39  1  0
 42 39  1  0
 43 41  2  0
 41 44  1  0
 45 42  2  0
 46 43  1  0
 44 47  2  0
 44 45  1  0
 48 46  2  0
 48 47  1  0
 47 49  1  0
  6 50  1  1
  7 51  1  0
  7 52  1  0
  8 53  1  0
  8 54  1  0
 10 55  1  0
 11 56  1  0
 12 57  1  0
 13 58  1  0
 16 59  1  6
 17 60  1  0
 17 61  1  0
 17 62  1  0
 19 63  1  0
 22 64  1  0
 28 65  1  0
 28 66  1  0
 32 67  1  0
 32 68  1  0
 33 69  1  0
 35 70  1  0
 36 71  1  0
 37 72  1  0
 38 73  1  0
 40 74  1  0
 42 75  1  0
 46 76  1  0
 49 77  1  0
 49 78  1  0
M  CHG  3   5  -1  23   1  26  -1
M  END
>  <EmbedRMS>  (281) 
0.081435089966

$$$$

     RDKit          3D

 78 83  0  0  0  0  0  0  0  0999 V2000
   10.2839   43.7626   33.8275 C   0  0  0  0  0  0  0  0  0  0  0  0
   11.4103   43.5863   34.3767 O   0  0  0  0  0  0  0  0  0  0  0  0
    9.3633   42.7234   33.7351 O   0  0  0  0  0  0  0  0  0  0  0  0
    9.8898   41.2247   34.2940 P   0  0  0  0  0  0  0  0  0  0  0  0
   10.3724   41.4544   35.8836 O   0  0  0  0  0  0  0  0  0  0  0  0
    9.9549   45.0699   33.2062 C   0  0  1  0  0  0  0  0  0  0  0  0
   11.0198   46.0481   33.4570 N   0  0  0  0  0  0  0  0  0  0  0  0
    9.7506   44.8510   31.6921 C   0  0  0  0  0  0  0  0  0  0  0  0
    8.7945   45.8416   31.0865 C   0  0  0  0  0  0  0  0  0  0  0  0
    7.4078   45.6008   31.1007 C   0  0  0  0  0  0  0  0  0  0  0  0
    9.2826   46.9894   30.4451 C   0  0  0  0  0  0  0  0  0  0  0  0
    6.5258   46.5005   30.4862 C   0  0  0  0  0  0  0  0  0  0  0  0
    8.4008   47.8885   29.8343 C   0  0  0  0  0  0  0  0  0  0  0  0
    7.0192   47.6542   29.8436 C   0  0  0  0  0  0  0  0  0  0  0  0
    6.1845   48.5881   29.2075 O   0  0  0  0  0  0  0  0  0  0  0  0
    4.7740   48.4555   29.0283 C   0  0  1  0  0  0  0  0  0  0  0  0
    4.1901   49.7948   28.5777 C   0  0  0  0  0  0  0  0  0  0  0  0
    4.4415   47.3528   28.0335 C   0  0  0  0  0  0  0  0  0  0  0  0
    3.5497   46.3321   28.4456 C   0  0  0  0  0  0  0  0  0  0  0  0
    4.9444   47.3367   26.6888 C   0  0  0  0  0  0  0  0  0  0  0  0
    3.1966   45.3472   27.5324 C   0  0  0  0  0  0  0  0  0  0  0  0
    4.5388   46.3170   25.7996 C   0  0  0  0  0  0  0  0  0  0  0  0
    5.8408   48.3441   26.2054 N   0  0  0  0  0  0  0  0  0  0  0  0
    2.3544   44.2675   27.7165 O   0  0  0  0  0  0  0  0  0  0  0  0
    3.6691   45.3405   26.2651 C   0  0  0  0  0  0  0  0  0  0  0  0
    7.1185   48.4188   26.7066 O   0  0  0  0  0  0  0  0  0  0  0  0
    5.5751   48.9443   25.1438 O   0  0  0  0  0  0  0  0  0  0  0  0
    2.2971   43.5360   26.4843 C   0  0  0  0  0  0  0  0  0  0  0  0
    3.1506   44.2559   25.5843 O   0  0  0  0  0  0  0  0  0  0  0  0
    8.8118   40.1831   34.2121 O   0  0  0  0  0  0  0  0  0  0  0  0
   11.2413   40.7934   33.3696 O   0  0  0  0  0  0  0  0  0  0  0  0
   10.9178   40.6902   31.9971 C   0  0  0  0  0  0  0  0  0  0  0  0
   11.5181   39.3813   31.4408 C   0  0  0  0  0  0  0  0  0  0  0  0
   12.7497   39.0870   32.0745 O   0  0  0  0  0  0  0  0  0  0  0  0
   10.6045   38.1891   31.6655 C   0  0  0  0  0  0  0  0  0  0  0  0
   12.9344   37.6801   32.0290 C   0  0  0  0  0  0  0  0  0  0  0  0
    9.6418   38.0757   30.6440 O   0  0  0  0  0  0  0  0  0  0  0  0
   11.5741   37.0169   31.7045 C   0  0  0  0  0  0  0  0  0  0  0  0
   13.4851   37.2125   33.3241 N   0  0  0  0  0  0  0  0  0  0  0  0
   11.6079   36.3406   30.4680 O   0  0  0  0  0  0  0  0  0  0  0  0
   14.4801   36.3321   33.5727 C   0  0  0  0  0  0  0  0  0  0  0  0
   13.1140   37.6277   34.5692 C   0  0  0  0  0  0  0  0  0  0  0  0
   15.2073   35.6155   32.6739 N   0  0  0  0  0  0  0  0  0  0  0  0
   14.6758   36.2306   34.9182 C   0  0  0  0  0  0  0  0  0  0  0  0
   13.8217   37.0451   35.5784 N   0  0  0  0  0  0  0  0  0  0  0  0
   16.1639   34.7602   33.1546 C   0  0  0  0  0  0  0  0  0  0  0  0
   15.6526   35.3506   35.4130 C   0  0  0  0  0  0  0  0  0  0  0  0
   16.3794   34.6316   34.5041 N   0  0  0  0  0  0  0  0  0  0  0  0
   15.9001   35.1933   36.8089 N   0  0  0  0  0  0  0  0  0  0  0  0
    9.0098   45.4348   33.6667 H   0  0  0  0  0  0  0  0  0  0  0  0
   11.9349   45.6933   33.0928 H   0  0  0  0  0  0  0  0  0  0  0  0
   11.1131   46.1992   34.4883 H   0  0  0  0  0  0  0  0  0  0  0  0
   10.7310   44.8929   31.1675 H   0  0  0  0  0  0  0  0  0  0  0  0
    9.3518   43.8343   31.4758 H   0  0  0  0  0  0  0  0  0  0  0  0
    7.0125   44.7165   31.5854 H   0  0  0  0  0  0  0  0  0  0  0  0
   10.3466   47.1899   30.4157 H   0  0  0  0  0  0  0  0  0  0  0  0
    5.4683   46.2883   30.5253 H   0  0  0  0  0  0  0  0  0  0  0  0
    8.7939   48.7703   29.3442 H   0  0  0  0  0  0  0  0  0  0  0  0
    4.3129   48.2397   30.0179 H   0  0  0  0  0  0  0  0  0  0  0  0
    4.3540   50.5571   29.3688 H   0  0  0  0  0  0  0  0  0  0  0  0
    3.0967   49.6984   28.4051 H   0  0  0  0  0  0  0  0  0  0  0  0
    4.6741   50.1550   27.6474 H   0  0  0  0  0  0  0  0  0  0  0  0
    3.1343   46.3096   29.4451 H   0  0  0  0  0  0  0  0  0  0  0  0
    4.9010   46.2846   24.7800 H   0  0  0  0  0  0  0  0  0  0  0  0
    2.6794   42.5042   26.6321 H   0  0  0  0  0  0  0  0  0  0  0  0
    1.2573   43.5193   26.0955 H   0  0  0  0  0  0  0  0  0  0  0  0
    9.8290   40.7386   31.7615 H   0  0  0  0  0  0  0  0  0  0  0  0
   11.3948   41.5458   31.4729 H   0  0  0  0  0  0  0  0  0  0  0  0
   11.6994   39.5069   30.3483 H   0  0  0  0  0  0  0  0  0  0  0  0
   10.1090   38.2634   32.6632 H   0  0  0  0  0  0  0  0  0  0  0  0
   13.6662   37.4514   31.2224 H   0  0  0  0  0  0  0  0  0  0  0  0
    8.9009   38.6925   30.8792 H   0  0  0  0  0  0  0  0  0  0  0  0
   11.2650   36.3082   32.5086 H   0  0  0  0  0  0  0  0  0  0  0  0
   12.1372   35.5140   30.6163 H   0  0  0  0  0  0  0  0  0  0  0  0
   12.3297   38.3530   34.7449 H   0  0  0  0  0  0  0  0  0  0  0  0
   16.7558   34.1781   32.4618 H   0  0  0  0  0  0  0  0  0  0  0  0
   16.6346   34.5300   37.1414 H   0  0  0  0  0  0  0  0  0  0  0  0
   15.3533   35.7360   37.5138 H   0  0  0  0  0  0  0  0  0  0  0  0
  1  2  2  0
  1  3  1  0
  3  4  1  0
  4  5  1  0
  6  1  1  0
  7  6  1  0
  6  8  1  0
  8  9  1  0
  9 10  2  0
 11  9  1  0
 10 12  1  0
 13 11  2  0
 12 14  2  0
 14 13  1  0
 14 15  1  0
 15 16  1  0
 16 17  1  0
 16 18  1  0
 18 19  2  0
 20 18  1  0
 19 21  1  0
 22 20  2  0
 20 23  1  0
 21 24  1  0
 21 25  2  0
 25 22  1  0
 23 26  1  0
 23 27  2  0
 24 28  1  0
 25 29  1  0
 28 29  1  0
  4 30  2  0
  4 31  1  0
 32 31  1  0
 32 33  1  0
 33 34  1  0
 33 35  1  0
 34 36  1  0
 35 37  1  0
 35 38  1  0
 38 36  1  0
 36 39  1  0
 38 40  1  0
 41 39  1  0
 42 39  1  0
 43 41  2  0
 41 44  1  0
 45 42  2  0
 46 43  1  0
 44 47  2  0
 44 45  1  0
 48 46  2  0
 48 47  1  0
 47 49  1  0
  6 50  1  1
  7 51  1  0
  7 52  1  0
  8 53  1  0
  8 54  1  0
 10 55  1  0
 11 56  1  0
 12 57  1  0
 13 58  1  0
 16 59  1  1
 17 60  1  0
 17 61  1  0
 17 62  1  0
 19 63  1  0
 22 64  1  0
 28 65  1  0
 28 66  1  0
 32 67  1  0
 32 68  1  0
 33 69  1  0
 35 70  1  0
 36 71  1  0
 37 72  1  0
 38 73  1  0
 40 74  1  0
 42 75  1  0
 46 76  1  0
 49 77  1  0
 49 78  1  0
M  CHG  3   5  -1  23   1  26  -1
M  END
>  <EmbedRMS>  (282) 
0.0837181358686

$$$$

     RDKit          3D

 78 83  0  0  0  0  0  0  0  0999 V2000
   10.2804   43.7664   33.8249 C   0  0  0  0  0  0  0  0  0  0  0  0
   11.4111   43.5918   34.3666 O   0  0  0  0  0  0  0  0  0  0  0  0
    9.3619   42.7249   33.7344 O   0  0  0  0  0  0  0  0  0  0  0  0
    9.8899   41.2266   34.2940 P   0  0  0  0  0  0  0  0  0  0  0  0
   10.3734   41.4567   35.8833 O   0  0  0  0  0  0  0  0  0  0  0  0
    9.9460   45.0736   33.2111 C   0  0  1  0  0  0  0  0  0  0  0  0
   11.0267   46.0292   33.4708 N   0  0  0  0  0  0  0  0  0  0  0  0
    9.7540   44.8542   31.6948 C   0  0  0  0  0  0  0  0  0  0  0  0
    8.7957   45.8412   31.0847 C   0  0  0  0  0  0  0  0  0  0  0  0
    7.4089   45.6001   31.1014 C   0  0  0  0  0  0  0  0  0  0  0  0
    9.2823   46.9882   30.4399 C   0  0  0  0  0  0  0  0  0  0  0  0
    6.5261   46.4993   30.4871 C   0  0  0  0  0  0  0  0  0  0  0  0
    8.3995   47.8876   29.8313 C   0  0  0  0  0  0  0  0  0  0  0  0
    7.0183   47.6538   29.8453 C   0  0  0  0  0  0  0  0  0  0  0  0
    6.1802   48.5856   29.2113 O   0  0  0  0  0  0  0  0  0  0  0  0
    4.7589   48.4743   29.0900 C   0  0  1  0  0  0  0  0  0  0  0  0
    4.2096   49.7889   28.5408 C   0  0  0  0  0  0  0  0  0  0  0  0
    4.3764   47.3342   28.1595 C   0  0  0  0  0  0  0  0  0  0  0  0
    5.1668   47.1030   27.0060 C   0  0  0  0  0  0  0  0  0  0  0  0
    3.1881   46.5562   28.3592 C   0  0  0  0  0  0  0  0  0  0  0  0
    4.7696   46.1139   26.1159 C   0  0  0  0  0  0  0  0  0  0  0  0
    2.8251   45.5748   27.4107 C   0  0  0  0  0  0  0  0  0  0  0  0
    2.3302   46.7634   29.4892 N   0  0  0  0  0  0  0  0  0  0  0  0
    5.3832   45.7169   24.9434 O   0  0  0  0  0  0  0  0  0  0  0  0
    3.6481   45.3826   26.3092 C   0  0  0  0  0  0  0  0  0  0  0  0
    0.9684   46.8162   29.3023 O   0  0  0  0  0  0  0  0  0  0  0  0
    2.7724   46.6047   30.6451 O   0  0  0  0  0  0  0  0  0  0  0  0
    4.5960   44.6662   24.3661 C   0  0  0  0  0  0  0  0  0  0  0  0
    3.4973   44.4849   25.2699 O   0  0  0  0  0  0  0  0  0  0  0  0
    8.8123   40.1844   34.2133 O   0  0  0  0  0  0  0  0  0  0  0  0
   11.2405   40.7942   33.3691 O   0  0  0  0  0  0  0  0  0  0  0  0
   10.9150   40.6905   31.9972 C   0  0  0  0  0  0  0  0  0  0  0  0
   11.5252   39.3886   31.4375 C   0  0  0  0  0  0  0  0  0  0  0  0
   12.7499   39.0874   32.0799 O   0  0  0  0  0  0  0  0  0  0  0  0
   10.6092   38.1926   31.6469 C   0  0  0  0  0  0  0  0  0  0  0  0
   12.9332   37.6793   32.0294 C   0  0  0  0  0  0  0  0  0  0  0  0
    9.6122   38.0894   30.6542 O   0  0  0  0  0  0  0  0  0  0  0  0
   11.5743   37.0145   31.7024 C   0  0  0  0  0  0  0  0  0  0  0  0
   13.4844   37.2108   33.3241 N   0  0  0  0  0  0  0  0  0  0  0  0
   11.6297   36.3239   30.4740 O   0  0  0  0  0  0  0  0  0  0  0  0
   14.4802   36.3313   33.5727 C   0  0  0  0  0  0  0  0  0  0  0  0
   13.1138   37.6266   34.5692 C   0  0  0  0  0  0  0  0  0  0  0  0
   15.2075   35.6149   32.6739 N   0  0  0  0  0  0  0  0  0  0  0  0
   14.6761   36.2303   34.9182 C   0  0  0  0  0  0  0  0  0  0  0  0
   13.8220   37.0447   35.5785 N   0  0  0  0  0  0  0  0  0  0  0  0
   16.1643   34.7600   33.1547 C   0  0  0  0  0  0  0  0  0  0  0  0
   15.6529   35.3505   35.4130 C   0  0  0  0  0  0  0  0  0  0  0  0
   16.3798   34.6315   34.5042 N   0  0  0  0  0  0  0  0  0  0  0  0
   15.9002   35.1932   36.8090 N   0  0  0  0  0  0  0  0  0  0  0  0
    8.9996   45.4381   33.6721 H   0  0  0  0  0  0  0  0  0  0  0  0
   11.0502   46.2277   34.4982 H   0  0  0  0  0  0  0  0  0  0  0  0
   10.7765   46.9369   33.0159 H   0  0  0  0  0  0  0  0  0  0  0  0
    9.3646   43.8354   31.4709 H   0  0  0  0  0  0  0  0  0  0  0  0
   10.7412   44.9080   31.1834 H   0  0  0  0  0  0  0  0  0  0  0  0
    7.0147   44.7155   31.5863 H   0  0  0  0  0  0  0  0  0  0  0  0
   10.3462   47.1880   30.4055 H   0  0  0  0  0  0  0  0  0  0  0  0
    5.4685   46.2844   30.5189 H   0  0  0  0  0  0  0  0  0  0  0  0
    8.7915   48.7688   29.3393 H   0  0  0  0  0  0  0  0  0  0  0  0
    4.3344   48.3439   30.1040 H   0  0  0  0  0  0  0  0  0  0  0  0
    4.4763   50.6225   29.2247 H   0  0  0  0  0  0  0  0  0  0  0  0
    4.6375   50.0021   27.5376 H   0  0  0  0  0  0  0  0  0  0  0  0
    3.1023   49.7392   28.4610 H   0  0  0  0  0  0  0  0  0  0  0  0
    6.0565   47.6846   26.8012 H   0  0  0  0  0  0  0  0  0  0  0  0
    1.9325   44.9753   27.5358 H   0  0  0  0  0  0  0  0  0  0  0  0
    5.1931   43.7328   24.2968 H   0  0  0  0  0  0  0  0  0  0  0  0
    4.2231   44.9709   23.3659 H   0  0  0  0  0  0  0  0  0  0  0  0
    9.8242   40.7216   31.7640 H   0  0  0  0  0  0  0  0  0  0  0  0
   11.3801   41.5528   31.4730 H   0  0  0  0  0  0  0  0  0  0  0  0
   11.7266   39.5310   30.3512 H   0  0  0  0  0  0  0  0  0  0  0  0
   10.1110   38.2747   32.6387 H   0  0  0  0  0  0  0  0  0  0  0  0
   13.6652   37.4520   31.2226 H   0  0  0  0  0  0  0  0  0  0  0  0
   10.0511   38.1143   29.7645 H   0  0  0  0  0  0  0  0  0  0  0  0
   11.2761   36.3141   32.5189 H   0  0  0  0  0  0  0  0  0  0  0  0
   10.8593   35.6978   30.4640 H   0  0  0  0  0  0  0  0  0  0  0  0
   12.3294   38.3518   34.7450 H   0  0  0  0  0  0  0  0  0  0  0  0
   16.7564   34.1780   32.4620 H   0  0  0  0  0  0  0  0  0  0  0  0
   16.6348   34.5300   37.1416 H   0  0  0  0  0  0  0  0  0  0  0  0
   15.3534   35.7359   37.5138 H   0  0  0  0  0  0  0  0  0  0  0  0
  1  2  2  0
  1  3  1  0
  3  4  1  0
  4  5  1  0
  6  1  1  0
  7  6  1  0
  6  8  1  0
  8  9  1  0
  9 10  2  0
 11  9  1  0
 10 12  1  0
 13 11  2  0
 12 14  2  0
 14 13  1  0
 14 15  1  0
 15 16  1  0
 16 17  1  0
 16 18  1  0
 18 19  2  0
 20 18  1  0
 19 21  1  0
 22 20  2  0
 20 23  1  0
 21 24  1  0
 21 25  2  0
 25 22  1  0
 23 26  1  0
 23 27  2  0
 24 28  1  0
 25 29  1  0
 28 29  1  0
  4 30  2  0
  4 31  1  0
 32 31  1  0
 32 33  1  0
 33 34  1  0
 33 35  1  0
 34 36  1  0
 35 37  1  0
 35 38  1  0
 38 36  1  0
 36 39  1  0
 38 40  1  0
 41 39  1  0
 42 39  1  0
 43 41  2  0
 41 44  1  0
 45 42  2  0
 46 43  1  0
 44 47  2  0
 44 45  1  0
 48 46  2  0
 48 47  1  0
 47 49  1  0
  6 50  1  1
  7 51  1  0
  7 52  1  0
  8 53  1  0
  8 54  1  0
 10 55  1  0
 11 56  1  0
 12 57  1  0
 13 58  1  0
 16 59  1  1
 17 60  1  0
 17 61  1  0
 17 62  1  0
 19 63  1  0
 22 64  1  0
 28 65  1  0
 28 66  1  0
 32 67  1  0
 32 68  1  0
 33 69  1  0
 35 70  1  0
 36 71  1  0
 37 72  1  0
 38 73  1  0
 40 74  1  0
 42 75  1  0
 46 76  1  0
 49 77  1  0
 49 78  1  0
M  CHG  3   5  -1  23   1  26  -1
M  END
>  <EmbedRMS>  (283) 
0.0816366044707

$$$$

     RDKit          3D

 78 83  0  0  0  0  0  0  0  0999 V2000
   10.2839   43.7626   33.8276 C   0  0  0  0  0  0  0  0  0  0  0  0
   11.4103   43.5863   34.3768 O   0  0  0  0  0  0  0  0  0  0  0  0
    9.3633   42.7234   33.7352 O   0  0  0  0  0  0  0  0  0  0  0  0
    9.8898   41.2247   34.2940 P   0  0  0  0  0  0  0  0  0  0  0  0
   10.3725   41.4544   35.8836 O   0  0  0  0  0  0  0  0  0  0  0  0
    9.9548   45.0698   33.2063 C   0  0  1  0  0  0  0  0  0  0  0  0
   11.0198   46.0480   33.4567 N   0  0  0  0  0  0  0  0  0  0  0  0
    9.7501   44.8506   31.6923 C   0  0  0  0  0  0  0  0  0  0  0  0
    8.7942   45.8413   31.0866 C   0  0  0  0  0  0  0  0  0  0  0  0
    7.4076   45.6011   31.1003 C   0  0  0  0  0  0  0  0  0  0  0  0
    9.2830   46.9889   30.4452 C   0  0  0  0  0  0  0  0  0  0  0  0
    6.5284   46.5025   30.4852 C   0  0  0  0  0  0  0  0  0  0  0  0
    8.4037   47.8907   29.8334 C   0  0  0  0  0  0  0  0  0  0  0  0
    7.0142   47.6513   29.8454 C   0  0  0  0  0  0  0  0  0  0  0  0
    6.0818   48.5183   29.2515 O   0  0  0  0  0  0  0  0  0  0  0  0
    6.3839   49.6473   28.4298 C   0  0  1  0  0  0  0  0  0  0  0  0
    6.9099   49.2103   27.0554 C   0  0  0  0  0  0  0  0  0  0  0  0
    5.1499   50.5265   28.2944 C   0  0  0  0  0  0  0  0  0  0  0  0
    5.2339   51.8604   28.7677 C   0  0  0  0  0  0  0  0  0  0  0  0
    3.9286   50.0845   27.6740 C   0  0  0  0  0  0  0  0  0  0  0  0
    4.1409   52.6996   28.5984 C   0  0  0  0  0  0  0  0  0  0  0  0
    2.8566   50.9913   27.5158 C   0  0  0  0  0  0  0  0  0  0  0  0
    3.7575   48.7465   27.1845 N   0  0  0  0  0  0  0  0  0  0  0  0
    4.0078   54.0225   28.9741 O   0  0  0  0  0  0  0  0  0  0  0  0
    3.0041   52.2845   27.9961 C   0  0  0  0  0  0  0  0  0  0  0  0
    3.1293   48.5419   25.9778 O   0  0  0  0  0  0  0  0  0  0  0  0
    3.9325   47.7716   27.9424 O   0  0  0  0  0  0  0  0  0  0  0  0
    2.7010   54.4644   28.5820 C   0  0  0  0  0  0  0  0  0  0  0  0
    2.0937   53.3233   27.9609 O   0  0  0  0  0  0  0  0  0  0  0  0
    8.8118   40.1831   34.2121 O   0  0  0  0  0  0  0  0  0  0  0  0
   11.2413   40.7934   33.3696 O   0  0  0  0  0  0  0  0  0  0  0  0
   10.9179   40.6902   31.9971 C   0  0  0  0  0  0  0  0  0  0  0  0
   11.5181   39.3813   31.4408 C   0  0  0  0  0  0  0  0  0  0  0  0
   12.7498   39.0870   32.0745 O   0  0  0  0  0  0  0  0  0  0  0  0
   10.6045   38.1891   31.6655 C   0  0  0  0  0  0  0  0  0  0  0  0
   12.9344   37.6801   32.0290 C   0  0  0  0  0  0  0  0  0  0  0  0
    9.6418   38.0758   30.6441 O   0  0  0  0  0  0  0  0  0  0  0  0
   11.5741   37.0169   31.7045 C   0  0  0  0  0  0  0  0  0  0  0  0
   13.4851   37.2125   33.3241 N   0  0  0  0  0  0  0  0  0  0  0  0
   11.6079   36.3407   30.4679 O   0  0  0  0  0  0  0  0  0  0  0  0
   14.4801   36.3321   33.5727 C   0  0  0  0  0  0  0  0  0  0  0  0
   13.1140   37.6277   34.5692 C   0  0  0  0  0  0  0  0  0  0  0  0
   15.2073   35.6155   32.6739 N   0  0  0  0  0  0  0  0  0  0  0  0
   14.6758   36.2306   34.9182 C   0  0  0  0  0  0  0  0  0  0  0  0
   13.8217   37.0451   35.5785 N   0  0  0  0  0  0  0  0  0  0  0  0
   16.1639   34.7602   33.1546 C   0  0  0  0  0  0  0  0  0  0  0  0
   15.6526   35.3506   35.4130 C   0  0  0  0  0  0  0  0  0  0  0  0
   16.3794   34.6316   34.5041 N   0  0  0  0  0  0  0  0  0  0  0  0
   15.9001   35.1932   36.8089 N   0  0  0  0  0  0  0  0  0  0  0  0
    9.0098   45.4348   33.6669 H   0  0  0  0  0  0  0  0  0  0  0  0
   11.1134   46.1992   34.4880 H   0  0  0  0  0  0  0  0  0  0  0  0
   11.9348   45.6932   33.0923 H   0  0  0  0  0  0  0  0  0  0  0  0
   10.7304   44.8919   31.1675 H   0  0  0  0  0  0  0  0  0  0  0  0
    9.3509   43.8340   31.4762 H   0  0  0  0  0  0  0  0  0  0  0  0
    7.0109   44.7163   31.5828 H   0  0  0  0  0  0  0  0  0  0  0  0
   10.3472   47.1889   30.4191 H   0  0  0  0  0  0  0  0  0  0  0  0
    5.4639   46.3054   30.5037 H   0  0  0  0  0  0  0  0  0  0  0  0
    8.8210   48.7679   29.3618 H   0  0  0  0  0  0  0  0  0  0  0  0
    7.1860   50.2388   28.9219 H   0  0  0  0  0  0  0  0  0  0  0  0
    6.2294   48.4810   26.5731 H   0  0  0  0  0  0  0  0  0  0  0  0
    7.0245   50.0936   26.3915 H   0  0  0  0  0  0  0  0  0  0  0  0
    7.9033   48.7281   27.1566 H   0  0  0  0  0  0  0  0  0  0  0  0
    6.1290   52.2414   29.2429 H   0  0  0  0  0  0  0  0  0  0  0  0
    1.9290   50.6890   27.0466 H   0  0  0  0  0  0  0  0  0  0  0  0
    2.1158   54.7719   29.4739 H   0  0  0  0  0  0  0  0  0  0  0  0
    2.7801   55.2996   27.8549 H   0  0  0  0  0  0  0  0  0  0  0  0
   11.3949   41.5458   31.4729 H   0  0  0  0  0  0  0  0  0  0  0  0
    9.8290   40.7386   31.7615 H   0  0  0  0  0  0  0  0  0  0  0  0
   11.6994   39.5070   30.3483 H   0  0  0  0  0  0  0  0  0  0  0  0
   10.1091   38.2634   32.6632 H   0  0  0  0  0  0  0  0  0  0  0  0
   13.6662   37.4514   31.2224 H   0  0  0  0  0  0  0  0  0  0  0  0
    8.9009   38.6924   30.8793 H   0  0  0  0  0  0  0  0  0  0  0  0
   11.2650   36.3082   32.5086 H   0  0  0  0  0  0  0  0  0  0  0  0
   12.1372   35.5140   30.6162 H   0  0  0  0  0  0  0  0  0  0  0  0
   12.3297   38.3530   34.7450 H   0  0  0  0  0  0  0  0  0  0  0  0
   16.7558   34.1781   32.4619 H   0  0  0  0  0  0  0  0  0  0  0  0
   15.3534   35.7360   37.5138 H   0  0  0  0  0  0  0  0  0  0  0  0
   16.6347   34.5299   37.1414 H   0  0  0  0  0  0  0  0  0  0  0  0
  1  2  2  0
  1  3  1  0
  3  4  1  0
  4  5  1  0
  6  1  1  0
  7  6  1  0
  6  8  1  0
  8  9  1  0
  9 10  2  0
 11  9  1  0
 10 12  1  0
 13 11  2  0
 12 14  2  0
 14 13  1  0
 14 15  1  0
 15 16  1  0
 16 17  1  0
 16 18  1  0
 18 19  2  0
 20 18  1  0
 19 21  1  0
 22 20  2  0
 20 23  1  0
 21 24  1  0
 21 25  2  0
 25 22  1  0
 23 26  1  0
 23 27  2  0
 24 28  1  0
 25 29  1  0
 28 29  1  0
  4 30  2  0
  4 31  1  0
 32 31  1  0
 32 33  1  0
 33 34  1  0
 33 35  1  0
 34 36  1  0
 35 37  1  0
 35 38  1  0
 38 36  1  0
 36 39  1  0
 38 40  1  0
 41 39  1  0
 42 39  1  0
 43 41  2  0
 41 44  1  0
 45 42  2  0
 46 43  1  0
 44 47  2  0
 44 45  1  0
 48 46  2  0
 48 47  1  0
 47 49  1  0
  6 50  1  1
  7 51  1  0
  7 52  1  0
  8 53  1  0
  8 54  1  0
 10 55  1  0
 11 56  1  0
 12 57  1  0
 13 58  1  0
 16 59  1  1
 17 60  1  0
 17 61  1  0
 17 62  1  0
 19 63  1  0
 22 64  1  0
 28 65  1  0
 28 66  1  0
 32 67  1  0
 32 68  1  0
 33 69  1  0
 35 70  1  0
 36 71  1  0
 37 72  1  0
 38 73  1  0
 40 74  1  0
 42 75  1  0
 46 76  1  0
 49 77  1  0
 49 78  1  0
M  CHG  3   5  -1  23   1  26  -1
M  END
>  <EmbedRMS>  (284) 
0.0837232390043

$$$$

     RDKit          3D

 78 83  0  0  0  0  0  0  0  0999 V2000
   10.2833   43.7662   33.8256 C   0  0  0  0  0  0  0  0  0  0  0  0
   11.4101   43.5931   34.3752 O   0  0  0  0  0  0  0  0  0  0  0  0
    9.3637   42.7255   33.7348 O   0  0  0  0  0  0  0  0  0  0  0  0
    9.8906   41.2266   34.2933 P   0  0  0  0  0  0  0  0  0  0  0  0
   10.3743   41.4557   35.8827 O   0  0  0  0  0  0  0  0  0  0  0  0
    9.9546   45.0695   33.2032 C   0  0  1  0  0  0  0  0  0  0  0  0
   11.0271   46.0323   33.4758 N   0  0  0  0  0  0  0  0  0  0  0  0
    9.7474   44.8480   31.6872 C   0  0  0  0  0  0  0  0  0  0  0  0
    8.7929   45.8399   31.0830 C   0  0  0  0  0  0  0  0  0  0  0  0
    7.4064   45.6015   31.1001 C   0  0  0  0  0  0  0  0  0  0  0  0
    9.2816   46.9878   30.4425 C   0  0  0  0  0  0  0  0  0  0  0  0
    6.5250   46.5020   30.4868 C   0  0  0  0  0  0  0  0  0  0  0  0
    8.3999   47.8888   29.8349 C   0  0  0  0  0  0  0  0  0  0  0  0
    7.0180   47.6555   29.8423 C   0  0  0  0  0  0  0  0  0  0  0  0
    6.1866   48.6041   29.2146 O   0  0  0  0  0  0  0  0  0  0  0  0
    4.8044   48.4533   28.8493 C   0  0  1  0  0  0  0  0  0  0  0  0
    4.6075   47.1813   27.9992 C   0  0  0  0  0  0  0  0  0  0  0  0
    3.8493   48.5454   30.0429 C   0  0  0  0  0  0  0  0  0  0  0  0
    4.3592   48.7764   31.3490 C   0  0  0  0  0  0  0  0  0  0  0  0
    2.4269   48.4189   29.8753 C   0  0  0  0  0  0  0  0  0  0  0  0
    3.4777   48.7774   32.4215 C   0  0  0  0  0  0  0  0  0  0  0  0
    1.5811   48.4107   31.0079 C   0  0  0  0  0  0  0  0  0  0  0  0
    1.8252   48.3427   28.5748 N   0  0  0  0  0  0  0  0  0  0  0  0
    3.7588   48.9549   33.7627 O   0  0  0  0  0  0  0  0  0  0  0  0
    2.1493   48.5918   32.2596 C   0  0  0  0  0  0  0  0  0  0  0  0
    2.1317   49.2846   27.6204 O   0  0  0  0  0  0  0  0  0  0  0  0
    0.8558   47.5806   28.3803 O   0  0  0  0  0  0  0  0  0  0  0  0
    2.5246   48.8715   34.4881 C   0  0  0  0  0  0  0  0  0  0  0  0
    1.5218   48.6403   33.4895 O   0  0  0  0  0  0  0  0  0  0  0  0
    8.8122   40.1851   34.2127 O   0  0  0  0  0  0  0  0  0  0  0  0
   11.2406   40.7945   33.3670 O   0  0  0  0  0  0  0  0  0  0  0  0
   10.9134   40.6866   31.9954 C   0  0  0  0  0  0  0  0  0  0  0  0
   11.5166   39.3787   31.4404 C   0  0  0  0  0  0  0  0  0  0  0  0
   12.7486   39.0849   32.0735 O   0  0  0  0  0  0  0  0  0  0  0  0
   10.6039   38.1884   31.6669 C   0  0  0  0  0  0  0  0  0  0  0  0
   12.9329   37.6776   32.0284 C   0  0  0  0  0  0  0  0  0  0  0  0
    9.6374   38.0938   30.6484 O   0  0  0  0  0  0  0  0  0  0  0  0
   11.5737   37.0141   31.7055 C   0  0  0  0  0  0  0  0  0  0  0  0
   13.4853   37.2120   33.3238 N   0  0  0  0  0  0  0  0  0  0  0  0
   11.6210   36.3379   30.4683 O   0  0  0  0  0  0  0  0  0  0  0  0
   14.4804   36.3319   33.5726 C   0  0  0  0  0  0  0  0  0  0  0  0
   13.1141   37.6275   34.5689 C   0  0  0  0  0  0  0  0  0  0  0  0
   15.2076   35.6152   32.6740 N   0  0  0  0  0  0  0  0  0  0  0  0
   14.6761   36.2306   34.9181 C   0  0  0  0  0  0  0  0  0  0  0  0
   13.8218   37.0451   35.5783 N   0  0  0  0  0  0  0  0  0  0  0  0
   16.1642   34.7600   33.1548 C   0  0  0  0  0  0  0  0  0  0  0  0
   15.6527   35.3507   35.4131 C   0  0  0  0  0  0  0  0  0  0  0  0
   16.3795   34.6315   34.5043 N   0  0  0  0  0  0  0  0  0  0  0  0
   15.9001   35.1933   36.8090 N   0  0  0  0  0  0  0  0  0  0  0  0
    9.0117   45.4317   33.6706 H   0  0  0  0  0  0  0  0  0  0  0  0
   10.7257   46.9689   33.1213 H   0  0  0  0  0  0  0  0  0  0  0  0
   11.8906   45.7661   32.9475 H   0  0  0  0  0  0  0  0  0  0  0  0
    9.3430   43.8326   31.4756 H   0  0  0  0  0  0  0  0  0  0  0  0
   10.7240   44.8820   31.1557 H   0  0  0  0  0  0  0  0  0  0  0  0
    7.0100   44.7211   31.5910 H   0  0  0  0  0  0  0  0  0  0  0  0
   10.3458   47.1871   30.4119 H   0  0  0  0  0  0  0  0  0  0  0  0
    5.4671   46.3027   30.5517 H   0  0  0  0  0  0  0  0  0  0  0  0
    8.7937   48.7721   29.3481 H   0  0  0  0  0  0  0  0  0  0  0  0
    4.5775   49.3195   28.1940 H   0  0  0  0  0  0  0  0  0  0  0  0
    5.5407   46.9381   27.4482 H   0  0  0  0  0  0  0  0  0  0  0  0
    3.8158   47.3326   27.2383 H   0  0  0  0  0  0  0  0  0  0  0  0
    4.3204   46.3089   28.6205 H   0  0  0  0  0  0  0  0  0  0  0  0
    5.4078   48.9482   31.5418 H   0  0  0  0  0  0  0  0  0  0  0  0
    0.5083   48.3049   30.9092 H   0  0  0  0  0  0  0  0  0  0  0  0
    2.3251   49.8267   35.0176 H   0  0  0  0  0  0  0  0  0  0  0  0
    2.5560   48.0230   35.2034 H   0  0  0  0  0  0  0  0  0  0  0  0
    9.8225   40.7225   31.7631 H   0  0  0  0  0  0  0  0  0  0  0  0
   11.3827   41.5438   31.4669 H   0  0  0  0  0  0  0  0  0  0  0  0
   11.6978   39.5037   30.3478 H   0  0  0  0  0  0  0  0  0  0  0  0
   10.1084   38.2787   32.6627 H   0  0  0  0  0  0  0  0  0  0  0  0
   13.6638   37.4472   31.2214 H   0  0  0  0  0  0  0  0  0  0  0  0
    8.9763   37.4191   30.9532 H   0  0  0  0  0  0  0  0  0  0  0  0
   11.2821   36.3054   32.5172 H   0  0  0  0  0  0  0  0  0  0  0  0
   10.8658   35.6935   30.4652 H   0  0  0  0  0  0  0  0  0  0  0  0
   12.3293   38.3523   34.7445 H   0  0  0  0  0  0  0  0  0  0  0  0
   16.7561   34.1778   32.4621 H   0  0  0  0  0  0  0  0  0  0  0  0
   16.6345   34.5300   37.1416 H   0  0  0  0  0  0  0  0  0  0  0  0
   15.3533   35.7361   37.5138 H   0  0  0  0  0  0  0  0  0  0  0  0
  1  2  2  0
  1  3  1  0
  3  4  1  0
  4  5  1  0
  6  1  1  0
  7  6  1  0
  6  8  1  0
  8  9  1  0
  9 10  2  0
 11  9  1  0
 10 12  1  0
 13 11  2  0
 12 14  2  0
 14 13  1  0
 14 15  1  0
 15 16  1  0
 16 17  1  0
 16 18  1  0
 18 19  2  0
 20 18  1  0
 19 21  1  0
 22 20  2  0
 20 23  1  0
 21 24  1  0
 21 25  2  0
 25 22  1  0
 23 26  1  0
 23 27  2  0
 24 28  1  0
 25 29  1  0
 28 29  1  0
  4 30  2  0
  4 31  1  0
 32 31  1  0
 32 33  1  0
 33 34  1  0
 33 35  1  0
 34 36  1  0
 35 37  1  0
 35 38  1  0
 38 36  1  0
 36 39  1  0
 38 40  1  0
 41 39  1  0
 42 39  1  0
 43 41  2  0
 41 44  1  0
 45 42  2  0
 46 43  1  0
 44 47  2  0
 44 45  1  0
 48 46  2  0
 48 47  1  0
 47 49  1  0
  6 50  1  1
  7 51  1  0
  7 52  1  0
  8 53  1  0
  8 54  1  0
 10 55  1  0
 11 56  1  0
 12 57  1  0
 13 58  1  0
 16 59  1  6
 17 60  1  0
 17 61  1  0
 17 62  1  0
 19 63  1  0
 22 64  1  0
 28 65  1  0
 28 66  1  0
 32 67  1  0
 32 68  1  0
 33 69  1  0
 35 70  1  0
 36 71  1  0
 37 72  1  0
 38 73  1  0
 40 74  1  0
 42 75  1  0
 46 76  1  0
 49 77  1  0
 49 78  1  0
M  CHG  3   5  -1  23   1  26  -1
M  END
>  <EmbedRMS>  (285) 
0.0825731238605

$$$$

     RDKit          3D

 78 83  0  0  0  0  0  0  0  0999 V2000
   10.2836   43.7661   33.8257 C   0  0  0  0  0  0  0  0  0  0  0  0
   11.4103   43.5929   34.3753 O   0  0  0  0  0  0  0  0  0  0  0  0
    9.3637   42.7255   33.7350 O   0  0  0  0  0  0  0  0  0  0  0  0
    9.8902   41.2267   34.2942 P   0  0  0  0  0  0  0  0  0  0  0  0
   10.3736   41.4560   35.8836 O   0  0  0  0  0  0  0  0  0  0  0  0
    9.9548   45.0695   33.2038 C   0  0  1  0  0  0  0  0  0  0  0  0
   11.0275   46.0321   33.4757 N   0  0  0  0  0  0  0  0  0  0  0  0
    9.7464   44.8482   31.6880 C   0  0  0  0  0  0  0  0  0  0  0  0
    8.7922   45.8415   31.0858 C   0  0  0  0  0  0  0  0  0  0  0  0
    7.4059   45.6014   31.0985 C   0  0  0  0  0  0  0  0  0  0  0  0
    9.2820   46.9869   30.4417 C   0  0  0  0  0  0  0  0  0  0  0  0
    6.5277   46.5021   30.4816 C   0  0  0  0  0  0  0  0  0  0  0  0
    8.4031   47.8885   29.8303 C   0  0  0  0  0  0  0  0  0  0  0  0
    7.0128   47.6559   29.8500 C   0  0  0  0  0  0  0  0  0  0  0  0
    6.0769   48.5200   29.2478 O   0  0  0  0  0  0  0  0  0  0  0  0
    6.2889   49.8714   28.8058 C   0  0  1  0  0  0  0  0  0  0  0  0
    6.8934   50.7216   29.9421 C   0  0  0  0  0  0  0  0  0  0  0  0
    7.0696   49.9629   27.4917 C   0  0  0  0  0  0  0  0  0  0  0  0
    7.4943   48.7794   26.8297 C   0  0  0  0  0  0  0  0  0  0  0  0
    7.3766   51.2322   26.8898 C   0  0  0  0  0  0  0  0  0  0  0  0
    8.2664   48.8945   25.6817 C   0  0  0  0  0  0  0  0  0  0  0  0
    8.1818   51.2863   25.7292 C   0  0  0  0  0  0  0  0  0  0  0  0
    6.8496   52.4607   27.4114 N   0  0  0  0  0  0  0  0  0  0  0  0
    8.8011   47.8861   24.9029 O   0  0  0  0  0  0  0  0  0  0  0  0
    8.6044   50.0944   25.1607 C   0  0  0  0  0  0  0  0  0  0  0  0
    5.4993   52.5854   27.6420 O   0  0  0  0  0  0  0  0  0  0  0  0
    7.5618   53.4858   27.4311 O   0  0  0  0  0  0  0  0  0  0  0  0
    9.5242   48.4958   23.8251 C   0  0  0  0  0  0  0  0  0  0  0  0
    9.3717   49.9073   24.0271 O   0  0  0  0  0  0  0  0  0  0  0  0
    8.8121   40.1850   34.2131 O   0  0  0  0  0  0  0  0  0  0  0  0
   11.2404   40.7941   33.3690 O   0  0  0  0  0  0  0  0  0  0  0  0
   10.9144   40.6898   31.9972 C   0  0  0  0  0  0  0  0  0  0  0  0
   11.5261   39.3884   31.4376 C   0  0  0  0  0  0  0  0  0  0  0  0
   12.7504   39.0888   32.0815 O   0  0  0  0  0  0  0  0  0  0  0  0
   10.6115   38.1910   31.6460 C   0  0  0  0  0  0  0  0  0  0  0  0
   12.9357   37.6812   32.0303 C   0  0  0  0  0  0  0  0  0  0  0  0
    9.6146   38.0858   30.6534 O   0  0  0  0  0  0  0  0  0  0  0  0
   11.5769   37.0148   31.7012 C   0  0  0  0  0  0  0  0  0  0  0  0
   13.4849   37.2112   33.3247 N   0  0  0  0  0  0  0  0  0  0  0  0
   11.6192   36.3260   30.4724 O   0  0  0  0  0  0  0  0  0  0  0  0
   14.4802   36.3313   33.5730 C   0  0  0  0  0  0  0  0  0  0  0  0
   13.1141   37.6268   34.5698 C   0  0  0  0  0  0  0  0  0  0  0  0
   15.2075   35.6151   32.6741 N   0  0  0  0  0  0  0  0  0  0  0  0
   14.6761   36.2301   34.9184 C   0  0  0  0  0  0  0  0  0  0  0  0
   13.8220   37.0445   35.5789 N   0  0  0  0  0  0  0  0  0  0  0  0
   16.1642   34.7600   33.1547 C   0  0  0  0  0  0  0  0  0  0  0  0
   15.6529   35.3503   35.4131 C   0  0  0  0  0  0  0  0  0  0  0  0
   16.3797   34.6314   34.5042 N   0  0  0  0  0  0  0  0  0  0  0  0
   15.9004   35.1930   36.8091 N   0  0  0  0  0  0  0  0  0  0  0  0
    9.0123   45.4317   33.6720 H   0  0  0  0  0  0  0  0  0  0  0  0
   10.7262   46.9686   33.1211 H   0  0  0  0  0  0  0  0  0  0  0  0
   11.8908   45.7656   32.9472 H   0  0  0  0  0  0  0  0  0  0  0  0
    9.3410   43.8332   31.4766 H   0  0  0  0  0  0  0  0  0  0  0  0
   10.7227   44.8815   31.1559 H   0  0  0  0  0  0  0  0  0  0  0  0
    7.0086   44.7160   31.5793 H   0  0  0  0  0  0  0  0  0  0  0  0
   10.3472   47.1792   30.4027 H   0  0  0  0  0  0  0  0  0  0  0  0
    5.4635   46.3039   30.4977 H   0  0  0  0  0  0  0  0  0  0  0  0
    8.8229   48.7396   29.3179 H   0  0  0  0  0  0  0  0  0  0  0  0
    5.2760   50.2759   28.6019 H   0  0  0  0  0  0  0  0  0  0  0  0
    6.5232   51.7653   29.8954 H   0  0  0  0  0  0  0  0  0  0  0  0
    8.0006   50.7504   29.8928 H   0  0  0  0  0  0  0  0  0  0  0  0
    6.5884   50.3163   30.9302 H   0  0  0  0  0  0  0  0  0  0  0  0
    7.2429   47.7916   27.1866 H   0  0  0  0  0  0  0  0  0  0  0  0
    8.4370   52.2298   25.2639 H   0  0  0  0  0  0  0  0  0  0  0  0
    9.0839   48.1983   22.8503 H   0  0  0  0  0  0  0  0  0  0  0  0
   10.5972   48.2152   23.8752 H   0  0  0  0  0  0  0  0  0  0  0  0
    9.8233   40.7191   31.7647 H   0  0  0  0  0  0  0  0  0  0  0  0
   11.3779   41.5526   31.4726 H   0  0  0  0  0  0  0  0  0  0  0  0
   11.7283   39.5311   30.3515 H   0  0  0  0  0  0  0  0  0  0  0  0
   10.1127   38.2734   32.6377 H   0  0  0  0  0  0  0  0  0  0  0  0
   13.6692   37.4565   31.2242 H   0  0  0  0  0  0  0  0  0  0  0  0
   10.0533   38.1118   29.7636 H   0  0  0  0  0  0  0  0  0  0  0  0
   11.2607   36.3148   32.5102 H   0  0  0  0  0  0  0  0  0  0  0  0
   12.1496   35.5023   30.6324 H   0  0  0  0  0  0  0  0  0  0  0  0
   12.3301   38.3524   34.7455 H   0  0  0  0  0  0  0  0  0  0  0  0
   16.7563   34.1781   32.4619 H   0  0  0  0  0  0  0  0  0  0  0  0
   15.3536   35.7357   37.5140 H   0  0  0  0  0  0  0  0  0  0  0  0
   16.6351   34.5299   37.1416 H   0  0  0  0  0  0  0  0  0  0  0  0
  1  2  2  0
  1  3  1  0
  3  4  1  0
  4  5  1  0
  6  1  1  0
  7  6  1  0
  6  8  1  0
  8  9  1  0
  9 10  2  0
 11  9  1  0
 10 12  1  0
 13 11  2  0
 12 14  2  0
 14 13  1  0
 14 15  1  0
 15 16  1  0
 16 17  1  0
 16 18  1  0
 18 19  2  0
 20 18  1  0
 19 21  1  0
 22 20  2  0
 20 23  1  0
 21 24  1  0
 21 25  2  0
 25 22  1  0
 23 26  1  0
 23 27  2  0
 24 28  1  0
 25 29  1  0
 28 29  1  0
  4 30  2  0
  4 31  1  0
 32 31  1  0
 32 33  1  0
 33 34  1  0
 33 35  1  0
 34 36  1  0
 35 37  1  0
 35 38  1  0
 38 36  1  0
 36 39  1  0
 38 40  1  0
 41 39  1  0
 42 39  1  0
 43 41  2  0
 41 44  1  0
 45 42  2  0
 46 43  1  0
 44 47  2  0
 44 45  1  0
 48 46  2  0
 48 47  1  0
 47 49  1  0
  6 50  1  1
  7 51  1  0
  7 52  1  0
  8 53  1  0
  8 54  1  0
 10 55  1  0
 11 56  1  0
 12 57  1  0
 13 58  1  0
 16 59  1  6
 17 60  1  0
 17 61  1  0
 17 62  1  0
 19 63  1  0
 22 64  1  0
 28 65  1  0
 28 66  1  0
 32 67  1  0
 32 68  1  0
 33 69  1  0
 35 70  1  0
 36 71  1  0
 37 72  1  0
 38 73  1  0
 40 74  1  0
 42 75  1  0
 46 76  1  0
 49 77  1  0
 49 78  1  0
M  CHG  3   5  -1  23   1  26  -1
M  END
>  <EmbedRMS>  (286) 
0.0816039198083

$$$$

     RDKit          3D

 78 83  0  0  0  0  0  0  0  0999 V2000
   10.2838   43.7627   33.8277 C   0  0  0  0  0  0  0  0  0  0  0  0
   11.4103   43.5863   34.3767 O   0  0  0  0  0  0  0  0  0  0  0  0
    9.3629   42.7238   33.7358 O   0  0  0  0  0  0  0  0  0  0  0  0
    9.8891   41.2251   34.2949 P   0  0  0  0  0  0  0  0  0  0  0  0
   10.3724   41.4548   35.8843 O   0  0  0  0  0  0  0  0  0  0  0  0
    9.9549   45.0699   33.2065 C   0  0  1  0  0  0  0  0  0  0  0  0
   11.0199   46.0480   33.4567 N   0  0  0  0  0  0  0  0  0  0  0  0
    9.7501   44.8507   31.6925 C   0  0  0  0  0  0  0  0  0  0  0  0
    8.7941   45.8416   31.0873 C   0  0  0  0  0  0  0  0  0  0  0  0
    7.4079   45.6011   31.1001 C   0  0  0  0  0  0  0  0  0  0  0  0
    9.2826   46.9885   30.4452 C   0  0  0  0  0  0  0  0  0  0  0  0
    6.5293   46.5019   30.4837 C   0  0  0  0  0  0  0  0  0  0  0  0
    8.4034   47.8895   29.8329 C   0  0  0  0  0  0  0  0  0  0  0  0
    7.0134   47.6533   29.8465 C   0  0  0  0  0  0  0  0  0  0  0  0
    6.0738   48.5088   29.2419 O   0  0  0  0  0  0  0  0  0  0  0  0
    6.3245   49.7489   28.5667 C   0  0  1  0  0  0  0  0  0  0  0  0
    6.7194   50.8316   29.5837 C   0  0  0  0  0  0  0  0  0  0  0  0
    7.2593   49.5618   27.3705 C   0  0  0  0  0  0  0  0  0  0  0  0
    8.3840   50.4116   27.1836 C   0  0  0  0  0  0  0  0  0  0  0  0
    7.0301   48.5025   26.4256 C   0  0  0  0  0  0  0  0  0  0  0  0
    9.2411   50.1604   26.1208 C   0  0  0  0  0  0  0  0  0  0  0  0
    7.9484   48.2893   25.3719 C   0  0  0  0  0  0  0  0  0  0  0  0
    5.8871   47.6358   26.5249 N   0  0  0  0  0  0  0  0  0  0  0  0
   10.3888   50.8427   25.7651 O   0  0  0  0  0  0  0  0  0  0  0  0
    9.0356   49.1421   25.2568 C   0  0  0  0  0  0  0  0  0  0  0  0
    4.6345   48.1563   26.7519 O   0  0  0  0  0  0  0  0  0  0  0  0
    5.9904   46.4296   26.2202 O   0  0  0  0  0  0  0  0  0  0  0  0
   10.9375   50.2093   24.6015 C   0  0  0  0  0  0  0  0  0  0  0  0
   10.0419   49.1280   24.3102 O   0  0  0  0  0  0  0  0  0  0  0  0
    8.8113   40.1834   34.2132 O   0  0  0  0  0  0  0  0  0  0  0  0
   11.2398   40.7938   33.3702 O   0  0  0  0  0  0  0  0  0  0  0  0
   10.9144   40.6912   31.9983 C   0  0  0  0  0  0  0  0  0  0  0  0
   11.5269   39.3911   31.4385 C   0  0  0  0  0  0  0  0  0  0  0  0
   12.7520   39.0911   32.0835 O   0  0  0  0  0  0  0  0  0  0  0  0
   10.6113   38.1931   31.6451 C   0  0  0  0  0  0  0  0  0  0  0  0
   12.9413   37.6837   32.0297 C   0  0  0  0  0  0  0  0  0  0  0  0
    9.6064   38.0877   30.6599 O   0  0  0  0  0  0  0  0  0  0  0  0
   11.5822   37.0197   31.6876 C   0  0  0  0  0  0  0  0  0  0  0  0
   13.4840   37.2104   33.3254 N   0  0  0  0  0  0  0  0  0  0  0  0
   11.6179   36.3071   30.4690 O   0  0  0  0  0  0  0  0  0  0  0  0
   14.4797   36.3309   33.5738 C   0  0  0  0  0  0  0  0  0  0  0  0
   13.1137   37.6269   34.5702 C   0  0  0  0  0  0  0  0  0  0  0  0
   15.2074   35.6152   32.6747 N   0  0  0  0  0  0  0  0  0  0  0  0
   14.6756   36.2298   34.9190 C   0  0  0  0  0  0  0  0  0  0  0  0
   13.8217   37.0446   35.5793 N   0  0  0  0  0  0  0  0  0  0  0  0
   16.1643   34.7603   33.1551 C   0  0  0  0  0  0  0  0  0  0  0  0
   15.6528   35.3503   35.4136 C   0  0  0  0  0  0  0  0  0  0  0  0
   16.3798   34.6316   34.5046 N   0  0  0  0  0  0  0  0  0  0  0  0
   15.9004   35.1931   36.8094 N   0  0  0  0  0  0  0  0  0  0  0  0
    9.0100   45.4350   33.6672 H   0  0  0  0  0  0  0  0  0  0  0  0
   11.9349   45.6931   33.0923 H   0  0  0  0  0  0  0  0  0  0  0  0
   11.1136   46.1993   34.4880 H   0  0  0  0  0  0  0  0  0  0  0  0
   10.7303   44.8920   31.1675 H   0  0  0  0  0  0  0  0  0  0  0  0
    9.3507   43.8342   31.4765 H   0  0  0  0  0  0  0  0  0  0  0  0
    7.0111   44.7157   31.5813 H   0  0  0  0  0  0  0  0  0  0  0  0
   10.3471   47.1866   30.4155 H   0  0  0  0  0  0  0  0  0  0  0  0
    5.4653   46.3023   30.4992 H   0  0  0  0  0  0  0  0  0  0  0  0
    8.8258   48.7550   29.3506 H   0  0  0  0  0  0  0  0  0  0  0  0
    5.3532   50.0897   28.1509 H   0  0  0  0  0  0  0  0  0  0  0  0
    6.7141   51.8327   29.1023 H   0  0  0  0  0  0  0  0  0  0  0  0
    7.7184   50.6416   30.0239 H   0  0  0  0  0  0  0  0  0  0  0  0
    5.9773   50.8509   30.4098 H   0  0  0  0  0  0  0  0  0  0  0  0
    8.6114   51.2339   27.8458 H   0  0  0  0  0  0  0  0  0  0  0  0
    7.8058   47.4936   24.6520 H   0  0  0  0  0  0  0  0  0  0  0  0
   11.9530   49.8175   24.8203 H   0  0  0  0  0  0  0  0  0  0  0  0
   10.9649   50.9237   23.7521 H   0  0  0  0  0  0  0  0  0  0  0  0
    9.8235   40.7201   31.7652 H   0  0  0  0  0  0  0  0  0  0  0  0
   11.3779   41.5548   31.4750 H   0  0  0  0  0  0  0  0  0  0  0  0
   11.7311   39.5363   30.3531 H   0  0  0  0  0  0  0  0  0  0  0  0
   10.1202   38.2695   32.6410 H   0  0  0  0  0  0  0  0  0  0  0  0
   13.6850   37.4638   31.2321 H   0  0  0  0  0  0  0  0  0  0  0  0
   10.0250   38.1792   29.7654 H   0  0  0  0  0  0  0  0  0  0  0  0
   11.2757   36.3135   32.4907 H   0  0  0  0  0  0  0  0  0  0  0  0
   11.9838   36.9110   29.7708 H   0  0  0  0  0  0  0  0  0  0  0  0
   12.3307   38.3536   34.7457 H   0  0  0  0  0  0  0  0  0  0  0  0
   16.7565   34.1786   32.4623 H   0  0  0  0  0  0  0  0  0  0  0  0
   15.3535   35.7355   37.5144 H   0  0  0  0  0  0  0  0  0  0  0  0
   16.6353   34.5301   37.1419 H   0  0  0  0  0  0  0  0  0  0  0  0
  1  2  2  0
  1  3  1  0
  3  4  1  0
  4  5  1  0
  6  1  1  0
  7  6  1  0
  6  8  1  0
  8  9  1  0
  9 10  2  0
 11  9  1  0
 10 12  1  0
 13 11  2  0
 12 14  2  0
 14 13  1  0
 14 15  1  0
 15 16  1  0
 16 17  1  0
 16 18  1  0
 18 19  2  0
 20 18  1  0
 19 21  1  0
 22 20  2  0
 20 23  1  0
 21 24  1  0
 21 25  2  0
 25 22  1  0
 23 26  1  0
 23 27  2  0
 24 28  1  0
 25 29  1  0
 28 29  1  0
  4 30  2  0
  4 31  1  0
 32 31  1  0
 32 33  1  0
 33 34  1  0
 33 35  1  0
 34 36  1  0
 35 37  1  0
 35 38  1  0
 38 36  1  0
 36 39  1  0
 38 40  1  0
 41 39  1  0
 42 39  1  0
 43 41  2  0
 41 44  1  0
 45 42  2  0
 46 43  1  0
 44 47  2  0
 44 45  1  0
 48 46  2  0
 48 47  1  0
 47 49  1  0
  6 50  1  1
  7 51  1  0
  7 52  1  0
  8 53  1  0
  8 54  1  0
 10 55  1  0
 11 56  1  0
 12 57  1  0
 13 58  1  0
 16 59  1  6
 17 60  1  0
 17 61  1  0
 17 62  1  0
 19 63  1  0
 22 64  1  0
 28 65  1  0
 28 66  1  0
 32 67  1  0
 32 68  1  0
 33 69  1  0
 35 70  1  0
 36 71  1  0
 37 72  1  0
 38 73  1  0
 40 74  1  0
 42 75  1  0
 46 76  1  0
 49 77  1  0
 49 78  1  0
M  CHG  3   5  -1  23   1  26  -1
M  END
>  <EmbedRMS>  (287) 
0.0817276983591

$$$$

     RDKit          3D

 78 83  0  0  0  0  0  0  0  0999 V2000
   10.2835   43.7662   33.8256 C   0  0  0  0  0  0  0  0  0  0  0  0
   11.4102   43.5930   34.3752 O   0  0  0  0  0  0  0  0  0  0  0  0
    9.3637   42.7255   33.7350 O   0  0  0  0  0  0  0  0  0  0  0  0
    9.8903   41.2268   34.2946 P   0  0  0  0  0  0  0  0  0  0  0  0
   10.3728   41.4561   35.8842 O   0  0  0  0  0  0  0  0  0  0  0  0
    9.9547   45.0694   33.2034 C   0  0  1  0  0  0  0  0  0  0  0  0
   11.0273   46.0322   33.4758 N   0  0  0  0  0  0  0  0  0  0  0  0
    9.7472   44.8482   31.6873 C   0  0  0  0  0  0  0  0  0  0  0  0
    8.7926   45.8406   31.0839 C   0  0  0  0  0  0  0  0  0  0  0  0
    7.4059   45.6013   31.0998 C   0  0  0  0  0  0  0  0  0  0  0  0
    9.2817   46.9880   30.4425 C   0  0  0  0  0  0  0  0  0  0  0  0
    6.5245   46.5018   30.4862 C   0  0  0  0  0  0  0  0  0  0  0  0
    8.4003   47.8885   29.8334 C   0  0  0  0  0  0  0  0  0  0  0  0
    7.0186   47.6554   29.8438 C   0  0  0  0  0  0  0  0  0  0  0  0
    6.1842   48.5905   29.2091 O   0  0  0  0  0  0  0  0  0  0  0  0
    4.7729   48.4609   29.0337 C   0  0  1  0  0  0  0  0  0  0  0  0
    4.1907   49.8015   28.5845 C   0  0  0  0  0  0  0  0  0  0  0  0
    4.4352   47.3588   28.0401 C   0  0  0  0  0  0  0  0  0  0  0  0
    3.5422   46.3402   28.4548 C   0  0  0  0  0  0  0  0  0  0  0  0
    4.9346   47.3411   26.6941 C   0  0  0  0  0  0  0  0  0  0  0  0
    3.1847   45.3557   27.5429 C   0  0  0  0  0  0  0  0  0  0  0  0
    4.5245   46.3220   25.8063 C   0  0  0  0  0  0  0  0  0  0  0  0
    5.8320   48.3464   26.2080 N   0  0  0  0  0  0  0  0  0  0  0  0
    2.3407   44.2778   27.7296 O   0  0  0  0  0  0  0  0  0  0  0  0
    3.6540   45.3476   26.2744 C   0  0  0  0  0  0  0  0  0  0  0  0
    7.1111   48.4185   26.7059 O   0  0  0  0  0  0  0  0  0  0  0  0
    5.5647   48.9470   25.1471 O   0  0  0  0  0  0  0  0  0  0  0  0
    2.2789   43.5459   26.4979 C   0  0  0  0  0  0  0  0  0  0  0  0
    3.1315   44.2637   25.5954 O   0  0  0  0  0  0  0  0  0  0  0  0
    8.8125   40.1848   34.2126 O   0  0  0  0  0  0  0  0  0  0  0  0
   11.2416   40.7948   33.3707 O   0  0  0  0  0  0  0  0  0  0  0  0
   10.9179   40.6921   31.9984 C   0  0  0  0  0  0  0  0  0  0  0  0
   11.5175   39.3838   31.4423 C   0  0  0  0  0  0  0  0  0  0  0  0
   12.7508   39.0887   32.0752 O   0  0  0  0  0  0  0  0  0  0  0  0
   10.6028   38.1916   31.6658 C   0  0  0  0  0  0  0  0  0  0  0  0
   12.9385   37.6819   32.0278 C   0  0  0  0  0  0  0  0  0  0  0  0
    9.6371   38.0806   30.6470 O   0  0  0  0  0  0  0  0  0  0  0  0
   11.5780   37.0215   31.6935 C   0  0  0  0  0  0  0  0  0  0  0  0
   13.4844   37.2119   33.3242 N   0  0  0  0  0  0  0  0  0  0  0  0
   11.6095   36.3201   30.4679 O   0  0  0  0  0  0  0  0  0  0  0  0
   14.4797   36.3318   33.5730 C   0  0  0  0  0  0  0  0  0  0  0  0
   13.1135   37.6278   34.5691 C   0  0  0  0  0  0  0  0  0  0  0  0
   15.2073   35.6155   32.6743 N   0  0  0  0  0  0  0  0  0  0  0  0
   14.6754   36.2305   34.9184 C   0  0  0  0  0  0  0  0  0  0  0  0
   13.8213   37.0452   35.5785 N   0  0  0  0  0  0  0  0  0  0  0  0
   16.1640   34.7604   33.1549 C   0  0  0  0  0  0  0  0  0  0  0  0
   15.6524   35.3507   35.4133 C   0  0  0  0  0  0  0  0  0  0  0  0
   16.3794   34.6318   34.5044 N   0  0  0  0  0  0  0  0  0  0  0  0
   15.8999   35.1934   36.8091 N   0  0  0  0  0  0  0  0  0  0  0  0
    9.0120   45.4317   33.6710 H   0  0  0  0  0  0  0  0  0  0  0  0
   11.8907   45.7659   32.9474 H   0  0  0  0  0  0  0  0  0  0  0  0
   10.7260   46.9688   33.1213 H   0  0  0  0  0  0  0  0  0  0  0  0
   10.7236   44.8821   31.1556 H   0  0  0  0  0  0  0  0  0  0  0  0
    9.3425   43.8329   31.4757 H   0  0  0  0  0  0  0  0  0  0  0  0
    7.0101   44.7174   31.5846 H   0  0  0  0  0  0  0  0  0  0  0  0
   10.3459   47.1866   30.4109 H   0  0  0  0  0  0  0  0  0  0  0  0
    5.4669   46.2908   30.5262 H   0  0  0  0  0  0  0  0  0  0  0  0
    8.7938   48.7701   29.3434 H   0  0  0  0  0  0  0  0  0  0  0  0
    4.3140   48.2463   30.0246 H   0  0  0  0  0  0  0  0  0  0  0  0
    4.3584   50.5635   29.3750 H   0  0  0  0  0  0  0  0  0  0  0  0
    4.6729   50.1604   27.6528 H   0  0  0  0  0  0  0  0  0  0  0  0
    3.0966   49.7074   28.4149 H   0  0  0  0  0  0  0  0  0  0  0  0
    3.1293   46.3190   29.4553 H   0  0  0  0  0  0  0  0  0  0  0  0
    4.8840   46.2885   24.7857 H   0  0  0  0  0  0  0  0  0  0  0  0
    1.2381   43.5312   26.1118 H   0  0  0  0  0  0  0  0  0  0  0  0
    2.6595   42.5134   26.6451 H   0  0  0  0  0  0  0  0  0  0  0  0
   11.3952   41.5478   31.4744 H   0  0  0  0  0  0  0  0  0  0  0  0
    9.8291   40.7409   31.7626 H   0  0  0  0  0  0  0  0  0  0  0  0
   11.6981   39.5115   30.3500 H   0  0  0  0  0  0  0  0  0  0  0  0
   10.1117   38.2604   32.6660 H   0  0  0  0  0  0  0  0  0  0  0  0
   13.6767   37.4556   31.2267 H   0  0  0  0  0  0  0  0  0  0  0  0
    8.8962   38.6952   30.8871 H   0  0  0  0  0  0  0  0  0  0  0  0
   11.2791   36.3072   32.4922 H   0  0  0  0  0  0  0  0  0  0  0  0
   11.8828   36.9598   29.7588 H   0  0  0  0  0  0  0  0  0  0  0  0
   12.3300   38.3539   34.7446 H   0  0  0  0  0  0  0  0  0  0  0  0
   16.7562   34.1785   32.4622 H   0  0  0  0  0  0  0  0  0  0  0  0
   16.6347   34.5303   37.1417 H   0  0  0  0  0  0  0  0  0  0  0  0
   15.3531   35.7360   37.5140 H   0  0  0  0  0  0  0  0  0  0  0  0
  1  2  2  0
  1  3  1  0
  3  4  1  0
  4  5  1  0
  6  1  1  0
  7  6  1  0
  6  8  1  0
  8  9  1  0
  9 10  2  0
 11  9  1  0
 10 12  1  0
 13 11  2  0
 12 14  2  0
 14 13  1  0
 14 15  1  0
 15 16  1  0
 16 17  1  0
 16 18  1  0
 18 19  2  0
 20 18  1  0
 19 21  1  0
 22 20  2  0
 20 23  1  0
 21 24  1  0
 21 25  2  0
 25 22  1  0
 23 26  1  0
 23 27  2  0
 24 28  1  0
 25 29  1  0
 28 29  1  0
  4 30  2  0
  4 31  1  0
 32 31  1  0
 32 33  1  0
 33 34  1  0
 33 35  1  0
 34 36  1  0
 35 37  1  0
 35 38  1  0
 38 36  1  0
 36 39  1  0
 38 40  1  0
 41 39  1  0
 42 39  1  0
 43 41  2  0
 41 44  1  0
 45 42  2  0
 46 43  1  0
 44 47  2  0
 44 45  1  0
 48 46  2  0
 48 47  1  0
 47 49  1  0
  6 50  1  1
  7 51  1  0
  7 52  1  0
  8 53  1  0
  8 54  1  0
 10 55  1  0
 11 56  1  0
 12 57  1  0
 13 58  1  0
 16 59  1  1
 17 60  1  0
 17 61  1  0
 17 62  1  0
 19 63  1  0
 22 64  1  0
 28 65  1  0
 28 66  1  0
 32 67  1  0
 32 68  1  0
 33 69  1  0
 35 70  1  0
 36 71  1  0
 37 72  1  0
 38 73  1  0
 40 74  1  0
 42 75  1  0
 46 76  1  0
 49 77  1  0
 49 78  1  0
M  CHG  3   5  -1  23   1  26  -1
M  END
>  <EmbedRMS>  (288) 
0.0819758197835

$$$$

     RDKit          3D

 78 83  0  0  0  0  0  0  0  0999 V2000
   10.2839   43.7626   33.8278 C   0  0  0  0  0  0  0  0  0  0  0  0
   11.4104   43.5862   34.3767 O   0  0  0  0  0  0  0  0  0  0  0  0
    9.3629   42.7238   33.7358 O   0  0  0  0  0  0  0  0  0  0  0  0
    9.8891   41.2251   34.2949 P   0  0  0  0  0  0  0  0  0  0  0  0
   10.3724   41.4547   35.8843 O   0  0  0  0  0  0  0  0  0  0  0  0
    9.9549   45.0700   33.2067 C   0  0  1  0  0  0  0  0  0  0  0  0
   11.0200   46.0480   33.4570 N   0  0  0  0  0  0  0  0  0  0  0  0
    9.7499   44.8510   31.6928 C   0  0  0  0  0  0  0  0  0  0  0  0
    8.7941   45.8425   31.0884 C   0  0  0  0  0  0  0  0  0  0  0  0
    7.4078   45.6009   31.0996 C   0  0  0  0  0  0  0  0  0  0  0  0
    9.2829   46.9882   30.4441 C   0  0  0  0  0  0  0  0  0  0  0  0
    6.5289   46.5009   30.4819 C   0  0  0  0  0  0  0  0  0  0  0  0
    8.4036   47.8884   29.8310 C   0  0  0  0  0  0  0  0  0  0  0  0
    7.0134   47.6548   29.8499 C   0  0  0  0  0  0  0  0  0  0  0  0
    6.0771   48.5175   29.2464 O   0  0  0  0  0  0  0  0  0  0  0  0
    6.2888   49.8680   28.8014 C   0  0  1  0  0  0  0  0  0  0  0  0
    6.8923   50.7210   29.9362 C   0  0  0  0  0  0  0  0  0  0  0  0
    7.0702   49.9568   27.4875 C   0  0  0  0  0  0  0  0  0  0  0  0
    7.4949   48.7719   26.8280 C   0  0  0  0  0  0  0  0  0  0  0  0
    7.3776   51.2248   26.8831 C   0  0  0  0  0  0  0  0  0  0  0  0
    8.2673   48.8846   25.6800 C   0  0  0  0  0  0  0  0  0  0  0  0
    8.1831   51.2765   25.7227 C   0  0  0  0  0  0  0  0  0  0  0  0
    6.8504   52.4544   27.4021 N   0  0  0  0  0  0  0  0  0  0  0  0
    8.8020   47.8745   24.9033 O   0  0  0  0  0  0  0  0  0  0  0  0
    8.6057   50.0834   25.1567 C   0  0  0  0  0  0  0  0  0  0  0  0
    5.5000   52.5798   27.6315 O   0  0  0  0  0  0  0  0  0  0  0  0
    7.5627   53.4794   27.4201 O   0  0  0  0  0  0  0  0  0  0  0  0
    9.5254   48.4820   23.8244 C   0  0  0  0  0  0  0  0  0  0  0  0
    9.3732   49.8939   24.0236 O   0  0  0  0  0  0  0  0  0  0  0  0
    8.8112   40.1834   34.2131 O   0  0  0  0  0  0  0  0  0  0  0  0
   11.2398   40.7938   33.3702 O   0  0  0  0  0  0  0  0  0  0  0  0
   10.9144   40.6912   31.9984 C   0  0  0  0  0  0  0  0  0  0  0  0
   11.5270   39.3911   31.4385 C   0  0  0  0  0  0  0  0  0  0  0  0
   12.7520   39.0911   32.0835 O   0  0  0  0  0  0  0  0  0  0  0  0
   10.6114   38.1931   31.6451 C   0  0  0  0  0  0  0  0  0  0  0  0
   12.9413   37.6837   32.0297 C   0  0  0  0  0  0  0  0  0  0  0  0
    9.6064   38.0877   30.6599 O   0  0  0  0  0  0  0  0  0  0  0  0
   11.5822   37.0197   31.6876 C   0  0  0  0  0  0  0  0  0  0  0  0
   13.4840   37.2104   33.3254 N   0  0  0  0  0  0  0  0  0  0  0  0
   11.6179   36.3071   30.4690 O   0  0  0  0  0  0  0  0  0  0  0  0
   14.4797   36.3309   33.5738 C   0  0  0  0  0  0  0  0  0  0  0  0
   13.1137   37.6269   34.5702 C   0  0  0  0  0  0  0  0  0  0  0  0
   15.2074   35.6152   32.6747 N   0  0  0  0  0  0  0  0  0  0  0  0
   14.6756   36.2298   34.9190 C   0  0  0  0  0  0  0  0  0  0  0  0
   13.8217   37.0446   35.5793 N   0  0  0  0  0  0  0  0  0  0  0  0
   16.1643   34.7603   33.1551 C   0  0  0  0  0  0  0  0  0  0  0  0
   15.6528   35.3503   35.4136 C   0  0  0  0  0  0  0  0  0  0  0  0
   16.3798   34.6316   34.5046 N   0  0  0  0  0  0  0  0  0  0  0  0
   15.9004   35.1930   36.8094 N   0  0  0  0  0  0  0  0  0  0  0  0
    9.0101   45.4350   33.6677 H   0  0  0  0  0  0  0  0  0  0  0  0
   11.1139   46.1991   34.4883 H   0  0  0  0  0  0  0  0  0  0  0  0
   11.9349   45.6932   33.0924 H   0  0  0  0  0  0  0  0  0  0  0  0
   10.7301   44.8923   31.1677 H   0  0  0  0  0  0  0  0  0  0  0  0
    9.3504   43.8346   31.4766 H   0  0  0  0  0  0  0  0  0  0  0  0
    7.0111   44.7152   31.5803 H   0  0  0  0  0  0  0  0  0  0  0  0
   10.3479   47.1822   30.4070 H   0  0  0  0  0  0  0  0  0  0  0  0
    5.4649   46.3017   30.4974 H   0  0  0  0  0  0  0  0  0  0  0  0
    8.8230   48.7395   29.3183 H   0  0  0  0  0  0  0  0  0  0  0  0
    5.2758   50.2717   28.5960 H   0  0  0  0  0  0  0  0  0  0  0  0
    7.9995   50.7512   29.8868 H   0  0  0  0  0  0  0  0  0  0  0  0
    6.5878   50.3172   30.9250 H   0  0  0  0  0  0  0  0  0  0  0  0
    6.5207   51.7642   29.8875 H   0  0  0  0  0  0  0  0  0  0  0  0
    7.2432   47.7849   27.1867 H   0  0  0  0  0  0  0  0  0  0  0  0
    8.4385   52.2190   25.2556 H   0  0  0  0  0  0  0  0  0  0  0  0
   10.5983   48.2013   23.8752 H   0  0  0  0  0  0  0  0  0  0  0  0
    9.0851   48.1827   22.8502 H   0  0  0  0  0  0  0  0  0  0  0  0
   11.3780   41.5548   31.4751 H   0  0  0  0  0  0  0  0  0  0  0  0
    9.8235   40.7202   31.7651 H   0  0  0  0  0  0  0  0  0  0  0  0
   11.7311   39.5363   30.3531 H   0  0  0  0  0  0  0  0  0  0  0  0
   10.1203   38.2695   32.6410 H   0  0  0  0  0  0  0  0  0  0  0  0
   13.6850   37.4638   31.2321 H   0  0  0  0  0  0  0  0  0  0  0  0
   10.0251   38.1792   29.7654 H   0  0  0  0  0  0  0  0  0  0  0  0
   11.2757   36.3135   32.4907 H   0  0  0  0  0  0  0  0  0  0  0  0
   11.9839   36.9110   29.7708 H   0  0  0  0  0  0  0  0  0  0  0  0
   12.3307   38.3536   34.7457 H   0  0  0  0  0  0  0  0  0  0  0  0
   16.7566   34.1786   32.4623 H   0  0  0  0  0  0  0  0  0  0  0  0
   16.6353   34.5301   37.1419 H   0  0  0  0  0  0  0  0  0  0  0  0
   15.3535   35.7355   37.5144 H   0  0  0  0  0  0  0  0  0  0  0  0
  1  2  2  0
  1  3  1  0
  3  4  1  0
  4  5  1  0
  6  1  1  0
  7  6  1  0
  6  8  1  0
  8  9  1  0
  9 10  2  0
 11  9  1  0
 10 12  1  0
 13 11  2  0
 12 14  2  0
 14 13  1  0
 14 15  1  0
 15 16  1  0
 16 17  1  0
 16 18  1  0
 18 19  2  0
 20 18  1  0
 19 21  1  0
 22 20  2  0
 20 23  1  0
 21 24  1  0
 21 25  2  0
 25 22  1  0
 23 26  1  0
 23 27  2  0
 24 28  1  0
 25 29  1  0
 28 29  1  0
  4 30  2  0
  4 31  1  0
 32 31  1  0
 32 33  1  0
 33 34  1  0
 33 35  1  0
 34 36  1  0
 35 37  1  0
 35 38  1  0
 38 36  1  0
 36 39  1  0
 38 40  1  0
 41 39  1  0
 42 39  1  0
 43 41  2  0
 41 44  1  0
 45 42  2  0
 46 43  1  0
 44 47  2  0
 44 45  1  0
 48 46  2  0
 48 47  1  0
 47 49  1  0
  6 50  1  1
  7 51  1  0
  7 52  1  0
  8 53  1  0
  8 54  1  0
 10 55  1  0
 11 56  1  0
 12 57  1  0
 13 58  1  0
 16 59  1  6
 17 60  1  0
 17 61  1  0
 17 62  1  0
 19 63  1  0
 22 64  1  0
 28 65  1  0
 28 66  1  0
 32 67  1  0
 32 68  1  0
 33 69  1  0
 35 70  1  0
 36 71  1  0
 37 72  1  0
 38 73  1  0
 40 74  1  0
 42 75  1  0
 46 76  1  0
 49 77  1  0
 49 78  1  0
M  CHG  3   5  -1  23   1  26  -1
M  END
>  <EmbedRMS>  (289) 
0.081718445822

$$$$

     RDKit          3D

 78 83  0  0  0  0  0  0  0  0999 V2000
   10.2805   43.7663   33.8248 C   0  0  0  0  0  0  0  0  0  0  0  0
   11.4111   43.5919   34.3667 O   0  0  0  0  0  0  0  0  0  0  0  0
    9.3622   42.7247   33.7342 O   0  0  0  0  0  0  0  0  0  0  0  0
    9.8904   41.2264   34.2936 P   0  0  0  0  0  0  0  0  0  0  0  0
   10.3731   41.4565   35.8831 O   0  0  0  0  0  0  0  0  0  0  0  0
    9.9460   45.0735   33.2111 C   0  0  1  0  0  0  0  0  0  0  0  0
   11.0267   46.0292   33.4708 N   0  0  0  0  0  0  0  0  0  0  0  0
    9.7540   44.8542   31.6947 C   0  0  0  0  0  0  0  0  0  0  0  0
    8.7956   45.8412   31.0848 C   0  0  0  0  0  0  0  0  0  0  0  0
    7.4089   45.6001   31.1015 C   0  0  0  0  0  0  0  0  0  0  0  0
    9.2823   46.9882   30.4400 C   0  0  0  0  0  0  0  0  0  0  0  0
    6.5258   46.4991   30.4872 C   0  0  0  0  0  0  0  0  0  0  0  0
    8.3997   47.8877   29.8315 C   0  0  0  0  0  0  0  0  0  0  0  0
    7.0186   47.6537   29.8450 C   0  0  0  0  0  0  0  0  0  0  0  0
    6.1814   48.5829   29.2053 O   0  0  0  0  0  0  0  0  0  0  0  0
    4.7631   48.4633   29.0745 C   0  0  1  0  0  0  0  0  0  0  0  0
    4.1746   49.7817   28.5734 C   0  0  0  0  0  0  0  0  0  0  0  0
    4.3599   47.3161   28.1592 C   0  0  0  0  0  0  0  0  0  0  0  0
    3.1412   46.6565   28.4506 C   0  0  0  0  0  0  0  0  0  0  0  0
    5.1638   46.8475   27.0621 C   0  0  0  0  0  0  0  0  0  0  0  0
    2.7757   45.5598   27.6820 C   0  0  0  0  0  0  0  0  0  0  0  0
    4.7451   45.7154   26.3255 C   0  0  0  0  0  0  0  0  0  0  0  0
    6.3939   47.4870   26.6875 N   0  0  0  0  0  0  0  0  0  0  0  0
    1.6476   44.7701   27.7941 O   0  0  0  0  0  0  0  0  0  0  0  0
    3.5456   45.1068   26.6672 C   0  0  0  0  0  0  0  0  0  0  0  0
    6.4351   48.8443   26.4738 O   0  0  0  0  0  0  0  0  0  0  0  0
    7.3760   46.7950   26.3483 O   0  0  0  0  0  0  0  0  0  0  0  0
    1.7154   43.7561   26.7822 C   0  0  0  0  0  0  0  0  0  0  0  0
    2.9432   44.0079   26.0852 O   0  0  0  0  0  0  0  0  0  0  0  0
    8.8128   40.1841   34.2124 O   0  0  0  0  0  0  0  0  0  0  0  0
   11.2418   40.7944   33.3695 O   0  0  0  0  0  0  0  0  0  0  0  0
   10.9185   40.6911   31.9969 C   0  0  0  0  0  0  0  0  0  0  0  0
   11.5172   39.3814   31.4407 C   0  0  0  0  0  0  0  0  0  0  0  0
   12.7492   39.0856   32.0729 O   0  0  0  0  0  0  0  0  0  0  0  0
   10.6023   38.1908   31.6665 C   0  0  0  0  0  0  0  0  0  0  0  0
   12.9319   37.6781   32.0281 C   0  0  0  0  0  0  0  0  0  0  0  0
    9.6392   38.0797   30.6452 O   0  0  0  0  0  0  0  0  0  0  0  0
   11.5715   37.0165   31.7056 C   0  0  0  0  0  0  0  0  0  0  0  0
   13.4847   37.2121   33.3235 N   0  0  0  0  0  0  0  0  0  0  0  0
   11.6187   36.3384   30.4695 O   0  0  0  0  0  0  0  0  0  0  0  0
   14.4801   36.3321   33.5724 C   0  0  0  0  0  0  0  0  0  0  0  0
   13.1137   37.6276   34.5688 C   0  0  0  0  0  0  0  0  0  0  0  0
   15.2073   35.6153   32.6738 N   0  0  0  0  0  0  0  0  0  0  0  0
   14.6759   36.2308   34.9179 C   0  0  0  0  0  0  0  0  0  0  0  0
   13.8216   37.0452   35.5781 N   0  0  0  0  0  0  0  0  0  0  0  0
   16.1640   34.7602   33.1546 C   0  0  0  0  0  0  0  0  0  0  0  0
   15.6526   35.3508   35.4129 C   0  0  0  0  0  0  0  0  0  0  0  0
   16.3794   34.6317   34.5041 N   0  0  0  0  0  0  0  0  0  0  0  0
   15.8999   35.1934   36.8088 N   0  0  0  0  0  0  0  0  0  0  0  0
    8.9996   45.4380   33.6721 H   0  0  0  0  0  0  0  0  0  0  0  0
   10.7764   46.9368   33.0158 H   0  0  0  0  0  0  0  0  0  0  0  0
   11.0502   46.2277   34.4982 H   0  0  0  0  0  0  0  0  0  0  0  0
    9.3645   43.8354   31.4709 H   0  0  0  0  0  0  0  0  0  0  0  0
   10.7411   44.9080   31.1833 H   0  0  0  0  0  0  0  0  0  0  0  0
    7.0148   44.7153   31.5862 H   0  0  0  0  0  0  0  0  0  0  0  0
   10.3462   47.1878   30.4052 H   0  0  0  0  0  0  0  0  0  0  0  0
    5.4675   46.2829   30.5186 H   0  0  0  0  0  0  0  0  0  0  0  0
    8.7917   48.7678   29.3377 H   0  0  0  0  0  0  0  0  0  0  0  0
    4.3405   48.2980   30.0912 H   0  0  0  0  0  0  0  0  0  0  0  0
    3.0647   49.7317   28.5848 H   0  0  0  0  0  0  0  0  0  0  0  0
    4.5062   50.0075   27.5404 H   0  0  0  0  0  0  0  0  0  0  0  0
    4.4937   50.6118   29.2387 H   0  0  0  0  0  0  0  0  0  0  0  0
    2.5037   46.9804   29.2638 H   0  0  0  0  0  0  0  0  0  0  0  0
    5.3306   45.3338   25.4989 H   0  0  0  0  0  0  0  0  0  0  0  0
    1.7392   42.7490   27.2487 H   0  0  0  0  0  0  0  0  0  0  0  0
    0.8545   43.8486   26.0874 H   0  0  0  0  0  0  0  0  0  0  0  0
    9.8298   40.7409   31.7611 H   0  0  0  0  0  0  0  0  0  0  0  0
   11.3966   41.5460   31.4725 H   0  0  0  0  0  0  0  0  0  0  0  0
   11.6975   39.5066   30.3481 H   0  0  0  0  0  0  0  0  0  0  0  0
   10.1076   38.2648   32.6645 H   0  0  0  0  0  0  0  0  0  0  0  0
   13.6621   37.4468   31.2209 H   0  0  0  0  0  0  0  0  0  0  0  0
    8.8974   38.6943   30.8831 H   0  0  0  0  0  0  0  0  0  0  0  0
   11.2806   36.3073   32.5170 H   0  0  0  0  0  0  0  0  0  0  0  0
   10.8493   35.7110   30.4585 H   0  0  0  0  0  0  0  0  0  0  0  0
   12.3290   38.3524   34.7444 H   0  0  0  0  0  0  0  0  0  0  0  0
   16.7559   34.1780   32.4619 H   0  0  0  0  0  0  0  0  0  0  0  0
   16.6344   34.5301   37.1414 H   0  0  0  0  0  0  0  0  0  0  0  0
   15.3532   35.7362   37.5137 H   0  0  0  0  0  0  0  0  0  0  0  0
  1  2  2  0
  1  3  1  0
  3  4  1  0
  4  5  1  0
  6  1  1  0
  7  6  1  0
  6  8  1  0
  8  9  1  0
  9 10  2  0
 11  9  1  0
 10 12  1  0
 13 11  2  0
 12 14  2  0
 14 13  1  0
 14 15  1  0
 15 16  1  0
 16 17  1  0
 16 18  1  0
 18 19  2  0
 20 18  1  0
 19 21  1  0
 22 20  2  0
 20 23  1  0
 21 24  1  0
 21 25  2  0
 25 22  1  0
 23 26  1  0
 23 27  2  0
 24 28  1  0
 25 29  1  0
 28 29  1  0
  4 30  2  0
  4 31  1  0
 32 31  1  0
 32 33  1  0
 33 34  1  0
 33 35  1  0
 34 36  1  0
 35 37  1  0
 35 38  1  0
 38 36  1  0
 36 39  1  0
 38 40  1  0
 41 39  1  0
 42 39  1  0
 43 41  2  0
 41 44  1  0
 45 42  2  0
 46 43  1  0
 44 47  2  0
 44 45  1  0
 48 46  2  0
 48 47  1  0
 47 49  1  0
  6 50  1  1
  7 51  1  0
  7 52  1  0
  8 53  1  0
  8 54  1  0
 10 55  1  0
 11 56  1  0
 12 57  1  0
 13 58  1  0
 16 59  1  1
 17 60  1  0
 17 61  1  0
 17 62  1  0
 19 63  1  0
 22 64  1  0
 28 65  1  0
 28 66  1  0
 32 67  1  0
 32 68  1  0
 33 69  1  0
 35 70  1  0
 36 71  1  0
 37 72  1  0
 38 73  1  0
 40 74  1  0
 42 75  1  0
 46 76  1  0
 49 77  1  0
 49 78  1  0
M  CHG  3   5  -1  23   1  26  -1
M  END
>  <EmbedRMS>  (290) 
0.0827628363017

$$$$

     RDKit          3D

 78 83  0  0  0  0  0  0  0  0999 V2000
   10.2838   43.7627   33.8277 C   0  0  0  0  0  0  0  0  0  0  0  0
   11.4104   43.5864   34.3767 O   0  0  0  0  0  0  0  0  0  0  0  0
    9.3631   42.7236   33.7356 O   0  0  0  0  0  0  0  0  0  0  0  0
    9.8895   41.2250   34.2948 P   0  0  0  0  0  0  0  0  0  0  0  0
   10.3720   41.4547   35.8844 O   0  0  0  0  0  0  0  0  0  0  0  0
    9.9547   45.0700   33.2065 C   0  0  1  0  0  0  0  0  0  0  0  0
   11.0197   46.0482   33.4568 N   0  0  0  0  0  0  0  0  0  0  0  0
    9.7500   44.8508   31.6925 C   0  0  0  0  0  0  0  0  0  0  0  0
    8.7942   45.8418   31.0871 C   0  0  0  0  0  0  0  0  0  0  0  0
    7.4074   45.6007   31.0994 C   0  0  0  0  0  0  0  0  0  0  0  0
    9.2833   46.9887   30.4445 C   0  0  0  0  0  0  0  0  0  0  0  0
    6.5280   46.5015   30.4834 C   0  0  0  0  0  0  0  0  0  0  0  0
    8.4040   47.8892   29.8317 C   0  0  0  0  0  0  0  0  0  0  0  0
    7.0144   47.6530   29.8495 C   0  0  0  0  0  0  0  0  0  0  0  0
    6.0881   48.5272   29.2574 O   0  0  0  0  0  0  0  0  0  0  0  0
    6.4064   49.7869   28.6593 C   0  0  1  0  0  0  0  0  0  0  0  0
    5.1655   50.3192   27.9450 C   0  0  0  0  0  0  0  0  0  0  0  0
    6.8636   50.7794   29.7156 C   0  0  0  0  0  0  0  0  0  0  0  0
    6.1515   50.8406   30.9388 C   0  0  0  0  0  0  0  0  0  0  0  0
    8.0194   51.6101   29.5347 C   0  0  0  0  0  0  0  0  0  0  0  0
    6.6241   51.6780   31.9404 C   0  0  0  0  0  0  0  0  0  0  0  0
    8.4624   52.4303   30.5968 C   0  0  0  0  0  0  0  0  0  0  0  0
    8.7399   51.6456   28.2930 N   0  0  0  0  0  0  0  0  0  0  0  0
    6.1046   51.8841   33.2038 O   0  0  0  0  0  0  0  0  0  0  0  0
    7.7336   52.4348   31.7787 C   0  0  0  0  0  0  0  0  0  0  0  0
   10.1061   51.8075   28.3004 O   0  0  0  0  0  0  0  0  0  0  0  0
    8.1255   51.7674   27.2134 O   0  0  0  0  0  0  0  0  0  0  0  0
    6.9431   52.8328   33.8774 C   0  0  0  0  0  0  0  0  0  0  0  0
    7.9707   53.1586   32.9315 O   0  0  0  0  0  0  0  0  0  0  0  0
    8.8117   40.1832   34.2125 O   0  0  0  0  0  0  0  0  0  0  0  0
   11.2411   40.7939   33.3709 O   0  0  0  0  0  0  0  0  0  0  0  0
   10.9179   40.6920   31.9985 C   0  0  0  0  0  0  0  0  0  0  0  0
   11.5175   39.3837   31.4422 C   0  0  0  0  0  0  0  0  0  0  0  0
   12.7508   39.0887   32.0751 O   0  0  0  0  0  0  0  0  0  0  0  0
   10.6028   38.1915   31.6658 C   0  0  0  0  0  0  0  0  0  0  0  0
   12.9385   37.6818   32.0278 C   0  0  0  0  0  0  0  0  0  0  0  0
    9.6371   38.0805   30.6470 O   0  0  0  0  0  0  0  0  0  0  0  0
   11.5780   37.0215   31.6934 C   0  0  0  0  0  0  0  0  0  0  0  0
   13.4844   37.2119   33.3242 N   0  0  0  0  0  0  0  0  0  0  0  0
   11.6095   36.3201   30.4679 O   0  0  0  0  0  0  0  0  0  0  0  0
   14.4797   36.3318   33.5730 C   0  0  0  0  0  0  0  0  0  0  0  0
   13.1136   37.6278   34.5691 C   0  0  0  0  0  0  0  0  0  0  0  0
   15.2073   35.6155   32.6742 N   0  0  0  0  0  0  0  0  0  0  0  0
   14.6754   36.2305   34.9184 C   0  0  0  0  0  0  0  0  0  0  0  0
   13.8213   37.0452   35.5785 N   0  0  0  0  0  0  0  0  0  0  0  0
   16.1640   34.7604   33.1549 C   0  0  0  0  0  0  0  0  0  0  0  0
   15.6524   35.3507   35.4132 C   0  0  0  0  0  0  0  0  0  0  0  0
   16.3794   34.6318   34.5044 N   0  0  0  0  0  0  0  0  0  0  0  0
   15.8999   35.1934   36.8091 N   0  0  0  0  0  0  0  0  0  0  0  0
    9.0098   45.4349   33.6672 H   0  0  0  0  0  0  0  0  0  0  0  0
   11.1133   46.1995   34.4881 H   0  0  0  0  0  0  0  0  0  0  0  0
   11.9347   45.6933   33.0924 H   0  0  0  0  0  0  0  0  0  0  0  0
    9.3506   43.8343   31.4765 H   0  0  0  0  0  0  0  0  0  0  0  0
   10.7303   44.8921   31.1676 H   0  0  0  0  0  0  0  0  0  0  0  0
    7.0108   44.7155   31.5812 H   0  0  0  0  0  0  0  0  0  0  0  0
   10.3478   47.1869   30.4147 H   0  0  0  0  0  0  0  0  0  0  0  0
    5.4635   46.3052   30.5021 H   0  0  0  0  0  0  0  0  0  0  0  0
    8.8182   48.7600   29.3445 H   0  0  0  0  0  0  0  0  0  0  0  0
    7.1868   49.6146   27.8900 H   0  0  0  0  0  0  0  0  0  0  0  0
    4.3246   50.4431   28.6606 H   0  0  0  0  0  0  0  0  0  0  0  0
    4.8538   49.6052   27.1534 H   0  0  0  0  0  0  0  0  0  0  0  0
    5.3833   51.2992   27.4696 H   0  0  0  0  0  0  0  0  0  0  0  0
    5.2705   50.2356   31.1118 H   0  0  0  0  0  0  0  0  0  0  0  0
    9.3341   53.0636   30.4942 H   0  0  0  0  0  0  0  0  0  0  0  0
    7.3891   52.3747   34.7850 H   0  0  0  0  0  0  0  0  0  0  0  0
    6.3615   53.7413   34.1395 H   0  0  0  0  0  0  0  0  0  0  0  0
    9.8292   40.7409   31.7624 H   0  0  0  0  0  0  0  0  0  0  0  0
   11.3955   41.5477   31.4750 H   0  0  0  0  0  0  0  0  0  0  0  0
   11.6981   39.5116   30.3500 H   0  0  0  0  0  0  0  0  0  0  0  0
   10.1117   38.2603   32.6660 H   0  0  0  0  0  0  0  0  0  0  0  0
   13.6767   37.4555   31.2267 H   0  0  0  0  0  0  0  0  0  0  0  0
    8.8961   38.6951   30.8872 H   0  0  0  0  0  0  0  0  0  0  0  0
   11.2792   36.3072   32.4922 H   0  0  0  0  0  0  0  0  0  0  0  0
   11.8828   36.9598   29.7588 H   0  0  0  0  0  0  0  0  0  0  0  0
   12.3300   38.3539   34.7446 H   0  0  0  0  0  0  0  0  0  0  0  0
   16.7562   34.1785   32.4622 H   0  0  0  0  0  0  0  0  0  0  0  0
   15.3531   35.7360   37.5140 H   0  0  0  0  0  0  0  0  0  0  0  0
   16.6347   34.5303   37.1416 H   0  0  0  0  0  0  0  0  0  0  0  0
  1  2  2  0
  1  3  1  0
  3  4  1  0
  4  5  1  0
  6  1  1  0
  7  6  1  0
  6  8  1  0
  8  9  1  0
  9 10  2  0
 11  9  1  0
 10 12  1  0
 13 11  2  0
 12 14  2  0
 14 13  1  0
 14 15  1  0
 15 16  1  0
 16 17  1  0
 16 18  1  0
 18 19  2  0
 20 18  1  0
 19 21  1  0
 22 20  2  0
 20 23  1  0
 21 24  1  0
 21 25  2  0
 25 22  1  0
 23 26  1  0
 23 27  2  0
 24 28  1  0
 25 29  1  0
 28 29  1  0
  4 30  2  0
  4 31  1  0
 32 31  1  0
 32 33  1  0
 33 34  1  0
 33 35  1  0
 34 36  1  0
 35 37  1  0
 35 38  1  0
 38 36  1  0
 36 39  1  0
 38 40  1  0
 41 39  1  0
 42 39  1  0
 43 41  2  0
 41 44  1  0
 45 42  2  0
 46 43  1  0
 44 47  2  0
 44 45  1  0
 48 46  2  0
 48 47  1  0
 47 49  1  0
  6 50  1  1
  7 51  1  0
  7 52  1  0
  8 53  1  0
  8 54  1  0
 10 55  1  0
 11 56  1  0
 12 57  1  0
 13 58  1  0
 16 59  1  6
 17 60  1  0
 17 61  1  0
 17 62  1  0
 19 63  1  0
 22 64  1  0
 28 65  1  0
 28 66  1  0
 32 67  1  0
 32 68  1  0
 33 69  1  0
 35 70  1  0
 36 71  1  0
 37 72  1  0
 38 73  1  0
 40 74  1  0
 42 75  1  0
 46 76  1  0
 49 77  1  0
 49 78  1  0
M  CHG  3   5  -1  23   1  26  -1
M  END
>  <EmbedRMS>  (291) 
0.0828745309254

$$$$

     RDKit          3D

 78 83  0  0  0  0  0  0  0  0999 V2000
   10.2836   43.7661   33.8257 C   0  0  0  0  0  0  0  0  0  0  0  0
   11.4103   43.5929   34.3753 O   0  0  0  0  0  0  0  0  0  0  0  0
    9.3638   42.7255   33.7350 O   0  0  0  0  0  0  0  0  0  0  0  0
    9.8903   41.2267   34.2943 P   0  0  0  0  0  0  0  0  0  0  0  0
   10.3735   41.4560   35.8837 O   0  0  0  0  0  0  0  0  0  0  0  0
    9.9548   45.0694   33.2038 C   0  0  1  0  0  0  0  0  0  0  0  0
   11.0275   46.0321   33.4757 N   0  0  0  0  0  0  0  0  0  0  0  0
    9.7464   44.8482   31.6881 C   0  0  0  0  0  0  0  0  0  0  0  0
    8.7922   45.8415   31.0858 C   0  0  0  0  0  0  0  0  0  0  0  0
    7.4059   45.6014   31.0985 C   0  0  0  0  0  0  0  0  0  0  0  0
    9.2820   46.9869   30.4417 C   0  0  0  0  0  0  0  0  0  0  0  0
    6.5277   46.5022   30.4816 C   0  0  0  0  0  0  0  0  0  0  0  0
    8.4031   47.8884   29.8303 C   0  0  0  0  0  0  0  0  0  0  0  0
    7.0128   47.6559   29.8499 C   0  0  0  0  0  0  0  0  0  0  0  0
    6.0769   48.5197   29.2473 O   0  0  0  0  0  0  0  0  0  0  0  0
    6.2895   49.8702   28.8029 C   0  0  1  0  0  0  0  0  0  0  0  0
    6.8942   50.7222   29.9378 C   0  0  0  0  0  0  0  0  0  0  0  0
    7.0703   49.9591   27.4887 C   0  0  0  0  0  0  0  0  0  0  0  0
    7.4937   48.7742   26.8284 C   0  0  0  0  0  0  0  0  0  0  0  0
    7.3785   51.2272   26.8849 C   0  0  0  0  0  0  0  0  0  0  0  0
    8.2660   48.8868   25.6802 C   0  0  0  0  0  0  0  0  0  0  0  0
    8.1837   51.2788   25.7243 C   0  0  0  0  0  0  0  0  0  0  0  0
    6.8526   52.4569   27.4047 N   0  0  0  0  0  0  0  0  0  0  0  0
    8.7996   47.8767   24.9029 O   0  0  0  0  0  0  0  0  0  0  0  0
    8.6052   50.0856   25.1575 C   0  0  0  0  0  0  0  0  0  0  0  0
    5.5024   52.5832   27.6349 O   0  0  0  0  0  0  0  0  0  0  0  0
    7.5657   53.4814   27.4229 O   0  0  0  0  0  0  0  0  0  0  0  0
    9.5233   48.4841   23.8241 C   0  0  0  0  0  0  0  0  0  0  0  0
    9.3723   49.8961   24.0241 O   0  0  0  0  0  0  0  0  0  0  0  0
    8.8122   40.1850   34.2131 O   0  0  0  0  0  0  0  0  0  0  0  0
   11.2407   40.7939   33.3694 O   0  0  0  0  0  0  0  0  0  0  0  0
   10.9152   40.6905   31.9974 C   0  0  0  0  0  0  0  0  0  0  0  0
   11.5252   39.3886   31.4375 C   0  0  0  0  0  0  0  0  0  0  0  0
   12.7500   39.0874   32.0799 O   0  0  0  0  0  0  0  0  0  0  0  0
   10.6092   38.1926   31.6470 C   0  0  0  0  0  0  0  0  0  0  0  0
   12.9332   37.6793   32.0294 C   0  0  0  0  0  0  0  0  0  0  0  0
    9.6122   38.0895   30.6542 O   0  0  0  0  0  0  0  0  0  0  0  0
   11.5743   37.0145   31.7024 C   0  0  0  0  0  0  0  0  0  0  0  0
   13.4844   37.2108   33.3241 N   0  0  0  0  0  0  0  0  0  0  0  0
   11.6297   36.3239   30.4740 O   0  0  0  0  0  0  0  0  0  0  0  0
   14.4802   36.3313   33.5727 C   0  0  0  0  0  0  0  0  0  0  0  0
   13.1138   37.6266   34.5692 C   0  0  0  0  0  0  0  0  0  0  0  0
   15.2075   35.6149   32.6739 N   0  0  0  0  0  0  0  0  0  0  0  0
   14.6761   36.2303   34.9181 C   0  0  0  0  0  0  0  0  0  0  0  0
   13.8220   37.0447   35.5785 N   0  0  0  0  0  0  0  0  0  0  0  0
   16.1643   34.7600   33.1547 C   0  0  0  0  0  0  0  0  0  0  0  0
   15.6529   35.3505   35.4130 C   0  0  0  0  0  0  0  0  0  0  0  0
   16.3798   34.6315   34.5042 N   0  0  0  0  0  0  0  0  0  0  0  0
   15.9003   35.1932   36.8090 N   0  0  0  0  0  0  0  0  0  0  0  0
    9.0123   45.4317   33.6720 H   0  0  0  0  0  0  0  0  0  0  0  0
   11.8907   45.7656   32.9471 H   0  0  0  0  0  0  0  0  0  0  0  0
   10.7262   46.9686   33.1211 H   0  0  0  0  0  0  0  0  0  0  0  0
    9.3410   43.8332   31.4766 H   0  0  0  0  0  0  0  0  0  0  0  0
   10.7227   44.8814   31.1558 H   0  0  0  0  0  0  0  0  0  0  0  0
    7.0086   44.7160   31.5793 H   0  0  0  0  0  0  0  0  0  0  0  0
   10.3472   47.1791   30.4027 H   0  0  0  0  0  0  0  0  0  0  0  0
    5.4635   46.3039   30.4977 H   0  0  0  0  0  0  0  0  0  0  0  0
    8.8230   48.7395   29.3177 H   0  0  0  0  0  0  0  0  0  0  0  0
    5.2767   50.2749   28.5983 H   0  0  0  0  0  0  0  0  0  0  0  0
    6.5900   50.3180   30.9266 H   0  0  0  0  0  0  0  0  0  0  0  0
    6.5235   51.7657   29.8899 H   0  0  0  0  0  0  0  0  0  0  0  0
    8.0015   50.7515   29.8879 H   0  0  0  0  0  0  0  0  0  0  0  0
    7.2413   47.7872   27.1867 H   0  0  0  0  0  0  0  0  0  0  0  0
    8.4398   52.2213   25.2575 H   0  0  0  0  0  0  0  0  0  0  0  0
   10.5960   48.2026   23.8746 H   0  0  0  0  0  0  0  0  0  0  0  0
    9.0826   48.1857   22.8499 H   0  0  0  0  0  0  0  0  0  0  0  0
   11.3802   41.5529   31.4733 H   0  0  0  0  0  0  0  0  0  0  0  0
    9.8243   40.7216   31.7643 H   0  0  0  0  0  0  0  0  0  0  0  0
   11.7266   39.5311   30.3513 H   0  0  0  0  0  0  0  0  0  0  0  0
   10.1110   38.2747   32.6387 H   0  0  0  0  0  0  0  0  0  0  0  0
   13.6652   37.4519   31.2226 H   0  0  0  0  0  0  0  0  0  0  0  0
   10.0511   38.1143   29.7645 H   0  0  0  0  0  0  0  0  0  0  0  0
   11.2762   36.3141   32.5189 H   0  0  0  0  0  0  0  0  0  0  0  0
   10.8593   35.6978   30.4640 H   0  0  0  0  0  0  0  0  0  0  0  0
   12.3295   38.3518   34.7449 H   0  0  0  0  0  0  0  0  0  0  0  0
   16.7564   34.1780   32.4620 H   0  0  0  0  0  0  0  0  0  0  0  0
   16.6349   34.5300   37.1415 H   0  0  0  0  0  0  0  0  0  0  0  0
   15.3534   35.7359   37.5138 H   0  0  0  0  0  0  0  0  0  0  0  0
  1  2  2  0
  1  3  1  0
  3  4  1  0
  4  5  1  0
  6  1  1  0
  7  6  1  0
  6  8  1  0
  8  9  1  0
  9 10  2  0
 11  9  1  0
 10 12  1  0
 13 11  2  0
 12 14  2  0
 14 13  1  0
 14 15  1  0
 15 16  1  0
 16 17  1  0
 16 18  1  0
 18 19  2  0
 20 18  1  0
 19 21  1  0
 22 20  2  0
 20 23  1  0
 21 24  1  0
 21 25  2  0
 25 22  1  0
 23 26  1  0
 23 27  2  0
 24 28  1  0
 25 29  1  0
 28 29  1  0
  4 30  2  0
  4 31  1  0
 32 31  1  0
 32 33  1  0
 33 34  1  0
 33 35  1  0
 34 36  1  0
 35 37  1  0
 35 38  1  0
 38 36  1  0
 36 39  1  0
 38 40  1  0
 41 39  1  0
 42 39  1  0
 43 41  2  0
 41 44  1  0
 45 42  2  0
 46 43  1  0
 44 47  2  0
 44 45  1  0
 48 46  2  0
 48 47  1  0
 47 49  1  0
  6 50  1  1
  7 51  1  0
  7 52  1  0
  8 53  1  0
  8 54  1  0
 10 55  1  0
 11 56  1  0
 12 57  1  0
 13 58  1  0
 16 59  1  6
 17 60  1  0
 17 61  1  0
 17 62  1  0
 19 63  1  0
 22 64  1  0
 28 65  1  0
 28 66  1  0
 32 67  1  0
 32 68  1  0
 33 69  1  0
 35 70  1  0
 36 71  1  0
 37 72  1  0
 38 73  1  0
 40 74  1  0
 42 75  1  0
 46 76  1  0
 49 77  1  0
 49 78  1  0
M  CHG  3   5  -1  23   1  26  -1
M  END
>  <EmbedRMS>  (292) 
0.0817976525295

$$$$

     RDKit          3D

 78 83  0  0  0  0  0  0  0  0999 V2000
   10.2839   43.7626   33.8277 C   0  0  0  0  0  0  0  0  0  0  0  0
   11.4103   43.5863   34.3767 O   0  0  0  0  0  0  0  0  0  0  0  0
    9.3630   42.7236   33.7355 O   0  0  0  0  0  0  0  0  0  0  0  0
    9.8894   41.2249   34.2944 P   0  0  0  0  0  0  0  0  0  0  0  0
   10.3728   41.4546   35.8838 O   0  0  0  0  0  0  0  0  0  0  0  0
    9.9549   45.0699   33.2065 C   0  0  1  0  0  0  0  0  0  0  0  0
   11.0199   46.0480   33.4568 N   0  0  0  0  0  0  0  0  0  0  0  0
    9.7501   44.8507   31.6925 C   0  0  0  0  0  0  0  0  0  0  0  0
    8.7942   45.8416   31.0873 C   0  0  0  0  0  0  0  0  0  0  0  0
    7.4080   45.6011   31.1002 C   0  0  0  0  0  0  0  0  0  0  0  0
    9.2826   46.9884   30.4451 C   0  0  0  0  0  0  0  0  0  0  0  0
    6.5293   46.5020   30.4839 C   0  0  0  0  0  0  0  0  0  0  0  0
    8.4034   47.8894   29.8326 C   0  0  0  0  0  0  0  0  0  0  0  0
    7.0134   47.6532   29.8465 C   0  0  0  0  0  0  0  0  0  0  0  0
    6.0736   48.5086   29.2420 O   0  0  0  0  0  0  0  0  0  0  0  0
    6.3242   49.7446   28.5593 C   0  0  1  0  0  0  0  0  0  0  0  0
    6.7218   50.8333   29.5688 C   0  0  0  0  0  0  0  0  0  0  0  0
    7.2562   49.5491   27.3618 C   0  0  0  0  0  0  0  0  0  0  0  0
    8.3899   50.3871   27.1756 C   0  0  0  0  0  0  0  0  0  0  0  0
    7.0152   48.4935   26.4144 C   0  0  0  0  0  0  0  0  0  0  0  0
    9.2443   50.1275   26.1128 C   0  0  0  0  0  0  0  0  0  0  0  0
    7.9317   48.2708   25.3622 C   0  0  0  0  0  0  0  0  0  0  0  0
    5.8650   47.6357   26.5079 N   0  0  0  0  0  0  0  0  0  0  0  0
   10.3994   50.7976   25.7578 O   0  0  0  0  0  0  0  0  0  0  0  0
    9.0281   49.1119   25.2482 C   0  0  0  0  0  0  0  0  0  0  0  0
    5.9626   46.3166   26.1289 O   0  0  0  0  0  0  0  0  0  0  0  0
    4.7350   48.1122   26.7382 O   0  0  0  0  0  0  0  0  0  0  0  0
   10.9416   50.1590   24.5940 C   0  0  0  0  0  0  0  0  0  0  0  0
   10.0345   49.0876   24.3018 O   0  0  0  0  0  0  0  0  0  0  0  0
    8.8113   40.1833   34.2130 O   0  0  0  0  0  0  0  0  0  0  0  0
   11.2399   40.7932   33.3693 O   0  0  0  0  0  0  0  0  0  0  0  0
   10.9143   40.6896   31.9973 C   0  0  0  0  0  0  0  0  0  0  0  0
   11.5260   39.3884   31.4375 C   0  0  0  0  0  0  0  0  0  0  0  0
   12.7504   39.0887   32.0815 O   0  0  0  0  0  0  0  0  0  0  0  0
   10.6115   38.1909   31.6460 C   0  0  0  0  0  0  0  0  0  0  0  0
   12.9357   37.6812   32.0303 C   0  0  0  0  0  0  0  0  0  0  0  0
    9.6146   38.0858   30.6533 O   0  0  0  0  0  0  0  0  0  0  0  0
   11.5769   37.0148   31.7012 C   0  0  0  0  0  0  0  0  0  0  0  0
   13.4849   37.2112   33.3247 N   0  0  0  0  0  0  0  0  0  0  0  0
   11.6193   36.3260   30.4724 O   0  0  0  0  0  0  0  0  0  0  0  0
   14.4802   36.3313   33.5730 C   0  0  0  0  0  0  0  0  0  0  0  0
   13.1141   37.6268   34.5697 C   0  0  0  0  0  0  0  0  0  0  0  0
   15.2075   35.6151   32.6741 N   0  0  0  0  0  0  0  0  0  0  0  0
   14.6761   36.2300   34.9184 C   0  0  0  0  0  0  0  0  0  0  0  0
   13.8221   37.0445   35.5789 N   0  0  0  0  0  0  0  0  0  0  0  0
   16.1642   34.7600   33.1547 C   0  0  0  0  0  0  0  0  0  0  0  0
   15.6529   35.3503   35.4131 C   0  0  0  0  0  0  0  0  0  0  0  0
   16.3797   34.6314   34.5042 N   0  0  0  0  0  0  0  0  0  0  0  0
   15.9004   35.1930   36.8090 N   0  0  0  0  0  0  0  0  0  0  0  0
    9.0100   45.4348   33.6672 H   0  0  0  0  0  0  0  0  0  0  0  0
   11.9348   45.6932   33.0923 H   0  0  0  0  0  0  0  0  0  0  0  0
   11.1136   46.1992   34.4881 H   0  0  0  0  0  0  0  0  0  0  0  0
   10.7304   44.8922   31.1675 H   0  0  0  0  0  0  0  0  0  0  0  0
    9.3509   43.8342   31.4764 H   0  0  0  0  0  0  0  0  0  0  0  0
    7.0111   44.7158   31.5816 H   0  0  0  0  0  0  0  0  0  0  0  0
   10.3471   47.1865   30.4153 H   0  0  0  0  0  0  0  0  0  0  0  0
    5.4653   46.3025   30.4996 H   0  0  0  0  0  0  0  0  0  0  0  0
    8.8258   48.7547   29.3503 H   0  0  0  0  0  0  0  0  0  0  0  0
    5.3521   50.0837   28.1434 H   0  0  0  0  0  0  0  0  0  0  0  0
    7.7185   50.6421   30.0133 H   0  0  0  0  0  0  0  0  0  0  0  0
    6.7224   51.8306   29.0795 H   0  0  0  0  0  0  0  0  0  0  0  0
    5.9776   50.8625   30.3928 H   0  0  0  0  0  0  0  0  0  0  0  0
    8.6264   51.2060   27.8389 H   0  0  0  0  0  0  0  0  0  0  0  0
    7.7811   47.4776   24.6413 H   0  0  0  0  0  0  0  0  0  0  0  0
   11.9527   49.7562   24.8128 H   0  0  0  0  0  0  0  0  0  0  0  0
   10.9769   50.8735   23.7450 H   0  0  0  0  0  0  0  0  0  0  0  0
    9.8233   40.7191   31.7644 H   0  0  0  0  0  0  0  0  0  0  0  0
   11.3782   41.5525   31.4732 H   0  0  0  0  0  0  0  0  0  0  0  0
   11.7283   39.5312   30.3515 H   0  0  0  0  0  0  0  0  0  0  0  0
   10.1127   38.2733   32.6376 H   0  0  0  0  0  0  0  0  0  0  0  0
   13.6693   37.4565   31.2242 H   0  0  0  0  0  0  0  0  0  0  0  0
   10.0533   38.1118   29.7635 H   0  0  0  0  0  0  0  0  0  0  0  0
   11.2607   36.3148   32.5101 H   0  0  0  0  0  0  0  0  0  0  0  0
   12.1496   35.5022   30.6324 H   0  0  0  0  0  0  0  0  0  0  0  0
   12.3302   38.3524   34.7455 H   0  0  0  0  0  0  0  0  0  0  0  0
   16.7562   34.1780   32.4619 H   0  0  0  0  0  0  0  0  0  0  0  0
   16.6351   34.5298   37.1415 H   0  0  0  0  0  0  0  0  0  0  0  0
   15.3536   35.7357   37.5139 H   0  0  0  0  0  0  0  0  0  0  0  0
  1  2  2  0
  1  3  1  0
  3  4  1  0
  4  5  1  0
  6  1  1  0
  7  6  1  0
  6  8  1  0
  8  9  1  0
  9 10  2  0
 11  9  1  0
 10 12  1  0
 13 11  2  0
 12 14  2  0
 14 13  1  0
 14 15  1  0
 15 16  1  0
 16 17  1  0
 16 18  1  0
 18 19  2  0
 20 18  1  0
 19 21  1  0
 22 20  2  0
 20 23  1  0
 21 24  1  0
 21 25  2  0
 25 22  1  0
 23 26  1  0
 23 27  2  0
 24 28  1  0
 25 29  1  0
 28 29  1  0
  4 30  2  0
  4 31  1  0
 32 31  1  0
 32 33  1  0
 33 34  1  0
 33 35  1  0
 34 36  1  0
 35 37  1  0
 35 38  1  0
 38 36  1  0
 36 39  1  0
 38 40  1  0
 41 39  1  0
 42 39  1  0
 43 41  2  0
 41 44  1  0
 45 42  2  0
 46 43  1  0
 44 47  2  0
 44 45  1  0
 48 46  2  0
 48 47  1  0
 47 49  1  0
  6 50  1  1
  7 51  1  0
  7 52  1  0
  8 53  1  0
  8 54  1  0
 10 55  1  0
 11 56  1  0
 12 57  1  0
 13 58  1  0
 16 59  1  6
 17 60  1  0
 17 61  1  0
 17 62  1  0
 19 63  1  0
 22 64  1  0
 28 65  1  0
 28 66  1  0
 32 67  1  0
 32 68  1  0
 33 69  1  0
 35 70  1  0
 36 71  1  0
 37 72  1  0
 38 73  1  0
 40 74  1  0
 42 75  1  0
 46 76  1  0
 49 77  1  0
 49 78  1  0
M  CHG  3   5  -1  23   1  26  -1
M  END
>  <EmbedRMS>  (293) 
0.0825116741726

$$$$

     RDKit          3D

 78 83  0  0  0  0  0  0  0  0999 V2000
   10.2834   43.7662   33.8257 C   0  0  0  0  0  0  0  0  0  0  0  0
   11.4102   43.5930   34.3753 O   0  0  0  0  0  0  0  0  0  0  0  0
    9.3637   42.7255   33.7349 O   0  0  0  0  0  0  0  0  0  0  0  0
    9.8907   41.2265   34.2933 P   0  0  0  0  0  0  0  0  0  0  0  0
   10.3743   41.4557   35.8828 O   0  0  0  0  0  0  0  0  0  0  0  0
    9.9546   45.0694   33.2035 C   0  0  1  0  0  0  0  0  0  0  0  0
   11.0273   46.0321   33.4756 N   0  0  0  0  0  0  0  0  0  0  0  0
    9.7467   44.8479   31.6876 C   0  0  0  0  0  0  0  0  0  0  0  0
    8.7924   45.8404   31.0841 C   0  0  0  0  0  0  0  0  0  0  0  0
    7.4058   45.6016   31.0993 C   0  0  0  0  0  0  0  0  0  0  0  0
    9.2820   46.9876   30.4426 C   0  0  0  0  0  0  0  0  0  0  0  0
    6.5271   46.5036   30.4848 C   0  0  0  0  0  0  0  0  0  0  0  0
    8.4032   47.8906   29.8324 C   0  0  0  0  0  0  0  0  0  0  0  0
    7.0133   47.6526   29.8456 C   0  0  0  0  0  0  0  0  0  0  0  0
    6.0814   48.5209   29.2528 O   0  0  0  0  0  0  0  0  0  0  0  0
    6.3870   49.6708   28.4593 C   0  0  1  0  0  0  0  0  0  0  0  0
    6.8876   49.2456   27.0722 C   0  0  0  0  0  0  0  0  0  0  0  0
    5.1348   50.5203   28.3310 C   0  0  0  0  0  0  0  0  0  0  0  0
    3.9740   49.9328   27.7682 C   0  0  0  0  0  0  0  0  0  0  0  0
    5.0986   51.9015   28.7200 C   0  0  0  0  0  0  0  0  0  0  0  0
    2.8534   50.7292   27.5729 C   0  0  0  0  0  0  0  0  0  0  0  0
    3.9358   52.6668   28.4795 C   0  0  0  0  0  0  0  0  0  0  0  0
    6.2083   52.5335   29.3727 N   0  0  0  0  0  0  0  0  0  0  0  0
    1.6306   50.3748   27.0361 O   0  0  0  0  0  0  0  0  0  0  0  0
    2.8372   52.0398   27.9075 C   0  0  0  0  0  0  0  0  0  0  0  0
    6.5628   53.8151   29.0202 O   0  0  0  0  0  0  0  0  0  0  0  0
    6.6607   52.0536   30.4325 O   0  0  0  0  0  0  0  0  0  0  0  0
    0.7938   51.5395   27.0346 C   0  0  0  0  0  0  0  0  0  0  0  0
    1.6033   52.5798   27.5997 O   0  0  0  0  0  0  0  0  0  0  0  0
    8.8123   40.1850   34.2127 O   0  0  0  0  0  0  0  0  0  0  0  0
   11.2407   40.7945   33.3670 O   0  0  0  0  0  0  0  0  0  0  0  0
   10.9134   40.6866   31.9954 C   0  0  0  0  0  0  0  0  0  0  0  0
   11.5167   39.3787   31.4404 C   0  0  0  0  0  0  0  0  0  0  0  0
   12.7486   39.0849   32.0734 O   0  0  0  0  0  0  0  0  0  0  0  0
   10.6039   38.1884   31.6669 C   0  0  0  0  0  0  0  0  0  0  0  0
   12.9329   37.6776   32.0284 C   0  0  0  0  0  0  0  0  0  0  0  0
    9.6374   38.0938   30.6484 O   0  0  0  0  0  0  0  0  0  0  0  0
   11.5737   37.0141   31.7055 C   0  0  0  0  0  0  0  0  0  0  0  0
   13.4853   37.2120   33.3238 N   0  0  0  0  0  0  0  0  0  0  0  0
   11.6210   36.3379   30.4683 O   0  0  0  0  0  0  0  0  0  0  0  0
   14.4804   36.3319   33.5726 C   0  0  0  0  0  0  0  0  0  0  0  0
   13.1141   37.6275   34.5689 C   0  0  0  0  0  0  0  0  0  0  0  0
   15.2076   35.6152   32.6740 N   0  0  0  0  0  0  0  0  0  0  0  0
   14.6761   36.2306   34.9181 C   0  0  0  0  0  0  0  0  0  0  0  0
   13.8218   37.0451   35.5783 N   0  0  0  0  0  0  0  0  0  0  0  0
   16.1642   34.7600   33.1548 C   0  0  0  0  0  0  0  0  0  0  0  0
   15.6527   35.3506   35.4131 C   0  0  0  0  0  0  0  0  0  0  0  0
   16.3795   34.6315   34.5043 N   0  0  0  0  0  0  0  0  0  0  0  0
   15.9000   35.1933   36.8090 N   0  0  0  0  0  0  0  0  0  0  0  0
    9.0120   45.4317   33.6713 H   0  0  0  0  0  0  0  0  0  0  0  0
   10.7259   46.9687   33.1213 H   0  0  0  0  0  0  0  0  0  0  0  0
   11.8906   45.7658   32.9469 H   0  0  0  0  0  0  0  0  0  0  0  0
    9.3417   43.8327   31.4762 H   0  0  0  0  0  0  0  0  0  0  0  0
   10.7231   44.8813   31.1556 H   0  0  0  0  0  0  0  0  0  0  0  0
    7.0085   44.7172   31.5820 H   0  0  0  0  0  0  0  0  0  0  0  0
   10.3466   47.1854   30.4136 H   0  0  0  0  0  0  0  0  0  0  0  0
    5.4625   46.3074   30.5042 H   0  0  0  0  0  0  0  0  0  0  0  0
    8.8215   48.7659   29.3579 H   0  0  0  0  0  0  0  0  0  0  0  0
    7.1967   50.2489   28.9404 H   0  0  0  0  0  0  0  0  0  0  0  0
    6.1594   48.5702   26.5765 H   0  0  0  0  0  0  0  0  0  0  0  0
    7.0458   50.1405   26.4330 H   0  0  0  0  0  0  0  0  0  0  0  0
    7.8535   48.7070   27.1554 H   0  0  0  0  0  0  0  0  0  0  0  0
    3.9497   48.8898   27.4794 H   0  0  0  0  0  0  0  0  0  0  0  0
    3.8828   53.7118   28.7569 H   0  0  0  0  0  0  0  0  0  0  0  0
   -0.1042   51.3680   27.6644 H   0  0  0  0  0  0  0  0  0  0  0  0
    0.5027   51.8019   25.9959 H   0  0  0  0  0  0  0  0  0  0  0  0
    9.8226   40.7225   31.7631 H   0  0  0  0  0  0  0  0  0  0  0  0
   11.3828   41.5438   31.4669 H   0  0  0  0  0  0  0  0  0  0  0  0
   11.6979   39.5037   30.3478 H   0  0  0  0  0  0  0  0  0  0  0  0
   10.1084   38.2787   32.6627 H   0  0  0  0  0  0  0  0  0  0  0  0
   13.6638   37.4472   31.2214 H   0  0  0  0  0  0  0  0  0  0  0  0
    8.9763   37.4191   30.9532 H   0  0  0  0  0  0  0  0  0  0  0  0
   11.2821   36.3054   32.5172 H   0  0  0  0  0  0  0  0  0  0  0  0
   10.8658   35.6935   30.4652 H   0  0  0  0  0  0  0  0  0  0  0  0
   12.3294   38.3523   34.7444 H   0  0  0  0  0  0  0  0  0  0  0  0
   16.7561   34.1778   32.4621 H   0  0  0  0  0  0  0  0  0  0  0  0
   16.6345   34.5300   37.1416 H   0  0  0  0  0  0  0  0  0  0  0  0
   15.3533   35.7361   37.5138 H   0  0  0  0  0  0  0  0  0  0  0  0
  1  2  2  0
  1  3  1  0
  3  4  1  0
  4  5  1  0
  6  1  1  0
  7  6  1  0
  6  8  1  0
  8  9  1  0
  9 10  2  0
 11  9  1  0
 10 12  1  0
 13 11  2  0
 12 14  2  0
 14 13  1  0
 14 15  1  0
 15 16  1  0
 16 17  1  0
 16 18  1  0
 18 19  2  0
 20 18  1  0
 19 21  1  0
 22 20  2  0
 20 23  1  0
 21 24  1  0
 21 25  2  0
 25 22  1  0
 23 26  1  0
 23 27  2  0
 24 28  1  0
 25 29  1  0
 28 29  1  0
  4 30  2  0
  4 31  1  0
 32 31  1  0
 32 33  1  0
 33 34  1  0
 33 35  1  0
 34 36  1  0
 35 37  1  0
 35 38  1  0
 38 36  1  0
 36 39  1  0
 38 40  1  0
 41 39  1  0
 42 39  1  0
 43 41  2  0
 41 44  1  0
 45 42  2  0
 46 43  1  0
 44 47  2  0
 44 45  1  0
 48 46  2  0
 48 47  1  0
 47 49  1  0
  6 50  1  1
  7 51  1  0
  7 52  1  0
  8 53  1  0
  8 54  1  0
 10 55  1  0
 11 56  1  0
 12 57  1  0
 13 58  1  0
 16 59  1  1
 17 60  1  0
 17 61  1  0
 17 62  1  0
 19 63  1  0
 22 64  1  0
 28 65  1  0
 28 66  1  0
 32 67  1  0
 32 68  1  0
 33 69  1  0
 35 70  1  0
 36 71  1  0
 37 72  1  0
 38 73  1  0
 40 74  1  0
 42 75  1  0
 46 76  1  0
 49 77  1  0
 49 78  1  0
M  CHG  3   5  -1  23   1  26  -1
M  END
>  <EmbedRMS>  (294) 
0.0825585856435

$$$$

     RDKit          3D

 78 83  0  0  0  0  0  0  0  0999 V2000
   10.2839   43.7626   33.8275 C   0  0  0  0  0  0  0  0  0  0  0  0
   11.4103   43.5863   34.3767 O   0  0  0  0  0  0  0  0  0  0  0  0
    9.3631   42.7236   33.7353 O   0  0  0  0  0  0  0  0  0  0  0  0
    9.8894   41.2249   34.2944 P   0  0  0  0  0  0  0  0  0  0  0  0
   10.3726   41.4547   35.8838 O   0  0  0  0  0  0  0  0  0  0  0  0
    9.9549   45.0700   33.2063 C   0  0  1  0  0  0  0  0  0  0  0  0
   11.0198   46.0481   33.4571 N   0  0  0  0  0  0  0  0  0  0  0  0
    9.7506   44.8511   31.6922 C   0  0  0  0  0  0  0  0  0  0  0  0
    8.7944   45.8419   31.0869 C   0  0  0  0  0  0  0  0  0  0  0  0
    7.4077   45.6006   31.1006 C   0  0  0  0  0  0  0  0  0  0  0  0
    9.2826   46.9895   30.4449 C   0  0  0  0  0  0  0  0  0  0  0  0
    6.5259   46.5001   30.4857 C   0  0  0  0  0  0  0  0  0  0  0  0
    8.4008   47.8884   29.8335 C   0  0  0  0  0  0  0  0  0  0  0  0
    7.0194   47.6545   29.8447 C   0  0  0  0  0  0  0  0  0  0  0  0
    6.1826   48.5861   29.2089 O   0  0  0  0  0  0  0  0  0  0  0  0
    4.7619   48.4733   29.0820 C   0  0  1  0  0  0  0  0  0  0  0  0
    4.2132   49.7874   28.5313 C   0  0  0  0  0  0  0  0  0  0  0  0
    4.3844   47.3332   28.1495 C   0  0  0  0  0  0  0  0  0  0  0  0
    5.1796   47.1035   26.9990 C   0  0  0  0  0  0  0  0  0  0  0  0
    3.1963   46.5534   28.3441 C   0  0  0  0  0  0  0  0  0  0  0  0
    4.7873   46.1143   26.1069 C   0  0  0  0  0  0  0  0  0  0  0  0
    2.8384   45.5720   27.3938 C   0  0  0  0  0  0  0  0  0  0  0  0
    2.3337   46.7590   29.4709 N   0  0  0  0  0  0  0  0  0  0  0  0
    5.4060   45.7186   24.9366 O   0  0  0  0  0  0  0  0  0  0  0  0
    3.6660   45.3814   26.2955 C   0  0  0  0  0  0  0  0  0  0  0  0
    0.9726   46.8102   29.2786 O   0  0  0  0  0  0  0  0  0  0  0  0
    2.7716   46.6006   30.6285 O   0  0  0  0  0  0  0  0  0  0  0  0
    4.6225   44.6671   24.3558 C   0  0  0  0  0  0  0  0  0  0  0  0
    3.5205   44.4839   25.2552 O   0  0  0  0  0  0  0  0  0  0  0  0
    8.8113   40.1834   34.2129 O   0  0  0  0  0  0  0  0  0  0  0  0
   11.2402   40.7930   33.3696 O   0  0  0  0  0  0  0  0  0  0  0  0
   10.9151   40.6903   31.9975 C   0  0  0  0  0  0  0  0  0  0  0  0
   11.5252   39.3885   31.4375 C   0  0  0  0  0  0  0  0  0  0  0  0
   12.7500   39.0873   32.0798 O   0  0  0  0  0  0  0  0  0  0  0  0
   10.6092   38.1925   31.6469 C   0  0  0  0  0  0  0  0  0  0  0  0
   12.9332   37.6792   32.0294 C   0  0  0  0  0  0  0  0  0  0  0  0
    9.6122   38.0894   30.6542 O   0  0  0  0  0  0  0  0  0  0  0  0
   11.5743   37.0144   31.7024 C   0  0  0  0  0  0  0  0  0  0  0  0
   13.4844   37.2108   33.3241 N   0  0  0  0  0  0  0  0  0  0  0  0
   11.6297   36.3239   30.4740 O   0  0  0  0  0  0  0  0  0  0  0  0
   14.4802   36.3313   33.5726 C   0  0  0  0  0  0  0  0  0  0  0  0
   13.1138   37.6266   34.5692 C   0  0  0  0  0  0  0  0  0  0  0  0
   15.2075   35.6149   32.6739 N   0  0  0  0  0  0  0  0  0  0  0  0
   14.6761   36.2303   34.9181 C   0  0  0  0  0  0  0  0  0  0  0  0
   13.8220   37.0447   35.5784 N   0  0  0  0  0  0  0  0  0  0  0  0
   16.1643   34.7600   33.1547 C   0  0  0  0  0  0  0  0  0  0  0  0
   15.6529   35.3505   35.4130 C   0  0  0  0  0  0  0  0  0  0  0  0
   16.3798   34.6315   34.5042 N   0  0  0  0  0  0  0  0  0  0  0  0
   15.9002   35.1932   36.8090 N   0  0  0  0  0  0  0  0  0  0  0  0
    9.0099   45.4348   33.6669 H   0  0  0  0  0  0  0  0  0  0  0  0
   11.1132   46.1992   34.4884 H   0  0  0  0  0  0  0  0  0  0  0  0
   11.9349   45.6933   33.0928 H   0  0  0  0  0  0  0  0  0  0  0  0
    9.3518   43.8345   31.4758 H   0  0  0  0  0  0  0  0  0  0  0  0
   10.7309   44.8932   31.1675 H   0  0  0  0  0  0  0  0  0  0  0  0
    7.0124   44.7152   31.5833 H   0  0  0  0  0  0  0  0  0  0  0  0
   10.3466   47.1897   30.4152 H   0  0  0  0  0  0  0  0  0  0  0  0
    5.4683   46.2851   30.5154 H   0  0  0  0  0  0  0  0  0  0  0  0
    8.7936   48.7698   29.3427 H   0  0  0  0  0  0  0  0  0  0  0  0
    4.3336   48.3419   30.0943 H   0  0  0  0  0  0  0  0  0  0  0  0
    4.4762   50.6210   29.2166 H   0  0  0  0  0  0  0  0  0  0  0  0
    3.1063   49.7365   28.4471 H   0  0  0  0  0  0  0  0  0  0  0  0
    4.6448   50.0016   27.5299 H   0  0  0  0  0  0  0  0  0  0  0  0
    6.0693   47.6864   26.7979 H   0  0  0  0  0  0  0  0  0  0  0  0
    1.9461   44.9713   27.5152 H   0  0  0  0  0  0  0  0  0  0  0  0
    4.2532   44.9718   23.3542 H   0  0  0  0  0  0  0  0  0  0  0  0
    5.2211   43.7345   24.2884 H   0  0  0  0  0  0  0  0  0  0  0  0
   11.3805   41.5528   31.4739 H   0  0  0  0  0  0  0  0  0  0  0  0
    9.8243   40.7216   31.7640 H   0  0  0  0  0  0  0  0  0  0  0  0
   11.7265   39.5311   30.3512 H   0  0  0  0  0  0  0  0  0  0  0  0
   10.1110   38.2746   32.6386 H   0  0  0  0  0  0  0  0  0  0  0  0
   13.6652   37.4518   31.2226 H   0  0  0  0  0  0  0  0  0  0  0  0
   10.0511   38.1144   29.7644 H   0  0  0  0  0  0  0  0  0  0  0  0
   11.2762   36.3141   32.5189 H   0  0  0  0  0  0  0  0  0  0  0  0
   10.8593   35.6977   30.4639 H   0  0  0  0  0  0  0  0  0  0  0  0
   12.3294   38.3518   34.7449 H   0  0  0  0  0  0  0  0  0  0  0  0
   16.7563   34.1779   32.4620 H   0  0  0  0  0  0  0  0  0  0  0  0
   16.6348   34.5300   37.1416 H   0  0  0  0  0  0  0  0  0  0  0  0
   15.3534   35.7359   37.5138 H   0  0  0  0  0  0  0  0  0  0  0  0
  1  2  2  0
  1  3  1  0
  3  4  1  0
  4  5  1  0
  6  1  1  0
  7  6  1  0
  6  8  1  0
  8  9  1  0
  9 10  2  0
 11  9  1  0
 10 12  1  0
 13 11  2  0
 12 14  2  0
 14 13  1  0
 14 15  1  0
 15 16  1  0
 16 17  1  0
 16 18  1  0
 18 19  2  0
 20 18  1  0
 19 21  1  0
 22 20  2  0
 20 23  1  0
 21 24  1  0
 21 25  2  0
 25 22  1  0
 23 26  1  0
 23 27  2  0
 24 28  1  0
 25 29  1  0
 28 29  1  0
  4 30  2  0
  4 31  1  0
 32 31  1  0
 32 33  1  0
 33 34  1  0
 33 35  1  0
 34 36  1  0
 35 37  1  0
 35 38  1  0
 38 36  1  0
 36 39  1  0
 38 40  1  0
 41 39  1  0
 42 39  1  0
 43 41  2  0
 41 44  1  0
 45 42  2  0
 46 43  1  0
 44 47  2  0
 44 45  1  0
 48 46  2  0
 48 47  1  0
 47 49  1  0
  6 50  1  1
  7 51  1  0
  7 52  1  0
  8 53  1  0
  8 54  1  0
 10 55  1  0
 11 56  1  0
 12 57  1  0
 13 58  1  0
 16 59  1  1
 17 60  1  0
 17 61  1  0
 17 62  1  0
 19 63  1  0
 22 64  1  0
 28 65  1  0
 28 66  1  0
 32 67  1  0
 32 68  1  0
 33 69  1  0
 35 70  1  0
 36 71  1  0
 37 72  1  0
 38 73  1  0
 40 74  1  0
 42 75  1  0
 46 76  1  0
 49 77  1  0
 49 78  1  0
M  CHG  3   5  -1  23   1  26  -1
M  END
>  <EmbedRMS>  (295) 
0.0827134353041

$$$$

     RDKit          3D

 78 83  0  0  0  0  0  0  0  0999 V2000
   10.2834   43.7662   33.8252 C   0  0  0  0  0  0  0  0  0  0  0  0
   11.4101   43.5931   34.3750 O   0  0  0  0  0  0  0  0  0  0  0  0
    9.3637   42.7255   33.7347 O   0  0  0  0  0  0  0  0  0  0  0  0
    9.8903   41.2267   34.2942 P   0  0  0  0  0  0  0  0  0  0  0  0
   10.3735   41.4562   35.8836 O   0  0  0  0  0  0  0  0  0  0  0  0
    9.9546   45.0695   33.2031 C   0  0  1  0  0  0  0  0  0  0  0  0
   11.0273   46.0321   33.4753 N   0  0  0  0  0  0  0  0  0  0  0  0
    9.7464   44.8484   31.6870 C   0  0  0  0  0  0  0  0  0  0  0  0
    8.7920   45.8410   31.0840 C   0  0  0  0  0  0  0  0  0  0  0  0
    7.4039   45.6017   31.1007 C   0  0  0  0  0  0  0  0  0  0  0  0
    9.2822   46.9901   30.4427 C   0  0  0  0  0  0  0  0  0  0  0  0
    6.5245   46.5039   30.4868 C   0  0  0  0  0  0  0  0  0  0  0  0
    8.4009   47.8918   29.8340 C   0  0  0  0  0  0  0  0  0  0  0  0
    7.0216   47.6467   29.8434 C   0  0  0  0  0  0  0  0  0  0  0  0
    6.1430   48.5544   29.2468 O   0  0  0  0  0  0  0  0  0  0  0  0
    5.6607   48.4372   27.9044 C   0  0  1  0  0  0  0  0  0  0  0  0
    6.7399   48.8242   26.8879 C   0  0  0  0  0  0  0  0  0  0  0  0
    4.9772   47.0914   27.6637 C   0  0  0  0  0  0  0  0  0  0  0  0
    3.5868   47.0221   27.9325 C   0  0  0  0  0  0  0  0  0  0  0  0
    5.6660   45.8859   27.2880 C   0  0  0  0  0  0  0  0  0  0  0  0
    2.9415   45.7977   27.8185 C   0  0  0  0  0  0  0  0  0  0  0  0
    4.9593   44.6682   27.1951 C   0  0  0  0  0  0  0  0  0  0  0  0
    7.0623   45.8679   26.9890 N   0  0  0  0  0  0  0  0  0  0  0  0
    1.6082   45.5062   28.0336 O   0  0  0  0  0  0  0  0  0  0  0  0
    3.5992   44.6702   27.4668 C   0  0  0  0  0  0  0  0  0  0  0  0
    7.9152   45.2081   27.8417 O   0  0  0  0  0  0  0  0  0  0  0  0
    7.4282   46.0661   25.8125 O   0  0  0  0  0  0  0  0  0  0  0  0
    1.4186   44.1041   27.7989 C   0  0  0  0  0  0  0  0  0  0  0  0
    2.7154   43.6086   27.4394 O   0  0  0  0  0  0  0  0  0  0  0  0
    8.8121   40.1850   34.2131 O   0  0  0  0  0  0  0  0  0  0  0  0
   11.2406   40.7940   33.3693 O   0  0  0  0  0  0  0  0  0  0  0  0
   10.9151   40.6905   31.9973 C   0  0  0  0  0  0  0  0  0  0  0  0
   11.5252   39.3886   31.4375 C   0  0  0  0  0  0  0  0  0  0  0  0
   12.7500   39.0874   32.0799 O   0  0  0  0  0  0  0  0  0  0  0  0
   10.6092   38.1926   31.6469 C   0  0  0  0  0  0  0  0  0  0  0  0
   12.9332   37.6793   32.0294 C   0  0  0  0  0  0  0  0  0  0  0  0
    9.6121   38.0895   30.6542 O   0  0  0  0  0  0  0  0  0  0  0  0
   11.5743   37.0145   31.7024 C   0  0  0  0  0  0  0  0  0  0  0  0
   13.4844   37.2108   33.3241 N   0  0  0  0  0  0  0  0  0  0  0  0
   11.6297   36.3239   30.4740 O   0  0  0  0  0  0  0  0  0  0  0  0
   14.4802   36.3313   33.5726 C   0  0  0  0  0  0  0  0  0  0  0  0
   13.1139   37.6267   34.5692 C   0  0  0  0  0  0  0  0  0  0  0  0
   15.2075   35.6149   32.6739 N   0  0  0  0  0  0  0  0  0  0  0  0
   14.6761   36.2303   34.9181 C   0  0  0  0  0  0  0  0  0  0  0  0
   13.8220   37.0447   35.5785 N   0  0  0  0  0  0  0  0  0  0  0  0
   16.1643   34.7600   33.1547 C   0  0  0  0  0  0  0  0  0  0  0  0
   15.6529   35.3505   35.4130 C   0  0  0  0  0  0  0  0  0  0  0  0
   16.3798   34.6315   34.5042 N   0  0  0  0  0  0  0  0  0  0  0  0
   15.9003   35.1932   36.8090 N   0  0  0  0  0  0  0  0  0  0  0  0
    9.0120   45.4317   33.6709 H   0  0  0  0  0  0  0  0  0  0  0  0
   11.8904   45.7660   32.9464 H   0  0  0  0  0  0  0  0  0  0  0  0
   10.7258   46.9688   33.1212 H   0  0  0  0  0  0  0  0  0  0  0  0
   10.7226   44.8822   31.1547 H   0  0  0  0  0  0  0  0  0  0  0  0
    9.3413   43.8333   31.4753 H   0  0  0  0  0  0  0  0  0  0  0  0
    7.0068   44.7178   31.5844 H   0  0  0  0  0  0  0  0  0  0  0  0
   10.3462   47.1896   30.4136 H   0  0  0  0  0  0  0  0  0  0  0  0
    5.4591   46.3137   30.5091 H   0  0  0  0  0  0  0  0  0  0  0  0
    8.7902   48.7793   29.3519 H   0  0  0  0  0  0  0  0  0  0  0  0
    4.8832   49.2249   27.7898 H   0  0  0  0  0  0  0  0  0  0  0  0
    7.6974   48.3060   27.0896 H   0  0  0  0  0  0  0  0  0  0  0  0
    6.3965   48.6036   25.8549 H   0  0  0  0  0  0  0  0  0  0  0  0
    6.9406   49.9144   26.9601 H   0  0  0  0  0  0  0  0  0  0  0  0
    3.0246   47.8944   28.2417 H   0  0  0  0  0  0  0  0  0  0  0  0
    5.4602   43.7505   26.9143 H   0  0  0  0  0  0  0  0  0  0  0  0
    1.0605   43.6049   28.7236 H   0  0  0  0  0  0  0  0  0  0  0  0
    0.7036   43.9477   26.9641 H   0  0  0  0  0  0  0  0  0  0  0  0
    9.8242   40.7216   31.7642 H   0  0  0  0  0  0  0  0  0  0  0  0
   11.3801   41.5529   31.4733 H   0  0  0  0  0  0  0  0  0  0  0  0
   11.7266   39.5311   30.3512 H   0  0  0  0  0  0  0  0  0  0  0  0
   10.1110   38.2747   32.6387 H   0  0  0  0  0  0  0  0  0  0  0  0
   13.6652   37.4519   31.2226 H   0  0  0  0  0  0  0  0  0  0  0  0
   10.0511   38.1144   29.7645 H   0  0  0  0  0  0  0  0  0  0  0  0
   11.2762   36.3142   32.5190 H   0  0  0  0  0  0  0  0  0  0  0  0
   10.8592   35.6978   30.4640 H   0  0  0  0  0  0  0  0  0  0  0  0
   12.3295   38.3519   34.7449 H   0  0  0  0  0  0  0  0  0  0  0  0
   16.7563   34.1779   32.4620 H   0  0  0  0  0  0  0  0  0  0  0  0
   16.6349   34.5300   37.1415 H   0  0  0  0  0  0  0  0  0  0  0  0
   15.3534   35.7359   37.5138 H   0  0  0  0  0  0  0  0  0  0  0  0
  1  2  2  0
  1  3  1  0
  3  4  1  0
  4  5  1  0
  6  1  1  0
  7  6  1  0
  6  8  1  0
  8  9  1  0
  9 10  2  0
 11  9  1  0
 10 12  1  0
 13 11  2  0
 12 14  2  0
 14 13  1  0
 14 15  1  0
 15 16  1  0
 16 17  1  0
 16 18  1  0
 18 19  2  0
 20 18  1  0
 19 21  1  0
 22 20  2  0
 20 23  1  0
 21 24  1  0
 21 25  2  0
 25 22  1  0
 23 26  1  0
 23 27  2  0
 24 28  1  0
 25 29  1  0
 28 29  1  0
  4 30  2  0
  4 31  1  0
 32 31  1  0
 32 33  1  0
 33 34  1  0
 33 35  1  0
 34 36  1  0
 35 37  1  0
 35 38  1  0
 38 36  1  0
 36 39  1  0
 38 40  1  0
 41 39  1  0
 42 39  1  0
 43 41  2  0
 41 44  1  0
 45 42  2  0
 46 43  1  0
 44 47  2  0
 44 45  1  0
 48 46  2  0
 48 47  1  0
 47 49  1  0
  6 50  1  1
  7 51  1  0
  7 52  1  0
  8 53  1  0
  8 54  1  0
 10 55  1  0
 11 56  1  0
 12 57  1  0
 13 58  1  0
 16 59  1  1
 17 60  1  0
 17 61  1  0
 17 62  1  0
 19 63  1  0
 22 64  1  0
 28 65  1  0
 28 66  1  0
 32 67  1  0
 32 68  1  0
 33 69  1  0
 35 70  1  0
 36 71  1  0
 37 72  1  0
 38 73  1  0
 40 74  1  0
 42 75  1  0
 46 76  1  0
 49 77  1  0
 49 78  1  0
M  CHG  3   5  -1  23   1  26  -1
M  END
>  <EmbedRMS>  (296) 
0.0819330434039

$$$$

     RDKit          3D

 78 83  0  0  0  0  0  0  0  0999 V2000
   10.2834   43.7662   33.8257 C   0  0  0  0  0  0  0  0  0  0  0  0
   11.4102   43.5931   34.3752 O   0  0  0  0  0  0  0  0  0  0  0  0
    9.3637   42.7256   33.7350 O   0  0  0  0  0  0  0  0  0  0  0  0
    9.8902   41.2267   34.2942 P   0  0  0  0  0  0  0  0  0  0  0  0
   10.3736   41.4560   35.8836 O   0  0  0  0  0  0  0  0  0  0  0  0
    9.9546   45.0695   33.2036 C   0  0  1  0  0  0  0  0  0  0  0  0
   11.0273   46.0323   33.4756 N   0  0  0  0  0  0  0  0  0  0  0  0
    9.7466   44.8480   31.6877 C   0  0  0  0  0  0  0  0  0  0  0  0
    8.7923   45.8407   31.0844 C   0  0  0  0  0  0  0  0  0  0  0  0
    7.4056   45.6012   31.0985 C   0  0  0  0  0  0  0  0  0  0  0  0
    9.2823   46.9875   30.4421 C   0  0  0  0  0  0  0  0  0  0  0  0
    6.5268   46.5030   30.4834 C   0  0  0  0  0  0  0  0  0  0  0  0
    8.4032   47.8894   29.8314 C   0  0  0  0  0  0  0  0  0  0  0  0
    7.0140   47.6538   29.8489 C   0  0  0  0  0  0  0  0  0  0  0  0
    6.0882   48.5284   29.2569 O   0  0  0  0  0  0  0  0  0  0  0  0
    6.4088   49.7709   28.6240 C   0  0  1  0  0  0  0  0  0  0  0  0
    5.1591   50.3020   27.9258 C   0  0  0  0  0  0  0  0  0  0  0  0
    6.8981   50.7919   29.6389 C   0  0  0  0  0  0  0  0  0  0  0  0
    6.2849   50.8295   30.9161 C   0  0  0  0  0  0  0  0  0  0  0  0
    7.8856   51.7786   29.3091 C   0  0  0  0  0  0  0  0  0  0  0  0
    6.6780   51.8140   31.8131 C   0  0  0  0  0  0  0  0  0  0  0  0
    8.2331   52.7665   30.2566 C   0  0  0  0  0  0  0  0  0  0  0  0
    8.5193   51.8131   28.0234 N   0  0  0  0  0  0  0  0  0  0  0  0
    6.2256   52.0337   33.0999 O   0  0  0  0  0  0  0  0  0  0  0  0
    7.6103   52.7419   31.4972 C   0  0  0  0  0  0  0  0  0  0  0  0
    8.6585   53.0164   27.3715 O   0  0  0  0  0  0  0  0  0  0  0  0
    9.1911   50.8368   27.6330 O   0  0  0  0  0  0  0  0  0  0  0  0
    6.9223   53.1718   33.6254 C   0  0  0  0  0  0  0  0  0  0  0  0
    7.7960   53.5936   32.5691 O   0  0  0  0  0  0  0  0  0  0  0  0
    8.8121   40.1850   34.2131 O   0  0  0  0  0  0  0  0  0  0  0  0
   11.2404   40.7941   33.3690 O   0  0  0  0  0  0  0  0  0  0  0  0
   10.9143   40.6898   31.9972 C   0  0  0  0  0  0  0  0  0  0  0  0
   11.5261   39.3885   31.4376 C   0  0  0  0  0  0  0  0  0  0  0  0
   12.7504   39.0888   32.0816 O   0  0  0  0  0  0  0  0  0  0  0  0
   10.6115   38.1910   31.6460 C   0  0  0  0  0  0  0  0  0  0  0  0
   12.9357   37.6812   32.0303 C   0  0  0  0  0  0  0  0  0  0  0  0
    9.6146   38.0858   30.6533 O   0  0  0  0  0  0  0  0  0  0  0  0
   11.5769   37.0148   31.7012 C   0  0  0  0  0  0  0  0  0  0  0  0
   13.4849   37.2112   33.3247 N   0  0  0  0  0  0  0  0  0  0  0  0
   11.6193   36.3261   30.4724 O   0  0  0  0  0  0  0  0  0  0  0  0
   14.4802   36.3313   33.5730 C   0  0  0  0  0  0  0  0  0  0  0  0
   13.1141   37.6268   34.5698 C   0  0  0  0  0  0  0  0  0  0  0  0
   15.2075   35.6151   32.6741 N   0  0  0  0  0  0  0  0  0  0  0  0
   14.6761   36.2300   34.9184 C   0  0  0  0  0  0  0  0  0  0  0  0
   13.8220   37.0445   35.5789 N   0  0  0  0  0  0  0  0  0  0  0  0
   16.1642   34.7600   33.1547 C   0  0  0  0  0  0  0  0  0  0  0  0
   15.6529   35.3503   35.4132 C   0  0  0  0  0  0  0  0  0  0  0  0
   16.3798   34.6314   34.5042 N   0  0  0  0  0  0  0  0  0  0  0  0
   15.9004   35.1930   36.8090 N   0  0  0  0  0  0  0  0  0  0  0  0
    9.0120   45.4318   33.6714 H   0  0  0  0  0  0  0  0  0  0  0  0
   10.7257   46.9689   33.1213 H   0  0  0  0  0  0  0  0  0  0  0  0
   11.8905   45.7661   32.9468 H   0  0  0  0  0  0  0  0  0  0  0  0
   10.7229   44.8813   31.1557 H   0  0  0  0  0  0  0  0  0  0  0  0
    9.3414   43.8329   31.4764 H   0  0  0  0  0  0  0  0  0  0  0  0
    7.0083   44.7165   31.5806 H   0  0  0  0  0  0  0  0  0  0  0  0
   10.3469   47.1845   30.4111 H   0  0  0  0  0  0  0  0  0  0  0  0
    5.4621   46.3078   30.5028 H   0  0  0  0  0  0  0  0  0  0  0  0
    8.8162   48.7621   29.3481 H   0  0  0  0  0  0  0  0  0  0  0  0
    7.1612   49.5737   27.8363 H   0  0  0  0  0  0  0  0  0  0  0  0
    4.3450   50.4764   28.6619 H   0  0  0  0  0  0  0  0  0  0  0  0
    4.8060   49.5640   27.1745 H   0  0  0  0  0  0  0  0  0  0  0  0
    5.3870   51.2556   27.4027 H   0  0  0  0  0  0  0  0  0  0  0  0
    5.5158   50.1218   31.1980 H   0  0  0  0  0  0  0  0  0  0  0  0
    8.9734   53.5239   30.0329 H   0  0  0  0  0  0  0  0  0  0  0  0
    6.2038   53.9807   33.8743 H   0  0  0  0  0  0  0  0  0  0  0  0
    7.5139   52.8812   34.5187 H   0  0  0  0  0  0  0  0  0  0  0  0
   11.3779   41.5526   31.4726 H   0  0  0  0  0  0  0  0  0  0  0  0
    9.8233   40.7191   31.7647 H   0  0  0  0  0  0  0  0  0  0  0  0
   11.7283   39.5312   30.3515 H   0  0  0  0  0  0  0  0  0  0  0  0
   10.1126   38.2734   32.6376 H   0  0  0  0  0  0  0  0  0  0  0  0
   13.6692   37.4566   31.2242 H   0  0  0  0  0  0  0  0  0  0  0  0
   10.0534   38.1118   29.7635 H   0  0  0  0  0  0  0  0  0  0  0  0
   11.2607   36.3148   32.5102 H   0  0  0  0  0  0  0  0  0  0  0  0
   12.1496   35.5023   30.6324 H   0  0  0  0  0  0  0  0  0  0  0  0
   12.3301   38.3524   34.7455 H   0  0  0  0  0  0  0  0  0  0  0  0
   16.7563   34.1781   32.4619 H   0  0  0  0  0  0  0  0  0  0  0  0
   15.3535   35.7357   37.5139 H   0  0  0  0  0  0  0  0  0  0  0  0
   16.6350   34.5298   37.1416 H   0  0  0  0  0  0  0  0  0  0  0  0
  1  2  2  0
  1  3  1  0
  3  4  1  0
  4  5  1  0
  6  1  1  0
  7  6  1  0
  6  8  1  0
  8  9  1  0
  9 10  2  0
 11  9  1  0
 10 12  1  0
 13 11  2  0
 12 14  2  0
 14 13  1  0
 14 15  1  0
 15 16  1  0
 16 17  1  0
 16 18  1  0
 18 19  2  0
 20 18  1  0
 19 21  1  0
 22 20  2  0
 20 23  1  0
 21 24  1  0
 21 25  2  0
 25 22  1  0
 23 26  1  0
 23 27  2  0
 24 28  1  0
 25 29  1  0
 28 29  1  0
  4 30  2  0
  4 31  1  0
 32 31  1  0
 32 33  1  0
 33 34  1  0
 33 35  1  0
 34 36  1  0
 35 37  1  0
 35 38  1  0
 38 36  1  0
 36 39  1  0
 38 40  1  0
 41 39  1  0
 42 39  1  0
 43 41  2  0
 41 44  1  0
 45 42  2  0
 46 43  1  0
 44 47  2  0
 44 45  1  0
 48 46  2  0
 48 47  1  0
 47 49  1  0
  6 50  1  1
  7 51  1  0
  7 52  1  0
  8 53  1  0
  8 54  1  0
 10 55  1  0
 11 56  1  0
 12 57  1  0
 13 58  1  0
 16 59  1  6
 17 60  1  0
 17 61  1  0
 17 62  1  0
 19 63  1  0
 22 64  1  0
 28 65  1  0
 28 66  1  0
 32 67  1  0
 32 68  1  0
 33 69  1  0
 35 70  1  0
 36 71  1  0
 37 72  1  0
 38 73  1  0
 40 74  1  0
 42 75  1  0
 46 76  1  0
 49 77  1  0
 49 78  1  0
M  CHG  3   5  -1  23   1  26  -1
M  END
>  <EmbedRMS>  (297) 
0.0816305415928

$$$$

     RDKit          3D

 78 83  0  0  0  0  0  0  0  0999 V2000
   10.2832   43.7663   33.8254 C   0  0  0  0  0  0  0  0  0  0  0  0
   11.4100   43.5932   34.3750 O   0  0  0  0  0  0  0  0  0  0  0  0
    9.3634   42.7257   33.7351 O   0  0  0  0  0  0  0  0  0  0  0  0
    9.8902   41.2269   34.2941 P   0  0  0  0  0  0  0  0  0  0  0  0
   10.3739   41.4561   35.8834 O   0  0  0  0  0  0  0  0  0  0  0  0
    9.9545   45.0695   33.2030 C   0  0  1  0  0  0  0  0  0  0  0  0
   11.0272   46.0322   33.4753 N   0  0  0  0  0  0  0  0  0  0  0  0
    9.7466   44.8482   31.6869 C   0  0  0  0  0  0  0  0  0  0  0  0
    8.7922   45.8405   31.0831 C   0  0  0  0  0  0  0  0  0  0  0  0
    7.4043   45.6018   31.1006 C   0  0  0  0  0  0  0  0  0  0  0  0
    9.2821   46.9901   30.4433 C   0  0  0  0  0  0  0  0  0  0  0  0
    6.5249   46.5052   30.4885 C   0  0  0  0  0  0  0  0  0  0  0  0
    8.4012   47.8922   29.8347 C   0  0  0  0  0  0  0  0  0  0  0  0
    7.0205   47.6456   29.8415 C   0  0  0  0  0  0  0  0  0  0  0  0
    6.1288   48.5353   29.2336 O   0  0  0  0  0  0  0  0  0  0  0  0
    5.8854   48.6167   27.8223 C   0  0  1  0  0  0  0  0  0  0  0  0
    7.1242   49.0778   27.0453 C   0  0  0  0  0  0  0  0  0  0  0  0
    5.3126   47.3124   27.2749 C   0  0  0  0  0  0  0  0  0  0  0  0
    6.1309   46.1535   27.2413 C   0  0  0  0  0  0  0  0  0  0  0  0
    3.9447   47.2058   26.8534 C   0  0  0  0  0  0  0  0  0  0  0  0
    5.5669   44.9494   26.8423 C   0  0  0  0  0  0  0  0  0  0  0  0
    3.4222   45.9500   26.4697 C   0  0  0  0  0  0  0  0  0  0  0  0
    3.0877   48.3533   26.7837 N   0  0  0  0  0  0  0  0  0  0  0  0
    6.1676   43.7085   26.7523 O   0  0  0  0  0  0  0  0  0  0  0  0
    4.2687   44.8505   26.4784 C   0  0  0  0  0  0  0  0  0  0  0  0
    3.4415   49.4194   25.9892 O   0  0  0  0  0  0  0  0  0  0  0  0
    1.9158   48.2792   27.2073 O   0  0  0  0  0  0  0  0  0  0  0  0
    5.1804   42.7710   26.3017 C   0  0  0  0  0  0  0  0  0  0  0  0
    3.9824   43.5424   26.1382 O   0  0  0  0  0  0  0  0  0  0  0  0
    8.8121   40.1851   34.2131 O   0  0  0  0  0  0  0  0  0  0  0  0
   11.2401   40.7952   33.3681 O   0  0  0  0  0  0  0  0  0  0  0  0
   10.9125   40.6877   31.9968 C   0  0  0  0  0  0  0  0  0  0  0  0
   11.5169   39.3811   31.4420 C   0  0  0  0  0  0  0  0  0  0  0  0
   12.7500   39.0881   32.0759 O   0  0  0  0  0  0  0  0  0  0  0  0
   10.6043   38.1893   31.6659 C   0  0  0  0  0  0  0  0  0  0  0  0
   12.9395   37.6814   32.0280 C   0  0  0  0  0  0  0  0  0  0  0  0
    9.6353   38.0951   30.6499 O   0  0  0  0  0  0  0  0  0  0  0  0
   11.5803   37.0191   31.6934 C   0  0  0  0  0  0  0  0  0  0  0  0
   13.4851   37.2119   33.3244 N   0  0  0  0  0  0  0  0  0  0  0  0
   11.6118   36.3189   30.4673 O   0  0  0  0  0  0  0  0  0  0  0  0
   14.4801   36.3316   33.5732 C   0  0  0  0  0  0  0  0  0  0  0  0
   13.1139   37.6277   34.5692 C   0  0  0  0  0  0  0  0  0  0  0  0
   15.2076   35.6154   32.6744 N   0  0  0  0  0  0  0  0  0  0  0  0
   14.6756   36.2303   34.9186 C   0  0  0  0  0  0  0  0  0  0  0  0
   13.8215   37.0451   35.5786 N   0  0  0  0  0  0  0  0  0  0  0  0
   16.1642   34.7602   33.1551 C   0  0  0  0  0  0  0  0  0  0  0  0
   15.6526   35.3505   35.4134 C   0  0  0  0  0  0  0  0  0  0  0  0
   16.3795   34.6316   34.5045 N   0  0  0  0  0  0  0  0  0  0  0  0
   15.9000   35.1933   36.8093 N   0  0  0  0  0  0  0  0  0  0  0  0
    9.0118   45.4319   33.6706 H   0  0  0  0  0  0  0  0  0  0  0  0
   11.8904   45.7660   32.9465 H   0  0  0  0  0  0  0  0  0  0  0  0
   10.7257   46.9689   33.1213 H   0  0  0  0  0  0  0  0  0  0  0  0
    9.3417   43.8330   31.4754 H   0  0  0  0  0  0  0  0  0  0  0  0
   10.7230   44.8820   31.1549 H   0  0  0  0  0  0  0  0  0  0  0  0
    7.0072   44.7174   31.5834 H   0  0  0  0  0  0  0  0  0  0  0  0
   10.3459   47.1914   30.4178 H   0  0  0  0  0  0  0  0  0  0  0  0
    5.4598   46.3121   30.5038 H   0  0  0  0  0  0  0  0  0  0  0  0
    8.7939   48.7844   29.3658 H   0  0  0  0  0  0  0  0  0  0  0  0
    5.1465   49.4307   27.7062 H   0  0  0  0  0  0  0  0  0  0  0  0
    6.8585   49.2442   25.9795 H   0  0  0  0  0  0  0  0  0  0  0  0
    7.4960   50.0355   27.4670 H   0  0  0  0  0  0  0  0  0  0  0  0
    7.9410   48.3297   27.0898 H   0  0  0  0  0  0  0  0  0  0  0  0
    7.1706   46.1767   27.5368 H   0  0  0  0  0  0  0  0  0  0  0  0
    2.3929   45.8422   26.1523 H   0  0  0  0  0  0  0  0  0  0  0  0
    5.4864   42.3279   25.3309 H   0  0  0  0  0  0  0  0  0  0  0  0
    5.0255   41.9798   27.0650 H   0  0  0  0  0  0  0  0  0  0  0  0
   11.3807   41.5457   31.4685 H   0  0  0  0  0  0  0  0  0  0  0  0
    9.8215   40.7222   31.7646 H   0  0  0  0  0  0  0  0  0  0  0  0
   11.6986   39.5089   30.3498 H   0  0  0  0  0  0  0  0  0  0  0  0
   10.1109   38.2738   32.6630 H   0  0  0  0  0  0  0  0  0  0  0  0
   13.6783   37.4562   31.2271 H   0  0  0  0  0  0  0  0  0  0  0  0
    9.0019   37.3861   30.9348 H   0  0  0  0  0  0  0  0  0  0  0  0
   11.2807   36.3053   32.4921 H   0  0  0  0  0  0  0  0  0  0  0  0
   11.8818   36.9600   29.7584 H   0  0  0  0  0  0  0  0  0  0  0  0
   12.3304   38.3538   34.7445 H   0  0  0  0  0  0  0  0  0  0  0  0
   16.7563   34.1783   32.4624 H   0  0  0  0  0  0  0  0  0  0  0  0
   15.3532   35.7359   37.5142 H   0  0  0  0  0  0  0  0  0  0  0  0
   16.6347   34.5301   37.1418 H   0  0  0  0  0  0  0  0  0  0  0  0
  1  2  2  0
  1  3  1  0
  3  4  1  0
  4  5  1  0
  6  1  1  0
  7  6  1  0
  6  8  1  0
  8  9  1  0
  9 10  2  0
 11  9  1  0
 10 12  1  0
 13 11  2  0
 12 14  2  0
 14 13  1  0
 14 15  1  0
 15 16  1  0
 16 17  1  0
 16 18  1  0
 18 19  2  0
 20 18  1  0
 19 21  1  0
 22 20  2  0
 20 23  1  0
 21 24  1  0
 21 25  2  0
 25 22  1  0
 23 26  1  0
 23 27  2  0
 24 28  1  0
 25 29  1  0
 28 29  1  0
  4 30  2  0
  4 31  1  0
 32 31  1  0
 32 33  1  0
 33 34  1  0
 33 35  1  0
 34 36  1  0
 35 37  1  0
 35 38  1  0
 38 36  1  0
 36 39  1  0
 38 40  1  0
 41 39  1  0
 42 39  1  0
 43 41  2  0
 41 44  1  0
 45 42  2  0
 46 43  1  0
 44 47  2  0
 44 45  1  0
 48 46  2  0
 48 47  1  0
 47 49  1  0
  6 50  1  1
  7 51  1  0
  7 52  1  0
  8 53  1  0
  8 54  1  0
 10 55  1  0
 11 56  1  0
 12 57  1  0
 13 58  1  0
 16 59  1  1
 17 60  1  0
 17 61  1  0
 17 62  1  0
 19 63  1  0
 22 64  1  0
 28 65  1  0
 28 66  1  0
 32 67  1  0
 32 68  1  0
 33 69  1  0
 35 70  1  0
 36 71  1  0
 37 72  1  0
 38 73  1  0
 40 74  1  0
 42 75  1  0
 46 76  1  0
 49 77  1  0
 49 78  1  0
M  CHG  3   5  -1  23   1  26  -1
M  END
>  <EmbedRMS>  (298) 
0.081694635157

$$$$

     RDKit          3D

 78 83  0  0  0  0  0  0  0  0999 V2000
   10.2836   43.7661   33.8256 C   0  0  0  0  0  0  0  0  0  0  0  0
   11.4103   43.5930   34.3753 O   0  0  0  0  0  0  0  0  0  0  0  0
    9.3641   42.7253   33.7346 O   0  0  0  0  0  0  0  0  0  0  0  0
    9.8908   41.2265   34.2938 P   0  0  0  0  0  0  0  0  0  0  0  0
   10.3732   41.4559   35.8835 O   0  0  0  0  0  0  0  0  0  0  0  0
    9.9548   45.0695   33.2036 C   0  0  1  0  0  0  0  0  0  0  0  0
   11.0274   46.0322   33.4760 N   0  0  0  0  0  0  0  0  0  0  0  0
    9.7471   44.8484   31.6876 C   0  0  0  0  0  0  0  0  0  0  0  0
    8.7926   45.8411   31.0847 C   0  0  0  0  0  0  0  0  0  0  0  0
    7.4060   45.6010   31.0992 C   0  0  0  0  0  0  0  0  0  0  0  0
    9.2817   46.9876   30.4419 C   0  0  0  0  0  0  0  0  0  0  0  0
    6.5242   46.5006   30.4842 C   0  0  0  0  0  0  0  0  0  0  0  0
    8.4005   47.8875   29.8318 C   0  0  0  0  0  0  0  0  0  0  0  0
    7.0183   47.6578   29.8469 C   0  0  0  0  0  0  0  0  0  0  0  0
    6.1877   48.5961   29.2123 O   0  0  0  0  0  0  0  0  0  0  0  0
    4.7578   48.6019   29.2250 C   0  0  1  0  0  0  0  0  0  0  0  0
    4.2158   49.0246   30.5958 C   0  0  0  0  0  0  0  0  0  0  0  0
    4.2146   49.5185   28.1414 C   0  0  0  0  0  0  0  0  0  0  0  0
    2.9830   49.1565   27.5419 C   0  0  0  0  0  0  0  0  0  0  0  0
    4.8943   50.7009   27.6806 C   0  0  0  0  0  0  0  0  0  0  0  0
    2.4884   49.9391   26.5075 C   0  0  0  0  0  0  0  0  0  0  0  0
    4.3483   51.4468   26.6114 C   0  0  0  0  0  0  0  0  0  0  0  0
    6.1230   51.1586   28.2664 N   0  0  0  0  0  0  0  0  0  0  0  0
    1.3244   49.7691   25.7827 O   0  0  0  0  0  0  0  0  0  0  0  0
    3.1443   51.0329   26.0590 C   0  0  0  0  0  0  0  0  0  0  0  0
    7.1047   51.6891   27.4617 O   0  0  0  0  0  0  0  0  0  0  0  0
    6.2173   51.3019   29.5021 O   0  0  0  0  0  0  0  0  0  0  0  0
    1.2463   50.8264   24.8171 C   0  0  0  0  0  0  0  0  0  0  0  0
    2.4284   51.6106   25.0281 O   0  0  0  0  0  0  0  0  0  0  0  0
    8.8127   40.1848   34.2122 O   0  0  0  0  0  0  0  0  0  0  0  0
   11.2420   40.7941   33.3697 O   0  0  0  0  0  0  0  0  0  0  0  0
   10.9187   40.6911   31.9971 C   0  0  0  0  0  0  0  0  0  0  0  0
   11.5172   39.3815   31.4407 C   0  0  0  0  0  0  0  0  0  0  0  0
   12.7493   39.0855   32.0728 O   0  0  0  0  0  0  0  0  0  0  0  0
   10.6023   38.1908   31.6665 C   0  0  0  0  0  0  0  0  0  0  0  0
   12.9319   37.6781   32.0281 C   0  0  0  0  0  0  0  0  0  0  0  0
    9.6392   38.0798   30.6452 O   0  0  0  0  0  0  0  0  0  0  0  0
   11.5715   37.0166   31.7056 C   0  0  0  0  0  0  0  0  0  0  0  0
   13.4847   37.2121   33.3235 N   0  0  0  0  0  0  0  0  0  0  0  0
   11.6187   36.3384   30.4695 O   0  0  0  0  0  0  0  0  0  0  0  0
   14.4801   36.3321   33.5724 C   0  0  0  0  0  0  0  0  0  0  0  0
   13.1137   37.6275   34.5687 C   0  0  0  0  0  0  0  0  0  0  0  0
   15.2073   35.6153   32.6738 N   0  0  0  0  0  0  0  0  0  0  0  0
   14.6759   36.2308   34.9179 C   0  0  0  0  0  0  0  0  0  0  0  0
   13.8216   37.0452   35.5781 N   0  0  0  0  0  0  0  0  0  0  0  0
   16.1640   34.7602   33.1546 C   0  0  0  0  0  0  0  0  0  0  0  0
   15.6526   35.3508   35.4129 C   0  0  0  0  0  0  0  0  0  0  0  0
   16.3794   34.6317   34.5041 N   0  0  0  0  0  0  0  0  0  0  0  0
   15.8999   35.1935   36.8088 N   0  0  0  0  0  0  0  0  0  0  0  0
    9.0121   45.4316   33.6714 H   0  0  0  0  0  0  0  0  0  0  0  0
   11.8908   45.7659   32.9476 H   0  0  0  0  0  0  0  0  0  0  0  0
   10.7260   46.9688   33.1215 H   0  0  0  0  0  0  0  0  0  0  0  0
    9.3425   43.8332   31.4758 H   0  0  0  0  0  0  0  0  0  0  0  0
   10.7236   44.8824   31.1558 H   0  0  0  0  0  0  0  0  0  0  0  0
    7.0106   44.7149   31.5805 H   0  0  0  0  0  0  0  0  0  0  0  0
   10.3460   47.1858   30.4097 H   0  0  0  0  0  0  0  0  0  0  0  0
    5.4674   46.2790   30.5111 H   0  0  0  0  0  0  0  0  0  0  0  0
    8.7940   48.7691   29.3416 H   0  0  0  0  0  0  0  0  0  0  0  0
    4.4028   47.5709   29.0067 H   0  0  0  0  0  0  0  0  0  0  0  0
    4.6202   48.3722   31.3960 H   0  0  0  0  0  0  0  0  0  0  0  0
    4.4880   50.0730   30.8303 H   0  0  0  0  0  0  0  0  0  0  0  0
    3.1084   48.9374   30.6073 H   0  0  0  0  0  0  0  0  0  0  0  0
    2.4319   48.2821   27.8653 H   0  0  0  0  0  0  0  0  0  0  0  0
    4.8386   52.3365   26.2376 H   0  0  0  0  0  0  0  0  0  0  0  0
    0.3405   51.4431   24.9952 H   0  0  0  0  0  0  0  0  0  0  0  0
    1.2426   50.4080   23.7888 H   0  0  0  0  0  0  0  0  0  0  0  0
    9.8300   40.7410   31.7613 H   0  0  0  0  0  0  0  0  0  0  0  0
   11.3969   41.5460   31.4729 H   0  0  0  0  0  0  0  0  0  0  0  0
   11.6975   39.5067   30.3481 H   0  0  0  0  0  0  0  0  0  0  0  0
   10.1077   38.2648   32.6645 H   0  0  0  0  0  0  0  0  0  0  0  0
   13.6621   37.4467   31.2209 H   0  0  0  0  0  0  0  0  0  0  0  0
    8.8975   38.6944   30.8831 H   0  0  0  0  0  0  0  0  0  0  0  0
   11.2806   36.3073   32.5170 H   0  0  0  0  0  0  0  0  0  0  0  0
   10.8492   35.7110   30.4586 H   0  0  0  0  0  0  0  0  0  0  0  0
   12.3290   38.3524   34.7444 H   0  0  0  0  0  0  0  0  0  0  0  0
   16.7559   34.1780   32.4619 H   0  0  0  0  0  0  0  0  0  0  0  0
   15.3531   35.7362   37.5137 H   0  0  0  0  0  0  0  0  0  0  0  0
   16.6344   34.5301   37.1414 H   0  0  0  0  0  0  0  0  0  0  0  0
  1  2  2  0
  1  3  1  0
  3  4  1  0
  4  5  1  0
  6  1  1  0
  7  6  1  0
  6  8  1  0
  8  9  1  0
  9 10  2  0
 11  9  1  0
 10 12  1  0
 13 11  2  0
 12 14  2  0
 14 13  1  0
 14 15  1  0
 15 16  1  0
 16 17  1  0
 16 18  1  0
 18 19  2  0
 20 18  1  0
 19 21  1  0
 22 20  2  0
 20 23  1  0
 21 24  1  0
 21 25  2  0
 25 22  1  0
 23 26  1  0
 23 27  2  0
 24 28  1  0
 25 29  1  0
 28 29  1  0
  4 30  2  0
  4 31  1  0
 32 31  1  0
 32 33  1  0
 33 34  1  0
 33 35  1  0
 34 36  1  0
 35 37  1  0
 35 38  1  0
 38 36  1  0
 36 39  1  0
 38 40  1  0
 41 39  1  0
 42 39  1  0
 43 41  2  0
 41 44  1  0
 45 42  2  0
 46 43  1  0
 44 47  2  0
 44 45  1  0
 48 46  2  0
 48 47  1  0
 47 49  1  0
  6 50  1  1
  7 51  1  0
  7 52  1  0
  8 53  1  0
  8 54  1  0
 10 55  1  0
 11 56  1  0
 12 57  1  0
 13 58  1  0
 16 59  1  6
 17 60  1  0
 17 61  1  0
 17 62  1  0
 19 63  1  0
 22 64  1  0
 28 65  1  0
 28 66  1  0
 32 67  1  0
 32 68  1  0
 33 69  1  0
 35 70  1  0
 36 71  1  0
 37 72  1  0
 38 73  1  0
 40 74  1  0
 42 75  1  0
 46 76  1  0
 49 77  1  0
 49 78  1  0
M  CHG  3   5  -1  23   1  26  -1
M  END
>  <EmbedRMS>  (299) 
0.0829199647434

$$$$

     RDKit          3D

 78 83  0  0  0  0  0  0  0  0999 V2000
   10.2839   43.7626   33.8277 C   0  0  0  0  0  0  0  0  0  0  0  0
   11.4104   43.5864   34.3767 O   0  0  0  0  0  0  0  0  0  0  0  0
    9.3631   42.7236   33.7356 O   0  0  0  0  0  0  0  0  0  0  0  0
    9.8895   41.2249   34.2948 P   0  0  0  0  0  0  0  0  0  0  0  0
   10.3720   41.4547   35.8844 O   0  0  0  0  0  0  0  0  0  0  0  0
    9.9548   45.0699   33.2064 C   0  0  1  0  0  0  0  0  0  0  0  0
   11.0198   46.0480   33.4568 N   0  0  0  0  0  0  0  0  0  0  0  0
    9.7501   44.8506   31.6923 C   0  0  0  0  0  0  0  0  0  0  0  0
    8.7942   45.8413   31.0866 C   0  0  0  0  0  0  0  0  0  0  0  0
    7.4076   45.6011   31.1004 C   0  0  0  0  0  0  0  0  0  0  0  0
    9.2830   46.9890   30.4453 C   0  0  0  0  0  0  0  0  0  0  0  0
    6.5284   46.5025   30.4853 C   0  0  0  0  0  0  0  0  0  0  0  0
    8.4037   47.8906   29.8334 C   0  0  0  0  0  0  0  0  0  0  0  0
    7.0142   47.6511   29.8450 C   0  0  0  0  0  0  0  0  0  0  0  0
    6.0820   48.5174   29.2498 O   0  0  0  0  0  0  0  0  0  0  0  0
    6.3847   49.6441   28.4256 C   0  0  1  0  0  0  0  0  0  0  0  0
    6.9103   49.2016   27.0530 C   0  0  0  0  0  0  0  0  0  0  0  0
    5.1501   50.5211   28.2867 C   0  0  0  0  0  0  0  0  0  0  0  0
    5.2306   51.8585   28.7504 C   0  0  0  0  0  0  0  0  0  0  0  0
    3.9306   50.0705   27.6724 C   0  0  0  0  0  0  0  0  0  0  0  0
    4.1331   52.6918   28.5791 C   0  0  0  0  0  0  0  0  0  0  0  0
    2.8524   50.9702   27.5130 C   0  0  0  0  0  0  0  0  0  0  0  0
    3.7700   48.7272   27.1963 N   0  0  0  0  0  0  0  0  0  0  0  0
    3.9954   54.0167   28.9463 O   0  0  0  0  0  0  0  0  0  0  0  0
    2.9957   52.2674   27.9841 C   0  0  0  0  0  0  0  0  0  0  0  0
    3.8810   47.6693   28.0669 O   0  0  0  0  0  0  0  0  0  0  0  0
    3.2745   48.5275   26.0681 O   0  0  0  0  0  0  0  0  0  0  0  0
    2.6852   54.4499   28.5560 C   0  0  0  0  0  0  0  0  0  0  0  0
    2.0806   53.3018   27.9452 O   0  0  0  0  0  0  0  0  0  0  0  0
    8.8117   40.1831   34.2125 O   0  0  0  0  0  0  0  0  0  0  0  0
   11.2411   40.7939   33.3709 O   0  0  0  0  0  0  0  0  0  0  0  0
   10.9179   40.6919   31.9985 C   0  0  0  0  0  0  0  0  0  0  0  0
   11.5175   39.3837   31.4422 C   0  0  0  0  0  0  0  0  0  0  0  0
   12.7508   39.0887   32.0751 O   0  0  0  0  0  0  0  0  0  0  0  0
   10.6028   38.1915   31.6658 C   0  0  0  0  0  0  0  0  0  0  0  0
   12.9384   37.6818   32.0278 C   0  0  0  0  0  0  0  0  0  0  0  0
    9.6371   38.0805   30.6470 O   0  0  0  0  0  0  0  0  0  0  0  0
   11.5780   37.0215   31.6934 C   0  0  0  0  0  0  0  0  0  0  0  0
   13.4844   37.2119   33.3241 N   0  0  0  0  0  0  0  0  0  0  0  0
   11.6095   36.3201   30.4679 O   0  0  0  0  0  0  0  0  0  0  0  0
   14.4797   36.3318   33.5730 C   0  0  0  0  0  0  0  0  0  0  0  0
   13.1135   37.6278   34.5691 C   0  0  0  0  0  0  0  0  0  0  0  0
   15.2073   35.6155   32.6742 N   0  0  0  0  0  0  0  0  0  0  0  0
   14.6754   36.2305   34.9184 C   0  0  0  0  0  0  0  0  0  0  0  0
   13.8213   37.0452   35.5785 N   0  0  0  0  0  0  0  0  0  0  0  0
   16.1640   34.7604   33.1549 C   0  0  0  0  0  0  0  0  0  0  0  0
   15.6524   35.3507   35.4132 C   0  0  0  0  0  0  0  0  0  0  0  0
   16.3794   34.6318   34.5044 N   0  0  0  0  0  0  0  0  0  0  0  0
   15.8999   35.1934   36.8091 N   0  0  0  0  0  0  0  0  0  0  0  0
    9.0098   45.4348   33.6670 H   0  0  0  0  0  0  0  0  0  0  0  0
   11.1134   46.1992   34.4880 H   0  0  0  0  0  0  0  0  0  0  0  0
   11.9348   45.6932   33.0923 H   0  0  0  0  0  0  0  0  0  0  0  0
   10.7304   44.8919   31.1675 H   0  0  0  0  0  0  0  0  0  0  0  0
    9.3509   43.8340   31.4764 H   0  0  0  0  0  0  0  0  0  0  0  0
    7.0109   44.7164   31.5831 H   0  0  0  0  0  0  0  0  0  0  0  0
   10.3472   47.1890   30.4193 H   0  0  0  0  0  0  0  0  0  0  0  0
    5.4640   46.3053   30.5037 H   0  0  0  0  0  0  0  0  0  0  0  0
    8.8210   48.7678   29.3618 H   0  0  0  0  0  0  0  0  0  0  0  0
    7.1859   50.2381   28.9163 H   0  0  0  0  0  0  0  0  0  0  0  0
    7.0143   50.0804   26.3812 H   0  0  0  0  0  0  0  0  0  0  0  0
    6.2348   48.4613   26.5803 H   0  0  0  0  0  0  0  0  0  0  0  0
    7.9086   48.7298   27.1548 H   0  0  0  0  0  0  0  0  0  0  0  0
    6.1258   52.2458   29.2203 H   0  0  0  0  0  0  0  0  0  0  0  0
    1.9252   50.6593   27.0485 H   0  0  0  0  0  0  0  0  0  0  0  0
    2.7578   55.2804   27.8228 H   0  0  0  0  0  0  0  0  0  0  0  0
    2.1020   54.7611   29.4479 H   0  0  0  0  0  0  0  0  0  0  0  0
    9.8291   40.7409   31.7624 H   0  0  0  0  0  0  0  0  0  0  0  0
   11.3954   41.5477   31.4750 H   0  0  0  0  0  0  0  0  0  0  0  0
   11.6981   39.5116   30.3500 H   0  0  0  0  0  0  0  0  0  0  0  0
   10.1117   38.2603   32.6660 H   0  0  0  0  0  0  0  0  0  0  0  0
   13.6767   37.4555   31.2267 H   0  0  0  0  0  0  0  0  0  0  0  0
    8.8961   38.6951   30.8872 H   0  0  0  0  0  0  0  0  0  0  0  0
   11.2791   36.3072   32.4922 H   0  0  0  0  0  0  0  0  0  0  0  0
   11.8828   36.9598   29.7588 H   0  0  0  0  0  0  0  0  0  0  0  0
   12.3300   38.3538   34.7446 H   0  0  0  0  0  0  0  0  0  0  0  0
   16.7562   34.1785   32.4621 H   0  0  0  0  0  0  0  0  0  0  0  0
   15.3531   35.7360   37.5140 H   0  0  0  0  0  0  0  0  0  0  0  0
   16.6347   34.5303   37.1416 H   0  0  0  0  0  0  0  0  0  0  0  0
  1  2  2  0
  1  3  1  0
  3  4  1  0
  4  5  1  0
  6  1  1  0
  7  6  1  0
  6  8  1  0
  8  9  1  0
  9 10  2  0
 11  9  1  0
 10 12  1  0
 13 11  2  0
 12 14  2  0
 14 13  1  0
 14 15  1  0
 15 16  1  0
 16 17  1  0
 16 18  1  0
 18 19  2  0
 20 18  1  0
 19 21  1  0
 22 20  2  0
 20 23  1  0
 21 24  1  0
 21 25  2  0
 25 22  1  0
 23 26  1  0
 23 27  2  0
 24 28  1  0
 25 29  1  0
 28 29  1  0
  4 30  2  0
  4 31  1  0
 32 31  1  0
 32 33  1  0
 33 34  1  0
 33 35  1  0
 34 36  1  0
 35 37  1  0
 35 38  1  0
 38 36  1  0
 36 39  1  0
 38 40  1  0
 41 39  1  0
 42 39  1  0
 43 41  2  0
 41 44  1  0
 45 42  2  0
 46 43  1  0
 44 47  2  0
 44 45  1  0
 48 46  2  0
 48 47  1  0
 47 49  1  0
  6 50  1  1
  7 51  1  0
  7 52  1  0
  8 53  1  0
  8 54  1  0
 10 55  1  0
 11 56  1  0
 12 57  1  0
 13 58  1  0
 16 59  1  1
 17 60  1  0
 17 61  1  0
 17 62  1  0
 19 63  1  0
 22 64  1  0
 28 65  1  0
 28 66  1  0
 32 67  1  0
 32 68  1  0
 33 69  1  0
 35 70  1  0
 36 71  1  0
 37 72  1  0
 38 73  1  0
 40 74  1  0
 42 75  1  0
 46 76  1  0
 49 77  1  0
 49 78  1  0
M  CHG  3   5  -1  23   1  26  -1
M  END
>  <EmbedRMS>  (300) 
0.0828776537839

$$$$

     RDKit          3D

 78 83  0  0  0  0  0  0  0  0999 V2000
   10.2838   43.7627   33.8277 C   0  0  0  0  0  0  0  0  0  0  0  0
   11.4103   43.5863   34.3766 O   0  0  0  0  0  0  0  0  0  0  0  0
    9.3628   42.7238   33.7358 O   0  0  0  0  0  0  0  0  0  0  0  0
    9.8891   41.2251   34.2949 P   0  0  0  0  0  0  0  0  0  0  0  0
   10.3724   41.4548   35.8843 O   0  0  0  0  0  0  0  0  0  0  0  0
    9.9548   45.0699   33.2064 C   0  0  1  0  0  0  0  0  0  0  0  0
   11.0198   46.0480   33.4568 N   0  0  0  0  0  0  0  0  0  0  0  0
    9.7501   44.8507   31.6923 C   0  0  0  0  0  0  0  0  0  0  0  0
    8.7942   45.8415   31.0867 C   0  0  0  0  0  0  0  0  0  0  0  0
    7.4076   45.6011   31.1003 C   0  0  0  0  0  0  0  0  0  0  0  0
    9.2830   46.9890   30.4451 C   0  0  0  0  0  0  0  0  0  0  0  0
    6.5283   46.5023   30.4849 C   0  0  0  0  0  0  0  0  0  0  0  0
    8.4037   47.8906   29.8332 C   0  0  0  0  0  0  0  0  0  0  0  0
    7.0142   47.6513   29.8458 C   0  0  0  0  0  0  0  0  0  0  0  0
    6.0825   48.5182   29.2515 O   0  0  0  0  0  0  0  0  0  0  0  0
    6.3864   49.6670   28.4560 C   0  0  1  0  0  0  0  0  0  0  0  0
    6.9129   49.2625   27.0737 C   0  0  0  0  0  0  0  0  0  0  0  0
    5.1645   50.5588   28.3109 C   0  0  0  0  0  0  0  0  0  0  0  0
    5.3873   51.9543   28.2096 C   0  0  0  0  0  0  0  0  0  0  0  0
    3.8121   50.0654   28.3022 C   0  0  0  0  0  0  0  0  0  0  0  0
    4.2904   52.8020   28.1362 C   0  0  0  0  0  0  0  0  0  0  0  0
    2.7366   50.9806   28.2429 C   0  0  0  0  0  0  0  0  0  0  0  0
    3.5051   48.6636   28.3564 N   0  0  0  0  0  0  0  0  0  0  0  0
    4.2750   54.1803   28.0410 O   0  0  0  0  0  0  0  0  0  0  0  0
    3.0214   52.3361   28.1567 C   0  0  0  0  0  0  0  0  0  0  0  0
    2.4266   48.2310   29.0930 O   0  0  0  0  0  0  0  0  0  0  0  0
    4.0488   47.8681   27.5641 O   0  0  0  0  0  0  0  0  0  0  0  0
    2.9059   54.6053   27.9989 C   0  0  0  0  0  0  0  0  0  0  0  0
    2.1388   53.3960   28.0752 O   0  0  0  0  0  0  0  0  0  0  0  0
    8.8112   40.1834   34.2132 O   0  0  0  0  0  0  0  0  0  0  0  0
   11.2398   40.7938   33.3702 O   0  0  0  0  0  0  0  0  0  0  0  0
   10.9144   40.6912   31.9983 C   0  0  0  0  0  0  0  0  0  0  0  0
   11.5270   39.3911   31.4385 C   0  0  0  0  0  0  0  0  0  0  0  0
   12.7520   39.0911   32.0835 O   0  0  0  0  0  0  0  0  0  0  0  0
   10.6114   38.1931   31.6451 C   0  0  0  0  0  0  0  0  0  0  0  0
   12.9413   37.6837   32.0297 C   0  0  0  0  0  0  0  0  0  0  0  0
    9.6064   38.0877   30.6599 O   0  0  0  0  0  0  0  0  0  0  0  0
   11.5822   37.0197   31.6876 C   0  0  0  0  0  0  0  0  0  0  0  0
   13.4840   37.2104   33.3254 N   0  0  0  0  0  0  0  0  0  0  0  0
   11.6179   36.3071   30.4690 O   0  0  0  0  0  0  0  0  0  0  0  0
   14.4797   36.3309   33.5738 C   0  0  0  0  0  0  0  0  0  0  0  0
   13.1136   37.6269   34.5702 C   0  0  0  0  0  0  0  0  0  0  0  0
   15.2074   35.6152   32.6747 N   0  0  0  0  0  0  0  0  0  0  0  0
   14.6756   36.2298   34.9190 C   0  0  0  0  0  0  0  0  0  0  0  0
   13.8217   37.0445   35.5793 N   0  0  0  0  0  0  0  0  0  0  0  0
   16.1643   34.7603   33.1551 C   0  0  0  0  0  0  0  0  0  0  0  0
   15.6528   35.3503   35.4136 C   0  0  0  0  0  0  0  0  0  0  0  0
   16.3798   34.6316   34.5046 N   0  0  0  0  0  0  0  0  0  0  0  0
   15.9004   35.1930   36.8094 N   0  0  0  0  0  0  0  0  0  0  0  0
    9.0099   45.4350   33.6670 H   0  0  0  0  0  0  0  0  0  0  0  0
   11.1135   46.1992   34.4880 H   0  0  0  0  0  0  0  0  0  0  0  0
   11.9348   45.6932   33.0923 H   0  0  0  0  0  0  0  0  0  0  0  0
   10.7304   44.8920   31.1675 H   0  0  0  0  0  0  0  0  0  0  0  0
    9.3508   43.8341   31.4764 H   0  0  0  0  0  0  0  0  0  0  0  0
    7.0108   44.7163   31.5827 H   0  0  0  0  0  0  0  0  0  0  0  0
   10.3473   47.1884   30.4179 H   0  0  0  0  0  0  0  0  0  0  0  0
    5.4638   46.3054   30.5030 H   0  0  0  0  0  0  0  0  0  0  0  0
    8.8204   48.7659   29.3569 H   0  0  0  0  0  0  0  0  0  0  0  0
    7.1745   50.2536   28.9772 H   0  0  0  0  0  0  0  0  0  0  0  0
    7.2240   50.1669   26.5086 H   0  0  0  0  0  0  0  0  0  0  0  0
    7.7943   48.5965   27.1688 H   0  0  0  0  0  0  0  0  0  0  0  0
    6.1368   48.7316   26.4872 H   0  0  0  0  0  0  0  0  0  0  0  0
    6.3881   52.3681   28.2002 H   0  0  0  0  0  0  0  0  0  0  0  0
    1.7086   50.6416   28.2414 H   0  0  0  0  0  0  0  0  0  0  0  0
    2.6966   55.1323   27.0444 H   0  0  0  0  0  0  0  0  0  0  0  0
    2.6795   55.2582   28.8677 H   0  0  0  0  0  0  0  0  0  0  0  0
   11.3780   41.5548   31.4751 H   0  0  0  0  0  0  0  0  0  0  0  0
    9.8235   40.7202   31.7651 H   0  0  0  0  0  0  0  0  0  0  0  0
   11.7311   39.5363   30.3531 H   0  0  0  0  0  0  0  0  0  0  0  0
   10.1203   38.2695   32.6410 H   0  0  0  0  0  0  0  0  0  0  0  0
   13.6850   37.4638   31.2321 H   0  0  0  0  0  0  0  0  0  0  0  0
   10.0251   38.1792   29.7654 H   0  0  0  0  0  0  0  0  0  0  0  0
   11.2757   36.3135   32.4907 H   0  0  0  0  0  0  0  0  0  0  0  0
   11.9838   36.9111   29.7708 H   0  0  0  0  0  0  0  0  0  0  0  0
   12.3307   38.3536   34.7457 H   0  0  0  0  0  0  0  0  0  0  0  0
   16.7566   34.1787   32.4623 H   0  0  0  0  0  0  0  0  0  0  0  0
   15.3535   35.7355   37.5144 H   0  0  0  0  0  0  0  0  0  0  0  0
   16.6353   34.5301   37.1419 H   0  0  0  0  0  0  0  0  0  0  0  0
  1  2  2  0
  1  3  1  0
  3  4  1  0
  4  5  1  0
  6  1  1  0
  7  6  1  0
  6  8  1  0
  8  9  1  0
  9 10  2  0
 11  9  1  0
 10 12  1  0
 13 11  2  0
 12 14  2  0
 14 13  1  0
 14 15  1  0
 15 16  1  0
 16 17  1  0
 16 18  1  0
 18 19  2  0
 20 18  1  0
 19 21  1  0
 22 20  2  0
 20 23  1  0
 21 24  1  0
 21 25  2  0
 25 22  1  0
 23 26  1  0
 23 27  2  0
 24 28  1  0
 25 29  1  0
 28 29  1  0
  4 30  2  0
  4 31  1  0
 32 31  1  0
 32 33  1  0
 33 34  1  0
 33 35  1  0
 34 36  1  0
 35 37  1  0
 35 38  1  0
 38 36  1  0
 36 39  1  0
 38 40  1  0
 41 39  1  0
 42 39  1  0
 43 41  2  0
 41 44  1  0
 45 42  2  0
 46 43  1  0
 44 47  2  0
 44 45  1  0
 48 46  2  0
 48 47  1  0
 47 49  1  0
  6 50  1  1
  7 51  1  0
  7 52  1  0
  8 53  1  0
  8 54  1  0
 10 55  1  0
 11 56  1  0
 12 57  1  0
 13 58  1  0
 16 59  1  1
 17 60  1  0
 17 61  1  0
 17 62  1  0
 19 63  1  0
 22 64  1  0
 28 65  1  0
 28 66  1  0
 32 67  1  0
 32 68  1  0
 33 69  1  0
 35 70  1  0
 36 71  1  0
 37 72  1  0
 38 73  1  0
 40 74  1  0
 42 75  1  0
 46 76  1  0
 49 77  1  0
 49 78  1  0
M  CHG  3   5  -1  23   1  26  -1
M  END
>  <EmbedRMS>  (301) 
0.0817447543943

$$$$

     RDKit          3D

 78 83  0  0  0  0  0  0  0  0999 V2000
   10.2804   43.7664   33.8250 C   0  0  0  0  0  0  0  0  0  0  0  0
   11.4111   43.5918   34.3666 O   0  0  0  0  0  0  0  0  0  0  0  0
    9.3618   42.7250   33.7344 O   0  0  0  0  0  0  0  0  0  0  0  0
    9.8902   41.2265   34.2931 P   0  0  0  0  0  0  0  0  0  0  0  0
   10.3743   41.4563   35.8823 O   0  0  0  0  0  0  0  0  0  0  0  0
    9.9460   45.0736   33.2113 C   0  0  1  0  0  0  0  0  0  0  0  0
   11.0267   46.0292   33.4710 N   0  0  0  0  0  0  0  0  0  0  0  0
    9.7540   44.8542   31.6950 C   0  0  0  0  0  0  0  0  0  0  0  0
    8.7957   45.8414   31.0851 C   0  0  0  0  0  0  0  0  0  0  0  0
    7.4091   45.6001   31.1009 C   0  0  0  0  0  0  0  0  0  0  0  0
    9.2824   46.9876   30.4395 C   0  0  0  0  0  0  0  0  0  0  0  0
    6.5257   46.4984   30.4857 C   0  0  0  0  0  0  0  0  0  0  0  0
    8.3997   47.8866   29.8304 C   0  0  0  0  0  0  0  0  0  0  0  0
    7.0178   47.6561   29.8472 C   0  0  0  0  0  0  0  0  0  0  0  0
    6.1849   48.5933   29.2132 O   0  0  0  0  0  0  0  0  0  0  0  0
    4.7538   48.5910   29.2235 C   0  0  1  0  0  0  0  0  0  0  0  0
    4.2350   49.0416   30.5938 C   0  0  0  0  0  0  0  0  0  0  0  0
    4.2489   49.5353   28.1491 C   0  0  0  0  0  0  0  0  0  0  0  0
    4.8622   50.8067   28.0228 C   0  0  0  0  0  0  0  0  0  0  0  0
    3.2043   49.1680   27.2366 C   0  0  0  0  0  0  0  0  0  0  0  0
    4.4533   51.6420   26.9917 C   0  0  0  0  0  0  0  0  0  0  0  0
    2.8421   50.0545   26.1961 C   0  0  0  0  0  0  0  0  0  0  0  0
    2.4905   47.9283   27.3673 N   0  0  0  0  0  0  0  0  0  0  0  0
    4.9141   52.9057   26.6759 O   0  0  0  0  0  0  0  0  0  0  0  0
    3.4900   51.2797   26.1138 C   0  0  0  0  0  0  0  0  0  0  0  0
    1.9847   47.5492   28.5892 O   0  0  0  0  0  0  0  0  0  0  0  0
    2.1280   47.3072   26.3469 O   0  0  0  0  0  0  0  0  0  0  0  0
    4.1916   53.3653   25.5255 C   0  0  0  0  0  0  0  0  0  0  0  0
    3.2924   52.2965   25.1995 O   0  0  0  0  0  0  0  0  0  0  0  0
    8.8123   40.1844   34.2130 O   0  0  0  0  0  0  0  0  0  0  0  0
   11.2401   40.7949   33.3666 O   0  0  0  0  0  0  0  0  0  0  0  0
   10.9124   40.6859   31.9952 C   0  0  0  0  0  0  0  0  0  0  0  0
   11.5175   39.3786   31.4405 C   0  0  0  0  0  0  0  0  0  0  0  0
   12.7490   39.0864   32.0753 O   0  0  0  0  0  0  0  0  0  0  0  0
   10.6060   38.1867   31.6656 C   0  0  0  0  0  0  0  0  0  0  0  0
   12.9355   37.6796   32.0292 C   0  0  0  0  0  0  0  0  0  0  0  0
    9.6399   38.0903   30.6471 O   0  0  0  0  0  0  0  0  0  0  0  0
   11.5765   37.0145   31.7044 C   0  0  0  0  0  0  0  0  0  0  0  0
   13.4858   37.2125   33.3244 N   0  0  0  0  0  0  0  0  0  0  0  0
   11.6101   36.3397   30.4673 O   0  0  0  0  0  0  0  0  0  0  0  0
   14.4805   36.3319   33.5729 C   0  0  0  0  0  0  0  0  0  0  0  0
   13.1144   37.6277   34.5694 C   0  0  0  0  0  0  0  0  0  0  0  0
   15.2076   35.6153   32.6741 N   0  0  0  0  0  0  0  0  0  0  0  0
   14.6760   36.2304   34.9184 C   0  0  0  0  0  0  0  0  0  0  0  0
   13.8219   37.0449   35.5786 N   0  0  0  0  0  0  0  0  0  0  0  0
   16.1641   34.7600   33.1548 C   0  0  0  0  0  0  0  0  0  0  0  0
   15.6528   35.3505   35.4132 C   0  0  0  0  0  0  0  0  0  0  0  0
   16.3795   34.6314   34.5043 N   0  0  0  0  0  0  0  0  0  0  0  0
   15.9002   35.1931   36.8091 N   0  0  0  0  0  0  0  0  0  0  0  0
    8.9996   45.4382   33.6723 H   0  0  0  0  0  0  0  0  0  0  0  0
   10.7765   46.9369   33.0160 H   0  0  0  0  0  0  0  0  0  0  0  0
   11.0503   46.2277   34.4984 H   0  0  0  0  0  0  0  0  0  0  0  0
   10.7412   44.9080   31.1837 H   0  0  0  0  0  0  0  0  0  0  0  0
    9.3646   43.8355   31.4711 H   0  0  0  0  0  0  0  0  0  0  0  0
    7.0154   44.7144   31.5843 H   0  0  0  0  0  0  0  0  0  0  0  0
   10.3463   47.1872   30.4047 H   0  0  0  0  0  0  0  0  0  0  0  0
    5.4694   46.2751   30.5137 H   0  0  0  0  0  0  0  0  0  0  0  0
    8.7923   48.7679   29.3390 H   0  0  0  0  0  0  0  0  0  0  0  0
    4.4016   47.5624   29.0118 H   0  0  0  0  0  0  0  0  0  0  0  0
    3.1254   49.0873   30.5895 H   0  0  0  0  0  0  0  0  0  0  0  0
    4.6352   50.0457   30.8503 H   0  0  0  0  0  0  0  0  0  0  0  0
    4.5484   48.3294   31.3839 H   0  0  0  0  0  0  0  0  0  0  0  0
    5.6467   51.1266   28.6970 H   0  0  0  0  0  0  0  0  0  0  0  0
    2.0600   49.8057   25.4902 H   0  0  0  0  0  0  0  0  0  0  0  0
    3.6204   54.2846   25.7728 H   0  0  0  0  0  0  0  0  0  0  0  0
    4.8895   53.5496   24.6820 H   0  0  0  0  0  0  0  0  0  0  0  0
    9.8214   40.7199   31.7634 H   0  0  0  0  0  0  0  0  0  0  0  0
   11.3802   41.5436   31.4661 H   0  0  0  0  0  0  0  0  0  0  0  0
   11.6999   39.5040   30.3482 H   0  0  0  0  0  0  0  0  0  0  0  0
   10.1085   38.2766   32.6603 H   0  0  0  0  0  0  0  0  0  0  0  0
   13.6680   37.4521   31.2229 H   0  0  0  0  0  0  0  0  0  0  0  0
    9.0016   37.3867   30.9349 H   0  0  0  0  0  0  0  0  0  0  0  0
   11.2667   36.3062   32.5083 H   0  0  0  0  0  0  0  0  0  0  0  0
   12.1389   35.5126   30.6150 H   0  0  0  0  0  0  0  0  0  0  0  0
   12.3301   38.3530   34.7449 H   0  0  0  0  0  0  0  0  0  0  0  0
   16.7560   34.1779   32.4620 H   0  0  0  0  0  0  0  0  0  0  0  0
   16.6347   34.5298   37.1416 H   0  0  0  0  0  0  0  0  0  0  0  0
   15.3534   35.7359   37.5140 H   0  0  0  0  0  0  0  0  0  0  0  0
  1  2  2  0
  1  3  1  0
  3  4  1  0
  4  5  1  0
  6  1  1  0
  7  6  1  0
  6  8  1  0
  8  9  1  0
  9 10  2  0
 11  9  1  0
 10 12  1  0
 13 11  2  0
 12 14  2  0
 14 13  1  0
 14 15  1  0
 15 16  1  0
 16 17  1  0
 16 18  1  0
 18 19  2  0
 20 18  1  0
 19 21  1  0
 22 20  2  0
 20 23  1  0
 21 24  1  0
 21 25  2  0
 25 22  1  0
 23 26  1  0
 23 27  2  0
 24 28  1  0
 25 29  1  0
 28 29  1  0
  4 30  2  0
  4 31  1  0
 32 31  1  0
 32 33  1  0
 33 34  1  0
 33 35  1  0
 34 36  1  0
 35 37  1  0
 35 38  1  0
 38 36  1  0
 36 39  1  0
 38 40  1  0
 41 39  1  0
 42 39  1  0
 43 41  2  0
 41 44  1  0
 45 42  2  0
 46 43  1  0
 44 47  2  0
 44 45  1  0
 48 46  2  0
 48 47  1  0
 47 49  1  0
  6 50  1  1
  7 51  1  0
  7 52  1  0
  8 53  1  0
  8 54  1  0
 10 55  1  0
 11 56  1  0
 12 57  1  0
 13 58  1  0
 16 59  1  6
 17 60  1  0
 17 61  1  0
 17 62  1  0
 19 63  1  0
 22 64  1  0
 28 65  1  0
 28 66  1  0
 32 67  1  0
 32 68  1  0
 33 69  1  0
 35 70  1  0
 36 71  1  0
 37 72  1  0
 38 73  1  0
 40 74  1  0
 42 75  1  0
 46 76  1  0
 49 77  1  0
 49 78  1  0
M  CHG  3   5  -1  23   1  26  -1
M  END
>  <EmbedRMS>  (302) 
0.0821960048705

$$$$

     RDKit          3D

 78 83  0  0  0  0  0  0  0  0999 V2000
   10.2804   43.7664   33.8252 C   0  0  0  0  0  0  0  0  0  0  0  0
   11.4111   43.5918   34.3667 O   0  0  0  0  0  0  0  0  0  0  0  0
    9.3617   42.7251   33.7349 O   0  0  0  0  0  0  0  0  0  0  0  0
    9.8896   41.2269   34.2946 P   0  0  0  0  0  0  0  0  0  0  0  0
   10.3732   41.4568   35.8838 O   0  0  0  0  0  0  0  0  0  0  0  0
    9.9460   45.0736   33.2115 C   0  0  1  0  0  0  0  0  0  0  0  0
   11.0269   46.0291   33.4706 N   0  0  0  0  0  0  0  0  0  0  0  0
    9.7533   44.8540   31.6954 C   0  0  0  0  0  0  0  0  0  0  0  0
    8.7954   45.8417   31.0862 C   0  0  0  0  0  0  0  0  0  0  0  0
    7.4090   45.6004   31.1002 C   0  0  0  0  0  0  0  0  0  0  0  0
    9.2826   46.9868   30.4392 C   0  0  0  0  0  0  0  0  0  0  0  0
    6.5291   46.5000   30.4830 C   0  0  0  0  0  0  0  0  0  0  0  0
    8.4024   47.8876   29.8289 C   0  0  0  0  0  0  0  0  0  0  0  0
    7.0124   47.6541   29.8505 C   0  0  0  0  0  0  0  0  0  0  0  0
    6.0749   48.5170   29.2490 O   0  0  0  0  0  0  0  0  0  0  0  0
    6.2841   49.8690   28.8072 C   0  0  1  0  0  0  0  0  0  0  0  0
    6.8951   50.7192   29.9402 C   0  0  0  0  0  0  0  0  0  0  0  0
    7.0572   49.9627   27.4886 C   0  0  0  0  0  0  0  0  0  0  0  0
    7.4921   48.7811   26.8300 C   0  0  0  0  0  0  0  0  0  0  0  0
    7.3482   51.2331   26.8793 C   0  0  0  0  0  0  0  0  0  0  0  0
    8.2599   48.8998   25.6795 C   0  0  0  0  0  0  0  0  0  0  0  0
    8.1506   51.2909   25.7181 C   0  0  0  0  0  0  0  0  0  0  0  0
    6.8133   52.4608   27.3944 N   0  0  0  0  0  0  0  0  0  0  0  0
    8.8031   47.8940   24.9032 O   0  0  0  0  0  0  0  0  0  0  0  0
    8.5843   50.1012   25.1532 C   0  0  0  0  0  0  0  0  0  0  0  0
    7.5821   53.6016   27.3744 O   0  0  0  0  0  0  0  0  0  0  0  0
    5.5906   52.5626   27.6227 O   0  0  0  0  0  0  0  0  0  0  0  0
    9.5173   48.5071   23.8213 C   0  0  0  0  0  0  0  0  0  0  0  0
    9.3508   49.9177   24.0184 O   0  0  0  0  0  0  0  0  0  0  0  0
    8.8122   40.1844   34.2135 O   0  0  0  0  0  0  0  0  0  0  0  0
   11.2401   40.7949   33.3698 O   0  0  0  0  0  0  0  0  0  0  0  0
   10.9143   40.6914   31.9981 C   0  0  0  0  0  0  0  0  0  0  0  0
   11.5270   39.3912   31.4385 C   0  0  0  0  0  0  0  0  0  0  0  0
   12.7519   39.0911   32.0837 O   0  0  0  0  0  0  0  0  0  0  0  0
   10.6113   38.1932   31.6451 C   0  0  0  0  0  0  0  0  0  0  0  0
   12.9413   37.6838   32.0297 C   0  0  0  0  0  0  0  0  0  0  0  0
    9.6064   38.0878   30.6599 O   0  0  0  0  0  0  0  0  0  0  0  0
   11.5822   37.0197   31.6877 C   0  0  0  0  0  0  0  0  0  0  0  0
   13.4840   37.2105   33.3254 N   0  0  0  0  0  0  0  0  0  0  0  0
   11.6179   36.3072   30.4690 O   0  0  0  0  0  0  0  0  0  0  0  0
   14.4797   36.3309   33.5738 C   0  0  0  0  0  0  0  0  0  0  0  0
   13.1137   37.6269   34.5702 C   0  0  0  0  0  0  0  0  0  0  0  0
   15.2074   35.6152   32.6747 N   0  0  0  0  0  0  0  0  0  0  0  0
   14.6756   36.2298   34.9190 C   0  0  0  0  0  0  0  0  0  0  0  0
   13.8217   37.0445   35.5793 N   0  0  0  0  0  0  0  0  0  0  0  0
   16.1643   34.7603   33.1551 C   0  0  0  0  0  0  0  0  0  0  0  0
   15.6528   35.3503   35.4136 C   0  0  0  0  0  0  0  0  0  0  0  0
   16.3798   34.6316   34.5046 N   0  0  0  0  0  0  0  0  0  0  0  0
   15.9004   35.1930   36.8094 N   0  0  0  0  0  0  0  0  0  0  0  0
    8.9998   45.4383   33.6729 H   0  0  0  0  0  0  0  0  0  0  0  0
   11.0506   46.2280   34.4979 H   0  0  0  0  0  0  0  0  0  0  0  0
   10.7768   46.9366   33.0153 H   0  0  0  0  0  0  0  0  0  0  0  0
   10.7403   44.9069   31.1836 H   0  0  0  0  0  0  0  0  0  0  0  0
    9.3630   43.8355   31.4719 H   0  0  0  0  0  0  0  0  0  0  0  0
    7.0133   44.7154   31.5832 H   0  0  0  0  0  0  0  0  0  0  0  0
   10.3475   47.1805   30.3976 H   0  0  0  0  0  0  0  0  0  0  0  0
    5.4651   46.3008   30.5006 H   0  0  0  0  0  0  0  0  0  0  0  0
    8.8209   48.7383   29.3148 H   0  0  0  0  0  0  0  0  0  0  0  0
    5.2695   50.2731   28.6098 H   0  0  0  0  0  0  0  0  0  0  0  0
    8.0019   50.7500   29.8832 H   0  0  0  0  0  0  0  0  0  0  0  0
    6.5235   51.7625   29.8970 H   0  0  0  0  0  0  0  0  0  0  0  0
    6.5975   50.3126   30.9300 H   0  0  0  0  0  0  0  0  0  0  0  0
    7.2523   47.7921   27.1913 H   0  0  0  0  0  0  0  0  0  0  0  0
    8.3949   52.2350   25.2483 H   0  0  0  0  0  0  0  0  0  0  0  0
    9.0777   48.2015   22.8488 H   0  0  0  0  0  0  0  0  0  0  0  0
   10.5932   48.2378   23.8698 H   0  0  0  0  0  0  0  0  0  0  0  0
    9.8233   40.7200   31.7652 H   0  0  0  0  0  0  0  0  0  0  0  0
   11.3775   41.5548   31.4741 H   0  0  0  0  0  0  0  0  0  0  0  0
   11.7312   39.5362   30.3532 H   0  0  0  0  0  0  0  0  0  0  0  0
   10.1203   38.2696   32.6410 H   0  0  0  0  0  0  0  0  0  0  0  0
   13.6850   37.4639   31.2321 H   0  0  0  0  0  0  0  0  0  0  0  0
   10.0250   38.1792   29.7654 H   0  0  0  0  0  0  0  0  0  0  0  0
   11.2757   36.3135   32.4907 H   0  0  0  0  0  0  0  0  0  0  0  0
   11.9838   36.9111   29.7708 H   0  0  0  0  0  0  0  0  0  0  0  0
   12.3307   38.3537   34.7458 H   0  0  0  0  0  0  0  0  0  0  0  0
   16.7566   34.1787   32.4623 H   0  0  0  0  0  0  0  0  0  0  0  0
   15.3535   35.7355   37.5144 H   0  0  0  0  0  0  0  0  0  0  0  0
   16.6353   34.5301   37.1419 H   0  0  0  0  0  0  0  0  0  0  0  0
  1  2  2  0
  1  3  1  0
  3  4  1  0
  4  5  1  0
  6  1  1  0
  7  6  1  0
  6  8  1  0
  8  9  1  0
  9 10  2  0
 11  9  1  0
 10 12  1  0
 13 11  2  0
 12 14  2  0
 14 13  1  0
 14 15  1  0
 15 16  1  0
 16 17  1  0
 16 18  1  0
 18 19  2  0
 20 18  1  0
 19 21  1  0
 22 20  2  0
 20 23  1  0
 21 24  1  0
 21 25  2  0
 25 22  1  0
 23 26  1  0
 23 27  2  0
 24 28  1  0
 25 29  1  0
 28 29  1  0
  4 30  2  0
  4 31  1  0
 32 31  1  0
 32 33  1  0
 33 34  1  0
 33 35  1  0
 34 36  1  0
 35 37  1  0
 35 38  1  0
 38 36  1  0
 36 39  1  0
 38 40  1  0
 41 39  1  0
 42 39  1  0
 43 41  2  0
 41 44  1  0
 45 42  2  0
 46 43  1  0
 44 47  2  0
 44 45  1  0
 48 46  2  0
 48 47  1  0
 47 49  1  0
  6 50  1  1
  7 51  1  0
  7 52  1  0
  8 53  1  0
  8 54  1  0
 10 55  1  0
 11 56  1  0
 12 57  1  0
 13 58  1  0
 16 59  1  6
 17 60  1  0
 17 61  1  0
 17 62  1  0
 19 63  1  0
 22 64  1  0
 28 65  1  0
 28 66  1  0
 32 67  1  0
 32 68  1  0
 33 69  1  0
 35 70  1  0
 36 71  1  0
 37 72  1  0
 38 73  1  0
 40 74  1  0
 42 75  1  0
 46 76  1  0
 49 77  1  0
 49 78  1  0
M  CHG  3   5  -1  23   1  26  -1
M  END
>  <EmbedRMS>  (303) 
0.0806304277833

$$$$

     RDKit          3D

 78 83  0  0  0  0  0  0  0  0999 V2000
   10.2802   43.7665   33.8247 C   0  0  0  0  0  0  0  0  0  0  0  0
   11.4109   43.5920   34.3664 O   0  0  0  0  0  0  0  0  0  0  0  0
    9.3615   42.7251   33.7346 O   0  0  0  0  0  0  0  0  0  0  0  0
    9.8895   41.2270   34.2945 P   0  0  0  0  0  0  0  0  0  0  0  0
   10.3731   41.4569   35.8837 O   0  0  0  0  0  0  0  0  0  0  0  0
    9.9458   45.0737   33.2107 C   0  0  1  0  0  0  0  0  0  0  0  0
   11.0266   46.0292   33.4703 N   0  0  0  0  0  0  0  0  0  0  0  0
    9.7535   44.8542   31.6943 C   0  0  0  0  0  0  0  0  0  0  0  0
    8.7952   45.8412   31.0840 C   0  0  0  0  0  0  0  0  0  0  0  0
    7.4072   45.6005   31.1020 C   0  0  0  0  0  0  0  0  0  0  0  0
    9.2828   46.9902   30.4403 C   0  0  0  0  0  0  0  0  0  0  0  0
    6.5261   46.5021   30.4889 C   0  0  0  0  0  0  0  0  0  0  0  0
    8.4000   47.8910   29.8327 C   0  0  0  0  0  0  0  0  0  0  0  0
    7.0210   47.6446   29.8438 C   0  0  0  0  0  0  0  0  0  0  0  0
    6.1410   48.5415   29.2310 O   0  0  0  0  0  0  0  0  0  0  0  0
    5.7000   48.4149   27.8750 C   0  0  1  0  0  0  0  0  0  0  0  0
    6.8403   48.7160   26.8917 C   0  0  0  0  0  0  0  0  0  0  0  0
    5.0238   47.0686   27.6342 C   0  0  0  0  0  0  0  0  0  0  0  0
    5.8083   45.9302   27.3120 C   0  0  0  0  0  0  0  0  0  0  0  0
    3.5994   46.9238   27.7362 C   0  0  0  0  0  0  0  0  0  0  0  0
    5.1633   44.7283   27.0543 C   0  0  0  0  0  0  0  0  0  0  0  0
    2.9980   45.6784   27.4415 C   0  0  0  0  0  0  0  0  0  0  0  0
    2.7631   48.0072   28.1730 N   0  0  0  0  0  0  0  0  0  0  0  0
    5.7214   43.5097   26.7189 O   0  0  0  0  0  0  0  0  0  0  0  0
    3.8178   44.6094   27.1086 C   0  0  0  0  0  0  0  0  0  0  0  0
    3.1096   48.7418   29.2836 O   0  0  0  0  0  0  0  0  0  0  0  0
    1.6197   48.1469   27.6916 O   0  0  0  0  0  0  0  0  0  0  0  0
    4.6547   42.5661   26.5507 C   0  0  0  0  0  0  0  0  0  0  0  0
    3.4562   43.3101   26.8090 O   0  0  0  0  0  0  0  0  0  0  0  0
    8.8122   40.1844   34.2135 O   0  0  0  0  0  0  0  0  0  0  0  0
   11.2400   40.7950   33.3698 O   0  0  0  0  0  0  0  0  0  0  0  0
   10.9143   40.6914   31.9980 C   0  0  0  0  0  0  0  0  0  0  0  0
   11.5269   39.3912   31.4385 C   0  0  0  0  0  0  0  0  0  0  0  0
   12.7519   39.0911   32.0837 O   0  0  0  0  0  0  0  0  0  0  0  0
   10.6113   38.1932   31.6451 C   0  0  0  0  0  0  0  0  0  0  0  0
   12.9412   37.6838   32.0297 C   0  0  0  0  0  0  0  0  0  0  0  0
    9.6064   38.0878   30.6599 O   0  0  0  0  0  0  0  0  0  0  0  0
   11.5822   37.0197   31.6877 C   0  0  0  0  0  0  0  0  0  0  0  0
   13.4840   37.2104   33.3254 N   0  0  0  0  0  0  0  0  0  0  0  0
   11.6179   36.3072   30.4690 O   0  0  0  0  0  0  0  0  0  0  0  0
   14.4797   36.3309   33.5738 C   0  0  0  0  0  0  0  0  0  0  0  0
   13.1136   37.6269   34.5702 C   0  0  0  0  0  0  0  0  0  0  0  0
   15.2074   35.6152   32.6747 N   0  0  0  0  0  0  0  0  0  0  0  0
   14.6756   36.2298   34.9190 C   0  0  0  0  0  0  0  0  0  0  0  0
   13.8217   37.0445   35.5793 N   0  0  0  0  0  0  0  0  0  0  0  0
   16.1643   34.7603   33.1551 C   0  0  0  0  0  0  0  0  0  0  0  0
   15.6528   35.3503   35.4136 C   0  0  0  0  0  0  0  0  0  0  0  0
   16.3798   34.6316   34.5046 N   0  0  0  0  0  0  0  0  0  0  0  0
   15.9004   35.1930   36.8094 N   0  0  0  0  0  0  0  0  0  0  0  0
    8.9994   45.4383   33.6717 H   0  0  0  0  0  0  0  0  0  0  0  0
   10.7764   46.9369   33.0154 H   0  0  0  0  0  0  0  0  0  0  0  0
   11.0501   46.2277   34.4977 H   0  0  0  0  0  0  0  0  0  0  0  0
   10.7405   44.9078   31.1827 H   0  0  0  0  0  0  0  0  0  0  0  0
    9.3637   43.8355   31.4707 H   0  0  0  0  0  0  0  0  0  0  0  0
    7.0117   44.7168   31.5874 H   0  0  0  0  0  0  0  0  0  0  0  0
   10.3465   47.1911   30.4084 H   0  0  0  0  0  0  0  0  0  0  0  0
    5.4609   46.3098   30.5098 H   0  0  0  0  0  0  0  0  0  0  0  0
    8.7880   48.7765   29.3458 H   0  0  0  0  0  0  0  0  0  0  0  0
    4.9598   49.2214   27.6943 H   0  0  0  0  0  0  0  0  0  0  0  0
    6.4867   48.5899   25.8461 H   0  0  0  0  0  0  0  0  0  0  0  0
    7.1763   49.7664   27.0239 H   0  0  0  0  0  0  0  0  0  0  0  0
    7.7156   48.0572   27.0604 H   0  0  0  0  0  0  0  0  0  0  0  0
    6.8872   45.9686   27.2656 H   0  0  0  0  0  0  0  0  0  0  0  0
    1.9263   45.5403   27.5058 H   0  0  0  0  0  0  0  0  0  0  0  0
    4.7564   41.7373   27.2822 H   0  0  0  0  0  0  0  0  0  0  0  0
    4.6472   42.1762   25.5112 H   0  0  0  0  0  0  0  0  0  0  0  0
   11.3775   41.5548   31.4741 H   0  0  0  0  0  0  0  0  0  0  0  0
    9.8233   40.7200   31.7651 H   0  0  0  0  0  0  0  0  0  0  0  0
   11.7311   39.5361   30.3532 H   0  0  0  0  0  0  0  0  0  0  0  0
   10.1202   38.2696   32.6410 H   0  0  0  0  0  0  0  0  0  0  0  0
   13.6850   37.4639   31.2321 H   0  0  0  0  0  0  0  0  0  0  0  0
   10.0250   38.1793   29.7654 H   0  0  0  0  0  0  0  0  0  0  0  0
   11.2757   36.3135   32.4907 H   0  0  0  0  0  0  0  0  0  0  0  0
   11.9838   36.9111   29.7708 H   0  0  0  0  0  0  0  0  0  0  0  0
   12.3307   38.3536   34.7458 H   0  0  0  0  0  0  0  0  0  0  0  0
   16.7566   34.1787   32.4623 H   0  0  0  0  0  0  0  0  0  0  0  0
   15.3535   35.7355   37.5144 H   0  0  0  0  0  0  0  0  0  0  0  0
   16.6353   34.5301   37.1419 H   0  0  0  0  0  0  0  0  0  0  0  0
  1  2  2  0
  1  3  1  0
  3  4  1  0
  4  5  1  0
  6  1  1  0
  7  6  1  0
  6  8  1  0
  8  9  1  0
  9 10  2  0
 11  9  1  0
 10 12  1  0
 13 11  2  0
 12 14  2  0
 14 13  1  0
 14 15  1  0
 15 16  1  0
 16 17  1  0
 16 18  1  0
 18 19  2  0
 20 18  1  0
 19 21  1  0
 22 20  2  0
 20 23  1  0
 21 24  1  0
 21 25  2  0
 25 22  1  0
 23 26  1  0
 23 27  2  0
 24 28  1  0
 25 29  1  0
 28 29  1  0
  4 30  2  0
  4 31  1  0
 32 31  1  0
 32 33  1  0
 33 34  1  0
 33 35  1  0
 34 36  1  0
 35 37  1  0
 35 38  1  0
 38 36  1  0
 36 39  1  0
 38 40  1  0
 41 39  1  0
 42 39  1  0
 43 41  2  0
 41 44  1  0
 45 42  2  0
 46 43  1  0
 44 47  2  0
 44 45  1  0
 48 46  2  0
 48 47  1  0
 47 49  1  0
  6 50  1  1
  7 51  1  0
  7 52  1  0
  8 53  1  0
  8 54  1  0
 10 55  1  0
 11 56  1  0
 12 57  1  0
 13 58  1  0
 16 59  1  6
 17 60  1  0
 17 61  1  0
 17 62  1  0
 19 63  1  0
 22 64  1  0
 28 65  1  0
 28 66  1  0
 32 67  1  0
 32 68  1  0
 33 69  1  0
 35 70  1  0
 36 71  1  0
 37 72  1  0
 38 73  1  0
 40 74  1  0
 42 75  1  0
 46 76  1  0
 49 77  1  0
 49 78  1  0
M  CHG  3   5  -1  23   1  26  -1
M  END
>  <EmbedRMS>  (304) 
0.0807739805348

$$$$

     RDKit          3D

 78 83  0  0  0  0  0  0  0  0999 V2000
   10.2802   43.7665   33.8246 C   0  0  0  0  0  0  0  0  0  0  0  0
   11.4109   43.5920   34.3664 O   0  0  0  0  0  0  0  0  0  0  0  0
    9.3615   42.7251   33.7346 O   0  0  0  0  0  0  0  0  0  0  0  0
    9.8898   41.2269   34.2939 P   0  0  0  0  0  0  0  0  0  0  0  0
   10.3738   41.4566   35.8830 O   0  0  0  0  0  0  0  0  0  0  0  0
    9.9458   45.0737   33.2107 C   0  0  1  0  0  0  0  0  0  0  0  0
   11.0266   46.0292   33.4703 N   0  0  0  0  0  0  0  0  0  0  0  0
    9.7534   44.8542   31.6943 C   0  0  0  0  0  0  0  0  0  0  0  0
    8.7952   45.8413   31.0842 C   0  0  0  0  0  0  0  0  0  0  0  0
    7.4071   45.6007   31.1026 C   0  0  0  0  0  0  0  0  0  0  0  0
    9.2829   46.9902   30.4403 C   0  0  0  0  0  0  0  0  0  0  0  0
    6.5260   46.5018   30.4887 C   0  0  0  0  0  0  0  0  0  0  0  0
    8.4000   47.8911   29.8327 C   0  0  0  0  0  0  0  0  0  0  0  0
    7.0212   47.6445   29.8435 C   0  0  0  0  0  0  0  0  0  0  0  0
    6.1416   48.5488   29.2432 O   0  0  0  0  0  0  0  0  0  0  0  0
    5.6567   48.4229   27.9025 C   0  0  1  0  0  0  0  0  0  0  0  0
    6.7351   48.7999   26.8810 C   0  0  0  0  0  0  0  0  0  0  0  0
    4.9716   47.0764   27.6715 C   0  0  0  0  0  0  0  0  0  0  0  0
    3.5823   47.0080   27.9450 C   0  0  0  0  0  0  0  0  0  0  0  0
    5.6581   45.8717   27.2907 C   0  0  0  0  0  0  0  0  0  0  0  0
    2.9348   45.7851   27.8263 C   0  0  0  0  0  0  0  0  0  0  0  0
    4.9488   44.6563   27.1889 C   0  0  0  0  0  0  0  0  0  0  0  0
    7.0539   45.8554   26.9899 N   0  0  0  0  0  0  0  0  0  0  0  0
    1.6017   45.4945   28.0436 O   0  0  0  0  0  0  0  0  0  0  0  0
    3.5894   44.6588   27.4649 C   0  0  0  0  0  0  0  0  0  0  0  0
    7.4502   46.0381   25.6858 O   0  0  0  0  0  0  0  0  0  0  0  0
    7.8421   45.3055   27.7853 O   0  0  0  0  0  0  0  0  0  0  0  0
    1.4089   44.0943   27.8002 C   0  0  0  0  0  0  0  0  0  0  0  0
    2.7037   43.5990   27.4331 O   0  0  0  0  0  0  0  0  0  0  0  0
    8.8122   40.1845   34.2134 O   0  0  0  0  0  0  0  0  0  0  0  0
   11.2399   40.7954   33.3679 O   0  0  0  0  0  0  0  0  0  0  0  0
   10.9124   40.6877   31.9966 C   0  0  0  0  0  0  0  0  0  0  0  0
   11.5169   39.3811   31.4420 C   0  0  0  0  0  0  0  0  0  0  0  0
   12.7499   39.0881   32.0760 O   0  0  0  0  0  0  0  0  0  0  0  0
   10.6042   38.1893   31.6659 C   0  0  0  0  0  0  0  0  0  0  0  0
   12.9395   37.6814   32.0280 C   0  0  0  0  0  0  0  0  0  0  0  0
    9.6353   38.0951   30.6499 O   0  0  0  0  0  0  0  0  0  0  0  0
   11.5803   37.0191   31.6934 C   0  0  0  0  0  0  0  0  0  0  0  0
   13.4851   37.2119   33.3244 N   0  0  0  0  0  0  0  0  0  0  0  0
   11.6118   36.3189   30.4674 O   0  0  0  0  0  0  0  0  0  0  0  0
   14.4801   36.3316   33.5732 C   0  0  0  0  0  0  0  0  0  0  0  0
   13.1139   37.6277   34.5692 C   0  0  0  0  0  0  0  0  0  0  0  0
   15.2076   35.6154   32.6744 N   0  0  0  0  0  0  0  0  0  0  0  0
   14.6756   36.2303   34.9186 C   0  0  0  0  0  0  0  0  0  0  0  0
   13.8215   37.0451   35.5786 N   0  0  0  0  0  0  0  0  0  0  0  0
   16.1642   34.7602   33.1551 C   0  0  0  0  0  0  0  0  0  0  0  0
   15.6526   35.3505   35.4134 C   0  0  0  0  0  0  0  0  0  0  0  0
   16.3796   34.6316   34.5045 N   0  0  0  0  0  0  0  0  0  0  0  0
   15.9001   35.1933   36.8093 N   0  0  0  0  0  0  0  0  0  0  0  0
    8.9994   45.4383   33.6717 H   0  0  0  0  0  0  0  0  0  0  0  0
   11.0501   46.2278   34.4977 H   0  0  0  0  0  0  0  0  0  0  0  0
   10.7764   46.9369   33.0153 H   0  0  0  0  0  0  0  0  0  0  0  0
    9.3635   43.8356   31.4705 H   0  0  0  0  0  0  0  0  0  0  0  0
   10.7404   44.9079   31.1826 H   0  0  0  0  0  0  0  0  0  0  0  0
    7.0117   44.7173   31.5884 H   0  0  0  0  0  0  0  0  0  0  0  0
   10.3465   47.1912   30.4085 H   0  0  0  0  0  0  0  0  0  0  0  0
    5.4608   46.3103   30.5121 H   0  0  0  0  0  0  0  0  0  0  0  0
    8.7879   48.7779   29.3483 H   0  0  0  0  0  0  0  0  0  0  0  0
    4.8801   49.2107   27.7833 H   0  0  0  0  0  0  0  0  0  0  0  0
    6.9415   49.8894   26.9478 H   0  0  0  0  0  0  0  0  0  0  0  0
    7.6906   48.2773   27.0810 H   0  0  0  0  0  0  0  0  0  0  0  0
    6.3873   48.5762   25.8502 H   0  0  0  0  0  0  0  0  0  0  0  0
    3.0224   47.8802   28.2585 H   0  0  0  0  0  0  0  0  0  0  0  0
    5.4475   43.7395   26.9009 H   0  0  0  0  0  0  0  0  0  0  0  0
    0.6909   43.9446   26.9668 H   0  0  0  0  0  0  0  0  0  0  0  0
    1.0529   43.5896   28.7227 H   0  0  0  0  0  0  0  0  0  0  0  0
    9.8214   40.7222   31.7644 H   0  0  0  0  0  0  0  0  0  0  0  0
   11.3807   41.5456   31.4682 H   0  0  0  0  0  0  0  0  0  0  0  0
   11.6986   39.5088   30.3498 H   0  0  0  0  0  0  0  0  0  0  0  0
   10.1108   38.2738   32.6630 H   0  0  0  0  0  0  0  0  0  0  0  0
   13.6783   37.4562   31.2271 H   0  0  0  0  0  0  0  0  0  0  0  0
    9.0019   37.3860   30.9348 H   0  0  0  0  0  0  0  0  0  0  0  0
   11.2807   36.3053   32.4921 H   0  0  0  0  0  0  0  0  0  0  0  0
   11.8818   36.9600   29.7584 H   0  0  0  0  0  0  0  0  0  0  0  0
   12.3303   38.3537   34.7445 H   0  0  0  0  0  0  0  0  0  0  0  0
   16.7563   34.1783   32.4623 H   0  0  0  0  0  0  0  0  0  0  0  0
   15.3532   35.7359   37.5142 H   0  0  0  0  0  0  0  0  0  0  0  0
   16.6348   34.5301   37.1418 H   0  0  0  0  0  0  0  0  0  0  0  0
  1  2  2  0
  1  3  1  0
  3  4  1  0
  4  5  1  0
  6  1  1  0
  7  6  1  0
  6  8  1  0
  8  9  1  0
  9 10  2  0
 11  9  1  0
 10 12  1  0
 13 11  2  0
 12 14  2  0
 14 13  1  0
 14 15  1  0
 15 16  1  0
 16 17  1  0
 16 18  1  0
 18 19  2  0
 20 18  1  0
 19 21  1  0
 22 20  2  0
 20 23  1  0
 21 24  1  0
 21 25  2  0
 25 22  1  0
 23 26  1  0
 23 27  2  0
 24 28  1  0
 25 29  1  0
 28 29  1  0
  4 30  2  0
  4 31  1  0
 32 31  1  0
 32 33  1  0
 33 34  1  0
 33 35  1  0
 34 36  1  0
 35 37  1  0
 35 38  1  0
 38 36  1  0
 36 39  1  0
 38 40  1  0
 41 39  1  0
 42 39  1  0
 43 41  2  0
 41 44  1  0
 45 42  2  0
 46 43  1  0
 44 47  2  0
 44 45  1  0
 48 46  2  0
 48 47  1  0
 47 49  1  0
  6 50  1  1
  7 51  1  0
  7 52  1  0
  8 53  1  0
  8 54  1  0
 10 55  1  0
 11 56  1  0
 12 57  1  0
 13 58  1  0
 16 59  1  1
 17 60  1  0
 17 61  1  0
 17 62  1  0
 19 63  1  0
 22 64  1  0
 28 65  1  0
 28 66  1  0
 32 67  1  0
 32 68  1  0
 33 69  1  0
 35 70  1  0
 36 71  1  0
 37 72  1  0
 38 73  1  0
 40 74  1  0
 42 75  1  0
 46 76  1  0
 49 77  1  0
 49 78  1  0
M  CHG  3   5  -1  23   1  26  -1
M  END
>  <EmbedRMS>  (305) 
0.0815096788124

$$$$

     RDKit          3D

 78 83  0  0  0  0  0  0  0  0999 V2000
   10.2804   43.7666   33.8250 C   0  0  0  0  0  0  0  0  0  0  0  0
   11.4111   43.5923   34.3666 O   0  0  0  0  0  0  0  0  0  0  0  0
    9.3622   42.7249   33.7343 O   0  0  0  0  0  0  0  0  0  0  0  0
    9.8905   41.2265   34.2936 P   0  0  0  0  0  0  0  0  0  0  0  0
   10.3732   41.4565   35.8832 O   0  0  0  0  0  0  0  0  0  0  0  0
    9.9454   45.0740   33.2114 C   0  0  1  0  0  0  0  0  0  0  0  0
   11.0258   46.0300   33.4708 N   0  0  0  0  0  0  0  0  0  0  0  0
    9.7532   44.8545   31.6952 C   0  0  0  0  0  0  0  0  0  0  0  0
    8.7951   45.8417   31.0852 C   0  0  0  0  0  0  0  0  0  0  0  0
    7.4074   45.5987   31.0983 C   0  0  0  0  0  0  0  0  0  0  0  0
    9.2834   46.9875   30.4374 C   0  0  0  0  0  0  0  0  0  0  0  0
    6.5261   46.4984   30.4820 C   0  0  0  0  0  0  0  0  0  0  0  0
    8.4012   47.8859   29.8264 C   0  0  0  0  0  0  0  0  0  0  0  0
    7.0198   47.6549   29.8595 C   0  0  0  0  0  0  0  0  0  0  0  0
    6.1536   48.5717   29.2555 O   0  0  0  0  0  0  0  0  0  0  0  0
    5.3703   49.5446   29.9612 C   0  0  1  0  0  0  0  0  0  0  0  0
    4.2876   48.8951   30.8309 C   0  0  0  0  0  0  0  0  0  0  0  0
    6.2500   50.5068   30.7551 C   0  0  0  0  0  0  0  0  0  0  0  0
    6.9696   50.0248   31.8796 C   0  0  0  0  0  0  0  0  0  0  0  0
    6.4268   51.8740   30.3555 C   0  0  0  0  0  0  0  0  0  0  0  0
    7.8512   50.8807   32.5252 C   0  0  0  0  0  0  0  0  0  0  0  0
    7.3480   52.6952   31.0440 C   0  0  0  0  0  0  0  0  0  0  0  0
    5.6696   52.4470   29.2809 N   0  0  0  0  0  0  0  0  0  0  0  0
    8.6580   50.6185   33.6157 O   0  0  0  0  0  0  0  0  0  0  0  0
    8.0369   52.1575   32.1220 C   0  0  0  0  0  0  0  0  0  0  0  0
    4.2952   52.4512   29.3439 O   0  0  0  0  0  0  0  0  0  0  0  0
    6.2374   53.1754   28.4413 O   0  0  0  0  0  0  0  0  0  0  0  0
    9.3971   51.8104   33.9153 C   0  0  0  0  0  0  0  0  0  0  0  0
    8.9694   52.7688   32.9379 O   0  0  0  0  0  0  0  0  0  0  0  0
    8.8129   40.1842   34.2124 O   0  0  0  0  0  0  0  0  0  0  0  0
   11.2419   40.7945   33.3695 O   0  0  0  0  0  0  0  0  0  0  0  0
   10.9185   40.6911   31.9969 C   0  0  0  0  0  0  0  0  0  0  0  0
   11.5172   39.3814   31.4407 C   0  0  0  0  0  0  0  0  0  0  0  0
   12.7492   39.0856   32.0729 O   0  0  0  0  0  0  0  0  0  0  0  0
   10.6023   38.1908   31.6665 C   0  0  0  0  0  0  0  0  0  0  0  0
   12.9319   37.6781   32.0281 C   0  0  0  0  0  0  0  0  0  0  0  0
    9.6392   38.0797   30.6452 O   0  0  0  0  0  0  0  0  0  0  0  0
   11.5715   37.0165   31.7056 C   0  0  0  0  0  0  0  0  0  0  0  0
   13.4847   37.2121   33.3235 N   0  0  0  0  0  0  0  0  0  0  0  0
   11.6187   36.3384   30.4695 O   0  0  0  0  0  0  0  0  0  0  0  0
   14.4801   36.3321   33.5724 C   0  0  0  0  0  0  0  0  0  0  0  0
   13.1137   37.6276   34.5688 C   0  0  0  0  0  0  0  0  0  0  0  0
   15.2073   35.6153   32.6738 N   0  0  0  0  0  0  0  0  0  0  0  0
   14.6759   36.2308   34.9179 C   0  0  0  0  0  0  0  0  0  0  0  0
   13.8216   37.0452   35.5781 N   0  0  0  0  0  0  0  0  0  0  0  0
   16.1640   34.7602   33.1546 C   0  0  0  0  0  0  0  0  0  0  0  0
   15.6526   35.3508   35.4129 C   0  0  0  0  0  0  0  0  0  0  0  0
   16.3794   34.6317   34.5041 N   0  0  0  0  0  0  0  0  0  0  0  0
   15.8999   35.1935   36.8088 N   0  0  0  0  0  0  0  0  0  0  0  0
    8.9989   45.4382   33.6724 H   0  0  0  0  0  0  0  0  0  0  0  0
   11.0498   46.2280   34.4983 H   0  0  0  0  0  0  0  0  0  0  0  0
   10.7743   46.9379   33.0168 H   0  0  0  0  0  0  0  0  0  0  0  0
    9.3635   43.8358   31.4715 H   0  0  0  0  0  0  0  0  0  0  0  0
   10.7404   44.9079   31.1838 H   0  0  0  0  0  0  0  0  0  0  0  0
    7.0127   44.7107   31.5764 H   0  0  0  0  0  0  0  0  0  0  0  0
   10.3473   47.1868   30.4027 H   0  0  0  0  0  0  0  0  0  0  0  0
    5.4647   46.2897   30.4840 H   0  0  0  0  0  0  0  0  0  0  0  0
    8.7892   48.7705   29.3377 H   0  0  0  0  0  0  0  0  0  0  0  0
    4.8229   50.0959   29.1748 H   0  0  0  0  0  0  0  0  0  0  0  0
    3.6670   48.2145   30.2105 H   0  0  0  0  0  0  0  0  0  0  0  0
    3.6273   49.6803   31.2571 H   0  0  0  0  0  0  0  0  0  0  0  0
    4.7238   48.3129   31.6673 H   0  0  0  0  0  0  0  0  0  0  0  0
    6.8692   49.0077   32.2322 H   0  0  0  0  0  0  0  0  0  0  0  0
    7.5033   53.7280   30.7591 H   0  0  0  0  0  0  0  0  0  0  0  0
   10.4867   51.6217   33.8158 H   0  0  0  0  0  0  0  0  0  0  0  0
    9.1506   52.1686   34.9368 H   0  0  0  0  0  0  0  0  0  0  0  0
   11.3967   41.5460   31.4725 H   0  0  0  0  0  0  0  0  0  0  0  0
    9.8298   40.7409   31.7611 H   0  0  0  0  0  0  0  0  0  0  0  0
   11.6975   39.5066   30.3481 H   0  0  0  0  0  0  0  0  0  0  0  0
   10.1077   38.2648   32.6646 H   0  0  0  0  0  0  0  0  0  0  0  0
   13.6621   37.4468   31.2209 H   0  0  0  0  0  0  0  0  0  0  0  0
    8.8974   38.6943   30.8832 H   0  0  0  0  0  0  0  0  0  0  0  0
   11.2806   36.3073   32.5170 H   0  0  0  0  0  0  0  0  0  0  0  0
   10.8493   35.7110   30.4586 H   0  0  0  0  0  0  0  0  0  0  0  0
   12.3290   38.3524   34.7444 H   0  0  0  0  0  0  0  0  0  0  0  0
   16.7559   34.1780   32.4619 H   0  0  0  0  0  0  0  0  0  0  0  0
   16.6344   34.5301   37.1414 H   0  0  0  0  0  0  0  0  0  0  0  0
   15.3531   35.7363   37.5137 H   0  0  0  0  0  0  0  0  0  0  0  0
  1  2  2  0
  1  3  1  0
  3  4  1  0
  4  5  1  0
  6  1  1  0
  7  6  1  0
  6  8  1  0
  8  9  1  0
  9 10  2  0
 11  9  1  0
 10 12  1  0
 13 11  2  0
 12 14  2  0
 14 13  1  0
 14 15  1  0
 15 16  1  0
 16 17  1  0
 16 18  1  0
 18 19  2  0
 20 18  1  0
 19 21  1  0
 22 20  2  0
 20 23  1  0
 21 24  1  0
 21 25  2  0
 25 22  1  0
 23 26  1  0
 23 27  2  0
 24 28  1  0
 25 29  1  0
 28 29  1  0
  4 30  2  0
  4 31  1  0
 32 31  1  0
 32 33  1  0
 33 34  1  0
 33 35  1  0
 34 36  1  0
 35 37  1  0
 35 38  1  0
 38 36  1  0
 36 39  1  0
 38 40  1  0
 41 39  1  0
 42 39  1  0
 43 41  2  0
 41 44  1  0
 45 42  2  0
 46 43  1  0
 44 47  2  0
 44 45  1  0
 48 46  2  0
 48 47  1  0
 47 49  1  0
  6 50  1  1
  7 51  1  0
  7 52  1  0
  8 53  1  0
  8 54  1  0
 10 55  1  0
 11 56  1  0
 12 57  1  0
 13 58  1  0
 16 59  1  6
 17 60  1  0
 17 61  1  0
 17 62  1  0
 19 63  1  0
 22 64  1  0
 28 65  1  0
 28 66  1  0
 32 67  1  0
 32 68  1  0
 33 69  1  0
 35 70  1  0
 36 71  1  0
 37 72  1  0
 38 73  1  0
 40 74  1  0
 42 75  1  0
 46 76  1  0
 49 77  1  0
 49 78  1  0
M  CHG  3   5  -1  23   1  26  -1
M  END
>  <EmbedRMS>  (306) 
0.0828836530734

$$$$

     RDKit          3D

 78 83  0  0  0  0  0  0  0  0999 V2000
   10.2835   43.7661   33.8257 C   0  0  0  0  0  0  0  0  0  0  0  0
   11.4102   43.5930   34.3753 O   0  0  0  0  0  0  0  0  0  0  0  0
    9.3638   42.7255   33.7349 O   0  0  0  0  0  0  0  0  0  0  0  0
    9.8907   41.2265   34.2934 P   0  0  0  0  0  0  0  0  0  0  0  0
   10.3743   41.4556   35.8828 O   0  0  0  0  0  0  0  0  0  0  0  0
    9.9547   45.0694   33.2036 C   0  0  1  0  0  0  0  0  0  0  0  0
   11.0274   46.0321   33.4757 N   0  0  0  0  0  0  0  0  0  0  0  0
    9.7468   44.8478   31.6877 C   0  0  0  0  0  0  0  0  0  0  0  0
    8.7924   45.8403   31.0845 C   0  0  0  0  0  0  0  0  0  0  0  0
    7.4063   45.6016   31.0993 C   0  0  0  0  0  0  0  0  0  0  0  0
    9.2812   46.9870   30.4428 C   0  0  0  0  0  0  0  0  0  0  0  0
    6.5286   46.5037   30.4841 C   0  0  0  0  0  0  0  0  0  0  0  0
    8.4022   47.8894   29.8323 C   0  0  0  0  0  0  0  0  0  0  0  0
    7.0130   47.6546   29.8454 C   0  0  0  0  0  0  0  0  0  0  0  0
    6.0698   48.5090   29.2452 O   0  0  0  0  0  0  0  0  0  0  0  0
    6.2997   49.7221   28.5176 C   0  0  1  0  0  0  0  0  0  0  0  0
    6.7316   50.8479   29.4701 C   0  0  0  0  0  0  0  0  0  0  0  0
    7.1764   49.5034   27.2841 C   0  0  0  0  0  0  0  0  0  0  0  0
    8.4442   50.1362   27.1637 C   0  0  0  0  0  0  0  0  0  0  0  0
    6.6899   48.7239   26.1801 C   0  0  0  0  0  0  0  0  0  0  0  0
    9.1773   49.9484   25.9996 C   0  0  0  0  0  0  0  0  0  0  0  0
    7.4762   48.5812   25.0150 C   0  0  0  0  0  0  0  0  0  0  0  0
    5.3871   48.1221   26.2010 N   0  0  0  0  0  0  0  0  0  0  0  0
   10.4238   50.4518   25.6803 O   0  0  0  0  0  0  0  0  0  0  0  0
    8.7147   49.2033   24.9716 C   0  0  0  0  0  0  0  0  0  0  0  0
    5.0658   47.2025   27.1707 O   0  0  0  0  0  0  0  0  0  0  0  0
    4.6399   48.2330   25.2073 O   0  0  0  0  0  0  0  0  0  0  0  0
   10.7644   49.9893   24.3663 C   0  0  0  0  0  0  0  0  0  0  0  0
    9.6447   49.1961   23.9499 O   0  0  0  0  0  0  0  0  0  0  0  0
    8.8123   40.1850   34.2127 O   0  0  0  0  0  0  0  0  0  0  0  0
   11.2407   40.7945   33.3670 O   0  0  0  0  0  0  0  0  0  0  0  0
   10.9134   40.6866   31.9954 C   0  0  0  0  0  0  0  0  0  0  0  0
   11.5167   39.3787   31.4404 C   0  0  0  0  0  0  0  0  0  0  0  0
   12.7486   39.0849   32.0734 O   0  0  0  0  0  0  0  0  0  0  0  0
   10.6039   38.1884   31.6669 C   0  0  0  0  0  0  0  0  0  0  0  0
   12.9329   37.6776   32.0284 C   0  0  0  0  0  0  0  0  0  0  0  0
    9.6374   38.0938   30.6484 O   0  0  0  0  0  0  0  0  0  0  0  0
   11.5737   37.0141   31.7055 C   0  0  0  0  0  0  0  0  0  0  0  0
   13.4853   37.2120   33.3238 N   0  0  0  0  0  0  0  0  0  0  0  0
   11.6210   36.3379   30.4683 O   0  0  0  0  0  0  0  0  0  0  0  0
   14.4804   36.3319   33.5726 C   0  0  0  0  0  0  0  0  0  0  0  0
   13.1141   37.6275   34.5689 C   0  0  0  0  0  0  0  0  0  0  0  0
   15.2076   35.6152   32.6740 N   0  0  0  0  0  0  0  0  0  0  0  0
   14.6761   36.2306   34.9181 C   0  0  0  0  0  0  0  0  0  0  0  0
   13.8218   37.0451   35.5783 N   0  0  0  0  0  0  0  0  0  0  0  0
   16.1642   34.7600   33.1548 C   0  0  0  0  0  0  0  0  0  0  0  0
   15.6527   35.3507   35.4131 C   0  0  0  0  0  0  0  0  0  0  0  0
   16.3795   34.6315   34.5043 N   0  0  0  0  0  0  0  0  0  0  0  0
   15.9000   35.1933   36.8090 N   0  0  0  0  0  0  0  0  0  0  0  0
    9.0121   45.4317   33.6714 H   0  0  0  0  0  0  0  0  0  0  0  0
   10.7260   46.9687   33.1212 H   0  0  0  0  0  0  0  0  0  0  0  0
   11.8907   45.7658   32.9471 H   0  0  0  0  0  0  0  0  0  0  0  0
    9.3419   43.8326   31.4763 H   0  0  0  0  0  0  0  0  0  0  0  0
   10.7232   44.8815   31.1557 H   0  0  0  0  0  0  0  0  0  0  0  0
    7.0087   44.7169   31.5811 H   0  0  0  0  0  0  0  0  0  0  0  0
   10.3458   47.1846   30.4127 H   0  0  0  0  0  0  0  0  0  0  0  0
    5.4643   46.3054   30.5013 H   0  0  0  0  0  0  0  0  0  0  0  0
    8.8246   48.7562   29.3591 H   0  0  0  0  0  0  0  0  0  0  0  0
    5.3101   50.0494   28.1307 H   0  0  0  0  0  0  0  0  0  0  0  0
    5.9542   50.9878   30.2511 H   0  0  0  0  0  0  0  0  0  0  0  0
    6.8337   51.8038   28.9133 H   0  0  0  0  0  0  0  0  0  0  0  0
    7.6861   50.6188   29.9826 H   0  0  0  0  0  0  0  0  0  0  0  0
    8.8622   50.7555   27.9442 H   0  0  0  0  0  0  0  0  0  0  0  0
    7.1288   48.0003   24.1701 H   0  0  0  0  0  0  0  0  0  0  0  0
   10.9006   50.8507   23.6793 H   0  0  0  0  0  0  0  0  0  0  0  0
   11.6825   49.3662   24.4044 H   0  0  0  0  0  0  0  0  0  0  0  0
   11.3828   41.5438   31.4669 H   0  0  0  0  0  0  0  0  0  0  0  0
    9.8225   40.7225   31.7631 H   0  0  0  0  0  0  0  0  0  0  0  0
   11.6978   39.5037   30.3478 H   0  0  0  0  0  0  0  0  0  0  0  0
   10.1084   38.2787   32.6627 H   0  0  0  0  0  0  0  0  0  0  0  0
   13.6638   37.4472   31.2214 H   0  0  0  0  0  0  0  0  0  0  0  0
    8.9763   37.4191   30.9532 H   0  0  0  0  0  0  0  0  0  0  0  0
   11.2821   36.3054   32.5172 H   0  0  0  0  0  0  0  0  0  0  0  0
   10.8658   35.6935   30.4652 H   0  0  0  0  0  0  0  0  0  0  0  0
   12.3293   38.3523   34.7444 H   0  0  0  0  0  0  0  0  0  0  0  0
   16.7561   34.1778   32.4621 H   0  0  0  0  0  0  0  0  0  0  0  0
   16.6345   34.5300   37.1416 H   0  0  0  0  0  0  0  0  0  0  0  0
   15.3533   35.7361   37.5138 H   0  0  0  0  0  0  0  0  0  0  0  0
  1  2  2  0
  1  3  1  0
  3  4  1  0
  4  5  1  0
  6  1  1  0
  7  6  1  0
  6  8  1  0
  8  9  1  0
  9 10  2  0
 11  9  1  0
 10 12  1  0
 13 11  2  0
 12 14  2  0
 14 13  1  0
 14 15  1  0
 15 16  1  0
 16 17  1  0
 16 18  1  0
 18 19  2  0
 20 18  1  0
 19 21  1  0
 22 20  2  0
 20 23  1  0
 21 24  1  0
 21 25  2  0
 25 22  1  0
 23 26  1  0
 23 27  2  0
 24 28  1  0
 25 29  1  0
 28 29  1  0
  4 30  2  0
  4 31  1  0
 32 31  1  0
 32 33  1  0
 33 34  1  0
 33 35  1  0
 34 36  1  0
 35 37  1  0
 35 38  1  0
 38 36  1  0
 36 39  1  0
 38 40  1  0
 41 39  1  0
 42 39  1  0
 43 41  2  0
 41 44  1  0
 45 42  2  0
 46 43  1  0
 44 47  2  0
 44 45  1  0
 48 46  2  0
 48 47  1  0
 47 49  1  0
  6 50  1  1
  7 51  1  0
  7 52  1  0
  8 53  1  0
  8 54  1  0
 10 55  1  0
 11 56  1  0
 12 57  1  0
 13 58  1  0
 16 59  1  6
 17 60  1  0
 17 61  1  0
 17 62  1  0
 19 63  1  0
 22 64  1  0
 28 65  1  0
 28 66  1  0
 32 67  1  0
 32 68  1  0
 33 69  1  0
 35 70  1  0
 36 71  1  0
 37 72  1  0
 38 73  1  0
 40 74  1  0
 42 75  1  0
 46 76  1  0
 49 77  1  0
 49 78  1  0
M  CHG  3   5  -1  23   1  26  -1
M  END
>  <EmbedRMS>  (307) 
0.0825500635682

$$$$

     RDKit          3D

 78 83  0  0  0  0  0  0  0  0999 V2000
   10.2838   43.7627   33.8277 C   0  0  0  0  0  0  0  0  0  0  0  0
   11.4103   43.5863   34.3766 O   0  0  0  0  0  0  0  0  0  0  0  0
    9.3628   42.7238   33.7357 O   0  0  0  0  0  0  0  0  0  0  0  0
    9.8891   41.2252   34.2949 P   0  0  0  0  0  0  0  0  0  0  0  0
   10.3724   41.4548   35.8843 O   0  0  0  0  0  0  0  0  0  0  0  0
    9.9549   45.0701   33.2065 C   0  0  1  0  0  0  0  0  0  0  0  0
   11.0199   46.0481   33.4572 N   0  0  0  0  0  0  0  0  0  0  0  0
    9.7506   44.8512   31.6924 C   0  0  0  0  0  0  0  0  0  0  0  0
    8.7945   45.8421   31.0872 C   0  0  0  0  0  0  0  0  0  0  0  0
    7.4079   45.6005   31.1001 C   0  0  0  0  0  0  0  0  0  0  0  0
    9.2827   46.9889   30.4444 C   0  0  0  0  0  0  0  0  0  0  0  0
    6.5255   46.4992   30.4844 C   0  0  0  0  0  0  0  0  0  0  0  0
    8.4010   47.8874   29.8326 C   0  0  0  0  0  0  0  0  0  0  0  0
    7.0188   47.6569   29.8468 C   0  0  0  0  0  0  0  0  0  0  0  0
    6.1872   48.5941   29.2113 O   0  0  0  0  0  0  0  0  0  0  0  0
    4.7560   48.5913   29.2182 C   0  0  1  0  0  0  0  0  0  0  0  0
    4.2338   49.0412   30.5875 C   0  0  0  0  0  0  0  0  0  0  0  0
    4.2534   49.5360   28.1430 C   0  0  0  0  0  0  0  0  0  0  0  0
    4.8663   50.8078   28.0191 C   0  0  0  0  0  0  0  0  0  0  0  0
    3.2114   49.1685   27.2276 C   0  0  0  0  0  0  0  0  0  0  0  0
    4.4595   51.6435   26.9875 C   0  0  0  0  0  0  0  0  0  0  0  0
    2.8514   50.0555   26.1866 C   0  0  0  0  0  0  0  0  0  0  0  0
    2.4981   47.9284   27.3556 N   0  0  0  0  0  0  0  0  0  0  0  0
    4.9203   52.9077   26.6738 O   0  0  0  0  0  0  0  0  0  0  0  0
    3.4987   51.2812   26.1069 C   0  0  0  0  0  0  0  0  0  0  0  0
    1.9891   47.5483   28.5758 O   0  0  0  0  0  0  0  0  0  0  0  0
    2.1388   47.3076   26.3339 O   0  0  0  0  0  0  0  0  0  0  0  0
    4.2004   53.3676   25.5219 C   0  0  0  0  0  0  0  0  0  0  0  0
    3.3028   52.2985   25.1928 O   0  0  0  0  0  0  0  0  0  0  0  0
    8.8112   40.1834   34.2131 O   0  0  0  0  0  0  0  0  0  0  0  0
   11.2398   40.7938   33.3702 O   0  0  0  0  0  0  0  0  0  0  0  0
   10.9144   40.6912   31.9983 C   0  0  0  0  0  0  0  0  0  0  0  0
   11.5270   39.3911   31.4385 C   0  0  0  0  0  0  0  0  0  0  0  0
   12.7520   39.0910   32.0835 O   0  0  0  0  0  0  0  0  0  0  0  0
   10.6113   38.1931   31.6451 C   0  0  0  0  0  0  0  0  0  0  0  0
   12.9413   37.6837   32.0297 C   0  0  0  0  0  0  0  0  0  0  0  0
    9.6064   38.0877   30.6599 O   0  0  0  0  0  0  0  0  0  0  0  0
   11.5822   37.0197   31.6876 C   0  0  0  0  0  0  0  0  0  0  0  0
   13.4840   37.2104   33.3254 N   0  0  0  0  0  0  0  0  0  0  0  0
   11.6179   36.3071   30.4690 O   0  0  0  0  0  0  0  0  0  0  0  0
   14.4797   36.3309   33.5738 C   0  0  0  0  0  0  0  0  0  0  0  0
   13.1136   37.6269   34.5702 C   0  0  0  0  0  0  0  0  0  0  0  0
   15.2074   35.6152   32.6747 N   0  0  0  0  0  0  0  0  0  0  0  0
   14.6756   36.2298   34.9190 C   0  0  0  0  0  0  0  0  0  0  0  0
   13.8217   37.0445   35.5793 N   0  0  0  0  0  0  0  0  0  0  0  0
   16.1643   34.7603   33.1551 C   0  0  0  0  0  0  0  0  0  0  0  0
   15.6528   35.3503   35.4136 C   0  0  0  0  0  0  0  0  0  0  0  0
   16.3798   34.6316   34.5046 N   0  0  0  0  0  0  0  0  0  0  0  0
   15.9004   35.1930   36.8094 N   0  0  0  0  0  0  0  0  0  0  0  0
    9.0099   45.4350   33.6671 H   0  0  0  0  0  0  0  0  0  0  0  0
   11.1133   46.1992   34.4885 H   0  0  0  0  0  0  0  0  0  0  0  0
   11.9350   45.6933   33.0929 H   0  0  0  0  0  0  0  0  0  0  0  0
   10.7309   44.8932   31.1677 H   0  0  0  0  0  0  0  0  0  0  0  0
    9.3518   43.8346   31.4760 H   0  0  0  0  0  0  0  0  0  0  0  0
    7.0132   44.7140   31.5812 H   0  0  0  0  0  0  0  0  0  0  0  0
   10.3467   47.1889   30.4143 H   0  0  0  0  0  0  0  0  0  0  0  0
    5.4692   46.2758   30.5103 H   0  0  0  0  0  0  0  0  0  0  0  0
    8.7944   48.7689   29.3423 H   0  0  0  0  0  0  0  0  0  0  0  0
    4.4047   47.5627   29.0053 H   0  0  0  0  0  0  0  0  0  0  0  0
    3.1241   49.0866   30.5805 H   0  0  0  0  0  0  0  0  0  0  0  0
    4.5454   48.3288   31.3780 H   0  0  0  0  0  0  0  0  0  0  0  0
    4.6329   50.0454   30.8453 H   0  0  0  0  0  0  0  0  0  0  0  0
    5.6488   51.1278   28.6956 H   0  0  0  0  0  0  0  0  0  0  0  0
    2.0714   49.8066   25.4785 H   0  0  0  0  0  0  0  0  0  0  0  0
    4.9003   53.5530   24.6803 H   0  0  0  0  0  0  0  0  0  0  0  0
    3.6279   54.2864   25.7683 H   0  0  0  0  0  0  0  0  0  0  0  0
    9.8235   40.7202   31.7651 H   0  0  0  0  0  0  0  0  0  0  0  0
   11.3780   41.5548   31.4751 H   0  0  0  0  0  0  0  0  0  0  0  0
   11.7311   39.5363   30.3531 H   0  0  0  0  0  0  0  0  0  0  0  0
   10.1203   38.2695   32.6410 H   0  0  0  0  0  0  0  0  0  0  0  0
   13.6850   37.4638   31.2321 H   0  0  0  0  0  0  0  0  0  0  0  0
   10.0251   38.1792   29.7654 H   0  0  0  0  0  0  0  0  0  0  0  0
   11.2757   36.3135   32.4907 H   0  0  0  0  0  0  0  0  0  0  0  0
   11.9838   36.9111   29.7708 H   0  0  0  0  0  0  0  0  0  0  0  0
   12.3307   38.3536   34.7457 H   0  0  0  0  0  0  0  0  0  0  0  0
   16.7566   34.1787   32.4623 H   0  0  0  0  0  0  0  0  0  0  0  0
   15.3535   35.7355   37.5144 H   0  0  0  0  0  0  0  0  0  0  0  0
   16.6353   34.5301   37.1419 H   0  0  0  0  0  0  0  0  0  0  0  0
  1  2  2  0
  1  3  1  0
  3  4  1  0
  4  5  1  0
  6  1  1  0
  7  6  1  0
  6  8  1  0
  8  9  1  0
  9 10  2  0
 11  9  1  0
 10 12  1  0
 13 11  2  0
 12 14  2  0
 14 13  1  0
 14 15  1  0
 15 16  1  0
 16 17  1  0
 16 18  1  0
 18 19  2  0
 20 18  1  0
 19 21  1  0
 22 20  2  0
 20 23  1  0
 21 24  1  0
 21 25  2  0
 25 22  1  0
 23 26  1  0
 23 27  2  0
 24 28  1  0
 25 29  1  0
 28 29  1  0
  4 30  2  0
  4 31  1  0
 32 31  1  0
 32 33  1  0
 33 34  1  0
 33 35  1  0
 34 36  1  0
 35 37  1  0
 35 38  1  0
 38 36  1  0
 36 39  1  0
 38 40  1  0
 41 39  1  0
 42 39  1  0
 43 41  2  0
 41 44  1  0
 45 42  2  0
 46 43  1  0
 44 47  2  0
 44 45  1  0
 48 46  2  0
 48 47  1  0
 47 49  1  0
  6 50  1  1
  7 51  1  0
  7 52  1  0
  8 53  1  0
  8 54  1  0
 10 55  1  0
 11 56  1  0
 12 57  1  0
 13 58  1  0
 16 59  1  6
 17 60  1  0
 17 61  1  0
 17 62  1  0
 19 63  1  0
 22 64  1  0
 28 65  1  0
 28 66  1  0
 32 67  1  0
 32 68  1  0
 33 69  1  0
 35 70  1  0
 36 71  1  0
 37 72  1  0
 38 73  1  0
 40 74  1  0
 42 75  1  0
 46 76  1  0
 49 77  1  0
 49 78  1  0
M  CHG  3   5  -1  23   1  26  -1
M  END
>  <EmbedRMS>  (308) 
0.0817108856261

$$$$

     RDKit          3D

 78 83  0  0  0  0  0  0  0  0999 V2000
   10.2804   43.7664   33.8250 C   0  0  0  0  0  0  0  0  0  0  0  0
   11.4111   43.5919   34.3667 O   0  0  0  0  0  0  0  0  0  0  0  0
    9.3619   42.7249   33.7344 O   0  0  0  0  0  0  0  0  0  0  0  0
    9.8903   41.2265   34.2931 P   0  0  0  0  0  0  0  0  0  0  0  0
   10.3742   41.4563   35.8824 O   0  0  0  0  0  0  0  0  0  0  0  0
    9.9460   45.0736   33.2112 C   0  0  1  0  0  0  0  0  0  0  0  0
   11.0266   46.0293   33.4710 N   0  0  0  0  0  0  0  0  0  0  0  0
    9.7543   44.8541   31.6950 C   0  0  0  0  0  0  0  0  0  0  0  0
    8.7962   45.8411   31.0848 C   0  0  0  0  0  0  0  0  0  0  0  0
    7.4101   45.6006   31.1005 C   0  0  0  0  0  0  0  0  0  0  0  0
    9.2823   46.9871   30.4396 C   0  0  0  0  0  0  0  0  0  0  0  0
    6.5269   46.4993   30.4858 C   0  0  0  0  0  0  0  0  0  0  0  0
    8.3989   47.8857   29.8316 C   0  0  0  0  0  0  0  0  0  0  0  0
    7.0161   47.6564   29.8463 C   0  0  0  0  0  0  0  0  0  0  0  0
    6.1933   48.6099   29.2188 O   0  0  0  0  0  0  0  0  0  0  0  0
    4.7637   48.6283   29.1195 C   0  0  1  0  0  0  0  0  0  0  0  0
    4.2785   47.5530   28.1349 C   0  0  0  0  0  0  0  0  0  0  0  0
    4.0855   48.6491   30.4897 C   0  0  0  0  0  0  0  0  0  0  0  0
    3.2418   47.5830   30.9068 C   0  0  0  0  0  0  0  0  0  0  0  0
    4.2180   49.7954   31.3451 C   0  0  0  0  0  0  0  0  0  0  0  0
    2.6071   47.6752   32.1382 C   0  0  0  0  0  0  0  0  0  0  0  0
    3.5349   49.8374   32.5812 C   0  0  0  0  0  0  0  0  0  0  0  0
    4.9894   50.9406   30.9534 N   0  0  0  0  0  0  0  0  0  0  0  0
    1.7647   46.7599   32.7397 O   0  0  0  0  0  0  0  0  0  0  0  0
    2.7482   48.7535   32.9402 C   0  0  0  0  0  0  0  0  0  0  0  0
    6.3313   50.8117   30.6853 O   0  0  0  0  0  0  0  0  0  0  0  0
    4.5137   52.0851   31.1011 O   0  0  0  0  0  0  0  0  0  0  0  0
    1.3530   47.3007   34.0025 C   0  0  0  0  0  0  0  0  0  0  0  0
    2.0034   48.5757   34.0903 O   0  0  0  0  0  0  0  0  0  0  0  0
    8.8124   40.1845   34.2129 O   0  0  0  0  0  0  0  0  0  0  0  0
   11.2405   40.7948   33.3669 O   0  0  0  0  0  0  0  0  0  0  0  0
   10.9133   40.6866   31.9952 C   0  0  0  0  0  0  0  0  0  0  0  0
   11.5166   39.3787   31.4404 C   0  0  0  0  0  0  0  0  0  0  0  0
   12.7485   39.0849   32.0735 O   0  0  0  0  0  0  0  0  0  0  0  0
   10.6039   38.1884   31.6669 C   0  0  0  0  0  0  0  0  0  0  0  0
   12.9329   37.6776   32.0284 C   0  0  0  0  0  0  0  0  0  0  0  0
    9.6373   38.0938   30.6485 O   0  0  0  0  0  0  0  0  0  0  0  0
   11.5737   37.0141   31.7055 C   0  0  0  0  0  0  0  0  0  0  0  0
   13.4853   37.2120   33.3238 N   0  0  0  0  0  0  0  0  0  0  0  0
   11.6210   36.3379   30.4683 O   0  0  0  0  0  0  0  0  0  0  0  0
   14.4804   36.3319   33.5726 C   0  0  0  0  0  0  0  0  0  0  0  0
   13.1141   37.6274   34.5689 C   0  0  0  0  0  0  0  0  0  0  0  0
   15.2076   35.6152   32.6740 N   0  0  0  0  0  0  0  0  0  0  0  0
   14.6761   36.2306   34.9181 C   0  0  0  0  0  0  0  0  0  0  0  0
   13.8218   37.0451   35.5783 N   0  0  0  0  0  0  0  0  0  0  0  0
   16.1641   34.7600   33.1548 C   0  0  0  0  0  0  0  0  0  0  0  0
   15.6527   35.3506   35.4131 C   0  0  0  0  0  0  0  0  0  0  0  0
   16.3795   34.6315   34.5043 N   0  0  0  0  0  0  0  0  0  0  0  0
   15.9001   35.1933   36.8090 N   0  0  0  0  0  0  0  0  0  0  0  0
    8.9994   45.4381   33.6721 H   0  0  0  0  0  0  0  0  0  0  0  0
   10.7763   46.9370   33.0161 H   0  0  0  0  0  0  0  0  0  0  0  0
   11.0500   46.2277   34.4984 H   0  0  0  0  0  0  0  0  0  0  0  0
   10.7415   44.9077   31.1838 H   0  0  0  0  0  0  0  0  0  0  0  0
    9.3648   43.8354   31.4711 H   0  0  0  0  0  0  0  0  0  0  0  0
    7.0160   44.7152   31.5844 H   0  0  0  0  0  0  0  0  0  0  0  0
   10.3461   47.1875   30.4053 H   0  0  0  0  0  0  0  0  0  0  0  0
    5.4778   46.2717   30.5192 H   0  0  0  0  0  0  0  0  0  0  0  0
    8.7921   48.7684   29.3431 H   0  0  0  0  0  0  0  0  0  0  0  0
    4.4943   49.5916   28.6342 H   0  0  0  0  0  0  0  0  0  0  0  0
    3.1775   47.6214   28.0035 H   0  0  0  0  0  0  0  0  0  0  0  0
    4.5449   46.5309   28.4674 H   0  0  0  0  0  0  0  0  0  0  0  0
    4.7526   47.7200   27.1444 H   0  0  0  0  0  0  0  0  0  0  0  0
    3.0773   46.7011   30.3046 H   0  0  0  0  0  0  0  0  0  0  0  0
    3.6185   50.6918   33.2407 H   0  0  0  0  0  0  0  0  0  0  0  0
    0.2507   47.4305   34.0237 H   0  0  0  0  0  0  0  0  0  0  0  0
    1.6886   46.6415   34.8303 H   0  0  0  0  0  0  0  0  0  0  0  0
   11.3826   41.5438   31.4666 H   0  0  0  0  0  0  0  0  0  0  0  0
    9.8224   40.7224   31.7629 H   0  0  0  0  0  0  0  0  0  0  0  0
   11.6979   39.5036   30.3478 H   0  0  0  0  0  0  0  0  0  0  0  0
   10.1084   38.2786   32.6627 H   0  0  0  0  0  0  0  0  0  0  0  0
   13.6638   37.4473   31.2214 H   0  0  0  0  0  0  0  0  0  0  0  0
    8.9763   37.4191   30.9532 H   0  0  0  0  0  0  0  0  0  0  0  0
   11.2821   36.3054   32.5171 H   0  0  0  0  0  0  0  0  0  0  0  0
   10.8658   35.6935   30.4652 H   0  0  0  0  0  0  0  0  0  0  0  0
   12.3293   38.3523   34.7445 H   0  0  0  0  0  0  0  0  0  0  0  0
   16.7561   34.1778   32.4621 H   0  0  0  0  0  0  0  0  0  0  0  0
   16.6345   34.5300   37.1416 H   0  0  0  0  0  0  0  0  0  0  0  0
   15.3533   35.7361   37.5138 H   0  0  0  0  0  0  0  0  0  0  0  0
  1  2  2  0
  1  3  1  0
  3  4  1  0
  4  5  1  0
  6  1  1  0
  7  6  1  0
  6  8  1  0
  8  9  1  0
  9 10  2  0
 11  9  1  0
 10 12  1  0
 13 11  2  0
 12 14  2  0
 14 13  1  0
 14 15  1  0
 15 16  1  0
 16 17  1  0
 16 18  1  0
 18 19  2  0
 20 18  1  0
 19 21  1  0
 22 20  2  0
 20 23  1  0
 21 24  1  0
 21 25  2  0
 25 22  1  0
 23 26  1  0
 23 27  2  0
 24 28  1  0
 25 29  1  0
 28 29  1  0
  4 30  2  0
  4 31  1  0
 32 31  1  0
 32 33  1  0
 33 34  1  0
 33 35  1  0
 34 36  1  0
 35 37  1  0
 35 38  1  0
 38 36  1  0
 36 39  1  0
 38 40  1  0
 41 39  1  0
 42 39  1  0
 43 41  2  0
 41 44  1  0
 45 42  2  0
 46 43  1  0
 44 47  2  0
 44 45  1  0
 48 46  2  0
 48 47  1  0
 47 49  1  0
  6 50  1  1
  7 51  1  0
  7 52  1  0
  8 53  1  0
  8 54  1  0
 10 55  1  0
 11 56  1  0
 12 57  1  0
 13 58  1  0
 16 59  1  6
 17 60  1  0
 17 61  1  0
 17 62  1  0
 19 63  1  0
 22 64  1  0
 28 65  1  0
 28 66  1  0
 32 67  1  0
 32 68  1  0
 33 69  1  0
 35 70  1  0
 36 71  1  0
 37 72  1  0
 38 73  1  0
 40 74  1  0
 42 75  1  0
 46 76  1  0
 49 77  1  0
 49 78  1  0
M  CHG  3   5  -1  23   1  26  -1
M  END
>  <EmbedRMS>  (309) 
0.0823697386649

$$$$

     RDKit          3D

 78 83  0  0  0  0  0  0  0  0999 V2000
   10.2802   43.7664   33.8246 C   0  0  0  0  0  0  0  0  0  0  0  0
   11.4109   43.5920   34.3665 O   0  0  0  0  0  0  0  0  0  0  0  0
    9.3617   42.7250   33.7343 O   0  0  0  0  0  0  0  0  0  0  0  0
    9.8898   41.2267   34.2939 P   0  0  0  0  0  0  0  0  0  0  0  0
   10.3735   41.4567   35.8831 O   0  0  0  0  0  0  0  0  0  0  0  0
    9.9458   45.0736   33.2106 C   0  0  1  0  0  0  0  0  0  0  0  0
   11.0265   46.0292   33.4703 N   0  0  0  0  0  0  0  0  0  0  0  0
    9.7536   44.8540   31.6942 C   0  0  0  0  0  0  0  0  0  0  0  0
    8.7954   45.8408   31.0836 C   0  0  0  0  0  0  0  0  0  0  0  0
    7.4074   45.6008   31.1023 C   0  0  0  0  0  0  0  0  0  0  0  0
    9.2828   46.9902   30.4409 C   0  0  0  0  0  0  0  0  0  0  0  0
    6.5264   46.5029   30.4899 C   0  0  0  0  0  0  0  0  0  0  0  0
    8.4004   47.8914   29.8335 C   0  0  0  0  0  0  0  0  0  0  0  0
    7.0200   47.6437   29.8419 C   0  0  0  0  0  0  0  0  0  0  0  0
    6.1267   48.5318   29.2340 O   0  0  0  0  0  0  0  0  0  0  0  0
    5.8830   48.6126   27.8227 C   0  0  1  0  0  0  0  0  0  0  0  0
    7.1196   49.0798   27.0460 C   0  0  0  0  0  0  0  0  0  0  0  0
    5.3161   47.3060   27.2747 C   0  0  0  0  0  0  0  0  0  0  0  0
    6.1398   46.1509   27.2402 C   0  0  0  0  0  0  0  0  0  0  0  0
    3.9486   47.1932   26.8534 C   0  0  0  0  0  0  0  0  0  0  0  0
    5.5814   44.9444   26.8407 C   0  0  0  0  0  0  0  0  0  0  0  0
    3.4319   45.9352   26.4690 C   0  0  0  0  0  0  0  0  0  0  0  0
    3.0862   48.3368   26.7847 N   0  0  0  0  0  0  0  0  0  0  0  0
    6.1878   43.7064   26.7498 O   0  0  0  0  0  0  0  0  0  0  0  0
    4.2835   44.8397   26.4769 C   0  0  0  0  0  0  0  0  0  0  0  0
    3.4347   49.4049   25.9905 O   0  0  0  0  0  0  0  0  0  0  0  0
    1.9149   48.2570   27.2086 O   0  0  0  0  0  0  0  0  0  0  0  0
    5.2049   42.7646   26.2987 C   0  0  0  0  0  0  0  0  0  0  0  0
    4.0033   43.5305   26.1359 O   0  0  0  0  0  0  0  0  0  0  0  0
    8.8123   40.1844   34.2133 O   0  0  0  0  0  0  0  0  0  0  0  0
   11.2402   40.7944   33.3688 O   0  0  0  0  0  0  0  0  0  0  0  0
   10.9142   40.6898   31.9970 C   0  0  0  0  0  0  0  0  0  0  0  0
   11.5260   39.3884   31.4376 C   0  0  0  0  0  0  0  0  0  0  0  0
   12.7504   39.0888   32.0816 O   0  0  0  0  0  0  0  0  0  0  0  0
   10.6114   38.1910   31.6460 C   0  0  0  0  0  0  0  0  0  0  0  0
   12.9357   37.6813   32.0303 C   0  0  0  0  0  0  0  0  0  0  0  0
    9.6145   38.0859   30.6533 O   0  0  0  0  0  0  0  0  0  0  0  0
   11.5769   37.0148   31.7012 C   0  0  0  0  0  0  0  0  0  0  0  0
   13.4849   37.2112   33.3247 N   0  0  0  0  0  0  0  0  0  0  0  0
   11.6192   36.3261   30.4724 O   0  0  0  0  0  0  0  0  0  0  0  0
   14.4802   36.3313   33.5730 C   0  0  0  0  0  0  0  0  0  0  0  0
   13.1141   37.6268   34.5698 C   0  0  0  0  0  0  0  0  0  0  0  0
   15.2074   35.6151   32.6741 N   0  0  0  0  0  0  0  0  0  0  0  0
   14.6761   36.2300   34.9184 C   0  0  0  0  0  0  0  0  0  0  0  0
   13.8220   37.0445   35.5789 N   0  0  0  0  0  0  0  0  0  0  0  0
   16.1642   34.7600   33.1547 C   0  0  0  0  0  0  0  0  0  0  0  0
   15.6529   35.3503   35.4131 C   0  0  0  0  0  0  0  0  0  0  0  0
   16.3797   34.6314   34.5042 N   0  0  0  0  0  0  0  0  0  0  0  0
   15.9004   35.1930   36.8090 N   0  0  0  0  0  0  0  0  0  0  0  0
    8.9993   45.4382   33.6715 H   0  0  0  0  0  0  0  0  0  0  0  0
   10.7762   46.9369   33.0156 H   0  0  0  0  0  0  0  0  0  0  0  0
   11.0501   46.2275   34.4977 H   0  0  0  0  0  0  0  0  0  0  0  0
   10.7406   44.9077   31.1827 H   0  0  0  0  0  0  0  0  0  0  0  0
    9.3639   43.8353   31.4706 H   0  0  0  0  0  0  0  0  0  0  0  0
    7.0119   44.7169   31.5872 H   0  0  0  0  0  0  0  0  0  0  0  0
   10.3462   47.1931   30.4128 H   0  0  0  0  0  0  0  0  0  0  0  0
    5.4615   46.3088   30.5064 H   0  0  0  0  0  0  0  0  0  0  0  0
    8.7919   48.7837   29.3636 H   0  0  0  0  0  0  0  0  0  0  0  0
    5.1405   49.4233   27.7070 H   0  0  0  0  0  0  0  0  0  0  0  0
    7.9396   48.3350   27.0893 H   0  0  0  0  0  0  0  0  0  0  0  0
    7.4876   50.0385   27.4688 H   0  0  0  0  0  0  0  0  0  0  0  0
    6.8531   49.2463   25.9805 H   0  0  0  0  0  0  0  0  0  0  0  0
    7.1794   46.1787   27.5356 H   0  0  0  0  0  0  0  0  0  0  0  0
    2.4031   45.8228   26.1517 H   0  0  0  0  0  0  0  0  0  0  0  0
    5.0539   41.9722   27.0615 H   0  0  0  0  0  0  0  0  0  0  0  0
    5.5128   42.3236   25.3275 H   0  0  0  0  0  0  0  0  0  0  0  0
   11.3777   41.5526   31.4723 H   0  0  0  0  0  0  0  0  0  0  0  0
    9.8232   40.7191   31.7644 H   0  0  0  0  0  0  0  0  0  0  0  0
   11.7283   39.5311   30.3515 H   0  0  0  0  0  0  0  0  0  0  0  0
   10.1126   38.2734   32.6376 H   0  0  0  0  0  0  0  0  0  0  0  0
   13.6692   37.4567   31.2242 H   0  0  0  0  0  0  0  0  0  0  0  0
   10.0533   38.1119   29.7635 H   0  0  0  0  0  0  0  0  0  0  0  0
   11.2606   36.3148   32.5102 H   0  0  0  0  0  0  0  0  0  0  0  0
   12.1496   35.5023   30.6324 H   0  0  0  0  0  0  0  0  0  0  0  0
   12.3301   38.3524   34.7455 H   0  0  0  0  0  0  0  0  0  0  0  0
   16.7562   34.1781   32.4619 H   0  0  0  0  0  0  0  0  0  0  0  0
   16.6351   34.5298   37.1415 H   0  0  0  0  0  0  0  0  0  0  0  0
   15.3536   35.7357   37.5139 H   0  0  0  0  0  0  0  0  0  0  0  0
  1  2  2  0
  1  3  1  0
  3  4  1  0
  4  5  1  0
  6  1  1  0
  7  6  1  0
  6  8  1  0
  8  9  1  0
  9 10  2  0
 11  9  1  0
 10 12  1  0
 13 11  2  0
 12 14  2  0
 14 13  1  0
 14 15  1  0
 15 16  1  0
 16 17  1  0
 16 18  1  0
 18 19  2  0
 20 18  1  0
 19 21  1  0
 22 20  2  0
 20 23  1  0
 21 24  1  0
 21 25  2  0
 25 22  1  0
 23 26  1  0
 23 27  2  0
 24 28  1  0
 25 29  1  0
 28 29  1  0
  4 30  2  0
  4 31  1  0
 32 31  1  0
 32 33  1  0
 33 34  1  0
 33 35  1  0
 34 36  1  0
 35 37  1  0
 35 38  1  0
 38 36  1  0
 36 39  1  0
 38 40  1  0
 41 39  1  0
 42 39  1  0
 43 41  2  0
 41 44  1  0
 45 42  2  0
 46 43  1  0
 44 47  2  0
 44 45  1  0
 48 46  2  0
 48 47  1  0
 47 49  1  0
  6 50  1  1
  7 51  1  0
  7 52  1  0
  8 53  1  0
  8 54  1  0
 10 55  1  0
 11 56  1  0
 12 57  1  0
 13 58  1  0
 16 59  1  1
 17 60  1  0
 17 61  1  0
 17 62  1  0
 19 63  1  0
 22 64  1  0
 28 65  1  0
 28 66  1  0
 32 67  1  0
 32 68  1  0
 33 69  1  0
 35 70  1  0
 36 71  1  0
 37 72  1  0
 38 73  1  0
 40 74  1  0
 42 75  1  0
 46 76  1  0
 49 77  1  0
 49 78  1  0
M  CHG  3   5  -1  23   1  26  -1
M  END
>  <EmbedRMS>  (310) 
0.0815735375891

$$$$

     RDKit          3D

 78 83  0  0  0  0  0  0  0  0999 V2000
   10.2804   43.7664   33.8250 C   0  0  0  0  0  0  0  0  0  0  0  0
   11.4111   43.5918   34.3667 O   0  0  0  0  0  0  0  0  0  0  0  0
    9.3619   42.7249   33.7344 O   0  0  0  0  0  0  0  0  0  0  0  0
    9.8903   41.2265   34.2931 P   0  0  0  0  0  0  0  0  0  0  0  0
   10.3742   41.4563   35.8824 O   0  0  0  0  0  0  0  0  0  0  0  0
    9.9460   45.0736   33.2113 C   0  0  1  0  0  0  0  0  0  0  0  0
   11.0267   46.0292   33.4710 N   0  0  0  0  0  0  0  0  0  0  0  0
    9.7541   44.8543   31.6950 C   0  0  0  0  0  0  0  0  0  0  0  0
    8.7958   45.8414   31.0851 C   0  0  0  0  0  0  0  0  0  0  0  0
    7.4092   45.6000   31.1009 C   0  0  0  0  0  0  0  0  0  0  0  0
    9.2824   46.9876   30.4394 C   0  0  0  0  0  0  0  0  0  0  0  0
    6.5257   46.4984   30.4858 C   0  0  0  0  0  0  0  0  0  0  0  0
    8.3997   47.8866   29.8304 C   0  0  0  0  0  0  0  0  0  0  0  0
    7.0177   47.6561   29.8472 C   0  0  0  0  0  0  0  0  0  0  0  0
    6.1847   48.5932   29.2133 O   0  0  0  0  0  0  0  0  0  0  0  0
    4.7535   48.5909   29.2240 C   0  0  1  0  0  0  0  0  0  0  0  0
    4.2353   49.0417   30.5942 C   0  0  0  0  0  0  0  0  0  0  0  0
    4.2467   49.5353   28.1500 C   0  0  0  0  0  0  0  0  0  0  0  0
    4.8748   50.7977   28.0079 C   0  0  0  0  0  0  0  0  0  0  0  0
    3.1817   49.1785   27.2555 C   0  0  0  0  0  0  0  0  0  0  0  0
    4.4632   51.6323   26.9773 C   0  0  0  0  0  0  0  0  0  0  0  0
    2.8189   50.0627   26.2143 C   0  0  0  0  0  0  0  0  0  0  0  0
    2.4492   47.9513   27.3987 N   0  0  0  0  0  0  0  0  0  0  0  0
    4.9369   52.8875   26.6474 O   0  0  0  0  0  0  0  0  0  0  0  0
    3.4830   51.2780   26.1151 C   0  0  0  0  0  0  0  0  0  0  0  0
    1.9976   47.2912   26.2792 O   0  0  0  0  0  0  0  0  0  0  0  0
    2.0133   47.6068   28.5164 O   0  0  0  0  0  0  0  0  0  0  0  0
    4.2050   53.3499   25.5039 C   0  0  0  0  0  0  0  0  0  0  0  0
    3.2869   52.2918   25.1971 O   0  0  0  0  0  0  0  0  0  0  0  0
    8.8124   40.1844   34.2129 O   0  0  0  0  0  0  0  0  0  0  0  0
   11.2405   40.7947   33.3669 O   0  0  0  0  0  0  0  0  0  0  0  0
   10.9133   40.6866   31.9952 C   0  0  0  0  0  0  0  0  0  0  0  0
   11.5166   39.3787   31.4404 C   0  0  0  0  0  0  0  0  0  0  0  0
   12.7485   39.0849   32.0735 O   0  0  0  0  0  0  0  0  0  0  0  0
   10.6039   38.1884   31.6669 C   0  0  0  0  0  0  0  0  0  0  0  0
   12.9329   37.6776   32.0284 C   0  0  0  0  0  0  0  0  0  0  0  0
    9.6373   38.0938   30.6484 O   0  0  0  0  0  0  0  0  0  0  0  0
   11.5737   37.0141   31.7055 C   0  0  0  0  0  0  0  0  0  0  0  0
   13.4853   37.2120   33.3238 N   0  0  0  0  0  0  0  0  0  0  0  0
   11.6210   36.3379   30.4683 O   0  0  0  0  0  0  0  0  0  0  0  0
   14.4804   36.3319   33.5726 C   0  0  0  0  0  0  0  0  0  0  0  0
   13.1141   37.6275   34.5689 C   0  0  0  0  0  0  0  0  0  0  0  0
   15.2076   35.6152   32.6740 N   0  0  0  0  0  0  0  0  0  0  0  0
   14.6761   36.2306   34.9181 C   0  0  0  0  0  0  0  0  0  0  0  0
   13.8218   37.0451   35.5783 N   0  0  0  0  0  0  0  0  0  0  0  0
   16.1641   34.7600   33.1548 C   0  0  0  0  0  0  0  0  0  0  0  0
   15.6527   35.3507   35.4131 C   0  0  0  0  0  0  0  0  0  0  0  0
   16.3795   34.6315   34.5043 N   0  0  0  0  0  0  0  0  0  0  0  0
   15.9000   35.1933   36.8090 N   0  0  0  0  0  0  0  0  0  0  0  0
    8.9996   45.4381   33.6723 H   0  0  0  0  0  0  0  0  0  0  0  0
   11.0502   46.2277   34.4984 H   0  0  0  0  0  0  0  0  0  0  0  0
   10.7765   46.9369   33.0160 H   0  0  0  0  0  0  0  0  0  0  0  0
   10.7413   44.9081   31.1837 H   0  0  0  0  0  0  0  0  0  0  0  0
    9.3647   43.8355   31.4711 H   0  0  0  0  0  0  0  0  0  0  0  0
    7.0155   44.7144   31.5844 H   0  0  0  0  0  0  0  0  0  0  0  0
   10.3463   47.1872   30.4045 H   0  0  0  0  0  0  0  0  0  0  0  0
    5.4694   46.2752   30.5141 H   0  0  0  0  0  0  0  0  0  0  0  0
    8.7923   48.7678   29.3388 H   0  0  0  0  0  0  0  0  0  0  0  0
    4.4022   47.5620   29.0119 H   0  0  0  0  0  0  0  0  0  0  0  0
    4.5541   48.3331   31.3853 H   0  0  0  0  0  0  0  0  0  0  0  0
    4.6306   50.0486   30.8471 H   0  0  0  0  0  0  0  0  0  0  0  0
    3.1253   49.0814   30.5920 H   0  0  0  0  0  0  0  0  0  0  0  0
    5.6722   51.1115   28.6697 H   0  0  0  0  0  0  0  0  0  0  0  0
    2.0235   49.8211   25.5210 H   0  0  0  0  0  0  0  0  0  0  0  0
    4.8938   53.5193   24.6499 H   0  0  0  0  0  0  0  0  0  0  0  0
    3.6500   54.2786   25.7530 H   0  0  0  0  0  0  0  0  0  0  0  0
    9.8224   40.7224   31.7629 H   0  0  0  0  0  0  0  0  0  0  0  0
   11.3826   41.5438   31.4666 H   0  0  0  0  0  0  0  0  0  0  0  0
   11.6979   39.5036   30.3478 H   0  0  0  0  0  0  0  0  0  0  0  0
   10.1084   38.2786   32.6627 H   0  0  0  0  0  0  0  0  0  0  0  0
   13.6638   37.4473   31.2214 H   0  0  0  0  0  0  0  0  0  0  0  0
    8.9763   37.4190   30.9532 H   0  0  0  0  0  0  0  0  0  0  0  0
   11.2821   36.3054   32.5172 H   0  0  0  0  0  0  0  0  0  0  0  0
   10.8658   35.6935   30.4652 H   0  0  0  0  0  0  0  0  0  0  0  0
   12.3293   38.3523   34.7445 H   0  0  0  0  0  0  0  0  0  0  0  0
   16.7561   34.1778   32.4621 H   0  0  0  0  0  0  0  0  0  0  0  0
   15.3533   35.7361   37.5138 H   0  0  0  0  0  0  0  0  0  0  0  0
   16.6345   34.5300   37.1416 H   0  0  0  0  0  0  0  0  0  0  0  0
  1  2  2  0
  1  3  1  0
  3  4  1  0
  4  5  1  0
  6  1  1  0
  7  6  1  0
  6  8  1  0
  8  9  1  0
  9 10  2  0
 11  9  1  0
 10 12  1  0
 13 11  2  0
 12 14  2  0
 14 13  1  0
 14 15  1  0
 15 16  1  0
 16 17  1  0
 16 18  1  0
 18 19  2  0
 20 18  1  0
 19 21  1  0
 22 20  2  0
 20 23  1  0
 21 24  1  0
 21 25  2  0
 25 22  1  0
 23 26  1  0
 23 27  2  0
 24 28  1  0
 25 29  1  0
 28 29  1  0
  4 30  2  0
  4 31  1  0
 32 31  1  0
 32 33  1  0
 33 34  1  0
 33 35  1  0
 34 36  1  0
 35 37  1  0
 35 38  1  0
 38 36  1  0
 36 39  1  0
 38 40  1  0
 41 39  1  0
 42 39  1  0
 43 41  2  0
 41 44  1  0
 45 42  2  0
 46 43  1  0
 44 47  2  0
 44 45  1  0
 48 46  2  0
 48 47  1  0
 47 49  1  0
  6 50  1  1
  7 51  1  0
  7 52  1  0
  8 53  1  0
  8 54  1  0
 10 55  1  0
 11 56  1  0
 12 57  1  0
 13 58  1  0
 16 59  1  6
 17 60  1  0
 17 61  1  0
 17 62  1  0
 19 63  1  0
 22 64  1  0
 28 65  1  0
 28 66  1  0
 32 67  1  0
 32 68  1  0
 33 69  1  0
 35 70  1  0
 36 71  1  0
 37 72  1  0
 38 73  1  0
 40 74  1  0
 42 75  1  0
 46 76  1  0
 49 77  1  0
 49 78  1  0
M  CHG  3   5  -1  23   1  26  -1
M  END
>  <EmbedRMS>  (311) 
0.0823585156163

$$$$

     RDKit          3D

 78 83  0  0  0  0  0  0  0  0999 V2000
   10.2803   43.7664   33.8249 C   0  0  0  0  0  0  0  0  0  0  0  0
   11.4110   43.5920   34.3667 O   0  0  0  0  0  0  0  0  0  0  0  0
    9.3620   42.7248   33.7343 O   0  0  0  0  0  0  0  0  0  0  0  0
    9.8903   41.2265   34.2936 P   0  0  0  0  0  0  0  0  0  0  0  0
   10.3732   41.4565   35.8831 O   0  0  0  0  0  0  0  0  0  0  0  0
    9.9458   45.0736   33.2109 C   0  0  1  0  0  0  0  0  0  0  0  0
   11.0264   46.0293   33.4707 N   0  0  0  0  0  0  0  0  0  0  0  0
    9.7543   44.8538   31.6945 C   0  0  0  0  0  0  0  0  0  0  0  0
    8.7961   45.8402   31.0834 C   0  0  0  0  0  0  0  0  0  0  0  0
    7.4095   45.6005   31.1018 C   0  0  0  0  0  0  0  0  0  0  0  0
    9.2823   46.9877   30.4400 C   0  0  0  0  0  0  0  0  0  0  0  0
    6.5265   46.4998   30.4883 C   0  0  0  0  0  0  0  0  0  0  0  0
    8.3992   47.8880   29.8336 C   0  0  0  0  0  0  0  0  0  0  0  0
    7.0176   47.6537   29.8429 C   0  0  0  0  0  0  0  0  0  0  0  0
    6.1845   48.6015   29.2161 O   0  0  0  0  0  0  0  0  0  0  0  0
    4.8018   48.4497   28.8533 C   0  0  1  0  0  0  0  0  0  0  0  0
    4.6043   47.1774   28.0037 C   0  0  0  0  0  0  0  0  0  0  0  0
    3.8488   48.5414   30.0485 C   0  0  0  0  0  0  0  0  0  0  0  0
    4.3607   48.7732   31.3537 C   0  0  0  0  0  0  0  0  0  0  0  0
    2.4262   48.4137   29.8835 C   0  0  0  0  0  0  0  0  0  0  0  0
    3.4812   48.7737   32.4277 C   0  0  0  0  0  0  0  0  0  0  0  0
    1.5824   48.4051   31.0175 C   0  0  0  0  0  0  0  0  0  0  0  0
    1.8223   48.3366   28.5841 N   0  0  0  0  0  0  0  0  0  0  0  0
    3.7645   48.9519   33.7683 O   0  0  0  0  0  0  0  0  0  0  0  0
    2.1526   48.5871   32.2682 C   0  0  0  0  0  0  0  0  0  0  0  0
    2.1262   49.2785   27.6289 O   0  0  0  0  0  0  0  0  0  0  0  0
    0.8532   47.5736   28.3915 O   0  0  0  0  0  0  0  0  0  0  0  0
    2.5316   48.8678   34.4960 C   0  0  0  0  0  0  0  0  0  0  0  0
    1.5272   48.6354   33.4992 O   0  0  0  0  0  0  0  0  0  0  0  0
    8.8128   40.1841   34.2125 O   0  0  0  0  0  0  0  0  0  0  0  0
   11.2416   40.7945   33.3692 O   0  0  0  0  0  0  0  0  0  0  0  0
   10.9177   40.6904   31.9968 C   0  0  0  0  0  0  0  0  0  0  0  0
   11.5180   39.3813   31.4408 C   0  0  0  0  0  0  0  0  0  0  0  0
   12.7497   39.0870   32.0746 O   0  0  0  0  0  0  0  0  0  0  0  0
   10.6045   38.1891   31.6655 C   0  0  0  0  0  0  0  0  0  0  0  0
   12.9344   37.6801   32.0290 C   0  0  0  0  0  0  0  0  0  0  0  0
    9.6418   38.0758   30.6441 O   0  0  0  0  0  0  0  0  0  0  0  0
   11.5741   37.0170   31.7045 C   0  0  0  0  0  0  0  0  0  0  0  0
   13.4851   37.2126   33.3241 N   0  0  0  0  0  0  0  0  0  0  0  0
   11.6079   36.3407   30.4680 O   0  0  0  0  0  0  0  0  0  0  0  0
   14.4801   36.3321   33.5727 C   0  0  0  0  0  0  0  0  0  0  0  0
   13.1140   37.6277   34.5693 C   0  0  0  0  0  0  0  0  0  0  0  0
   15.2073   35.6155   32.6739 N   0  0  0  0  0  0  0  0  0  0  0  0
   14.6758   36.2306   34.9182 C   0  0  0  0  0  0  0  0  0  0  0  0
   13.8217   37.0451   35.5785 N   0  0  0  0  0  0  0  0  0  0  0  0
   16.1639   34.7602   33.1546 C   0  0  0  0  0  0  0  0  0  0  0  0
   15.6526   35.3506   35.4130 C   0  0  0  0  0  0  0  0  0  0  0  0
   16.3794   34.6316   34.5041 N   0  0  0  0  0  0  0  0  0  0  0  0
   15.9000   35.1933   36.8089 N   0  0  0  0  0  0  0  0  0  0  0  0
    8.9992   45.4381   33.6715 H   0  0  0  0  0  0  0  0  0  0  0  0
   11.0497   46.2278   34.4981 H   0  0  0  0  0  0  0  0  0  0  0  0
   10.7761   46.9369   33.0157 H   0  0  0  0  0  0  0  0  0  0  0  0
   10.7417   44.9075   31.1835 H   0  0  0  0  0  0  0  0  0  0  0  0
    9.3651   43.8349   31.4708 H   0  0  0  0  0  0  0  0  0  0  0  0
    7.0147   44.7206   31.5948 H   0  0  0  0  0  0  0  0  0  0  0  0
   10.3461   47.1885   30.4068 H   0  0  0  0  0  0  0  0  0  0  0  0
    5.4688   46.2997   30.5546 H   0  0  0  0  0  0  0  0  0  0  0  0
    8.7917   48.7712   29.3457 H   0  0  0  0  0  0  0  0  0  0  0  0
    4.5732   49.3157   28.1982 H   0  0  0  0  0  0  0  0  0  0  0  0
    5.5368   46.9346   27.4513 H   0  0  0  0  0  0  0  0  0  0  0  0
    3.8115   47.3282   27.2439 H   0  0  0  0  0  0  0  0  0  0  0  0
    4.3186   46.3050   28.6255 H   0  0  0  0  0  0  0  0  0  0  0  0
    5.4096   48.9459   31.5446 H   0  0  0  0  0  0  0  0  0  0  0  0
    0.5095   48.2983   30.9208 H   0  0  0  0  0  0  0  0  0  0  0  0
    2.3323   49.8230   35.0255 H   0  0  0  0  0  0  0  0  0  0  0  0
    2.5650   48.0196   35.2115 H   0  0  0  0  0  0  0  0  0  0  0  0
   11.3944   41.5458   31.4719 H   0  0  0  0  0  0  0  0  0  0  0  0
    9.8288   40.7385   31.7615 H   0  0  0  0  0  0  0  0  0  0  0  0
   11.6994   39.5068   30.3484 H   0  0  0  0  0  0  0  0  0  0  0  0
   10.1090   38.2634   32.6632 H   0  0  0  0  0  0  0  0  0  0  0  0
   13.6662   37.4515   31.2224 H   0  0  0  0  0  0  0  0  0  0  0  0
    8.9008   38.6923   30.8794 H   0  0  0  0  0  0  0  0  0  0  0  0
   11.2650   36.3083   32.5087 H   0  0  0  0  0  0  0  0  0  0  0  0
   12.1372   35.5141   30.6163 H   0  0  0  0  0  0  0  0  0  0  0  0
   12.3297   38.3530   34.7450 H   0  0  0  0  0  0  0  0  0  0  0  0
   16.7558   34.1781   32.4619 H   0  0  0  0  0  0  0  0  0  0  0  0
   15.3533   35.7360   37.5138 H   0  0  0  0  0  0  0  0  0  0  0  0
   16.6346   34.5300   37.1414 H   0  0  0  0  0  0  0  0  0  0  0  0
  1  2  2  0
  1  3  1  0
  3  4  1  0
  4  5  1  0
  6  1  1  0
  7  6  1  0
  6  8  1  0
  8  9  1  0
  9 10  2  0
 11  9  1  0
 10 12  1  0
 13 11  2  0
 12 14  2  0
 14 13  1  0
 14 15  1  0
 15 16  1  0
 16 17  1  0
 16 18  1  0
 18 19  2  0
 20 18  1  0
 19 21  1  0
 22 20  2  0
 20 23  1  0
 21 24  1  0
 21 25  2  0
 25 22  1  0
 23 26  1  0
 23 27  2  0
 24 28  1  0
 25 29  1  0
 28 29  1  0
  4 30  2  0
  4 31  1  0
 32 31  1  0
 32 33  1  0
 33 34  1  0
 33 35  1  0
 34 36  1  0
 35 37  1  0
 35 38  1  0
 38 36  1  0
 36 39  1  0
 38 40  1  0
 41 39  1  0
 42 39  1  0
 43 41  2  0
 41 44  1  0
 45 42  2  0
 46 43  1  0
 44 47  2  0
 44 45  1  0
 48 46  2  0
 48 47  1  0
 47 49  1  0
  6 50  1  1
  7 51  1  0
  7 52  1  0
  8 53  1  0
  8 54  1  0
 10 55  1  0
 11 56  1  0
 12 57  1  0
 13 58  1  0
 16 59  1  6
 17 60  1  0
 17 61  1  0
 17 62  1  0
 19 63  1  0
 22 64  1  0
 28 65  1  0
 28 66  1  0
 32 67  1  0
 32 68  1  0
 33 69  1  0
 35 70  1  0
 36 71  1  0
 37 72  1  0
 38 73  1  0
 40 74  1  0
 42 75  1  0
 46 76  1  0
 49 77  1  0
 49 78  1  0
M  CHG  3   5  -1  23   1  26  -1
M  END
>  <EmbedRMS>  (312) 
0.0826701255235

$$$$

     RDKit          3D

 78 83  0  0  0  0  0  0  0  0999 V2000
   10.2839   43.7626   33.8275 C   0  0  0  0  0  0  0  0  0  0  0  0
   11.4103   43.5863   34.3766 O   0  0  0  0  0  0  0  0  0  0  0  0
    9.3631   42.7236   33.7353 O   0  0  0  0  0  0  0  0  0  0  0  0
    9.8894   41.2249   34.2944 P   0  0  0  0  0  0  0  0  0  0  0  0
   10.3726   41.4547   35.8838 O   0  0  0  0  0  0  0  0  0  0  0  0
    9.9549   45.0700   33.2063 C   0  0  1  0  0  0  0  0  0  0  0  0
   11.0198   46.0481   33.4571 N   0  0  0  0  0  0  0  0  0  0  0  0
    9.7506   44.8511   31.6922 C   0  0  0  0  0  0  0  0  0  0  0  0
    8.7944   45.8419   31.0870 C   0  0  0  0  0  0  0  0  0  0  0  0
    7.4077   45.6006   31.1007 C   0  0  0  0  0  0  0  0  0  0  0  0
    9.2826   46.9895   30.4449 C   0  0  0  0  0  0  0  0  0  0  0  0
    6.5259   46.5001   30.4858 C   0  0  0  0  0  0  0  0  0  0  0  0
    8.4008   47.8884   29.8335 C   0  0  0  0  0  0  0  0  0  0  0  0
    7.0194   47.6543   29.8445 C   0  0  0  0  0  0  0  0  0  0  0  0
    6.1826   48.5854   29.2079 O   0  0  0  0  0  0  0  0  0  0  0  0
    4.7621   48.4717   29.0796 C   0  0  1  0  0  0  0  0  0  0  0  0
    4.2133   49.7848   28.5265 C   0  0  0  0  0  0  0  0  0  0  0  0
    4.3862   47.3300   28.1484 C   0  0  0  0  0  0  0  0  0  0  0  0
    5.1829   47.0988   26.9992 C   0  0  0  0  0  0  0  0  0  0  0  0
    3.1983   46.5500   28.3429 C   0  0  0  0  0  0  0  0  0  0  0  0
    4.7923   46.1077   26.1084 C   0  0  0  0  0  0  0  0  0  0  0  0
    2.8421   45.5667   27.3938 C   0  0  0  0  0  0  0  0  0  0  0  0
    2.3341   46.7570   29.4682 N   0  0  0  0  0  0  0  0  0  0  0  0
    5.4128   45.7101   24.9398 O   0  0  0  0  0  0  0  0  0  0  0  0
    3.6712   45.3745   26.2969 C   0  0  0  0  0  0  0  0  0  0  0  0
    0.9733   46.8073   29.2742 O   0  0  0  0  0  0  0  0  0  0  0  0
    2.7707   46.6006   30.6266 O   0  0  0  0  0  0  0  0  0  0  0  0
    4.6308   44.6570   24.3600 C   0  0  0  0  0  0  0  0  0  0  0  0
    3.5276   44.4750   25.2582 O   0  0  0  0  0  0  0  0  0  0  0  0
    8.8113   40.1834   34.2129 O   0  0  0  0  0  0  0  0  0  0  0  0
   11.2402   40.7930   33.3696 O   0  0  0  0  0  0  0  0  0  0  0  0
   10.9151   40.6903   31.9975 C   0  0  0  0  0  0  0  0  0  0  0  0
   11.5252   39.3886   31.4375 C   0  0  0  0  0  0  0  0  0  0  0  0
   12.7500   39.0873   32.0798 O   0  0  0  0  0  0  0  0  0  0  0  0
   10.6092   38.1926   31.6469 C   0  0  0  0  0  0  0  0  0  0  0  0
   12.9332   37.6792   32.0294 C   0  0  0  0  0  0  0  0  0  0  0  0
    9.6122   38.0894   30.6542 O   0  0  0  0  0  0  0  0  0  0  0  0
   11.5743   37.0144   31.7023 C   0  0  0  0  0  0  0  0  0  0  0  0
   13.4844   37.2107   33.3241 N   0  0  0  0  0  0  0  0  0  0  0  0
   11.6297   36.3239   30.4740 O   0  0  0  0  0  0  0  0  0  0  0  0
   14.4802   36.3313   33.5726 C   0  0  0  0  0  0  0  0  0  0  0  0
   13.1138   37.6267   34.5692 C   0  0  0  0  0  0  0  0  0  0  0  0
   15.2075   35.6149   32.6739 N   0  0  0  0  0  0  0  0  0  0  0  0
   14.6761   36.2303   34.9181 C   0  0  0  0  0  0  0  0  0  0  0  0
   13.8220   37.0447   35.5784 N   0  0  0  0  0  0  0  0  0  0  0  0
   16.1643   34.7600   33.1547 C   0  0  0  0  0  0  0  0  0  0  0  0
   15.6529   35.3505   35.4130 C   0  0  0  0  0  0  0  0  0  0  0  0
   16.3798   34.6315   34.5042 N   0  0  0  0  0  0  0  0  0  0  0  0
   15.9003   35.1932   36.8090 N   0  0  0  0  0  0  0  0  0  0  0  0
    9.0099   45.4348   33.6669 H   0  0  0  0  0  0  0  0  0  0  0  0
   11.9349   45.6933   33.0928 H   0  0  0  0  0  0  0  0  0  0  0  0
   11.1133   46.1992   34.4884 H   0  0  0  0  0  0  0  0  0  0  0  0
   10.7309   44.8932   31.1675 H   0  0  0  0  0  0  0  0  0  0  0  0
    9.3518   43.8345   31.4758 H   0  0  0  0  0  0  0  0  0  0  0  0
    7.0125   44.7152   31.5834 H   0  0  0  0  0  0  0  0  0  0  0  0
   10.3466   47.1898   30.4153 H   0  0  0  0  0  0  0  0  0  0  0  0
    5.4683   46.2851   30.5155 H   0  0  0  0  0  0  0  0  0  0  0  0
    8.7936   48.7697   29.3425 H   0  0  0  0  0  0  0  0  0  0  0  0
    4.3329   48.3415   30.0917 H   0  0  0  0  0  0  0  0  0  0  0  0
    3.1065   49.7332   28.4413 H   0  0  0  0  0  0  0  0  0  0  0  0
    4.4752   50.6194   29.2109 H   0  0  0  0  0  0  0  0  0  0  0  0
    4.6458   49.9977   27.5253 H   0  0  0  0  0  0  0  0  0  0  0  0
    6.0727   47.6818   26.7983 H   0  0  0  0  0  0  0  0  0  0  0  0
    1.9500   44.9656   27.5152 H   0  0  0  0  0  0  0  0  0  0  0  0
    4.2626   44.9595   23.3573 H   0  0  0  0  0  0  0  0  0  0  0  0
    5.2300   43.7247   24.2953 H   0  0  0  0  0  0  0  0  0  0  0  0
    9.8243   40.7217   31.7640 H   0  0  0  0  0  0  0  0  0  0  0  0
   11.3806   41.5528   31.4740 H   0  0  0  0  0  0  0  0  0  0  0  0
   11.7265   39.5311   30.3512 H   0  0  0  0  0  0  0  0  0  0  0  0
   10.1110   38.2746   32.6387 H   0  0  0  0  0  0  0  0  0  0  0  0
   13.6652   37.4518   31.2226 H   0  0  0  0  0  0  0  0  0  0  0  0
   10.0511   38.1142   29.7644 H   0  0  0  0  0  0  0  0  0  0  0  0
   11.2762   36.3141   32.5189 H   0  0  0  0  0  0  0  0  0  0  0  0
   10.8593   35.6977   30.4639 H   0  0  0  0  0  0  0  0  0  0  0  0
   12.3294   38.3518   34.7449 H   0  0  0  0  0  0  0  0  0  0  0  0
   16.7564   34.1780   32.4620 H   0  0  0  0  0  0  0  0  0  0  0  0
   15.3534   35.7359   37.5138 H   0  0  0  0  0  0  0  0  0  0  0  0
   16.6349   34.5300   37.1415 H   0  0  0  0  0  0  0  0  0  0  0  0
  1  2  2  0
  1  3  1  0
  3  4  1  0
  4  5  1  0
  6  1  1  0
  7  6  1  0
  6  8  1  0
  8  9  1  0
  9 10  2  0
 11  9  1  0
 10 12  1  0
 13 11  2  0
 12 14  2  0
 14 13  1  0
 14 15  1  0
 15 16  1  0
 16 17  1  0
 16 18  1  0
 18 19  2  0
 20 18  1  0
 19 21  1  0
 22 20  2  0
 20 23  1  0
 21 24  1  0
 21 25  2  0
 25 22  1  0
 23 26  1  0
 23 27  2  0
 24 28  1  0
 25 29  1  0
 28 29  1  0
  4 30  2  0
  4 31  1  0
 32 31  1  0
 32 33  1  0
 33 34  1  0
 33 35  1  0
 34 36  1  0
 35 37  1  0
 35 38  1  0
 38 36  1  0
 36 39  1  0
 38 40  1  0
 41 39  1  0
 42 39  1  0
 43 41  2  0
 41 44  1  0
 45 42  2  0
 46 43  1  0
 44 47  2  0
 44 45  1  0
 48 46  2  0
 48 47  1  0
 47 49  1  0
  6 50  1  1
  7 51  1  0
  7 52  1  0
  8 53  1  0
  8 54  1  0
 10 55  1  0
 11 56  1  0
 12 57  1  0
 13 58  1  0
 16 59  1  1
 17 60  1  0
 17 61  1  0
 17 62  1  0
 19 63  1  0
 22 64  1  0
 28 65  1  0
 28 66  1  0
 32 67  1  0
 32 68  1  0
 33 69  1  0
 35 70  1  0
 36 71  1  0
 37 72  1  0
 38 73  1  0
 40 74  1  0
 42 75  1  0
 46 76  1  0
 49 77  1  0
 49 78  1  0
M  CHG  3   5  -1  23   1  26  -1
M  END
>  <EmbedRMS>  (313) 
0.0827122255087

$$$$

     RDKit          3D

 78 83  0  0  0  0  0  0  0  0999 V2000
   10.2836   43.7661   33.8255 C   0  0  0  0  0  0  0  0  0  0  0  0
   11.4103   43.5930   34.3753 O   0  0  0  0  0  0  0  0  0  0  0  0
    9.3640   42.7253   33.7346 O   0  0  0  0  0  0  0  0  0  0  0  0
    9.8908   41.2265   34.2938 P   0  0  0  0  0  0  0  0  0  0  0  0
   10.3732   41.4559   35.8835 O   0  0  0  0  0  0  0  0  0  0  0  0
    9.9548   45.0694   33.2035 C   0  0  1  0  0  0  0  0  0  0  0  0
   11.0273   46.0322   33.4759 N   0  0  0  0  0  0  0  0  0  0  0  0
    9.7471   44.8483   31.6875 C   0  0  0  0  0  0  0  0  0  0  0  0
    8.7925   45.8409   31.0844 C   0  0  0  0  0  0  0  0  0  0  0  0
    7.4058   45.6011   31.0996 C   0  0  0  0  0  0  0  0  0  0  0  0
    9.2816   46.9882   30.4425 C   0  0  0  0  0  0  0  0  0  0  0  0
    6.5247   46.5013   30.4854 C   0  0  0  0  0  0  0  0  0  0  0  0
    8.4003   47.8885   29.8327 C   0  0  0  0  0  0  0  0  0  0  0  0
    7.0188   47.6556   29.8446 C   0  0  0  0  0  0  0  0  0  0  0  0
    6.1823   48.5878   29.2092 O   0  0  0  0  0  0  0  0  0  0  0  0
    4.7612   48.4777   29.0846 C   0  0  1  0  0  0  0  0  0  0  0  0
    4.2144   49.7915   28.5315 C   0  0  0  0  0  0  0  0  0  0  0  0
    4.3785   47.3359   28.1571 C   0  0  0  0  0  0  0  0  0  0  0  0
    5.1780   47.0869   27.0137 C   0  0  0  0  0  0  0  0  0  0  0  0
    3.1806   46.5734   28.3513 C   0  0  0  0  0  0  0  0  0  0  0  0
    4.7805   46.0926   26.1293 C   0  0  0  0  0  0  0  0  0  0  0  0
    2.8182   45.5841   27.4100 C   0  0  0  0  0  0  0  0  0  0  0  0
    2.3183   46.8033   29.4735 N   0  0  0  0  0  0  0  0  0  0  0  0
    5.4021   45.6781   24.9672 O   0  0  0  0  0  0  0  0  0  0  0  0
    3.6505   45.3732   26.3188 C   0  0  0  0  0  0  0  0  0  0  0  0
    2.7886   46.6041   30.7504 O   0  0  0  0  0  0  0  0  0  0  0  0
    1.0876   46.9090   29.2947 O   0  0  0  0  0  0  0  0  0  0  0  0
    4.6114   44.6285   24.3928 C   0  0  0  0  0  0  0  0  0  0  0  0
    3.5020   44.4662   25.2873 O   0  0  0  0  0  0  0  0  0  0  0  0
    8.8127   40.1848   34.2122 O   0  0  0  0  0  0  0  0  0  0  0  0
   11.2420   40.7941   33.3697 O   0  0  0  0  0  0  0  0  0  0  0  0
   10.9187   40.6911   31.9971 C   0  0  0  0  0  0  0  0  0  0  0  0
   11.5172   39.3815   31.4407 C   0  0  0  0  0  0  0  0  0  0  0  0
   12.7493   39.0855   32.0728 O   0  0  0  0  0  0  0  0  0  0  0  0
   10.6023   38.1908   31.6665 C   0  0  0  0  0  0  0  0  0  0  0  0
   12.9319   37.6781   32.0281 C   0  0  0  0  0  0  0  0  0  0  0  0
    9.6392   38.0798   30.6452 O   0  0  0  0  0  0  0  0  0  0  0  0
   11.5715   37.0165   31.7056 C   0  0  0  0  0  0  0  0  0  0  0  0
   13.4847   37.2121   33.3235 N   0  0  0  0  0  0  0  0  0  0  0  0
   11.6186   36.3383   30.4695 O   0  0  0  0  0  0  0  0  0  0  0  0
   14.4801   36.3321   33.5724 C   0  0  0  0  0  0  0  0  0  0  0  0
   13.1137   37.6276   34.5687 C   0  0  0  0  0  0  0  0  0  0  0  0
   15.2073   35.6153   32.6738 N   0  0  0  0  0  0  0  0  0  0  0  0
   14.6759   36.2308   34.9179 C   0  0  0  0  0  0  0  0  0  0  0  0
   13.8217   37.0453   35.5780 N   0  0  0  0  0  0  0  0  0  0  0  0
   16.1640   34.7601   33.1546 C   0  0  0  0  0  0  0  0  0  0  0  0
   15.6526   35.3508   35.4129 C   0  0  0  0  0  0  0  0  0  0  0  0
   16.3794   34.6317   34.5041 N   0  0  0  0  0  0  0  0  0  0  0  0
   15.8999   35.1935   36.8088 N   0  0  0  0  0  0  0  0  0  0  0  0
    9.0121   45.4316   33.6712 H   0  0  0  0  0  0  0  0  0  0  0  0
   11.8908   45.7659   32.9475 H   0  0  0  0  0  0  0  0  0  0  0  0
   10.7260   46.9688   33.1215 H   0  0  0  0  0  0  0  0  0  0  0  0
    9.3425   43.8331   31.4757 H   0  0  0  0  0  0  0  0  0  0  0  0
   10.7235   44.8824   31.1556 H   0  0  0  0  0  0  0  0  0  0  0  0
    7.0100   44.7159   31.5823 H   0  0  0  0  0  0  0  0  0  0  0  0
   10.3459   47.1867   30.4107 H   0  0  0  0  0  0  0  0  0  0  0  0
    5.4670   46.2871   30.5152 H   0  0  0  0  0  0  0  0  0  0  0  0
    8.7936   48.7696   29.3418 H   0  0  0  0  0  0  0  0  0  0  0  0
    4.3334   48.3476   30.0976 H   0  0  0  0  0  0  0  0  0  0  0  0
    4.4814   50.6265   29.2135 H   0  0  0  0  0  0  0  0  0  0  0  0
    3.1071   49.7434   28.4504 H   0  0  0  0  0  0  0  0  0  0  0  0
    4.6438   50.0011   27.5282 H   0  0  0  0  0  0  0  0  0  0  0  0
    6.0753   47.6580   26.8125 H   0  0  0  0  0  0  0  0  0  0  0  0
    1.9188   44.9944   27.5327 H   0  0  0  0  0  0  0  0  0  0  0  0
    4.2512   44.9262   23.3857 H   0  0  0  0  0  0  0  0  0  0  0  0
    5.2007   43.6892   24.3390 H   0  0  0  0  0  0  0  0  0  0  0  0
    9.8299   40.7410   31.7613 H   0  0  0  0  0  0  0  0  0  0  0  0
   11.3968   41.5460   31.4728 H   0  0  0  0  0  0  0  0  0  0  0  0
   11.6974   39.5067   30.3481 H   0  0  0  0  0  0  0  0  0  0  0  0
   10.1076   38.2648   32.6645 H   0  0  0  0  0  0  0  0  0  0  0  0
   13.6621   37.4467   31.2208 H   0  0  0  0  0  0  0  0  0  0  0  0
    8.8975   38.6944   30.8830 H   0  0  0  0  0  0  0  0  0  0  0  0
   11.2806   36.3073   32.5171 H   0  0  0  0  0  0  0  0  0  0  0  0
   10.8492   35.7110   30.4586 H   0  0  0  0  0  0  0  0  0  0  0  0
   12.3291   38.3525   34.7444 H   0  0  0  0  0  0  0  0  0  0  0  0
   16.7559   34.1780   32.4620 H   0  0  0  0  0  0  0  0  0  0  0  0
   15.3531   35.7363   37.5137 H   0  0  0  0  0  0  0  0  0  0  0  0
   16.6344   34.5301   37.1414 H   0  0  0  0  0  0  0  0  0  0  0  0
  1  2  2  0
  1  3  1  0
  3  4  1  0
  4  5  1  0
  6  1  1  0
  7  6  1  0
  6  8  1  0
  8  9  1  0
  9 10  2  0
 11  9  1  0
 10 12  1  0
 13 11  2  0
 12 14  2  0
 14 13  1  0
 14 15  1  0
 15 16  1  0
 16 17  1  0
 16 18  1  0
 18 19  2  0
 20 18  1  0
 19 21  1  0
 22 20  2  0
 20 23  1  0
 21 24  1  0
 21 25  2  0
 25 22  1  0
 23 26  1  0
 23 27  2  0
 24 28  1  0
 25 29  1  0
 28 29  1  0
  4 30  2  0
  4 31  1  0
 32 31  1  0
 32 33  1  0
 33 34  1  0
 33 35  1  0
 34 36  1  0
 35 37  1  0
 35 38  1  0
 38 36  1  0
 36 39  1  0
 38 40  1  0
 41 39  1  0
 42 39  1  0
 43 41  2  0
 41 44  1  0
 45 42  2  0
 46 43  1  0
 44 47  2  0
 44 45  1  0
 48 46  2  0
 48 47  1  0
 47 49  1  0
  6 50  1  1
  7 51  1  0
  7 52  1  0
  8 53  1  0
  8 54  1  0
 10 55  1  0
 11 56  1  0
 12 57  1  0
 13 58  1  0
 16 59  1  1
 17 60  1  0
 17 61  1  0
 17 62  1  0
 19 63  1  0
 22 64  1  0
 28 65  1  0
 28 66  1  0
 32 67  1  0
 32 68  1  0
 33 69  1  0
 35 70  1  0
 36 71  1  0
 37 72  1  0
 38 73  1  0
 40 74  1  0
 42 75  1  0
 46 76  1  0
 49 77  1  0
 49 78  1  0
M  CHG  3   5  -1  23   1  26  -1
M  END
>  <EmbedRMS>  (314) 
0.082936689673

$$$$

     RDKit          3D

 78 83  0  0  0  0  0  0  0  0999 V2000
   10.2834   43.7662   33.8257 C   0  0  0  0  0  0  0  0  0  0  0  0
   11.4101   43.5930   34.3752 O   0  0  0  0  0  0  0  0  0  0  0  0
    9.3636   42.7255   33.7349 O   0  0  0  0  0  0  0  0  0  0  0  0
    9.8905   41.2266   34.2934 P   0  0  0  0  0  0  0  0  0  0  0  0
   10.3744   41.4557   35.8827 O   0  0  0  0  0  0  0  0  0  0  0  0
    9.9546   45.0694   33.2035 C   0  0  1  0  0  0  0  0  0  0  0  0
   11.0273   46.0321   33.4756 N   0  0  0  0  0  0  0  0  0  0  0  0
    9.7467   44.8479   31.6876 C   0  0  0  0  0  0  0  0  0  0  0  0
    8.7924   45.8404   31.0841 C   0  0  0  0  0  0  0  0  0  0  0  0
    7.4058   45.6016   31.0993 C   0  0  0  0  0  0  0  0  0  0  0  0
    9.2820   46.9876   30.4426 C   0  0  0  0  0  0  0  0  0  0  0  0
    6.5271   46.5036   30.4848 C   0  0  0  0  0  0  0  0  0  0  0  0
    8.4033   47.8906   29.8324 C   0  0  0  0  0  0  0  0  0  0  0  0
    7.0134   47.6527   29.8456 C   0  0  0  0  0  0  0  0  0  0  0  0
    6.0815   48.5210   29.2528 O   0  0  0  0  0  0  0  0  0  0  0  0
    6.3872   49.6708   28.4591 C   0  0  1  0  0  0  0  0  0  0  0  0
    6.8876   49.2454   27.0720 C   0  0  0  0  0  0  0  0  0  0  0  0
    5.1353   50.5206   28.3310 C   0  0  0  0  0  0  0  0  0  0  0  0
    3.9743   49.9336   27.7681 C   0  0  0  0  0  0  0  0  0  0  0  0
    5.0995   51.9018   28.7202 C   0  0  0  0  0  0  0  0  0  0  0  0
    2.8539   50.7305   27.5728 C   0  0  0  0  0  0  0  0  0  0  0  0
    3.9370   52.6676   28.4798 C   0  0  0  0  0  0  0  0  0  0  0  0
    6.2093   52.5333   29.3733 N   0  0  0  0  0  0  0  0  0  0  0  0
    1.6311   50.3766   27.0358 O   0  0  0  0  0  0  0  0  0  0  0  0
    2.8382   52.0410   27.9077 C   0  0  0  0  0  0  0  0  0  0  0  0
    6.5642   53.8148   29.0212 O   0  0  0  0  0  0  0  0  0  0  0  0
    6.6614   52.0528   30.4330 O   0  0  0  0  0  0  0  0  0  0  0  0
    0.7947   51.5416   27.0344 C   0  0  0  0  0  0  0  0  0  0  0  0
    1.6045   52.5816   27.5998 O   0  0  0  0  0  0  0  0  0  0  0  0
    8.8122   40.1850   34.2128 O   0  0  0  0  0  0  0  0  0  0  0  0
   11.2403   40.7946   33.3668 O   0  0  0  0  0  0  0  0  0  0  0  0
   10.9126   40.6859   31.9954 C   0  0  0  0  0  0  0  0  0  0  0  0
   11.5175   39.3787   31.4405 C   0  0  0  0  0  0  0  0  0  0  0  0
   12.7490   39.0864   32.0752 O   0  0  0  0  0  0  0  0  0  0  0  0
   10.6061   38.1868   31.6656 C   0  0  0  0  0  0  0  0  0  0  0  0
   12.9356   37.6796   32.0292 C   0  0  0  0  0  0  0  0  0  0  0  0
    9.6399   38.0903   30.6471 O   0  0  0  0  0  0  0  0  0  0  0  0
   11.5765   37.0145   31.7044 C   0  0  0  0  0  0  0  0  0  0  0  0
   13.4858   37.2125   33.3244 N   0  0  0  0  0  0  0  0  0  0  0  0
   11.6101   36.3397   30.4673 O   0  0  0  0  0  0  0  0  0  0  0  0
   14.4805   36.3319   33.5729 C   0  0  0  0  0  0  0  0  0  0  0  0
   13.1143   37.6276   34.5694 C   0  0  0  0  0  0  0  0  0  0  0  0
   15.2076   35.6153   32.6741 N   0  0  0  0  0  0  0  0  0  0  0  0
   14.6760   36.2304   34.9184 C   0  0  0  0  0  0  0  0  0  0  0  0
   13.8219   37.0449   35.5786 N   0  0  0  0  0  0  0  0  0  0  0  0
   16.1641   34.7600   33.1548 C   0  0  0  0  0  0  0  0  0  0  0  0
   15.6528   35.3505   35.4132 C   0  0  0  0  0  0  0  0  0  0  0  0
   16.3795   34.6314   34.5043 N   0  0  0  0  0  0  0  0  0  0  0  0
   15.9002   35.1931   36.8091 N   0  0  0  0  0  0  0  0  0  0  0  0
    9.0120   45.4318   33.6713 H   0  0  0  0  0  0  0  0  0  0  0  0
   10.7259   46.9687   33.1213 H   0  0  0  0  0  0  0  0  0  0  0  0
   11.8906   45.7658   32.9469 H   0  0  0  0  0  0  0  0  0  0  0  0
    9.3416   43.8327   31.4763 H   0  0  0  0  0  0  0  0  0  0  0  0
   10.7231   44.8813   31.1557 H   0  0  0  0  0  0  0  0  0  0  0  0
    7.0085   44.7172   31.5820 H   0  0  0  0  0  0  0  0  0  0  0  0
   10.3466   47.1853   30.4136 H   0  0  0  0  0  0  0  0  0  0  0  0
    5.4625   46.3075   30.5043 H   0  0  0  0  0  0  0  0  0  0  0  0
    8.8215   48.7658   29.3579 H   0  0  0  0  0  0  0  0  0  0  0  0
    7.1971   50.2487   28.9401 H   0  0  0  0  0  0  0  0  0  0  0  0
    7.0460   50.1402   26.4328 H   0  0  0  0  0  0  0  0  0  0  0  0
    7.8533   48.7064   27.1552 H   0  0  0  0  0  0  0  0  0  0  0  0
    6.1590   48.5701   26.5764 H   0  0  0  0  0  0  0  0  0  0  0  0
    3.9496   48.8907   27.4792 H   0  0  0  0  0  0  0  0  0  0  0  0
    3.8843   53.7125   28.7574 H   0  0  0  0  0  0  0  0  0  0  0  0
    0.5039   51.8044   25.9957 H   0  0  0  0  0  0  0  0  0  0  0  0
   -0.1035   51.3704   27.6640 H   0  0  0  0  0  0  0  0  0  0  0  0
   11.3803   41.5437   31.4663 H   0  0  0  0  0  0  0  0  0  0  0  0
    9.8215   40.7199   31.7636 H   0  0  0  0  0  0  0  0  0  0  0  0
   11.6998   39.5041   30.3482 H   0  0  0  0  0  0  0  0  0  0  0  0
   10.1085   38.2766   32.6603 H   0  0  0  0  0  0  0  0  0  0  0  0
   13.6680   37.4520   31.2229 H   0  0  0  0  0  0  0  0  0  0  0  0
    9.0016   37.3868   30.9349 H   0  0  0  0  0  0  0  0  0  0  0  0
   11.2667   36.3062   32.5083 H   0  0  0  0  0  0  0  0  0  0  0  0
   12.1389   35.5126   30.6150 H   0  0  0  0  0  0  0  0  0  0  0  0
   12.3300   38.3529   34.7450 H   0  0  0  0  0  0  0  0  0  0  0  0
   16.7560   34.1779   32.4620 H   0  0  0  0  0  0  0  0  0  0  0  0
   16.6347   34.5298   37.1416 H   0  0  0  0  0  0  0  0  0  0  0  0
   15.3534   35.7359   37.5140 H   0  0  0  0  0  0  0  0  0  0  0  0
  1  2  2  0
  1  3  1  0
  3  4  1  0
  4  5  1  0
  6  1  1  0
  7  6  1  0
  6  8  1  0
  8  9  1  0
  9 10  2  0
 11  9  1  0
 10 12  1  0
 13 11  2  0
 12 14  2  0
 14 13  1  0
 14 15  1  0
 15 16  1  0
 16 17  1  0
 16 18  1  0
 18 19  2  0
 20 18  1  0
 19 21  1  0
 22 20  2  0
 20 23  1  0
 21 24  1  0
 21 25  2  0
 25 22  1  0
 23 26  1  0
 23 27  2  0
 24 28  1  0
 25 29  1  0
 28 29  1  0
  4 30  2  0
  4 31  1  0
 32 31  1  0
 32 33  1  0
 33 34  1  0
 33 35  1  0
 34 36  1  0
 35 37  1  0
 35 38  1  0
 38 36  1  0
 36 39  1  0
 38 40  1  0
 41 39  1  0
 42 39  1  0
 43 41  2  0
 41 44  1  0
 45 42  2  0
 46 43  1  0
 44 47  2  0
 44 45  1  0
 48 46  2  0
 48 47  1  0
 47 49  1  0
  6 50  1  1
  7 51  1  0
  7 52  1  0
  8 53  1  0
  8 54  1  0
 10 55  1  0
 11 56  1  0
 12 57  1  0
 13 58  1  0
 16 59  1  1
 17 60  1  0
 17 61  1  0
 17 62  1  0
 19 63  1  0
 22 64  1  0
 28 65  1  0
 28 66  1  0
 32 67  1  0
 32 68  1  0
 33 69  1  0
 35 70  1  0
 36 71  1  0
 37 72  1  0
 38 73  1  0
 40 74  1  0
 42 75  1  0
 46 76  1  0
 49 77  1  0
 49 78  1  0
M  CHG  3   5  -1  23   1  26  -1
M  END
>  <EmbedRMS>  (315) 
0.0823982554311

$$$$

     RDKit          3D

 78 83  0  0  0  0  0  0  0  0999 V2000
   10.2835   43.7631   33.8276 C   0  0  0  0  0  0  0  0  0  0  0  0
   11.4100   43.5868   34.3765 O   0  0  0  0  0  0  0  0  0  0  0  0
    9.3629   42.7239   33.7354 O   0  0  0  0  0  0  0  0  0  0  0  0
    9.8893   41.2251   34.2943 P   0  0  0  0  0  0  0  0  0  0  0  0
   10.3728   41.4548   35.8837 O   0  0  0  0  0  0  0  0  0  0  0  0
    9.9542   45.0705   33.2063 C   0  0  1  0  0  0  0  0  0  0  0  0
   11.0189   46.0489   33.4569 N   0  0  0  0  0  0  0  0  0  0  0  0
    9.7500   44.8513   31.6923 C   0  0  0  0  0  0  0  0  0  0  0  0
    8.7941   45.8418   31.0864 C   0  0  0  0  0  0  0  0  0  0  0  0
    7.4061   45.5992   31.0980 C   0  0  0  0  0  0  0  0  0  0  0  0
    9.2840   46.9891   30.4421 C   0  0  0  0  0  0  0  0  0  0  0  0
    6.5260   46.4998   30.4815 C   0  0  0  0  0  0  0  0  0  0  0  0
    8.4025   47.8881   29.8302 C   0  0  0  0  0  0  0  0  0  0  0  0
    7.0207   47.6534   29.8581 C   0  0  0  0  0  0  0  0  0  0  0  0
    6.1449   48.5484   29.2389 O   0  0  0  0  0  0  0  0  0  0  0  0
    5.5988   49.7057   29.8802 C   0  0  1  0  0  0  0  0  0  0  0  0
    4.4907   49.3262   30.8679 C   0  0  0  0  0  0  0  0  0  0  0  0
    6.6944   50.6166   30.4343 C   0  0  0  0  0  0  0  0  0  0  0  0
    7.1903   51.6226   29.5669 C   0  0  0  0  0  0  0  0  0  0  0  0
    7.3163   50.4498   31.7208 C   0  0  0  0  0  0  0  0  0  0  0  0
    8.2524   52.4104   29.9908 C   0  0  0  0  0  0  0  0  0  0  0  0
    8.3982   51.2750   32.0944 C   0  0  0  0  0  0  0  0  0  0  0  0
    6.8713   49.4721   32.6621 N   0  0  0  0  0  0  0  0  0  0  0  0
    8.8864   53.4340   29.3132 O   0  0  0  0  0  0  0  0  0  0  0  0
    8.8321   52.2426   31.2004 C   0  0  0  0  0  0  0  0  0  0  0  0
    7.7075   48.4275   32.9781 O   0  0  0  0  0  0  0  0  0  0  0  0
    5.9716   49.7815   33.4696 O   0  0  0  0  0  0  0  0  0  0  0  0
    9.9303   53.9419   30.1554 C   0  0  0  0  0  0  0  0  0  0  0  0
    9.8605   53.1528   31.3508 O   0  0  0  0  0  0  0  0  0  0  0  0
    8.8113   40.1835   34.2130 O   0  0  0  0  0  0  0  0  0  0  0  0
   11.2399   40.7934   33.3692 O   0  0  0  0  0  0  0  0  0  0  0  0
   10.9143   40.6896   31.9973 C   0  0  0  0  0  0  0  0  0  0  0  0
   11.5260   39.3884   31.4376 C   0  0  0  0  0  0  0  0  0  0  0  0
   12.7504   39.0888   32.0815 O   0  0  0  0  0  0  0  0  0  0  0  0
   10.6115   38.1909   31.6460 C   0  0  0  0  0  0  0  0  0  0  0  0
   12.9357   37.6812   32.0303 C   0  0  0  0  0  0  0  0  0  0  0  0
    9.6145   38.0858   30.6533 O   0  0  0  0  0  0  0  0  0  0  0  0
   11.5769   37.0148   31.7012 C   0  0  0  0  0  0  0  0  0  0  0  0
   13.4849   37.2112   33.3247 N   0  0  0  0  0  0  0  0  0  0  0  0
   11.6193   36.3260   30.4724 O   0  0  0  0  0  0  0  0  0  0  0  0
   14.4802   36.3313   33.5730 C   0  0  0  0  0  0  0  0  0  0  0  0
   13.1141   37.6268   34.5698 C   0  0  0  0  0  0  0  0  0  0  0  0
   15.2075   35.6151   32.6741 N   0  0  0  0  0  0  0  0  0  0  0  0
   14.6761   36.2301   34.9184 C   0  0  0  0  0  0  0  0  0  0  0  0
   13.8220   37.0445   35.5789 N   0  0  0  0  0  0  0  0  0  0  0  0
   16.1642   34.7600   33.1547 C   0  0  0  0  0  0  0  0  0  0  0  0
   15.6529   35.3503   35.4132 C   0  0  0  0  0  0  0  0  0  0  0  0
   16.3797   34.6314   34.5042 N   0  0  0  0  0  0  0  0  0  0  0  0
   15.9004   35.1930   36.8090 N   0  0  0  0  0  0  0  0  0  0  0  0
    9.0090   45.4355   33.6666 H   0  0  0  0  0  0  0  0  0  0  0  0
   11.1117   46.2008   34.4881 H   0  0  0  0  0  0  0  0  0  0  0  0
   11.9343   45.6940   33.0933 H   0  0  0  0  0  0  0  0  0  0  0  0
    9.3511   43.8347   31.4761 H   0  0  0  0  0  0  0  0  0  0  0  0
   10.7304   44.8930   31.1678 H   0  0  0  0  0  0  0  0  0  0  0  0
    7.0100   44.7125   31.5772 H   0  0  0  0  0  0  0  0  0  0  0  0
   10.3481   47.1882   30.4111 H   0  0  0  0  0  0  0  0  0  0  0  0
    5.4620   46.3012   30.4897 H   0  0  0  0  0  0  0  0  0  0  0  0
    8.7927   48.7689   29.3363 H   0  0  0  0  0  0  0  0  0  0  0  0
    5.0705   50.2745   29.0832 H   0  0  0  0  0  0  0  0  0  0  0  0
    4.8110   48.5165   31.5517 H   0  0  0  0  0  0  0  0  0  0  0  0
    4.1710   50.2152   31.4521 H   0  0  0  0  0  0  0  0  0  0  0  0
    3.6105   48.9463   30.3067 H   0  0  0  0  0  0  0  0  0  0  0  0
    6.7742   51.7755   28.5790 H   0  0  0  0  0  0  0  0  0  0  0  0
    8.8799   51.1644   33.0576 H   0  0  0  0  0  0  0  0  0  0  0  0
   10.9177   53.8091   29.6657 H   0  0  0  0  0  0  0  0  0  0  0  0
    9.7476   55.0113   30.3911 H   0  0  0  0  0  0  0  0  0  0  0  0
    9.8233   40.7192   31.7644 H   0  0  0  0  0  0  0  0  0  0  0  0
   11.3781   41.5526   31.4732 H   0  0  0  0  0  0  0  0  0  0  0  0
   11.7282   39.5312   30.3515 H   0  0  0  0  0  0  0  0  0  0  0  0
   10.1127   38.2733   32.6376 H   0  0  0  0  0  0  0  0  0  0  0  0
   13.6692   37.4565   31.2242 H   0  0  0  0  0  0  0  0  0  0  0  0
   10.0533   38.1118   29.7635 H   0  0  0  0  0  0  0  0  0  0  0  0
   11.2607   36.3148   32.5101 H   0  0  0  0  0  0  0  0  0  0  0  0
   12.1496   35.5022   30.6324 H   0  0  0  0  0  0  0  0  0  0  0  0
   12.3301   38.3524   34.7455 H   0  0  0  0  0  0  0  0  0  0  0  0
   16.7562   34.1780   32.4619 H   0  0  0  0  0  0  0  0  0  0  0  0
   15.3536   35.7357   37.5139 H   0  0  0  0  0  0  0  0  0  0  0  0
   16.6350   34.5299   37.1416 H   0  0  0  0  0  0  0  0  0  0  0  0
  1  2  2  0
  1  3  1  0
  3  4  1  0
  4  5  1  0
  6  1  1  0
  7  6  1  0
  6  8  1  0
  8  9  1  0
  9 10  2  0
 11  9  1  0
 10 12  1  0
 13 11  2  0
 12 14  2  0
 14 13  1  0
 14 15  1  0
 15 16  1  0
 16 17  1  0
 16 18  1  0
 18 19  2  0
 20 18  1  0
 19 21  1  0
 22 20  2  0
 20 23  1  0
 21 24  1  0
 21 25  2  0
 25 22  1  0
 23 26  1  0
 23 27  2  0
 24 28  1  0
 25 29  1  0
 28 29  1  0
  4 30  2  0
  4 31  1  0
 32 31  1  0
 32 33  1  0
 33 34  1  0
 33 35  1  0
 34 36  1  0
 35 37  1  0
 35 38  1  0
 38 36  1  0
 36 39  1  0
 38 40  1  0
 41 39  1  0
 42 39  1  0
 43 41  2  0
 41 44  1  0
 45 42  2  0
 46 43  1  0
 44 47  2  0
 44 45  1  0
 48 46  2  0
 48 47  1  0
 47 49  1  0
  6 50  1  1
  7 51  1  0
  7 52  1  0
  8 53  1  0
  8 54  1  0
 10 55  1  0
 11 56  1  0
 12 57  1  0
 13 58  1  0
 16 59  1  6
 17 60  1  0
 17 61  1  0
 17 62  1  0
 19 63  1  0
 22 64  1  0
 28 65  1  0
 28 66  1  0
 32 67  1  0
 32 68  1  0
 33 69  1  0
 35 70  1  0
 36 71  1  0
 37 72  1  0
 38 73  1  0
 40 74  1  0
 42 75  1  0
 46 76  1  0
 49 77  1  0
 49 78  1  0
M  CHG  3   5  -1  23   1  26  -1
M  END
>  <EmbedRMS>  (316) 
0.0826465281909

$$$$

     RDKit          3D

 78 83  0  0  0  0  0  0  0  0999 V2000
   10.2803   43.7665   33.8251 C   0  0  0  0  0  0  0  0  0  0  0  0
   11.4110   43.5919   34.3666 O   0  0  0  0  0  0  0  0  0  0  0  0
    9.3616   42.7251   33.7349 O   0  0  0  0  0  0  0  0  0  0  0  0
    9.8899   41.2268   34.2940 P   0  0  0  0  0  0  0  0  0  0  0  0
   10.3738   41.4565   35.8831 O   0  0  0  0  0  0  0  0  0  0  0  0
    9.9458   45.0736   33.2112 C   0  0  1  0  0  0  0  0  0  0  0  0
   11.0267   46.0291   33.4705 N   0  0  0  0  0  0  0  0  0  0  0  0
    9.7536   44.8537   31.6949 C   0  0  0  0  0  0  0  0  0  0  0  0
    8.7955   45.8407   31.0845 C   0  0  0  0  0  0  0  0  0  0  0  0
    7.4089   45.6006   31.1010 C   0  0  0  0  0  0  0  0  0  0  0  0
    9.2828   46.9876   30.4401 C   0  0  0  0  0  0  0  0  0  0  0  0
    6.5285   46.5014   30.4862 C   0  0  0  0  0  0  0  0  0  0  0  0
    8.4025   47.8898   29.8310 C   0  0  0  0  0  0  0  0  0  0  0  0
    7.0130   47.6508   29.8462 C   0  0  0  0  0  0  0  0  0  0  0  0
    6.0803   48.5185   29.2538 O   0  0  0  0  0  0  0  0  0  0  0  0
    6.3864   49.6720   28.4639 C   0  0  1  0  0  0  0  0  0  0  0  0
    6.8818   49.2459   27.0772 C   0  0  0  0  0  0  0  0  0  0  0  0
    5.1377   50.5216   28.3226 C   0  0  0  0  0  0  0  0  0  0  0  0
    3.9111   49.8776   28.0237 C   0  0  0  0  0  0  0  0  0  0  0  0
    5.1523   51.9426   28.5211 C   0  0  0  0  0  0  0  0  0  0  0  0
    2.7544   50.6439   27.9694 C   0  0  0  0  0  0  0  0  0  0  0  0
    3.9392   52.6676   28.4695 C   0  0  0  0  0  0  0  0  0  0  0  0
    6.3765   52.6601   28.7444 N   0  0  0  0  0  0  0  0  0  0  0  0
    1.4620   50.2310   27.7086 O   0  0  0  0  0  0  0  0  0  0  0  0
    2.7670   51.9787   28.1882 C   0  0  0  0  0  0  0  0  0  0  0  0
    7.4595   52.4489   27.9226 O   0  0  0  0  0  0  0  0  0  0  0  0
    6.3951   53.6331   29.5263 O   0  0  0  0  0  0  0  0  0  0  0  0
    0.6094   51.3827   27.7671 C   0  0  0  0  0  0  0  0  0  0  0  0
    1.4834   52.4772   28.0756 O   0  0  0  0  0  0  0  0  0  0  0  0
    8.8123   40.1845   34.2134 O   0  0  0  0  0  0  0  0  0  0  0  0
   11.2400   40.7954   33.3680 O   0  0  0  0  0  0  0  0  0  0  0  0
   10.9124   40.6877   31.9967 C   0  0  0  0  0  0  0  0  0  0  0  0
   11.5169   39.3811   31.4420 C   0  0  0  0  0  0  0  0  0  0  0  0
   12.7500   39.0881   32.0760 O   0  0  0  0  0  0  0  0  0  0  0  0
   10.6043   38.1893   31.6659 C   0  0  0  0  0  0  0  0  0  0  0  0
   12.9395   37.6814   32.0280 C   0  0  0  0  0  0  0  0  0  0  0  0
    9.6353   38.0951   30.6499 O   0  0  0  0  0  0  0  0  0  0  0  0
   11.5804   37.0191   31.6934 C   0  0  0  0  0  0  0  0  0  0  0  0
   13.4851   37.2119   33.3244 N   0  0  0  0  0  0  0  0  0  0  0  0
   11.6118   36.3189   30.4674 O   0  0  0  0  0  0  0  0  0  0  0  0
   14.4801   36.3317   33.5732 C   0  0  0  0  0  0  0  0  0  0  0  0
   13.1139   37.6277   34.5692 C   0  0  0  0  0  0  0  0  0  0  0  0
   15.2076   35.6154   32.6744 N   0  0  0  0  0  0  0  0  0  0  0  0
   14.6756   36.2303   34.9186 C   0  0  0  0  0  0  0  0  0  0  0  0
   13.8215   37.0451   35.5786 N   0  0  0  0  0  0  0  0  0  0  0  0
   16.1642   34.7602   33.1551 C   0  0  0  0  0  0  0  0  0  0  0  0
   15.6526   35.3505   35.4134 C   0  0  0  0  0  0  0  0  0  0  0  0
   16.3795   34.6316   34.5045 N   0  0  0  0  0  0  0  0  0  0  0  0
   15.9001   35.1933   36.8093 N   0  0  0  0  0  0  0  0  0  0  0  0
    8.9995   45.4383   33.6722 H   0  0  0  0  0  0  0  0  0  0  0  0
   10.7764   46.9368   33.0156 H   0  0  0  0  0  0  0  0  0  0  0  0
   11.0504   46.2277   34.4979 H   0  0  0  0  0  0  0  0  0  0  0  0
    9.3637   43.8350   31.4716 H   0  0  0  0  0  0  0  0  0  0  0  0
   10.7407   44.9068   31.1835 H   0  0  0  0  0  0  0  0  0  0  0  0
    7.0132   44.7166   31.5857 H   0  0  0  0  0  0  0  0  0  0  0  0
   10.3469   47.1867   30.4084 H   0  0  0  0  0  0  0  0  0  0  0  0
    5.4641   46.3045   30.5069 H   0  0  0  0  0  0  0  0  0  0  0  0
    8.8189   48.7649   29.3543 H   0  0  0  0  0  0  0  0  0  0  0  0
    7.1763   50.2527   28.9795 H   0  0  0  0  0  0  0  0  0  0  0  0
    7.0747   50.1391   26.4459 H   0  0  0  0  0  0  0  0  0  0  0  0
    6.1259   48.6064   26.5737 H   0  0  0  0  0  0  0  0  0  0  0  0
    7.8261   48.6704   27.1593 H   0  0  0  0  0  0  0  0  0  0  0  0
    3.8584   48.8091   27.8568 H   0  0  0  0  0  0  0  0  0  0  0  0
    3.9165   53.7397   28.6175 H   0  0  0  0  0  0  0  0  0  0  0  0
    0.1199   51.5485   26.7846 H   0  0  0  0  0  0  0  0  0  0  0  0
   -0.1482   51.2595   28.5692 H   0  0  0  0  0  0  0  0  0  0  0  0
    9.8214   40.7221   31.7645 H   0  0  0  0  0  0  0  0  0  0  0  0
   11.3807   41.5456   31.4683 H   0  0  0  0  0  0  0  0  0  0  0  0
   11.6986   39.5088   30.3499 H   0  0  0  0  0  0  0  0  0  0  0  0
   10.1109   38.2737   32.6630 H   0  0  0  0  0  0  0  0  0  0  0  0
   13.6783   37.4562   31.2271 H   0  0  0  0  0  0  0  0  0  0  0  0
    9.0020   37.3859   30.9348 H   0  0  0  0  0  0  0  0  0  0  0  0
   11.2807   36.3052   32.4921 H   0  0  0  0  0  0  0  0  0  0  0  0
   11.8819   36.9600   29.7584 H   0  0  0  0  0  0  0  0  0  0  0  0
   12.3304   38.3538   34.7446 H   0  0  0  0  0  0  0  0  0  0  0  0
   16.7563   34.1783   32.4624 H   0  0  0  0  0  0  0  0  0  0  0  0
   16.6348   34.5301   37.1418 H   0  0  0  0  0  0  0  0  0  0  0  0
   15.3532   35.7359   37.5142 H   0  0  0  0  0  0  0  0  0  0  0  0
  1  2  2  0
  1  3  1  0
  3  4  1  0
  4  5  1  0
  6  1  1  0
  7  6  1  0
  6  8  1  0
  8  9  1  0
  9 10  2  0
 11  9  1  0
 10 12  1  0
 13 11  2  0
 12 14  2  0
 14 13  1  0
 14 15  1  0
 15 16  1  0
 16 17  1  0
 16 18  1  0
 18 19  2  0
 20 18  1  0
 19 21  1  0
 22 20  2  0
 20 23  1  0
 21 24  1  0
 21 25  2  0
 25 22  1  0
 23 26  1  0
 23 27  2  0
 24 28  1  0
 25 29  1  0
 28 29  1  0
  4 30  2  0
  4 31  1  0
 32 31  1  0
 32 33  1  0
 33 34  1  0
 33 35  1  0
 34 36  1  0
 35 37  1  0
 35 38  1  0
 38 36  1  0
 36 39  1  0
 38 40  1  0
 41 39  1  0
 42 39  1  0
 43 41  2  0
 41 44  1  0
 45 42  2  0
 46 43  1  0
 44 47  2  0
 44 45  1  0
 48 46  2  0
 48 47  1  0
 47 49  1  0
  6 50  1  1
  7 51  1  0
  7 52  1  0
  8 53  1  0
  8 54  1  0
 10 55  1  0
 11 56  1  0
 12 57  1  0
 13 58  1  0
 16 59  1  1
 17 60  1  0
 17 61  1  0
 17 62  1  0
 19 63  1  0
 22 64  1  0
 28 65  1  0
 28 66  1  0
 32 67  1  0
 32 68  1  0
 33 69  1  0
 35 70  1  0
 36 71  1  0
 37 72  1  0
 38 73  1  0
 40 74  1  0
 42 75  1  0
 46 76  1  0
 49 77  1  0
 49 78  1  0
M  CHG  3   5  -1  23   1  26  -1
M  END
>  <EmbedRMS>  (317) 
0.0813884005949

$$$$

     RDKit          3D

 78 83  0  0  0  0  0  0  0  0999 V2000
   10.2804   43.7665   33.8251 C   0  0  0  0  0  0  0  0  0  0  0  0
   11.4111   43.5920   34.3667 O   0  0  0  0  0  0  0  0  0  0  0  0
    9.3619   42.7249   33.7347 O   0  0  0  0  0  0  0  0  0  0  0  0
    9.8900   41.2267   34.2944 P   0  0  0  0  0  0  0  0  0  0  0  0
   10.3728   41.4567   35.8839 O   0  0  0  0  0  0  0  0  0  0  0  0
    9.9458   45.0736   33.2112 C   0  0  1  0  0  0  0  0  0  0  0  0
   11.0265   46.0293   33.4706 N   0  0  0  0  0  0  0  0  0  0  0  0
    9.7535   44.8538   31.6950 C   0  0  0  0  0  0  0  0  0  0  0  0
    8.7955   45.8410   31.0848 C   0  0  0  0  0  0  0  0  0  0  0  0
    7.4087   45.6002   31.1002 C   0  0  0  0  0  0  0  0  0  0  0  0
    9.2830   46.9875   30.4396 C   0  0  0  0  0  0  0  0  0  0  0  0
    6.5282   46.5008   30.4849 C   0  0  0  0  0  0  0  0  0  0  0  0
    8.4024   47.8886   29.8300 C   0  0  0  0  0  0  0  0  0  0  0  0
    7.0136   47.6520   29.8494 C   0  0  0  0  0  0  0  0  0  0  0  0
    6.0863   48.5257   29.2584 O   0  0  0  0  0  0  0  0  0  0  0  0
    6.4050   49.7685   28.6253 C   0  0  1  0  0  0  0  0  0  0  0  0
    5.1540   50.2987   27.9287 C   0  0  0  0  0  0  0  0  0  0  0  0
    6.8947   50.7898   29.6397 C   0  0  0  0  0  0  0  0  0  0  0  0
    6.2835   50.8264   30.9179 C   0  0  0  0  0  0  0  0  0  0  0  0
    7.8807   51.7776   29.3087 C   0  0  0  0  0  0  0  0  0  0  0  0
    6.6770   51.8110   31.8145 C   0  0  0  0  0  0  0  0  0  0  0  0
    8.2287   52.7657   30.2559 C   0  0  0  0  0  0  0  0  0  0  0  0
    8.5124   51.8132   28.0220 N   0  0  0  0  0  0  0  0  0  0  0  0
    6.2265   52.0298   33.1022 O   0  0  0  0  0  0  0  0  0  0  0  0
    7.6079   52.7400   31.4975 C   0  0  0  0  0  0  0  0  0  0  0  0
    8.6493   53.0168   27.3702 O   0  0  0  0  0  0  0  0  0  0  0  0
    9.1848   50.8377   27.6304 O   0  0  0  0  0  0  0  0  0  0  0  0
    6.9228   53.1685   33.6269 C   0  0  0  0  0  0  0  0  0  0  0  0
    7.7943   53.5915   32.5693 O   0  0  0  0  0  0  0  0  0  0  0  0
    8.8127   40.1842   34.2128 O   0  0  0  0  0  0  0  0  0  0  0  0
   11.2415   40.7951   33.3705 O   0  0  0  0  0  0  0  0  0  0  0  0
   10.9178   40.6922   31.9983 C   0  0  0  0  0  0  0  0  0  0  0  0
   11.5175   39.3837   31.4423 C   0  0  0  0  0  0  0  0  0  0  0  0
   12.7507   39.0887   32.0753 O   0  0  0  0  0  0  0  0  0  0  0  0
   10.6027   38.1916   31.6659 C   0  0  0  0  0  0  0  0  0  0  0  0
   12.9384   37.6819   32.0278 C   0  0  0  0  0  0  0  0  0  0  0  0
    9.6371   38.0806   30.6471 O   0  0  0  0  0  0  0  0  0  0  0  0
   11.5780   37.0215   31.6935 C   0  0  0  0  0  0  0  0  0  0  0  0
   13.4844   37.2119   33.3242 N   0  0  0  0  0  0  0  0  0  0  0  0
   11.6095   36.3202   30.4679 O   0  0  0  0  0  0  0  0  0  0  0  0
   14.4797   36.3318   33.5730 C   0  0  0  0  0  0  0  0  0  0  0  0
   13.1135   37.6278   34.5691 C   0  0  0  0  0  0  0  0  0  0  0  0
   15.2073   35.6155   32.6742 N   0  0  0  0  0  0  0  0  0  0  0  0
   14.6754   36.2305   34.9184 C   0  0  0  0  0  0  0  0  0  0  0  0
   13.8213   37.0452   35.5785 N   0  0  0  0  0  0  0  0  0  0  0  0
   16.1640   34.7604   33.1549 C   0  0  0  0  0  0  0  0  0  0  0  0
   15.6525   35.3507   35.4132 C   0  0  0  0  0  0  0  0  0  0  0  0
   16.3794   34.6318   34.5044 N   0  0  0  0  0  0  0  0  0  0  0  0
   15.9000   35.1934   36.8091 N   0  0  0  0  0  0  0  0  0  0  0  0
    8.9995   45.4382   33.6723 H   0  0  0  0  0  0  0  0  0  0  0  0
   11.0503   46.2279   34.4979 H   0  0  0  0  0  0  0  0  0  0  0  0
   10.7761   46.9369   33.0156 H   0  0  0  0  0  0  0  0  0  0  0  0
    9.3635   43.8352   31.4716 H   0  0  0  0  0  0  0  0  0  0  0  0
   10.7406   44.9069   31.1835 H   0  0  0  0  0  0  0  0  0  0  0  0
    7.0130   44.7159   31.5844 H   0  0  0  0  0  0  0  0  0  0  0  0
   10.3472   47.1859   30.4059 H   0  0  0  0  0  0  0  0  0  0  0  0
    5.4637   46.3047   30.5057 H   0  0  0  0  0  0  0  0  0  0  0  0
    8.8141   48.7612   29.3456 H   0  0  0  0  0  0  0  0  0  0  0  0
    7.1567   49.5720   27.8367 H   0  0  0  0  0  0  0  0  0  0  0  0
    4.8006   49.5604   27.1779 H   0  0  0  0  0  0  0  0  0  0  0  0
    5.3805   51.2525   27.4054 H   0  0  0  0  0  0  0  0  0  0  0  0
    4.3407   50.4723   28.6658 H   0  0  0  0  0  0  0  0  0  0  0  0
    5.5157   50.1177   31.2008 H   0  0  0  0  0  0  0  0  0  0  0  0
    8.9678   53.5239   30.0312 H   0  0  0  0  0  0  0  0  0  0  0  0
    7.5161   52.8782   34.5193 H   0  0  0  0  0  0  0  0  0  0  0  0
    6.2038   53.9765   33.8772 H   0  0  0  0  0  0  0  0  0  0  0  0
    9.8290   40.7409   31.7625 H   0  0  0  0  0  0  0  0  0  0  0  0
   11.3951   41.5477   31.4741 H   0  0  0  0  0  0  0  0  0  0  0  0
   11.6982   39.5114   30.3500 H   0  0  0  0  0  0  0  0  0  0  0  0
   10.1117   38.2604   32.6661 H   0  0  0  0  0  0  0  0  0  0  0  0
   13.6767   37.4557   31.2267 H   0  0  0  0  0  0  0  0  0  0  0  0
    8.8960   38.6950   30.8873 H   0  0  0  0  0  0  0  0  0  0  0  0
   11.2791   36.3072   32.4922 H   0  0  0  0  0  0  0  0  0  0  0  0
   11.8828   36.9598   29.7589 H   0  0  0  0  0  0  0  0  0  0  0  0
   12.3300   38.3539   34.7446 H   0  0  0  0  0  0  0  0  0  0  0  0
   16.7561   34.1785   32.4622 H   0  0  0  0  0  0  0  0  0  0  0  0
   16.6347   34.5302   37.1416 H   0  0  0  0  0  0  0  0  0  0  0  0
   15.3531   35.7360   37.5140 H   0  0  0  0  0  0  0  0  0  0  0  0
  1  2  2  0
  1  3  1  0
  3  4  1  0
  4  5  1  0
  6  1  1  0
  7  6  1  0
  6  8  1  0
  8  9  1  0
  9 10  2  0
 11  9  1  0
 10 12  1  0
 13 11  2  0
 12 14  2  0
 14 13  1  0
 14 15  1  0
 15 16  1  0
 16 17  1  0
 16 18  1  0
 18 19  2  0
 20 18  1  0
 19 21  1  0
 22 20  2  0
 20 23  1  0
 21 24  1  0
 21 25  2  0
 25 22  1  0
 23 26  1  0
 23 27  2  0
 24 28  1  0
 25 29  1  0
 28 29  1  0
  4 30  2  0
  4 31  1  0
 32 31  1  0
 32 33  1  0
 33 34  1  0
 33 35  1  0
 34 36  1  0
 35 37  1  0
 35 38  1  0
 38 36  1  0
 36 39  1  0
 38 40  1  0
 41 39  1  0
 42 39  1  0
 43 41  2  0
 41 44  1  0
 45 42  2  0
 46 43  1  0
 44 47  2  0
 44 45  1  0
 48 46  2  0
 48 47  1  0
 47 49  1  0
  6 50  1  1
  7 51  1  0
  7 52  1  0
  8 53  1  0
  8 54  1  0
 10 55  1  0
 11 56  1  0
 12 57  1  0
 13 58  1  0
 16 59  1  6
 17 60  1  0
 17 61  1  0
 17 62  1  0
 19 63  1  0
 22 64  1  0
 28 65  1  0
 28 66  1  0
 32 67  1  0
 32 68  1  0
 33 69  1  0
 35 70  1  0
 36 71  1  0
 37 72  1  0
 38 73  1  0
 40 74  1  0
 42 75  1  0
 46 76  1  0
 49 77  1  0
 49 78  1  0
M  CHG  3   5  -1  23   1  26  -1
M  END
>  <EmbedRMS>  (318) 
0.081806464813

$$$$

     RDKit          3D

 78 83  0  0  0  0  0  0  0  0999 V2000
   10.2834   43.7662   33.8257 C   0  0  0  0  0  0  0  0  0  0  0  0
   11.4102   43.5930   34.3752 O   0  0  0  0  0  0  0  0  0  0  0  0
    9.3635   42.7257   33.7353 O   0  0  0  0  0  0  0  0  0  0  0  0
    9.8899   41.2269   34.2948 P   0  0  0  0  0  0  0  0  0  0  0  0
   10.3732   41.4562   35.8841 O   0  0  0  0  0  0  0  0  0  0  0  0
    9.9546   45.0695   33.2035 C   0  0  1  0  0  0  0  0  0  0  0  0
   11.0274   46.0321   33.4756 N   0  0  0  0  0  0  0  0  0  0  0  0
    9.7467   44.8479   31.6876 C   0  0  0  0  0  0  0  0  0  0  0  0
    8.7924   45.8405   31.0841 C   0  0  0  0  0  0  0  0  0  0  0  0
    7.4058   45.6016   31.0993 C   0  0  0  0  0  0  0  0  0  0  0  0
    9.2821   46.9876   30.4426 C   0  0  0  0  0  0  0  0  0  0  0  0
    6.5271   46.5036   30.4847 C   0  0  0  0  0  0  0  0  0  0  0  0
    8.4033   47.8906   29.8324 C   0  0  0  0  0  0  0  0  0  0  0  0
    7.0135   47.6526   29.8456 C   0  0  0  0  0  0  0  0  0  0  0  0
    6.0822   48.5211   29.2520 O   0  0  0  0  0  0  0  0  0  0  0  0
    6.3903   49.6744   28.4626 C   0  0  1  0  0  0  0  0  0  0  0  0
    6.8879   49.2480   27.0768 C   0  0  0  0  0  0  0  0  0  0  0  0
    5.1422   50.5246   28.3191 C   0  0  0  0  0  0  0  0  0  0  0  0
    3.9160   49.8813   28.0176 C   0  0  0  0  0  0  0  0  0  0  0  0
    5.1572   51.9456   28.5178 C   0  0  0  0  0  0  0  0  0  0  0  0
    2.7598   50.6481   27.9609 C   0  0  0  0  0  0  0  0  0  0  0  0
    3.9446   52.6712   28.4638 C   0  0  0  0  0  0  0  0  0  0  0  0
    6.3812   52.6624   28.7438 N   0  0  0  0  0  0  0  0  0  0  0  0
    1.4677   50.2359   27.6972 O   0  0  0  0  0  0  0  0  0  0  0  0
    2.7726   51.9829   28.1799 C   0  0  0  0  0  0  0  0  0  0  0  0
    7.4657   52.4511   27.9241 O   0  0  0  0  0  0  0  0  0  0  0  0
    6.3987   53.6350   29.5262 O   0  0  0  0  0  0  0  0  0  0  0  0
    0.6156   51.3881   27.7539 C   0  0  0  0  0  0  0  0  0  0  0  0
    1.4894   52.4821   28.0645 O   0  0  0  0  0  0  0  0  0  0  0  0
    8.8120   40.1850   34.2133 O   0  0  0  0  0  0  0  0  0  0  0  0
   11.2403   40.7947   33.3700 O   0  0  0  0  0  0  0  0  0  0  0  0
   10.9144   40.6914   31.9982 C   0  0  0  0  0  0  0  0  0  0  0  0
   11.5270   39.3912   31.4385 C   0  0  0  0  0  0  0  0  0  0  0  0
   12.7520   39.0911   32.0836 O   0  0  0  0  0  0  0  0  0  0  0  0
   10.6113   38.1932   31.6451 C   0  0  0  0  0  0  0  0  0  0  0  0
   12.9413   37.6838   32.0297 C   0  0  0  0  0  0  0  0  0  0  0  0
    9.6064   38.0878   30.6599 O   0  0  0  0  0  0  0  0  0  0  0  0
   11.5822   37.0198   31.6877 C   0  0  0  0  0  0  0  0  0  0  0  0
   13.4840   37.2104   33.3254 N   0  0  0  0  0  0  0  0  0  0  0  0
   11.6179   36.3072   30.4690 O   0  0  0  0  0  0  0  0  0  0  0  0
   14.4797   36.3309   33.5738 C   0  0  0  0  0  0  0  0  0  0  0  0
   13.1136   37.6269   34.5702 C   0  0  0  0  0  0  0  0  0  0  0  0
   15.2074   35.6152   32.6747 N   0  0  0  0  0  0  0  0  0  0  0  0
   14.6756   36.2298   34.9190 C   0  0  0  0  0  0  0  0  0  0  0  0
   13.8217   37.0445   35.5793 N   0  0  0  0  0  0  0  0  0  0  0  0
   16.1643   34.7603   33.1551 C   0  0  0  0  0  0  0  0  0  0  0  0
   15.6528   35.3503   35.4136 C   0  0  0  0  0  0  0  0  0  0  0  0
   16.3798   34.6316   34.5046 N   0  0  0  0  0  0  0  0  0  0  0  0
   15.9004   35.1930   36.8094 N   0  0  0  0  0  0  0  0  0  0  0  0
    9.0121   45.4318   33.6713 H   0  0  0  0  0  0  0  0  0  0  0  0
   10.7260   46.9687   33.1212 H   0  0  0  0  0  0  0  0  0  0  0  0
   11.8906   45.7658   32.9469 H   0  0  0  0  0  0  0  0  0  0  0  0
   10.7230   44.8812   31.1556 H   0  0  0  0  0  0  0  0  0  0  0  0
    9.3416   43.8327   31.4763 H   0  0  0  0  0  0  0  0  0  0  0  0
    7.0084   44.7172   31.5819 H   0  0  0  0  0  0  0  0  0  0  0  0
   10.3466   47.1853   30.4135 H   0  0  0  0  0  0  0  0  0  0  0  0
    5.4625   46.3075   30.5040 H   0  0  0  0  0  0  0  0  0  0  0  0
    8.8209   48.7658   29.3569 H   0  0  0  0  0  0  0  0  0  0  0  0
    7.1796   50.2547   28.9796 H   0  0  0  0  0  0  0  0  0  0  0  0
    7.0823   50.1411   26.4458 H   0  0  0  0  0  0  0  0  0  0  0  0
    7.8318   48.6721   27.1605 H   0  0  0  0  0  0  0  0  0  0  0  0
    6.1325   48.6088   26.5720 H   0  0  0  0  0  0  0  0  0  0  0  0
    3.8631   48.8128   27.8504 H   0  0  0  0  0  0  0  0  0  0  0  0
    3.9220   53.7433   28.6119 H   0  0  0  0  0  0  0  0  0  0  0  0
   -0.1438   51.2651   28.5543 H   0  0  0  0  0  0  0  0  0  0  0  0
    0.1284   51.5542   26.7703 H   0  0  0  0  0  0  0  0  0  0  0  0
   11.3777   41.5549   31.4744 H   0  0  0  0  0  0  0  0  0  0  0  0
    9.8235   40.7201   31.7654 H   0  0  0  0  0  0  0  0  0  0  0  0
   11.7311   39.5363   30.3532 H   0  0  0  0  0  0  0  0  0  0  0  0
   10.1203   38.2696   32.6410 H   0  0  0  0  0  0  0  0  0  0  0  0
   13.6850   37.4639   31.2321 H   0  0  0  0  0  0  0  0  0  0  0  0
   10.0251   38.1792   29.7654 H   0  0  0  0  0  0  0  0  0  0  0  0
   11.2757   36.3135   32.4907 H   0  0  0  0  0  0  0  0  0  0  0  0
   11.9838   36.9111   29.7708 H   0  0  0  0  0  0  0  0  0  0  0  0
   12.3307   38.3536   34.7457 H   0  0  0  0  0  0  0  0  0  0  0  0
   16.7566   34.1787   32.4623 H   0  0  0  0  0  0  0  0  0  0  0  0
   15.3535   35.7355   37.5144 H   0  0  0  0  0  0  0  0  0  0  0  0
   16.6353   34.5301   37.1419 H   0  0  0  0  0  0  0  0  0  0  0  0
  1  2  2  0
  1  3  1  0
  3  4  1  0
  4  5  1  0
  6  1  1  0
  7  6  1  0
  6  8  1  0
  8  9  1  0
  9 10  2  0
 11  9  1  0
 10 12  1  0
 13 11  2  0
 12 14  2  0
 14 13  1  0
 14 15  1  0
 15 16  1  0
 16 17  1  0
 16 18  1  0
 18 19  2  0
 20 18  1  0
 19 21  1  0
 22 20  2  0
 20 23  1  0
 21 24  1  0
 21 25  2  0
 25 22  1  0
 23 26  1  0
 23 27  2  0
 24 28  1  0
 25 29  1  0
 28 29  1  0
  4 30  2  0
  4 31  1  0
 32 31  1  0
 32 33  1  0
 33 34  1  0
 33 35  1  0
 34 36  1  0
 35 37  1  0
 35 38  1  0
 38 36  1  0
 36 39  1  0
 38 40  1  0
 41 39  1  0
 42 39  1  0
 43 41  2  0
 41 44  1  0
 45 42  2  0
 46 43  1  0
 44 47  2  0
 44 45  1  0
 48 46  2  0
 48 47  1  0
 47 49  1  0
  6 50  1  1
  7 51  1  0
  7 52  1  0
  8 53  1  0
  8 54  1  0
 10 55  1  0
 11 56  1  0
 12 57  1  0
 13 58  1  0
 16 59  1  1
 17 60  1  0
 17 61  1  0
 17 62  1  0
 19 63  1  0
 22 64  1  0
 28 65  1  0
 28 66  1  0
 32 67  1  0
 32 68  1  0
 33 69  1  0
 35 70  1  0
 36 71  1  0
 37 72  1  0
 38 73  1  0
 40 74  1  0
 42 75  1  0
 46 76  1  0
 49 77  1  0
 49 78  1  0
M  CHG  3   5  -1  23   1  26  -1
M  END
>  <EmbedRMS>  (319) 
0.0808291077319

$$$$

     RDKit          3D

 78 83  0  0  0  0  0  0  0  0999 V2000
   10.2839   43.7626   33.8276 C   0  0  0  0  0  0  0  0  0  0  0  0
   11.4103   43.5863   34.3767 O   0  0  0  0  0  0  0  0  0  0  0  0
    9.3631   42.7236   33.7353 O   0  0  0  0  0  0  0  0  0  0  0  0
    9.8898   41.2247   34.2935 P   0  0  0  0  0  0  0  0  0  0  0  0
   10.3734   41.4543   35.8829 O   0  0  0  0  0  0  0  0  0  0  0  0
    9.9549   45.0700   33.2065 C   0  0  1  0  0  0  0  0  0  0  0  0
   11.0199   46.0481   33.4572 N   0  0  0  0  0  0  0  0  0  0  0  0
    9.7506   44.8512   31.6924 C   0  0  0  0  0  0  0  0  0  0  0  0
    8.7945   45.8420   31.0872 C   0  0  0  0  0  0  0  0  0  0  0  0
    7.4079   45.6007   31.1003 C   0  0  0  0  0  0  0  0  0  0  0  0
    9.2826   46.9890   30.4445 C   0  0  0  0  0  0  0  0  0  0  0  0
    6.5255   46.4994   30.4847 C   0  0  0  0  0  0  0  0  0  0  0  0
    8.4009   47.8874   29.8328 C   0  0  0  0  0  0  0  0  0  0  0  0
    7.0189   47.6565   29.8461 C   0  0  0  0  0  0  0  0  0  0  0  0
    6.1884   48.5923   29.2067 O   0  0  0  0  0  0  0  0  0  0  0  0
    4.7583   48.5653   29.1691 C   0  0  1  0  0  0  0  0  0  0  0  0
    4.2106   49.0373   30.5253 C   0  0  0  0  0  0  0  0  0  0  0  0
    4.2945   49.3874   27.9673 C   0  0  0  0  0  0  0  0  0  0  0  0
    3.4157   50.4966   28.1209 C   0  0  0  0  0  0  0  0  0  0  0  0
    4.7801   49.0723   26.6488 C   0  0  0  0  0  0  0  0  0  0  0  0
    3.0755   51.2405   26.9991 C   0  0  0  0  0  0  0  0  0  0  0  0
    4.4082   49.8791   25.5500 C   0  0  0  0  0  0  0  0  0  0  0  0
    5.6630   47.9626   26.4074 N   0  0  0  0  0  0  0  0  0  0  0  0
    2.2508   52.3466   26.9219 O   0  0  0  0  0  0  0  0  0  0  0  0
    3.5525   50.9472   25.7698 C   0  0  0  0  0  0  0  0  0  0  0  0
    6.6391   48.0642   25.4431 O   0  0  0  0  0  0  0  0  0  0  0  0
    5.4310   46.8444   26.9099 O   0  0  0  0  0  0  0  0  0  0  0  0
    2.2088   52.7729   25.5534 C   0  0  0  0  0  0  0  0  0  0  0  0
    3.0543   51.8515   24.8517 O   0  0  0  0  0  0  0  0  0  0  0  0
    8.8114   40.1834   34.2126 O   0  0  0  0  0  0  0  0  0  0  0  0
   11.2402   40.7936   33.3673 O   0  0  0  0  0  0  0  0  0  0  0  0
   10.9134   40.6864   31.9955 C   0  0  0  0  0  0  0  0  0  0  0  0
   11.5166   39.3786   31.4404 C   0  0  0  0  0  0  0  0  0  0  0  0
   12.7486   39.0848   32.0734 O   0  0  0  0  0  0  0  0  0  0  0  0
   10.6039   38.1883   31.6669 C   0  0  0  0  0  0  0  0  0  0  0  0
   12.9329   37.6775   32.0284 C   0  0  0  0  0  0  0  0  0  0  0  0
    9.6374   38.0938   30.6484 O   0  0  0  0  0  0  0  0  0  0  0  0
   11.5737   37.0140   31.7055 C   0  0  0  0  0  0  0  0  0  0  0  0
   13.4853   37.2120   33.3238 N   0  0  0  0  0  0  0  0  0  0  0  0
   11.6210   36.3379   30.4683 O   0  0  0  0  0  0  0  0  0  0  0  0
   14.4804   36.3319   33.5726 C   0  0  0  0  0  0  0  0  0  0  0  0
   13.1141   37.6275   34.5689 C   0  0  0  0  0  0  0  0  0  0  0  0
   15.2076   35.6152   32.6740 N   0  0  0  0  0  0  0  0  0  0  0  0
   14.6761   36.2306   34.9181 C   0  0  0  0  0  0  0  0  0  0  0  0
   13.8218   37.0451   35.5783 N   0  0  0  0  0  0  0  0  0  0  0  0
   16.1642   34.7600   33.1548 C   0  0  0  0  0  0  0  0  0  0  0  0
   15.6528   35.3507   35.4131 C   0  0  0  0  0  0  0  0  0  0  0  0
   16.3795   34.6315   34.5043 N   0  0  0  0  0  0  0  0  0  0  0  0
   15.9001   35.1933   36.8090 N   0  0  0  0  0  0  0  0  0  0  0  0
    9.0099   45.4349   33.6671 H   0  0  0  0  0  0  0  0  0  0  0  0
   11.1133   46.1992   34.4885 H   0  0  0  0  0  0  0  0  0  0  0  0
   11.9350   45.6933   33.0930 H   0  0  0  0  0  0  0  0  0  0  0  0
   10.7310   44.8932   31.1677 H   0  0  0  0  0  0  0  0  0  0  0  0
    9.3518   43.8346   31.4759 H   0  0  0  0  0  0  0  0  0  0  0  0
    7.0132   44.7147   31.5823 H   0  0  0  0  0  0  0  0  0  0  0  0
   10.3467   47.1889   30.4142 H   0  0  0  0  0  0  0  0  0  0  0  0
    5.4692   46.2772   30.5143 H   0  0  0  0  0  0  0  0  0  0  0  0
    8.7944   48.7683   29.3415 H   0  0  0  0  0  0  0  0  0  0  0  0
    4.3932   47.5304   29.0092 H   0  0  0  0  0  0  0  0  0  0  0  0
    4.5901   48.3899   31.3421 H   0  0  0  0  0  0  0  0  0  0  0  0
    3.1017   48.9753   30.5387 H   0  0  0  0  0  0  0  0  0  0  0  0
    4.5376   50.0777   30.7367 H   0  0  0  0  0  0  0  0  0  0  0  0
    3.0061   50.7954   29.0742 H   0  0  0  0  0  0  0  0  0  0  0  0
    4.7638   49.6680   24.5497 H   0  0  0  0  0  0  0  0  0  0  0  0
    1.1708   52.7132   25.1641 H   0  0  0  0  0  0  0  0  0  0  0  0
    2.6064   53.8052   25.4602 H   0  0  0  0  0  0  0  0  0  0  0  0
    9.8226   40.7225   31.7628 H   0  0  0  0  0  0  0  0  0  0  0  0
   11.3831   41.5437   31.4675 H   0  0  0  0  0  0  0  0  0  0  0  0
   11.6978   39.5037   30.3478 H   0  0  0  0  0  0  0  0  0  0  0  0
   10.1084   38.2785   32.6626 H   0  0  0  0  0  0  0  0  0  0  0  0
   13.6638   37.4471   31.2214 H   0  0  0  0  0  0  0  0  0  0  0  0
    8.9763   37.4190   30.9532 H   0  0  0  0  0  0  0  0  0  0  0  0
   11.2821   36.3053   32.5171 H   0  0  0  0  0  0  0  0  0  0  0  0
   10.8658   35.6935   30.4652 H   0  0  0  0  0  0  0  0  0  0  0  0
   12.3293   38.3523   34.7444 H   0  0  0  0  0  0  0  0  0  0  0  0
   16.7561   34.1778   32.4621 H   0  0  0  0  0  0  0  0  0  0  0  0
   16.6345   34.5300   37.1416 H   0  0  0  0  0  0  0  0  0  0  0  0
   15.3533   35.7361   37.5138 H   0  0  0  0  0  0  0  0  0  0  0  0
  1  2  2  0
  1  3  1  0
  3  4  1  0
  4  5  1  0
  6  1  1  0
  7  6  1  0
  6  8  1  0
  8  9  1  0
  9 10  2  0
 11  9  1  0
 10 12  1  0
 13 11  2  0
 12 14  2  0
 14 13  1  0
 14 15  1  0
 15 16  1  0
 16 17  1  0
 16 18  1  0
 18 19  2  0
 20 18  1  0
 19 21  1  0
 22 20  2  0
 20 23  1  0
 21 24  1  0
 21 25  2  0
 25 22  1  0
 23 26  1  0
 23 27  2  0
 24 28  1  0
 25 29  1  0
 28 29  1  0
  4 30  2  0
  4 31  1  0
 32 31  1  0
 32 33  1  0
 33 34  1  0
 33 35  1  0
 34 36  1  0
 35 37  1  0
 35 38  1  0
 38 36  1  0
 36 39  1  0
 38 40  1  0
 41 39  1  0
 42 39  1  0
 43 41  2  0
 41 44  1  0
 45 42  2  0
 46 43  1  0
 44 47  2  0
 44 45  1  0
 48 46  2  0
 48 47  1  0
 47 49  1  0
  6 50  1  1
  7 51  1  0
  7 52  1  0
  8 53  1  0
  8 54  1  0
 10 55  1  0
 11 56  1  0
 12 57  1  0
 13 58  1  0
 16 59  1  6
 17 60  1  0
 17 61  1  0
 17 62  1  0
 19 63  1  0
 22 64  1  0
 28 65  1  0
 28 66  1  0
 32 67  1  0
 32 68  1  0
 33 69  1  0
 35 70  1  0
 36 71  1  0
 37 72  1  0
 38 73  1  0
 40 74  1  0
 42 75  1  0
 46 76  1  0
 49 77  1  0
 49 78  1  0
M  CHG  3   5  -1  23   1  26  -1
M  END
>  <EmbedRMS>  (320) 
0.0834242391427

$$$$

     RDKit          3D

 78 83  0  0  0  0  0  0  0  0999 V2000
   10.2834   43.7661   33.8257 C   0  0  0  0  0  0  0  0  0  0  0  0
   11.4102   43.5930   34.3752 O   0  0  0  0  0  0  0  0  0  0  0  0
    9.3637   42.7255   33.7350 O   0  0  0  0  0  0  0  0  0  0  0  0
    9.8902   41.2267   34.2942 P   0  0  0  0  0  0  0  0  0  0  0  0
   10.3736   41.4560   35.8836 O   0  0  0  0  0  0  0  0  0  0  0  0
    9.9546   45.0694   33.2035 C   0  0  1  0  0  0  0  0  0  0  0  0
   11.0273   46.0321   33.4756 N   0  0  0  0  0  0  0  0  0  0  0  0
    9.7467   44.8479   31.6876 C   0  0  0  0  0  0  0  0  0  0  0  0
    8.7924   45.8405   31.0841 C   0  0  0  0  0  0  0  0  0  0  0  0
    7.4058   45.6016   31.0993 C   0  0  0  0  0  0  0  0  0  0  0  0
    9.2821   46.9876   30.4426 C   0  0  0  0  0  0  0  0  0  0  0  0
    6.5271   46.5036   30.4847 C   0  0  0  0  0  0  0  0  0  0  0  0
    8.4033   47.8906   29.8324 C   0  0  0  0  0  0  0  0  0  0  0  0
    7.0135   47.6526   29.8457 C   0  0  0  0  0  0  0  0  0  0  0  0
    6.0822   48.5213   29.2522 O   0  0  0  0  0  0  0  0  0  0  0  0
    6.3901   49.6757   28.4642 C   0  0  1  0  0  0  0  0  0  0  0  0
    6.8881   49.2511   27.0781 C   0  0  0  0  0  0  0  0  0  0  0  0
    5.1422   50.5265   28.3201 C   0  0  0  0  0  0  0  0  0  0  0  0
    3.9120   49.8811   28.0398 C   0  0  0  0  0  0  0  0  0  0  0  0
    5.1615   51.9518   28.4934 C   0  0  0  0  0  0  0  0  0  0  0  0
    2.7566   50.6491   27.9829 C   0  0  0  0  0  0  0  0  0  0  0  0
    3.9499   52.6777   28.4418 C   0  0  0  0  0  0  0  0  0  0  0  0
    6.3856   52.6752   28.6962 N   0  0  0  0  0  0  0  0  0  0  0  0
    1.4613   50.2353   27.7386 O   0  0  0  0  0  0  0  0  0  0  0  0
    2.7739   51.9871   28.1811 C   0  0  0  0  0  0  0  0  0  0  0  0
    6.3976   53.7808   29.5150 O   0  0  0  0  0  0  0  0  0  0  0  0
    7.3705   52.4619   27.9598 O   0  0  0  0  0  0  0  0  0  0  0  0
    0.6117   51.3897   27.7863 C   0  0  0  0  0  0  0  0  0  0  0  0
    1.4905   52.4867   28.0711 O   0  0  0  0  0  0  0  0  0  0  0  0
    8.8121   40.1850   34.2131 O   0  0  0  0  0  0  0  0  0  0  0  0
   11.2404   40.7941   33.3690 O   0  0  0  0  0  0  0  0  0  0  0  0
   10.9143   40.6898   31.9972 C   0  0  0  0  0  0  0  0  0  0  0  0
   11.5261   39.3885   31.4376 C   0  0  0  0  0  0  0  0  0  0  0  0
   12.7504   39.0888   32.0815 O   0  0  0  0  0  0  0  0  0  0  0  0
   10.6115   38.1910   31.6460 C   0  0  0  0  0  0  0  0  0  0  0  0
   12.9357   37.6812   32.0303 C   0  0  0  0  0  0  0  0  0  0  0  0
    9.6145   38.0859   30.6534 O   0  0  0  0  0  0  0  0  0  0  0  0
   11.5769   37.0148   31.7012 C   0  0  0  0  0  0  0  0  0  0  0  0
   13.4849   37.2112   33.3247 N   0  0  0  0  0  0  0  0  0  0  0  0
   11.6193   36.3261   30.4724 O   0  0  0  0  0  0  0  0  0  0  0  0
   14.4802   36.3313   33.5730 C   0  0  0  0  0  0  0  0  0  0  0  0
   13.1141   37.6268   34.5698 C   0  0  0  0  0  0  0  0  0  0  0  0
   15.2075   35.6151   32.6741 N   0  0  0  0  0  0  0  0  0  0  0  0
   14.6761   36.2300   34.9184 C   0  0  0  0  0  0  0  0  0  0  0  0
   13.8220   37.0445   35.5789 N   0  0  0  0  0  0  0  0  0  0  0  0
   16.1642   34.7600   33.1547 C   0  0  0  0  0  0  0  0  0  0  0  0
   15.6529   35.3503   35.4131 C   0  0  0  0  0  0  0  0  0  0  0  0
   16.3798   34.6314   34.5042 N   0  0  0  0  0  0  0  0  0  0  0  0
   15.9004   35.1930   36.8090 N   0  0  0  0  0  0  0  0  0  0  0  0
    9.0121   45.4317   33.6713 H   0  0  0  0  0  0  0  0  0  0  0  0
   11.8906   45.7658   32.9469 H   0  0  0  0  0  0  0  0  0  0  0  0
   10.7259   46.9687   33.1213 H   0  0  0  0  0  0  0  0  0  0  0  0
    9.3416   43.8327   31.4762 H   0  0  0  0  0  0  0  0  0  0  0  0
   10.7231   44.8813   31.1556 H   0  0  0  0  0  0  0  0  0  0  0  0
    7.0085   44.7171   31.5819 H   0  0  0  0  0  0  0  0  0  0  0  0
   10.3467   47.1853   30.4135 H   0  0  0  0  0  0  0  0  0  0  0  0
    5.4625   46.3075   30.5039 H   0  0  0  0  0  0  0  0  0  0  0  0
    8.8209   48.7658   29.3569 H   0  0  0  0  0  0  0  0  0  0  0  0
    7.1789   50.2551   28.9830 H   0  0  0  0  0  0  0  0  0  0  0  0
    6.1301   48.6174   26.5702 H   0  0  0  0  0  0  0  0  0  0  0  0
    7.8289   48.6701   27.1616 H   0  0  0  0  0  0  0  0  0  0  0  0
    7.0881   50.1453   26.4504 H   0  0  0  0  0  0  0  0  0  0  0  0
    3.8554   48.8104   27.8888 H   0  0  0  0  0  0  0  0  0  0  0  0
    3.9303   53.7519   28.5728 H   0  0  0  0  0  0  0  0  0  0  0  0
    0.1148   51.5416   26.8052 H   0  0  0  0  0  0  0  0  0  0  0  0
   -0.1397   51.2804   28.5962 H   0  0  0  0  0  0  0  0  0  0  0  0
    9.8233   40.7191   31.7647 H   0  0  0  0  0  0  0  0  0  0  0  0
   11.3779   41.5526   31.4726 H   0  0  0  0  0  0  0  0  0  0  0  0
   11.7283   39.5312   30.3515 H   0  0  0  0  0  0  0  0  0  0  0  0
   10.1127   38.2734   32.6377 H   0  0  0  0  0  0  0  0  0  0  0  0
   13.6692   37.4566   31.2242 H   0  0  0  0  0  0  0  0  0  0  0  0
   10.0533   38.1118   29.7636 H   0  0  0  0  0  0  0  0  0  0  0  0
   11.2607   36.3148   32.5102 H   0  0  0  0  0  0  0  0  0  0  0  0
   12.1496   35.5023   30.6324 H   0  0  0  0  0  0  0  0  0  0  0  0
   12.3301   38.3524   34.7455 H   0  0  0  0  0  0  0  0  0  0  0  0
   16.7563   34.1781   32.4619 H   0  0  0  0  0  0  0  0  0  0  0  0
   15.3536   35.7357   37.5139 H   0  0  0  0  0  0  0  0  0  0  0  0
   16.6351   34.5298   37.1416 H   0  0  0  0  0  0  0  0  0  0  0  0
  1  2  2  0
  1  3  1  0
  3  4  1  0
  4  5  1  0
  6  1  1  0
  7  6  1  0
  6  8  1  0
  8  9  1  0
  9 10  2  0
 11  9  1  0
 10 12  1  0
 13 11  2  0
 12 14  2  0
 14 13  1  0
 14 15  1  0
 15 16  1  0
 16 17  1  0
 16 18  1  0
 18 19  2  0
 20 18  1  0
 19 21  1  0
 22 20  2  0
 20 23  1  0
 21 24  1  0
 21 25  2  0
 25 22  1  0
 23 26  1  0
 23 27  2  0
 24 28  1  0
 25 29  1  0
 28 29  1  0
  4 30  2  0
  4 31  1  0
 32 31  1  0
 32 33  1  0
 33 34  1  0
 33 35  1  0
 34 36  1  0
 35 37  1  0
 35 38  1  0
 38 36  1  0
 36 39  1  0
 38 40  1  0
 41 39  1  0
 42 39  1  0
 43 41  2  0
 41 44  1  0
 45 42  2  0
 46 43  1  0
 44 47  2  0
 44 45  1  0
 48 46  2  0
 48 47  1  0
 47 49  1  0
  6 50  1  1
  7 51  1  0
  7 52  1  0
  8 53  1  0
  8 54  1  0
 10 55  1  0
 11 56  1  0
 12 57  1  0
 13 58  1  0
 16 59  1  1
 17 60  1  0
 17 61  1  0
 17 62  1  0
 19 63  1  0
 22 64  1  0
 28 65  1  0
 28 66  1  0
 32 67  1  0
 32 68  1  0
 33 69  1  0
 35 70  1  0
 36 71  1  0
 37 72  1  0
 38 73  1  0
 40 74  1  0
 42 75  1  0
 46 76  1  0
 49 77  1  0
 49 78  1  0
M  CHG  3   5  -1  23   1  26  -1
M  END
>  <EmbedRMS>  (321) 
0.0816222284912

$$$$

     RDKit          3D

 78 83  0  0  0  0  0  0  0  0999 V2000
   10.2834   43.7631   33.8277 C   0  0  0  0  0  0  0  0  0  0  0  0
   11.4100   43.5868   34.3766 O   0  0  0  0  0  0  0  0  0  0  0  0
    9.3629   42.7238   33.7353 O   0  0  0  0  0  0  0  0  0  0  0  0
    9.8896   41.2250   34.2935 P   0  0  0  0  0  0  0  0  0  0  0  0
   10.3735   41.4544   35.8828 O   0  0  0  0  0  0  0  0  0  0  0  0
    9.9542   45.0705   33.2064 C   0  0  1  0  0  0  0  0  0  0  0  0
   11.0190   46.0488   33.4569 N   0  0  0  0  0  0  0  0  0  0  0  0
    9.7499   44.8514   31.6924 C   0  0  0  0  0  0  0  0  0  0  0  0
    8.7940   45.8420   31.0867 C   0  0  0  0  0  0  0  0  0  0  0  0
    7.4060   45.5994   31.0981 C   0  0  0  0  0  0  0  0  0  0  0  0
    9.2840   46.9891   30.4421 C   0  0  0  0  0  0  0  0  0  0  0  0
    6.5260   46.4999   30.4814 C   0  0  0  0  0  0  0  0  0  0  0  0
    8.4026   47.8879   29.8297 C   0  0  0  0  0  0  0  0  0  0  0  0
    7.0208   47.6535   29.8581 C   0  0  0  0  0  0  0  0  0  0  0  0
    6.1443   48.5497   29.2417 O   0  0  0  0  0  0  0  0  0  0  0  0
    5.6061   49.7103   29.8837 C   0  0  1  0  0  0  0  0  0  0  0  0
    4.5087   49.3364   30.8858 C   0  0  0  0  0  0  0  0  0  0  0  0
    6.7077   50.6220   30.4234 C   0  0  0  0  0  0  0  0  0  0  0  0
    7.2002   51.6216   29.5469 C   0  0  0  0  0  0  0  0  0  0  0  0
    7.3316   50.4668   31.7099 C   0  0  0  0  0  0  0  0  0  0  0  0
    8.2587   52.4177   29.9646 C   0  0  0  0  0  0  0  0  0  0  0  0
    8.4068   51.3026   32.0790 C   0  0  0  0  0  0  0  0  0  0  0  0
    6.8894   49.4934   32.6568 N   0  0  0  0  0  0  0  0  0  0  0  0
    8.8885   53.4383   29.2785 O   0  0  0  0  0  0  0  0  0  0  0  0
    8.8371   52.2643   31.1767 C   0  0  0  0  0  0  0  0  0  0  0  0
    5.9268   49.8530   33.5708 O   0  0  0  0  0  0  0  0  0  0  0  0
    7.6208   48.5150   32.9104 O   0  0  0  0  0  0  0  0  0  0  0  0
    9.9284   53.9593   30.1176 C   0  0  0  0  0  0  0  0  0  0  0  0
    9.8606   53.1811   31.3203 O   0  0  0  0  0  0  0  0  0  0  0  0
    8.8114   40.1835   34.2126 O   0  0  0  0  0  0  0  0  0  0  0  0
   11.2398   40.7939   33.3670 O   0  0  0  0  0  0  0  0  0  0  0  0
   10.9125   40.6858   31.9954 C   0  0  0  0  0  0  0  0  0  0  0  0
   11.5175   39.3786   31.4405 C   0  0  0  0  0  0  0  0  0  0  0  0
   12.7490   39.0863   32.0752 O   0  0  0  0  0  0  0  0  0  0  0  0
   10.6061   38.1867   31.6656 C   0  0  0  0  0  0  0  0  0  0  0  0
   12.9356   37.6796   32.0292 C   0  0  0  0  0  0  0  0  0  0  0  0
    9.6399   38.0903   30.6471 O   0  0  0  0  0  0  0  0  0  0  0  0
   11.5765   37.0145   31.7043 C   0  0  0  0  0  0  0  0  0  0  0  0
   13.4858   37.2125   33.3244 N   0  0  0  0  0  0  0  0  0  0  0  0
   11.6101   36.3396   30.4673 O   0  0  0  0  0  0  0  0  0  0  0  0
   14.4805   36.3319   33.5729 C   0  0  0  0  0  0  0  0  0  0  0  0
   13.1143   37.6276   34.5694 C   0  0  0  0  0  0  0  0  0  0  0  0
   15.2076   35.6153   32.6741 N   0  0  0  0  0  0  0  0  0  0  0  0
   14.6760   36.2304   34.9184 C   0  0  0  0  0  0  0  0  0  0  0  0
   13.8219   37.0449   35.5786 N   0  0  0  0  0  0  0  0  0  0  0  0
   16.1641   34.7600   33.1548 C   0  0  0  0  0  0  0  0  0  0  0  0
   15.6528   35.3505   35.4132 C   0  0  0  0  0  0  0  0  0  0  0  0
   16.3796   34.6314   34.5043 N   0  0  0  0  0  0  0  0  0  0  0  0
   15.9002   35.1931   36.8091 N   0  0  0  0  0  0  0  0  0  0  0  0
    9.0091   45.4356   33.6667 H   0  0  0  0  0  0  0  0  0  0  0  0
   11.9343   45.6940   33.0932 H   0  0  0  0  0  0  0  0  0  0  0  0
   11.1118   46.2007   34.4881 H   0  0  0  0  0  0  0  0  0  0  0  0
   10.7303   44.8930   31.1678 H   0  0  0  0  0  0  0  0  0  0  0  0
    9.3509   43.8348   31.4762 H   0  0  0  0  0  0  0  0  0  0  0  0
    7.0099   44.7127   31.5775 H   0  0  0  0  0  0  0  0  0  0  0  0
   10.3481   47.1881   30.4111 H   0  0  0  0  0  0  0  0  0  0  0  0
    5.4618   46.3021   30.4906 H   0  0  0  0  0  0  0  0  0  0  0  0
    8.7930   48.7685   29.3357 H   0  0  0  0  0  0  0  0  0  0  0  0
    5.0701   50.2768   29.0902 H   0  0  0  0  0  0  0  0  0  0  0  0
    4.1926   50.2298   31.4651 H   0  0  0  0  0  0  0  0  0  0  0  0
    3.6241   48.9493   30.3365 H   0  0  0  0  0  0  0  0  0  0  0  0
    4.8376   48.5343   31.5744 H   0  0  0  0  0  0  0  0  0  0  0  0
    6.7824   51.7651   28.5583 H   0  0  0  0  0  0  0  0  0  0  0  0
    8.8876   51.2030   33.0438 H   0  0  0  0  0  0  0  0  0  0  0  0
    9.7400   55.0299   30.3429 H   0  0  0  0  0  0  0  0  0  0  0  0
   10.9173   53.8269   29.6307 H   0  0  0  0  0  0  0  0  0  0  0  0
   11.3806   41.5436   31.4669 H   0  0  0  0  0  0  0  0  0  0  0  0
    9.8215   40.7200   31.7634 H   0  0  0  0  0  0  0  0  0  0  0  0
   11.6998   39.5042   30.3482 H   0  0  0  0  0  0  0  0  0  0  0  0
   10.1085   38.2766   32.6603 H   0  0  0  0  0  0  0  0  0  0  0  0
   13.6680   37.4520   31.2229 H   0  0  0  0  0  0  0  0  0  0  0  0
    9.0016   37.3867   30.9349 H   0  0  0  0  0  0  0  0  0  0  0  0
   11.2667   36.3062   32.5083 H   0  0  0  0  0  0  0  0  0  0  0  0
   12.1389   35.5126   30.6150 H   0  0  0  0  0  0  0  0  0  0  0  0
   12.3300   38.3529   34.7449 H   0  0  0  0  0  0  0  0  0  0  0  0
   16.7560   34.1779   32.4620 H   0  0  0  0  0  0  0  0  0  0  0  0
   15.3534   35.7359   37.5139 H   0  0  0  0  0  0  0  0  0  0  0  0
   16.6347   34.5298   37.1416 H   0  0  0  0  0  0  0  0  0  0  0  0
  1  2  2  0
  1  3  1  0
  3  4  1  0
  4  5  1  0
  6  1  1  0
  7  6  1  0
  6  8  1  0
  8  9  1  0
  9 10  2  0
 11  9  1  0
 10 12  1  0
 13 11  2  0
 12 14  2  0
 14 13  1  0
 14 15  1  0
 15 16  1  0
 16 17  1  0
 16 18  1  0
 18 19  2  0
 20 18  1  0
 19 21  1  0
 22 20  2  0
 20 23  1  0
 21 24  1  0
 21 25  2  0
 25 22  1  0
 23 26  1  0
 23 27  2  0
 24 28  1  0
 25 29  1  0
 28 29  1  0
  4 30  2  0
  4 31  1  0
 32 31  1  0
 32 33  1  0
 33 34  1  0
 33 35  1  0
 34 36  1  0
 35 37  1  0
 35 38  1  0
 38 36  1  0
 36 39  1  0
 38 40  1  0
 41 39  1  0
 42 39  1  0
 43 41  2  0
 41 44  1  0
 45 42  2  0
 46 43  1  0
 44 47  2  0
 44 45  1  0
 48 46  2  0
 48 47  1  0
 47 49  1  0
  6 50  1  1
  7 51  1  0
  7 52  1  0
  8 53  1  0
  8 54  1  0
 10 55  1  0
 11 56  1  0
 12 57  1  0
 13 58  1  0
 16 59  1  6
 17 60  1  0
 17 61  1  0
 17 62  1  0
 19 63  1  0
 22 64  1  0
 28 65  1  0
 28 66  1  0
 32 67  1  0
 32 68  1  0
 33 69  1  0
 35 70  1  0
 36 71  1  0
 37 72  1  0
 38 73  1  0
 40 74  1  0
 42 75  1  0
 46 76  1  0
 49 77  1  0
 49 78  1  0
M  CHG  3   5  -1  23   1  26  -1
M  END
>  <EmbedRMS>  (322) 
0.0834043868832

$$$$

     RDKit          3D

 78 83  0  0  0  0  0  0  0  0999 V2000
   10.2804   43.7664   33.8249 C   0  0  0  0  0  0  0  0  0  0  0  0
   11.4110   43.5918   34.3666 O   0  0  0  0  0  0  0  0  0  0  0  0
    9.3618   42.7250   33.7345 O   0  0  0  0  0  0  0  0  0  0  0  0
    9.8898   41.2267   34.2939 P   0  0  0  0  0  0  0  0  0  0  0  0
   10.3735   41.4566   35.8832 O   0  0  0  0  0  0  0  0  0  0  0  0
    9.9460   45.0736   33.2111 C   0  0  1  0  0  0  0  0  0  0  0  0
   11.0267   46.0292   33.4708 N   0  0  0  0  0  0  0  0  0  0  0  0
    9.7541   44.8542   31.6948 C   0  0  0  0  0  0  0  0  0  0  0  0
    8.7957   45.8412   31.0847 C   0  0  0  0  0  0  0  0  0  0  0  0
    7.4090   45.6001   31.1013 C   0  0  0  0  0  0  0  0  0  0  0  0
    9.2823   46.9882   30.4399 C   0  0  0  0  0  0  0  0  0  0  0  0
    6.5261   46.4992   30.4870 C   0  0  0  0  0  0  0  0  0  0  0  0
    8.3995   47.8876   29.8313 C   0  0  0  0  0  0  0  0  0  0  0  0
    7.0183   47.6538   29.8453 C   0  0  0  0  0  0  0  0  0  0  0  0
    6.1801   48.5855   29.2113 O   0  0  0  0  0  0  0  0  0  0  0  0
    4.7584   48.4765   29.0929 C   0  0  1  0  0  0  0  0  0  0  0  0
    4.2103   49.7907   28.5419 C   0  0  0  0  0  0  0  0  0  0  0  0
    4.3706   47.3350   28.1671 C   0  0  0  0  0  0  0  0  0  0  0  0
    5.1648   47.0852   27.0202 C   0  0  0  0  0  0  0  0  0  0  0  0
    3.1727   46.5738   28.3665 C   0  0  0  0  0  0  0  0  0  0  0  0
    4.7620   46.0917   26.1373 C   0  0  0  0  0  0  0  0  0  0  0  0
    2.8049   45.5852   27.4267 C   0  0  0  0  0  0  0  0  0  0  0  0
    2.3158   46.8044   29.4927 N   0  0  0  0  0  0  0  0  0  0  0  0
    5.3778   45.6768   24.9722 O   0  0  0  0  0  0  0  0  0  0  0  0
    3.6320   45.3736   26.3317 C   0  0  0  0  0  0  0  0  0  0  0  0
    2.7917   46.6046   30.7674 O   0  0  0  0  0  0  0  0  0  0  0  0
    1.0844   46.9114   29.3195 O   0  0  0  0  0  0  0  0  0  0  0  0
    4.5831   44.6285   24.4010 C   0  0  0  0  0  0  0  0  0  0  0  0
    3.4777   44.4672   25.3005 O   0  0  0  0  0  0  0  0  0  0  0  0
    8.8122   40.1844   34.2133 O   0  0  0  0  0  0  0  0  0  0  0  0
   11.2402   40.7944   33.3688 O   0  0  0  0  0  0  0  0  0  0  0  0
   10.9142   40.6898   31.9970 C   0  0  0  0  0  0  0  0  0  0  0  0
   11.5260   39.3884   31.4376 C   0  0  0  0  0  0  0  0  0  0  0  0
   12.7504   39.0888   32.0816 O   0  0  0  0  0  0  0  0  0  0  0  0
   10.6114   38.1909   31.6460 C   0  0  0  0  0  0  0  0  0  0  0  0
   12.9357   37.6812   32.0303 C   0  0  0  0  0  0  0  0  0  0  0  0
    9.6145   38.0858   30.6533 O   0  0  0  0  0  0  0  0  0  0  0  0
   11.5769   37.0148   31.7012 C   0  0  0  0  0  0  0  0  0  0  0  0
   13.4849   37.2112   33.3247 N   0  0  0  0  0  0  0  0  0  0  0  0
   11.6193   36.3261   30.4724 O   0  0  0  0  0  0  0  0  0  0  0  0
   14.4802   36.3313   33.5730 C   0  0  0  0  0  0  0  0  0  0  0  0
   13.1141   37.6268   34.5698 C   0  0  0  0  0  0  0  0  0  0  0  0
   15.2074   35.6151   32.6741 N   0  0  0  0  0  0  0  0  0  0  0  0
   14.6761   36.2300   34.9184 C   0  0  0  0  0  0  0  0  0  0  0  0
   13.8220   37.0445   35.5789 N   0  0  0  0  0  0  0  0  0  0  0  0
   16.1642   34.7600   33.1547 C   0  0  0  0  0  0  0  0  0  0  0  0
   15.6529   35.3503   35.4132 C   0  0  0  0  0  0  0  0  0  0  0  0
   16.3797   34.6314   34.5042 N   0  0  0  0  0  0  0  0  0  0  0  0
   15.9004   35.1930   36.8090 N   0  0  0  0  0  0  0  0  0  0  0  0
    8.9996   45.4381   33.6721 H   0  0  0  0  0  0  0  0  0  0  0  0
   10.7765   46.9369   33.0159 H   0  0  0  0  0  0  0  0  0  0  0  0
   11.0502   46.2277   34.4982 H   0  0  0  0  0  0  0  0  0  0  0  0
   10.7412   44.9080   31.1835 H   0  0  0  0  0  0  0  0  0  0  0  0
    9.3646   43.8354   31.4709 H   0  0  0  0  0  0  0  0  0  0  0  0
    7.0148   44.7154   31.5861 H   0  0  0  0  0  0  0  0  0  0  0  0
   10.3462   47.1881   30.4055 H   0  0  0  0  0  0  0  0  0  0  0  0
    5.4687   46.2840   30.5182 H   0  0  0  0  0  0  0  0  0  0  0  0
    8.7914   48.7688   29.3393 H   0  0  0  0  0  0  0  0  0  0  0  0
    4.3348   48.3469   30.1077 H   0  0  0  0  0  0  0  0  0  0  0  0
    4.6355   49.9998   27.5368 H   0  0  0  0  0  0  0  0  0  0  0  0
    3.1026   49.7436   28.4658 H   0  0  0  0  0  0  0  0  0  0  0  0
    4.4811   50.6255   29.2227 H   0  0  0  0  0  0  0  0  0  0  0  0
    6.0618   47.6553   26.8151 H   0  0  0  0  0  0  0  0  0  0  0  0
    1.9053   44.9966   27.5532 H   0  0  0  0  0  0  0  0  0  0  0  0
    5.1710   43.6884   24.3441 H   0  0  0  0  0  0  0  0  0  0  0  0
    4.2187   44.9271   23.3958 H   0  0  0  0  0  0  0  0  0  0  0  0
    9.8232   40.7190   31.7644 H   0  0  0  0  0  0  0  0  0  0  0  0
   11.3777   41.5526   31.4723 H   0  0  0  0  0  0  0  0  0  0  0  0
   11.7283   39.5311   30.3515 H   0  0  0  0  0  0  0  0  0  0  0  0
   10.1127   38.2734   32.6376 H   0  0  0  0  0  0  0  0  0  0  0  0
   13.6692   37.4566   31.2242 H   0  0  0  0  0  0  0  0  0  0  0  0
   10.0533   38.1118   29.7635 H   0  0  0  0  0  0  0  0  0  0  0  0
   11.2607   36.3148   32.5102 H   0  0  0  0  0  0  0  0  0  0  0  0
   12.1496   35.5023   30.6324 H   0  0  0  0  0  0  0  0  0  0  0  0
   12.3301   38.3524   34.7455 H   0  0  0  0  0  0  0  0  0  0  0  0
   16.7562   34.1781   32.4619 H   0  0  0  0  0  0  0  0  0  0  0  0
   15.3535   35.7357   37.5140 H   0  0  0  0  0  0  0  0  0  0  0  0
   16.6350   34.5298   37.1416 H   0  0  0  0  0  0  0  0  0  0  0  0
  1  2  2  0
  1  3  1  0
  3  4  1  0
  4  5  1  0
  6  1  1  0
  7  6  1  0
  6  8  1  0
  8  9  1  0
  9 10  2  0
 11  9  1  0
 10 12  1  0
 13 11  2  0
 12 14  2  0
 14 13  1  0
 14 15  1  0
 15 16  1  0
 16 17  1  0
 16 18  1  0
 18 19  2  0
 20 18  1  0
 19 21  1  0
 22 20  2  0
 20 23  1  0
 21 24  1  0
 21 25  2  0
 25 22  1  0
 23 26  1  0
 23 27  2  0
 24 28  1  0
 25 29  1  0
 28 29  1  0
  4 30  2  0
  4 31  1  0
 32 31  1  0
 32 33  1  0
 33 34  1  0
 33 35  1  0
 34 36  1  0
 35 37  1  0
 35 38  1  0
 38 36  1  0
 36 39  1  0
 38 40  1  0
 41 39  1  0
 42 39  1  0
 43 41  2  0
 41 44  1  0
 45 42  2  0
 46 43  1  0
 44 47  2  0
 44 45  1  0
 48 46  2  0
 48 47  1  0
 47 49  1  0
  6 50  1  1
  7 51  1  0
  7 52  1  0
  8 53  1  0
  8 54  1  0
 10 55  1  0
 11 56  1  0
 12 57  1  0
 13 58  1  0
 16 59  1  1
 17 60  1  0
 17 61  1  0
 17 62  1  0
 19 63  1  0
 22 64  1  0
 28 65  1  0
 28 66  1  0
 32 67  1  0
 32 68  1  0
 33 69  1  0
 35 70  1  0
 36 71  1  0
 37 72  1  0
 38 73  1  0
 40 74  1  0
 42 75  1  0
 46 76  1  0
 49 77  1  0
 49 78  1  0
M  CHG  3   5  -1  23   1  26  -1
M  END
>  <EmbedRMS>  (323) 
0.081441684041

$$$$

     RDKit          3D

 78 83  0  0  0  0  0  0  0  0999 V2000
   10.2834   43.7662   33.8257 C   0  0  0  0  0  0  0  0  0  0  0  0
   11.4102   43.5930   34.3752 O   0  0  0  0  0  0  0  0  0  0  0  0
    9.3635   42.7257   33.7353 O   0  0  0  0  0  0  0  0  0  0  0  0
    9.8899   41.2269   34.2948 P   0  0  0  0  0  0  0  0  0  0  0  0
   10.3732   41.4562   35.8841 O   0  0  0  0  0  0  0  0  0  0  0  0
    9.9546   45.0695   33.2035 C   0  0  1  0  0  0  0  0  0  0  0  0
   11.0274   46.0321   33.4756 N   0  0  0  0  0  0  0  0  0  0  0  0
    9.7466   44.8479   31.6876 C   0  0  0  0  0  0  0  0  0  0  0  0
    8.7923   45.8405   31.0842 C   0  0  0  0  0  0  0  0  0  0  0  0
    7.4058   45.6016   31.0992 C   0  0  0  0  0  0  0  0  0  0  0  0
    9.2821   46.9876   30.4425 C   0  0  0  0  0  0  0  0  0  0  0  0
    6.5270   46.5036   30.4846 C   0  0  0  0  0  0  0  0  0  0  0  0
    8.4033   47.8905   29.8323 C   0  0  0  0  0  0  0  0  0  0  0  0
    7.0134   47.6528   29.8459 C   0  0  0  0  0  0  0  0  0  0  0  0
    6.0820   48.5217   29.2529 O   0  0  0  0  0  0  0  0  0  0  0  0
    6.3887   49.6855   28.4769 C   0  0  1  0  0  0  0  0  0  0  0  0
    6.8868   49.2691   27.0883 C   0  0  0  0  0  0  0  0  0  0  0  0
    5.1578   50.5697   28.3346 C   0  0  0  0  0  0  0  0  0  0  0  0
    3.8681   50.0070   28.5246 C   0  0  0  0  0  0  0  0  0  0  0  0
    5.2616   51.9400   27.9138 C   0  0  0  0  0  0  0  0  0  0  0  0
    2.7536   50.8057   28.3047 C   0  0  0  0  0  0  0  0  0  0  0  0
    4.0901   52.6972   27.6909 C   0  0  0  0  0  0  0  0  0  0  0  0
    6.5315   52.5691   27.6850 N   0  0  0  0  0  0  0  0  0  0  0  0
    1.4191   50.4696   28.4287 O   0  0  0  0  0  0  0  0  0  0  0  0
    2.8597   52.0927   27.9046 C   0  0  0  0  0  0  0  0  0  0  0  0
    6.6912   53.3976   26.5984 O   0  0  0  0  0  0  0  0  0  0  0  0
    7.3954   52.5861   28.5849 O   0  0  0  0  0  0  0  0  0  0  0  0
    0.6387   51.6231   28.0866 C   0  0  0  0  0  0  0  0  0  0  0  0
    1.5982   52.6368   27.7577 O   0  0  0  0  0  0  0  0  0  0  0  0
    8.8120   40.1850   34.2133 O   0  0  0  0  0  0  0  0  0  0  0  0
   11.2403   40.7947   33.3700 O   0  0  0  0  0  0  0  0  0  0  0  0
   10.9145   40.6914   31.9982 C   0  0  0  0  0  0  0  0  0  0  0  0
   11.5270   39.3912   31.4385 C   0  0  0  0  0  0  0  0  0  0  0  0
   12.7520   39.0911   32.0836 O   0  0  0  0  0  0  0  0  0  0  0  0
   10.6113   38.1932   31.6451 C   0  0  0  0  0  0  0  0  0  0  0  0
   12.9413   37.6838   32.0297 C   0  0  0  0  0  0  0  0  0  0  0  0
    9.6064   38.0878   30.6599 O   0  0  0  0  0  0  0  0  0  0  0  0
   11.5822   37.0197   31.6877 C   0  0  0  0  0  0  0  0  0  0  0  0
   13.4840   37.2104   33.3254 N   0  0  0  0  0  0  0  0  0  0  0  0
   11.6179   36.3072   30.4690 O   0  0  0  0  0  0  0  0  0  0  0  0
   14.4797   36.3309   33.5738 C   0  0  0  0  0  0  0  0  0  0  0  0
   13.1137   37.6269   34.5702 C   0  0  0  0  0  0  0  0  0  0  0  0
   15.2074   35.6152   32.6747 N   0  0  0  0  0  0  0  0  0  0  0  0
   14.6756   36.2298   34.9190 C   0  0  0  0  0  0  0  0  0  0  0  0
   13.8217   37.0445   35.5793 N   0  0  0  0  0  0  0  0  0  0  0  0
   16.1643   34.7603   33.1551 C   0  0  0  0  0  0  0  0  0  0  0  0
   15.6528   35.3503   35.4136 C   0  0  0  0  0  0  0  0  0  0  0  0
   16.3798   34.6316   34.5046 N   0  0  0  0  0  0  0  0  0  0  0  0
   15.9004   35.1931   36.8094 N   0  0  0  0  0  0  0  0  0  0  0  0
    9.0121   45.4318   33.6713 H   0  0  0  0  0  0  0  0  0  0  0  0
   10.7260   46.9687   33.1212 H   0  0  0  0  0  0  0  0  0  0  0  0
   11.8906   45.7658   32.9469 H   0  0  0  0  0  0  0  0  0  0  0  0
    9.3415   43.8327   31.4763 H   0  0  0  0  0  0  0  0  0  0  0  0
   10.7230   44.8812   31.1556 H   0  0  0  0  0  0  0  0  0  0  0  0
    7.0084   44.7171   31.5818 H   0  0  0  0  0  0  0  0  0  0  0  0
   10.3467   47.1849   30.4129 H   0  0  0  0  0  0  0  0  0  0  0  0
    5.4624   46.3076   30.5039 H   0  0  0  0  0  0  0  0  0  0  0  0
    8.8211   48.7648   29.3549 H   0  0  0  0  0  0  0  0  0  0  0  0
    7.1736   50.2539   29.0097 H   0  0  0  0  0  0  0  0  0  0  0  0
    7.1627   50.1616   26.4886 H   0  0  0  0  0  0  0  0  0  0  0  0
    7.7830   48.6214   27.1709 H   0  0  0  0  0  0  0  0  0  0  0  0
    6.0947   48.7046   26.5512 H   0  0  0  0  0  0  0  0  0  0  0  0
    3.7270   48.9739   28.8134 H   0  0  0  0  0  0  0  0  0  0  0  0
    4.1403   53.7301   27.3710 H   0  0  0  0  0  0  0  0  0  0  0  0
   -0.0046   51.4050   27.2085 H   0  0  0  0  0  0  0  0  0  0  0  0
    0.0254   51.9433   28.9549 H   0  0  0  0  0  0  0  0  0  0  0  0
   11.3777   41.5549   31.4744 H   0  0  0  0  0  0  0  0  0  0  0  0
    9.8235   40.7201   31.7654 H   0  0  0  0  0  0  0  0  0  0  0  0
   11.7311   39.5363   30.3532 H   0  0  0  0  0  0  0  0  0  0  0  0
   10.1203   38.2696   32.6410 H   0  0  0  0  0  0  0  0  0  0  0  0
   13.6850   37.4639   31.2321 H   0  0  0  0  0  0  0  0  0  0  0  0
   10.0251   38.1792   29.7654 H   0  0  0  0  0  0  0  0  0  0  0  0
   11.2757   36.3135   32.4907 H   0  0  0  0  0  0  0  0  0  0  0  0
   11.9838   36.9111   29.7708 H   0  0  0  0  0  0  0  0  0  0  0  0
   12.3307   38.3536   34.7457 H   0  0  0  0  0  0  0  0  0  0  0  0
   16.7566   34.1786   32.4623 H   0  0  0  0  0  0  0  0  0  0  0  0
   16.6353   34.5301   37.1419 H   0  0  0  0  0  0  0  0  0  0  0  0
   15.3535   35.7355   37.5144 H   0  0  0  0  0  0  0  0  0  0  0  0
  1  2  2  0
  1  3  1  0
  3  4  1  0
  4  5  1  0
  6  1  1  0
  7  6  1  0
  6  8  1  0
  8  9  1  0
  9 10  2  0
 11  9  1  0
 10 12  1  0
 13 11  2  0
 12 14  2  0
 14 13  1  0
 14 15  1  0
 15 16  1  0
 16 17  1  0
 16 18  1  0
 18 19  2  0
 20 18  1  0
 19 21  1  0
 22 20  2  0
 20 23  1  0
 21 24  1  0
 21 25  2  0
 25 22  1  0
 23 26  1  0
 23 27  2  0
 24 28  1  0
 25 29  1  0
 28 29  1  0
  4 30  2  0
  4 31  1  0
 32 31  1  0
 32 33  1  0
 33 34  1  0
 33 35  1  0
 34 36  1  0
 35 37  1  0
 35 38  1  0
 38 36  1  0
 36 39  1  0
 38 40  1  0
 41 39  1  0
 42 39  1  0
 43 41  2  0
 41 44  1  0
 45 42  2  0
 46 43  1  0
 44 47  2  0
 44 45  1  0
 48 46  2  0
 48 47  1  0
 47 49  1  0
  6 50  1  1
  7 51  1  0
  7 52  1  0
  8 53  1  0
  8 54  1  0
 10 55  1  0
 11 56  1  0
 12 57  1  0
 13 58  1  0
 16 59  1  1
 17 60  1  0
 17 61  1  0
 17 62  1  0
 19 63  1  0
 22 64  1  0
 28 65  1  0
 28 66  1  0
 32 67  1  0
 32 68  1  0
 33 69  1  0
 35 70  1  0
 36 71  1  0
 37 72  1  0
 38 73  1  0
 40 74  1  0
 42 75  1  0
 46 76  1  0
 49 77  1  0
 49 78  1  0
M  CHG  3   5  -1  23   1  26  -1
M  END
>  <EmbedRMS>  (324) 
0.0808297916166

$$$$

     RDKit          3D

 78 83  0  0  0  0  0  0  0  0999 V2000
   10.2834   43.7662   33.8257 C   0  0  0  0  0  0  0  0  0  0  0  0
   11.4102   43.5930   34.3752 O   0  0  0  0  0  0  0  0  0  0  0  0
    9.3637   42.7255   33.7350 O   0  0  0  0  0  0  0  0  0  0  0  0
    9.8905   41.2266   34.2934 P   0  0  0  0  0  0  0  0  0  0  0  0
   10.3744   41.4557   35.8827 O   0  0  0  0  0  0  0  0  0  0  0  0
    9.9546   45.0695   33.2037 C   0  0  1  0  0  0  0  0  0  0  0  0
   11.0273   46.0323   33.4757 N   0  0  0  0  0  0  0  0  0  0  0  0
    9.7465   44.8481   31.6879 C   0  0  0  0  0  0  0  0  0  0  0  0
    8.7922   45.8409   31.0848 C   0  0  0  0  0  0  0  0  0  0  0  0
    7.4057   45.6012   31.0985 C   0  0  0  0  0  0  0  0  0  0  0  0
    9.2821   46.9873   30.4419 C   0  0  0  0  0  0  0  0  0  0  0  0
    6.5271   46.5026   30.4828 C   0  0  0  0  0  0  0  0  0  0  0  0
    8.4032   47.8891   29.8307 C   0  0  0  0  0  0  0  0  0  0  0  0
    7.0137   47.6547   29.8496 C   0  0  0  0  0  0  0  0  0  0  0  0
    6.0856   48.5275   29.2577 O   0  0  0  0  0  0  0  0  0  0  0  0
    6.3916   49.7939   28.6729 C   0  0  1  0  0  0  0  0  0  0  0  0
    5.1835   50.2936   27.8799 C   0  0  0  0  0  0  0  0  0  0  0  0
    6.8087   50.8073   29.7289 C   0  0  0  0  0  0  0  0  0  0  0  0
    8.0497   51.4698   29.5614 C   0  0  0  0  0  0  0  0  0  0  0  0
    5.9784   51.1569   30.8469 C   0  0  0  0  0  0  0  0  0  0  0  0
    8.4214   52.4332   30.4899 C   0  0  0  0  0  0  0  0  0  0  0  0
    6.4026   52.1553   31.7515 C   0  0  0  0  0  0  0  0  0  0  0  0
    4.7081   50.5330   31.0688 N   0  0  0  0  0  0  0  0  0  0  0  0
    9.5748   53.1931   30.5241 O   0  0  0  0  0  0  0  0  0  0  0  0
    7.6323   52.7624   31.5379 C   0  0  0  0  0  0  0  0  0  0  0  0
    4.6508   49.2032   31.4117 O   0  0  0  0  0  0  0  0  0  0  0  0
    3.6974   51.2437   31.2452 O   0  0  0  0  0  0  0  0  0  0  0  0
    9.5040   54.0532   31.6696 C   0  0  0  0  0  0  0  0  0  0  0  0
    8.2472   53.7460   32.2883 O   0  0  0  0  0  0  0  0  0  0  0  0
    8.8122   40.1851   34.2128 O   0  0  0  0  0  0  0  0  0  0  0  0
   11.2403   40.7946   33.3668 O   0  0  0  0  0  0  0  0  0  0  0  0
   10.9126   40.6859   31.9954 C   0  0  0  0  0  0  0  0  0  0  0  0
   11.5175   39.3787   31.4405 C   0  0  0  0  0  0  0  0  0  0  0  0
   12.7490   39.0864   32.0752 O   0  0  0  0  0  0  0  0  0  0  0  0
   10.6061   38.1868   31.6656 C   0  0  0  0  0  0  0  0  0  0  0  0
   12.9356   37.6796   32.0292 C   0  0  0  0  0  0  0  0  0  0  0  0
    9.6399   38.0903   30.6471 O   0  0  0  0  0  0  0  0  0  0  0  0
   11.5765   37.0145   31.7044 C   0  0  0  0  0  0  0  0  0  0  0  0
   13.4858   37.2125   33.3244 N   0  0  0  0  0  0  0  0  0  0  0  0
   11.6101   36.3397   30.4673 O   0  0  0  0  0  0  0  0  0  0  0  0
   14.4805   36.3319   33.5729 C   0  0  0  0  0  0  0  0  0  0  0  0
   13.1143   37.6276   34.5694 C   0  0  0  0  0  0  0  0  0  0  0  0
   15.2076   35.6153   32.6741 N   0  0  0  0  0  0  0  0  0  0  0  0
   14.6760   36.2304   34.9184 C   0  0  0  0  0  0  0  0  0  0  0  0
   13.8219   37.0449   35.5786 N   0  0  0  0  0  0  0  0  0  0  0  0
   16.1641   34.7600   33.1548 C   0  0  0  0  0  0  0  0  0  0  0  0
   15.6528   35.3505   35.4132 C   0  0  0  0  0  0  0  0  0  0  0  0
   16.3795   34.6314   34.5043 N   0  0  0  0  0  0  0  0  0  0  0  0
   15.9002   35.1931   36.8091 N   0  0  0  0  0  0  0  0  0  0  0  0
    9.0120   45.4318   33.6716 H   0  0  0  0  0  0  0  0  0  0  0  0
   11.8905   45.7660   32.9470 H   0  0  0  0  0  0  0  0  0  0  0  0
   10.7258   46.9689   33.1213 H   0  0  0  0  0  0  0  0  0  0  0  0
   10.7229   44.8814   31.1558 H   0  0  0  0  0  0  0  0  0  0  0  0
    9.3413   43.8330   31.4765 H   0  0  0  0  0  0  0  0  0  0  0  0
    7.0083   44.7163   31.5802 H   0  0  0  0  0  0  0  0  0  0  0  0
   10.3470   47.1830   30.4089 H   0  0  0  0  0  0  0  0  0  0  0  0
    5.4625   46.3068   30.5017 H   0  0  0  0  0  0  0  0  0  0  0  0
    8.8192   48.7556   29.3398 H   0  0  0  0  0  0  0  0  0  0  0  0
    7.2059   49.6494   27.9283 H   0  0  0  0  0  0  0  0  0  0  0  0
    4.2799   50.3615   28.5187 H   0  0  0  0  0  0  0  0  0  0  0  0
    5.3971   51.2933   27.4444 H   0  0  0  0  0  0  0  0  0  0  0  0
    4.9664   49.5888   27.0494 H   0  0  0  0  0  0  0  0  0  0  0  0
    8.7036   51.2494   28.7272 H   0  0  0  0  0  0  0  0  0  0  0  0
    5.7933   52.4393   32.6001 H   0  0  0  0  0  0  0  0  0  0  0  0
   10.3387   53.8328   32.3676 H   0  0  0  0  0  0  0  0  0  0  0  0
    9.5253   55.1171   31.3529 H   0  0  0  0  0  0  0  0  0  0  0  0
    9.8215   40.7200   31.7636 H   0  0  0  0  0  0  0  0  0  0  0  0
   11.3803   41.5437   31.4663 H   0  0  0  0  0  0  0  0  0  0  0  0
   11.6998   39.5041   30.3482 H   0  0  0  0  0  0  0  0  0  0  0  0
   10.1085   38.2767   32.6603 H   0  0  0  0  0  0  0  0  0  0  0  0
   13.6680   37.4520   31.2229 H   0  0  0  0  0  0  0  0  0  0  0  0
    9.0016   37.3868   30.9349 H   0  0  0  0  0  0  0  0  0  0  0  0
   11.2666   36.3062   32.5083 H   0  0  0  0  0  0  0  0  0  0  0  0
   12.1389   35.5126   30.6150 H   0  0  0  0  0  0  0  0  0  0  0  0
   12.3300   38.3529   34.7449 H   0  0  0  0  0  0  0  0  0  0  0  0
   16.7560   34.1779   32.4620 H   0  0  0  0  0  0  0  0  0  0  0  0
   15.3534   35.7359   37.5140 H   0  0  0  0  0  0  0  0  0  0  0  0
   16.6347   34.5298   37.1416 H   0  0  0  0  0  0  0  0  0  0  0  0
  1  2  2  0
  1  3  1  0
  3  4  1  0
  4  5  1  0
  6  1  1  0
  7  6  1  0
  6  8  1  0
  8  9  1  0
  9 10  2  0
 11  9  1  0
 10 12  1  0
 13 11  2  0
 12 14  2  0
 14 13  1  0
 14 15  1  0
 15 16  1  0
 16 17  1  0
 16 18  1  0
 18 19  2  0
 20 18  1  0
 19 21  1  0
 22 20  2  0
 20 23  1  0
 21 24  1  0
 21 25  2  0
 25 22  1  0
 23 26  1  0
 23 27  2  0
 24 28  1  0
 25 29  1  0
 28 29  1  0
  4 30  2  0
  4 31  1  0
 32 31  1  0
 32 33  1  0
 33 34  1  0
 33 35  1  0
 34 36  1  0
 35 37  1  0
 35 38  1  0
 38 36  1  0
 36 39  1  0
 38 40  1  0
 41 39  1  0
 42 39  1  0
 43 41  2  0
 41 44  1  0
 45 42  2  0
 46 43  1  0
 44 47  2  0
 44 45  1  0
 48 46  2  0
 48 47  1  0
 47 49  1  0
  6 50  1  1
  7 51  1  0
  7 52  1  0
  8 53  1  0
  8 54  1  0
 10 55  1  0
 11 56  1  0
 12 57  1  0
 13 58  1  0
 16 59  1  6
 17 60  1  0
 17 61  1  0
 17 62  1  0
 19 63  1  0
 22 64  1  0
 28 65  1  0
 28 66  1  0
 32 67  1  0
 32 68  1  0
 33 69  1  0
 35 70  1  0
 36 71  1  0
 37 72  1  0
 38 73  1  0
 40 74  1  0
 42 75  1  0
 46 76  1  0
 49 77  1  0
 49 78  1  0
M  CHG  3   5  -1  23   1  26  -1
M  END
>  <EmbedRMS>  (325) 
0.0823951208882

$$$$

     RDKit          3D

 78 83  0  0  0  0  0  0  0  0999 V2000
   10.2833   43.7662   33.8253 C   0  0  0  0  0  0  0  0  0  0  0  0
   11.4100   43.5931   34.3750 O   0  0  0  0  0  0  0  0  0  0  0  0
    9.3636   42.7255   33.7348 O   0  0  0  0  0  0  0  0  0  0  0  0
    9.8902   41.2268   34.2941 P   0  0  0  0  0  0  0  0  0  0  0  0
   10.3736   41.4562   35.8835 O   0  0  0  0  0  0  0  0  0  0  0  0
    9.9545   45.0695   33.2029 C   0  0  1  0  0  0  0  0  0  0  0  0
   11.0272   46.0322   33.4753 N   0  0  0  0  0  0  0  0  0  0  0  0
    9.7466   44.8481   31.6868 C   0  0  0  0  0  0  0  0  0  0  0  0
    8.7921   45.8405   31.0831 C   0  0  0  0  0  0  0  0  0  0  0  0
    7.4043   45.6017   31.1004 C   0  0  0  0  0  0  0  0  0  0  0  0
    9.2821   46.9901   30.4433 C   0  0  0  0  0  0  0  0  0  0  0  0
    6.5250   46.5052   30.4884 C   0  0  0  0  0  0  0  0  0  0  0  0
    8.4012   47.8923   29.8349 C   0  0  0  0  0  0  0  0  0  0  0  0
    7.0204   47.6458   29.8417 C   0  0  0  0  0  0  0  0  0  0  0  0
    6.1285   48.5358   29.2345 O   0  0  0  0  0  0  0  0  0  0  0  0
    5.8874   48.6211   27.8230 C   0  0  1  0  0  0  0  0  0  0  0  0
    7.1267   49.0855   27.0491 C   0  0  0  0  0  0  0  0  0  0  0  0
    5.3166   47.3179   27.2710 C   0  0  0  0  0  0  0  0  0  0  0  0
    6.1356   46.1595   27.2365 C   0  0  0  0  0  0  0  0  0  0  0  0
    3.9499   47.2117   26.8453 C   0  0  0  0  0  0  0  0  0  0  0  0
    5.5734   44.9563   26.8325 C   0  0  0  0  0  0  0  0  0  0  0  0
    3.4292   45.9567   26.4567 C   0  0  0  0  0  0  0  0  0  0  0  0
    3.0925   48.3591   26.7763 N   0  0  0  0  0  0  0  0  0  0  0  0
    6.1751   43.7160   26.7404 O   0  0  0  0  0  0  0  0  0  0  0  0
    4.2763   44.8577   26.4646 C   0  0  0  0  0  0  0  0  0  0  0  0
    3.4481   49.4275   25.9857 O   0  0  0  0  0  0  0  0  0  0  0  0
    1.9196   48.2833   27.1964 O   0  0  0  0  0  0  0  0  0  0  0  0
    5.1897   42.7793   26.2842 C   0  0  0  0  0  0  0  0  0  0  0  0
    3.9918   43.5504   26.1197 O   0  0  0  0  0  0  0  0  0  0  0  0
    8.8121   40.1850   34.2131 O   0  0  0  0  0  0  0  0  0  0  0  0
   11.2404   40.7941   33.3690 O   0  0  0  0  0  0  0  0  0  0  0  0
   10.9143   40.6898   31.9972 C   0  0  0  0  0  0  0  0  0  0  0  0
   11.5261   39.3885   31.4376 C   0  0  0  0  0  0  0  0  0  0  0  0
   12.7504   39.0888   32.0816 O   0  0  0  0  0  0  0  0  0  0  0  0
   10.6114   38.1910   31.6460 C   0  0  0  0  0  0  0  0  0  0  0  0
   12.9357   37.6812   32.0303 C   0  0  0  0  0  0  0  0  0  0  0  0
    9.6145   38.0859   30.6533 O   0  0  0  0  0  0  0  0  0  0  0  0
   11.5769   37.0148   31.7012 C   0  0  0  0  0  0  0  0  0  0  0  0
   13.4849   37.2112   33.3247 N   0  0  0  0  0  0  0  0  0  0  0  0
   11.6192   36.3261   30.4724 O   0  0  0  0  0  0  0  0  0  0  0  0
   14.4802   36.3313   33.5730 C   0  0  0  0  0  0  0  0  0  0  0  0
   13.1141   37.6268   34.5698 C   0  0  0  0  0  0  0  0  0  0  0  0
   15.2075   35.6151   32.6741 N   0  0  0  0  0  0  0  0  0  0  0  0
   14.6761   36.2301   34.9184 C   0  0  0  0  0  0  0  0  0  0  0  0
   13.8220   37.0445   35.5789 N   0  0  0  0  0  0  0  0  0  0  0  0
   16.1642   34.7600   33.1547 C   0  0  0  0  0  0  0  0  0  0  0  0
   15.6529   35.3503   35.4131 C   0  0  0  0  0  0  0  0  0  0  0  0
   16.3797   34.6314   34.5042 N   0  0  0  0  0  0  0  0  0  0  0  0
   15.9004   35.1930   36.8090 N   0  0  0  0  0  0  0  0  0  0  0  0
    9.0118   45.4317   33.6706 H   0  0  0  0  0  0  0  0  0  0  0  0
   10.7257   46.9688   33.1212 H   0  0  0  0  0  0  0  0  0  0  0  0
   11.8904   45.7660   32.9465 H   0  0  0  0  0  0  0  0  0  0  0  0
    9.3417   43.8329   31.4753 H   0  0  0  0  0  0  0  0  0  0  0  0
   10.7229   44.8820   31.1548 H   0  0  0  0  0  0  0  0  0  0  0  0
    7.0071   44.7174   31.5832 H   0  0  0  0  0  0  0  0  0  0  0  0
   10.3459   47.1915   30.4179 H   0  0  0  0  0  0  0  0  0  0  0  0
    5.4598   46.3121   30.5037 H   0  0  0  0  0  0  0  0  0  0  0  0
    8.7941   48.7848   29.3667 H   0  0  0  0  0  0  0  0  0  0  0  0
    5.1479   49.4347   27.7083 H   0  0  0  0  0  0  0  0  0  0  0  0
    7.4979   50.0417   27.4748 H   0  0  0  0  0  0  0  0  0  0  0  0
    7.9437   48.3374   27.0912 H   0  0  0  0  0  0  0  0  0  0  0  0
    6.8620   49.2561   25.9837 H   0  0  0  0  0  0  0  0  0  0  0  0
    7.1745   46.1825   27.5348 H   0  0  0  0  0  0  0  0  0  0  0  0
    2.4008   45.8493   26.1360 H   0  0  0  0  0  0  0  0  0  0  0  0
    5.0332   41.9857   27.0446 H   0  0  0  0  0  0  0  0  0  0  0  0
    5.4987   42.3394   25.3129 H   0  0  0  0  0  0  0  0  0  0  0  0
   11.3778   41.5526   31.4726 H   0  0  0  0  0  0  0  0  0  0  0  0
    9.8233   40.7191   31.7646 H   0  0  0  0  0  0  0  0  0  0  0  0
   11.7283   39.5312   30.3515 H   0  0  0  0  0  0  0  0  0  0  0  0
   10.1126   38.2734   32.6376 H   0  0  0  0  0  0  0  0  0  0  0  0
   13.6692   37.4566   31.2242 H   0  0  0  0  0  0  0  0  0  0  0  0
   10.0533   38.1119   29.7635 H   0  0  0  0  0  0  0  0  0  0  0  0
   11.2606   36.3148   32.5102 H   0  0  0  0  0  0  0  0  0  0  0  0
   12.1495   35.5023   30.6324 H   0  0  0  0  0  0  0  0  0  0  0  0
   12.3301   38.3524   34.7455 H   0  0  0  0  0  0  0  0  0  0  0  0
   16.7563   34.1780   32.4619 H   0  0  0  0  0  0  0  0  0  0  0  0
   15.3536   35.7357   37.5139 H   0  0  0  0  0  0  0  0  0  0  0  0
   16.6351   34.5298   37.1415 H   0  0  0  0  0  0  0  0  0  0  0  0
  1  2  2  0
  1  3  1  0
  3  4  1  0
  4  5  1  0
  6  1  1  0
  7  6  1  0
  6  8  1  0
  8  9  1  0
  9 10  2  0
 11  9  1  0
 10 12  1  0
 13 11  2  0
 12 14  2  0
 14 13  1  0
 14 15  1  0
 15 16  1  0
 16 17  1  0
 16 18  1  0
 18 19  2  0
 20 18  1  0
 19 21  1  0
 22 20  2  0
 20 23  1  0
 21 24  1  0
 21 25  2  0
 25 22  1  0
 23 26  1  0
 23 27  2  0
 24 28  1  0
 25 29  1  0
 28 29  1  0
  4 30  2  0
  4 31  1  0
 32 31  1  0
 32 33  1  0
 33 34  1  0
 33 35  1  0
 34 36  1  0
 35 37  1  0
 35 38  1  0
 38 36  1  0
 36 39  1  0
 38 40  1  0
 41 39  1  0
 42 39  1  0
 43 41  2  0
 41 44  1  0
 45 42  2  0
 46 43  1  0
 44 47  2  0
 44 45  1  0
 48 46  2  0
 48 47  1  0
 47 49  1  0
  6 50  1  1
  7 51  1  0
  7 52  1  0
  8 53  1  0
  8 54  1  0
 10 55  1  0
 11 56  1  0
 12 57  1  0
 13 58  1  0
 16 59  1  1
 17 60  1  0
 17 61  1  0
 17 62  1  0
 19 63  1  0
 22 64  1  0
 28 65  1  0
 28 66  1  0
 32 67  1  0
 32 68  1  0
 33 69  1  0
 35 70  1  0
 36 71  1  0
 37 72  1  0
 38 73  1  0
 40 74  1  0
 42 75  1  0
 46 76  1  0
 49 77  1  0
 49 78  1  0
M  CHG  3   5  -1  23   1  26  -1
M  END
>  <EmbedRMS>  (326) 
0.0817511455363

$$$$

     RDKit          3D

 78 83  0  0  0  0  0  0  0  0999 V2000
   10.2834   43.7662   33.8257 C   0  0  0  0  0  0  0  0  0  0  0  0
   11.4102   43.5929   34.3752 O   0  0  0  0  0  0  0  0  0  0  0  0
    9.3635   42.7257   33.7352 O   0  0  0  0  0  0  0  0  0  0  0  0
    9.8899   41.2270   34.2947 P   0  0  0  0  0  0  0  0  0  0  0  0
   10.3732   41.4563   35.8841 O   0  0  0  0  0  0  0  0  0  0  0  0
    9.9548   45.0696   33.2036 C   0  0  1  0  0  0  0  0  0  0  0  0
   11.0275   46.0322   33.4760 N   0  0  0  0  0  0  0  0  0  0  0  0
    9.7471   44.8484   31.6877 C   0  0  0  0  0  0  0  0  0  0  0  0
    8.7926   45.8411   31.0847 C   0  0  0  0  0  0  0  0  0  0  0  0
    7.4061   45.6011   31.0991 C   0  0  0  0  0  0  0  0  0  0  0  0
    9.2817   46.9876   30.4420 C   0  0  0  0  0  0  0  0  0  0  0  0
    6.5243   46.5005   30.4841 C   0  0  0  0  0  0  0  0  0  0  0  0
    8.4005   47.8874   29.8318 C   0  0  0  0  0  0  0  0  0  0  0  0
    7.0181   47.6580   29.8466 C   0  0  0  0  0  0  0  0  0  0  0  0
    6.1875   48.5961   29.2110 O   0  0  0  0  0  0  0  0  0  0  0  0
    4.7575   48.5990   29.2216 C   0  0  1  0  0  0  0  0  0  0  0  0
    4.2337   49.0472   30.5928 C   0  0  0  0  0  0  0  0  0  0  0  0
    4.2646   49.5385   28.1352 C   0  0  0  0  0  0  0  0  0  0  0  0
    4.6746   50.8948   28.1771 C   0  0  0  0  0  0  0  0  0  0  0  0
    3.3703   49.1122   27.0965 C   0  0  0  0  0  0  0  0  0  0  0  0
    4.1598   51.7748   27.2341 C   0  0  0  0  0  0  0  0  0  0  0  0
    2.8648   50.0569   26.1758 C   0  0  0  0  0  0  0  0  0  0  0  0
    2.9850   47.7391   26.9456 N   0  0  0  0  0  0  0  0  0  0  0  0
    4.4086   53.1266   27.0948 O   0  0  0  0  0  0  0  0  0  0  0  0
    3.2883   51.3749   26.2799 C   0  0  0  0  0  0  0  0  0  0  0  0
    1.6810   47.4303   26.6348 O   0  0  0  0  0  0  0  0  0  0  0  0
    3.8606   46.8598   26.8103 O   0  0  0  0  0  0  0  0  0  0  0  0
    3.6431   53.6047   25.9802 C   0  0  0  0  0  0  0  0  0  0  0  0
    2.9427   52.4537   25.4889 O   0  0  0  0  0  0  0  0  0  0  0  0
    8.8120   40.1850   34.2133 O   0  0  0  0  0  0  0  0  0  0  0  0
   11.2403   40.7947   33.3700 O   0  0  0  0  0  0  0  0  0  0  0  0
   10.9144   40.6914   31.9982 C   0  0  0  0  0  0  0  0  0  0  0  0
   11.5270   39.3912   31.4385 C   0  0  0  0  0  0  0  0  0  0  0  0
   12.7520   39.0911   32.0836 O   0  0  0  0  0  0  0  0  0  0  0  0
   10.6113   38.1932   31.6451 C   0  0  0  0  0  0  0  0  0  0  0  0
   12.9413   37.6838   32.0297 C   0  0  0  0  0  0  0  0  0  0  0  0
    9.6064   38.0878   30.6599 O   0  0  0  0  0  0  0  0  0  0  0  0
   11.5822   37.0197   31.6877 C   0  0  0  0  0  0  0  0  0  0  0  0
   13.4840   37.2105   33.3254 N   0  0  0  0  0  0  0  0  0  0  0  0
   11.6179   36.3072   30.4690 O   0  0  0  0  0  0  0  0  0  0  0  0
   14.4797   36.3309   33.5738 C   0  0  0  0  0  0  0  0  0  0  0  0
   13.1137   37.6269   34.5702 C   0  0  0  0  0  0  0  0  0  0  0  0
   15.2074   35.6152   32.6747 N   0  0  0  0  0  0  0  0  0  0  0  0
   14.6756   36.2298   34.9190 C   0  0  0  0  0  0  0  0  0  0  0  0
   13.8217   37.0446   35.5793 N   0  0  0  0  0  0  0  0  0  0  0  0
   16.1643   34.7603   33.1551 C   0  0  0  0  0  0  0  0  0  0  0  0
   15.6528   35.3503   35.4136 C   0  0  0  0  0  0  0  0  0  0  0  0
   16.3798   34.6316   34.5046 N   0  0  0  0  0  0  0  0  0  0  0  0
   15.9004   35.1930   36.8094 N   0  0  0  0  0  0  0  0  0  0  0  0
    9.0122   45.4318   33.6714 H   0  0  0  0  0  0  0  0  0  0  0  0
   10.7262   46.9688   33.1215 H   0  0  0  0  0  0  0  0  0  0  0  0
   11.8909   45.7658   32.9476 H   0  0  0  0  0  0  0  0  0  0  0  0
   10.7236   44.8824   31.1559 H   0  0  0  0  0  0  0  0  0  0  0  0
    9.3425   43.8332   31.4759 H   0  0  0  0  0  0  0  0  0  0  0  0
    7.0108   44.7148   31.5802 H   0  0  0  0  0  0  0  0  0  0  0  0
   10.3460   47.1858   30.4098 H   0  0  0  0  0  0  0  0  0  0  0  0
    5.4681   46.2769   30.5105 H   0  0  0  0  0  0  0  0  0  0  0  0
    8.7945   48.7686   29.3414 H   0  0  0  0  0  0  0  0  0  0  0  0
    4.3833   47.5746   29.0434 H   0  0  0  0  0  0  0  0  0  0  0  0
    3.1257   49.1266   30.5706 H   0  0  0  0  0  0  0  0  0  0  0  0
    4.6619   50.0304   30.8801 H   0  0  0  0  0  0  0  0  0  0  0  0
    4.5104   48.3109   31.3747 H   0  0  0  0  0  0  0  0  0  0  0  0
    5.3637   51.2557   28.9299 H   0  0  0  0  0  0  0  0  0  0  0  0
    2.1843   49.7647   25.3864 H   0  0  0  0  0  0  0  0  0  0  0  0
    2.9210   54.3790   26.3141 H   0  0  0  0  0  0  0  0  0  0  0  0
    4.3175   54.0068   25.1953 H   0  0  0  0  0  0  0  0  0  0  0  0
    9.8234   40.7201   31.7654 H   0  0  0  0  0  0  0  0  0  0  0  0
   11.3776   41.5549   31.4745 H   0  0  0  0  0  0  0  0  0  0  0  0
   11.7311   39.5363   30.3532 H   0  0  0  0  0  0  0  0  0  0  0  0
   10.1202   38.2696   32.6410 H   0  0  0  0  0  0  0  0  0  0  0  0
   13.6850   37.4638   31.2321 H   0  0  0  0  0  0  0  0  0  0  0  0
   10.0251   38.1792   29.7654 H   0  0  0  0  0  0  0  0  0  0  0  0
   11.2757   36.3135   32.4908 H   0  0  0  0  0  0  0  0  0  0  0  0
   11.9838   36.9111   29.7708 H   0  0  0  0  0  0  0  0  0  0  0  0
   12.3307   38.3537   34.7458 H   0  0  0  0  0  0  0  0  0  0  0  0
   16.7565   34.1787   32.4622 H   0  0  0  0  0  0  0  0  0  0  0  0
   16.6353   34.5301   37.1418 H   0  0  0  0  0  0  0  0  0  0  0  0
   15.3535   35.7355   37.5144 H   0  0  0  0  0  0  0  0  0  0  0  0
  1  2  2  0
  1  3  1  0
  3  4  1  0
  4  5  1  0
  6  1  1  0
  7  6  1  0
  6  8  1  0
  8  9  1  0
  9 10  2  0
 11  9  1  0
 10 12  1  0
 13 11  2  0
 12 14  2  0
 14 13  1  0
 14 15  1  0
 15 16  1  0
 16 17  1  0
 16 18  1  0
 18 19  2  0
 20 18  1  0
 19 21  1  0
 22 20  2  0
 20 23  1  0
 21 24  1  0
 21 25  2  0
 25 22  1  0
 23 26  1  0
 23 27  2  0
 24 28  1  0
 25 29  1  0
 28 29  1  0
  4 30  2  0
  4 31  1  0
 32 31  1  0
 32 33  1  0
 33 34  1  0
 33 35  1  0
 34 36  1  0
 35 37  1  0
 35 38  1  0
 38 36  1  0
 36 39  1  0
 38 40  1  0
 41 39  1  0
 42 39  1  0
 43 41  2  0
 41 44  1  0
 45 42  2  0
 46 43  1  0
 44 47  2  0
 44 45  1  0
 48 46  2  0
 48 47  1  0
 47 49  1  0
  6 50  1  1
  7 51  1  0
  7 52  1  0
  8 53  1  0
  8 54  1  0
 10 55  1  0
 11 56  1  0
 12 57  1  0
 13 58  1  0
 16 59  1  6
 17 60  1  0
 17 61  1  0
 17 62  1  0
 19 63  1  0
 22 64  1  0
 28 65  1  0
 28 66  1  0
 32 67  1  0
 32 68  1  0
 33 69  1  0
 35 70  1  0
 36 71  1  0
 37 72  1  0
 38 73  1  0
 40 74  1  0
 42 75  1  0
 46 76  1  0
 49 77  1  0
 49 78  1  0
M  CHG  3   5  -1  23   1  26  -1
M  END
>  <EmbedRMS>  (327) 
0.0807974961352

$$$$

     RDKit          3D

 78 83  0  0  0  0  0  0  0  0999 V2000
   10.2837   43.7627   33.8273 C   0  0  0  0  0  0  0  0  0  0  0  0
   11.4101   43.5864   34.3764 O   0  0  0  0  0  0  0  0  0  0  0  0
    9.3629   42.7236   33.7352 O   0  0  0  0  0  0  0  0  0  0  0  0
    9.8893   41.2250   34.2943 P   0  0  0  0  0  0  0  0  0  0  0  0
   10.3727   41.4547   35.8837 O   0  0  0  0  0  0  0  0  0  0  0  0
    9.9547   45.0700   33.2059 C   0  0  1  0  0  0  0  0  0  0  0  0
   11.0197   46.0481   33.4566 N   0  0  0  0  0  0  0  0  0  0  0  0
    9.7501   44.8511   31.6917 C   0  0  0  0  0  0  0  0  0  0  0  0
    8.7940   45.8419   31.0861 C   0  0  0  0  0  0  0  0  0  0  0  0
    7.4060   45.6010   31.1014 C   0  0  0  0  0  0  0  0  0  0  0  0
    9.2831   46.9914   30.4451 C   0  0  0  0  0  0  0  0  0  0  0  0
    6.5258   46.5030   30.4880 C   0  0  0  0  0  0  0  0  0  0  0  0
    8.4012   47.8916   29.8346 C   0  0  0  0  0  0  0  0  0  0  0  0
    7.0221   47.6455   29.8434 C   0  0  0  0  0  0  0  0  0  0  0  0
    6.1454   48.5449   29.2291 O   0  0  0  0  0  0  0  0  0  0  0  0
    5.6678   48.3911   27.8886 C   0  0  1  0  0  0  0  0  0  0  0  0
    6.7937   48.6346   26.8729 C   0  0  0  0  0  0  0  0  0  0  0  0
    4.9480   47.0582   27.7056 C   0  0  0  0  0  0  0  0  0  0  0  0
    5.6823   45.8990   27.3407 C   0  0  0  0  0  0  0  0  0  0  0  0
    3.5310   46.9452   27.9127 C   0  0  0  0  0  0  0  0  0  0  0  0
    4.9944   44.7097   27.1434 C   0  0  0  0  0  0  0  0  0  0  0  0
    2.8837   45.7117   27.6747 C   0  0  0  0  0  0  0  0  0  0  0  0
    2.7450   48.0494   28.3899 N   0  0  0  0  0  0  0  0  0  0  0  0
    5.5001   43.4757   26.7822 O   0  0  0  0  0  0  0  0  0  0  0  0
    3.6540   44.6216   27.2956 C   0  0  0  0  0  0  0  0  0  0  0  0
    1.4426   48.1938   27.9705 O   0  0  0  0  0  0  0  0  0  0  0  0
    3.1486   48.7419   29.3469 O   0  0  0  0  0  0  0  0  0  0  0  0
    4.4039   42.5548   26.7015 C   0  0  0  0  0  0  0  0  0  0  0  0
    3.2436   43.3279   27.0371 O   0  0  0  0  0  0  0  0  0  0  0  0
    8.8113   40.1834   34.2129 O   0  0  0  0  0  0  0  0  0  0  0  0
   11.2399   40.7932   33.3692 O   0  0  0  0  0  0  0  0  0  0  0  0
   10.9143   40.6896   31.9973 C   0  0  0  0  0  0  0  0  0  0  0  0
   11.5261   39.3884   31.4375 C   0  0  0  0  0  0  0  0  0  0  0  0
   12.7504   39.0887   32.0815 O   0  0  0  0  0  0  0  0  0  0  0  0
   10.6115   38.1909   31.6460 C   0  0  0  0  0  0  0  0  0  0  0  0
   12.9357   37.6812   32.0303 C   0  0  0  0  0  0  0  0  0  0  0  0
    9.6145   38.0858   30.6533 O   0  0  0  0  0  0  0  0  0  0  0  0
   11.5769   37.0148   31.7012 C   0  0  0  0  0  0  0  0  0  0  0  0
   13.4849   37.2112   33.3247 N   0  0  0  0  0  0  0  0  0  0  0  0
   11.6193   36.3261   30.4723 O   0  0  0  0  0  0  0  0  0  0  0  0
   14.4802   36.3313   33.5730 C   0  0  0  0  0  0  0  0  0  0  0  0
   13.1141   37.6268   34.5697 C   0  0  0  0  0  0  0  0  0  0  0  0
   15.2075   35.6151   32.6741 N   0  0  0  0  0  0  0  0  0  0  0  0
   14.6760   36.2300   34.9184 C   0  0  0  0  0  0  0  0  0  0  0  0
   13.8220   37.0445   35.5789 N   0  0  0  0  0  0  0  0  0  0  0  0
   16.1642   34.7600   33.1547 C   0  0  0  0  0  0  0  0  0  0  0  0
   15.6529   35.3503   35.4131 C   0  0  0  0  0  0  0  0  0  0  0  0
   16.3797   34.6314   34.5042 N   0  0  0  0  0  0  0  0  0  0  0  0
   15.9004   35.1930   36.8090 N   0  0  0  0  0  0  0  0  0  0  0  0
    9.0097   45.4349   33.6665 H   0  0  0  0  0  0  0  0  0  0  0  0
   11.9347   45.6933   33.0922 H   0  0  0  0  0  0  0  0  0  0  0  0
   11.1132   46.1991   34.4879 H   0  0  0  0  0  0  0  0  0  0  0  0
   10.7303   44.8930   31.1668 H   0  0  0  0  0  0  0  0  0  0  0  0
    9.3510   43.8346   31.4755 H   0  0  0  0  0  0  0  0  0  0  0  0
    7.0095   44.7169   31.5853 H   0  0  0  0  0  0  0  0  0  0  0  0
   10.3469   47.1924   30.4174 H   0  0  0  0  0  0  0  0  0  0  0  0
    5.4606   46.3116   30.5100 H   0  0  0  0  0  0  0  0  0  0  0  0
    8.7899   48.7765   29.3472 H   0  0  0  0  0  0  0  0  0  0  0  0
    4.9435   49.2106   27.6993 H   0  0  0  0  0  0  0  0  0  0  0  0
    7.1484   49.6838   26.9571 H   0  0  0  0  0  0  0  0  0  0  0  0
    7.6622   47.9697   27.0543 H   0  0  0  0  0  0  0  0  0  0  0  0
    6.4193   48.4729   25.8395 H   0  0  0  0  0  0  0  0  0  0  0  0
    6.7555   45.9114   27.2167 H   0  0  0  0  0  0  0  0  0  0  0  0
    1.8168   45.5978   27.8166 H   0  0  0  0  0  0  0  0  0  0  0  0
    4.3129   42.1553   25.6698 H   0  0  0  0  0  0  0  0  0  0  0  0
    4.5400   41.7308   27.4330 H   0  0  0  0  0  0  0  0  0  0  0  0
   11.3782   41.5526   31.4732 H   0  0  0  0  0  0  0  0  0  0  0  0
    9.8233   40.7192   31.7643 H   0  0  0  0  0  0  0  0  0  0  0  0
   11.7283   39.5312   30.3514 H   0  0  0  0  0  0  0  0  0  0  0  0
   10.1127   38.2733   32.6375 H   0  0  0  0  0  0  0  0  0  0  0  0
   13.6692   37.4565   31.2241 H   0  0  0  0  0  0  0  0  0  0  0  0
   10.0533   38.1118   29.7635 H   0  0  0  0  0  0  0  0  0  0  0  0
   11.2606   36.3148   32.5101 H   0  0  0  0  0  0  0  0  0  0  0  0
   12.1496   35.5022   30.6323 H   0  0  0  0  0  0  0  0  0  0  0  0
   12.3301   38.3524   34.7455 H   0  0  0  0  0  0  0  0  0  0  0  0
   16.7563   34.1781   32.4619 H   0  0  0  0  0  0  0  0  0  0  0  0
   15.3535   35.7357   37.5139 H   0  0  0  0  0  0  0  0  0  0  0  0
   16.6350   34.5298   37.1416 H   0  0  0  0  0  0  0  0  0  0  0  0
  1  2  2  0
  1  3  1  0
  3  4  1  0
  4  5  1  0
  6  1  1  0
  7  6  1  0
  6  8  1  0
  8  9  1  0
  9 10  2  0
 11  9  1  0
 10 12  1  0
 13 11  2  0
 12 14  2  0
 14 13  1  0
 14 15  1  0
 15 16  1  0
 16 17  1  0
 16 18  1  0
 18 19  2  0
 20 18  1  0
 19 21  1  0
 22 20  2  0
 20 23  1  0
 21 24  1  0
 21 25  2  0
 25 22  1  0
 23 26  1  0
 23 27  2  0
 24 28  1  0
 25 29  1  0
 28 29  1  0
  4 30  2  0
  4 31  1  0
 32 31  1  0
 32 33  1  0
 33 34  1  0
 33 35  1  0
 34 36  1  0
 35 37  1  0
 35 38  1  0
 38 36  1  0
 36 39  1  0
 38 40  1  0
 41 39  1  0
 42 39  1  0
 43 41  2  0
 41 44  1  0
 45 42  2  0
 46 43  1  0
 44 47  2  0
 44 45  1  0
 48 46  2  0
 48 47  1  0
 47 49  1  0
  6 50  1  1
  7 51  1  0
  7 52  1  0
  8 53  1  0
  8 54  1  0
 10 55  1  0
 11 56  1  0
 12 57  1  0
 13 58  1  0
 16 59  1  6
 17 60  1  0
 17 61  1  0
 17 62  1  0
 19 63  1  0
 22 64  1  0
 28 65  1  0
 28 66  1  0
 32 67  1  0
 32 68  1  0
 33 69  1  0
 35 70  1  0
 36 71  1  0
 37 72  1  0
 38 73  1  0
 40 74  1  0
 42 75  1  0
 46 76  1  0
 49 77  1  0
 49 78  1  0
M  CHG  3   5  -1  23   1  26  -1
M  END
>  <EmbedRMS>  (328) 
0.0826479918485

$$$$

     RDKit          3D

 78 83  0  0  0  0  0  0  0  0999 V2000
   10.2802   43.7666   33.8251 C   0  0  0  0  0  0  0  0  0  0  0  0
   11.4110   43.5920   34.3666 O   0  0  0  0  0  0  0  0  0  0  0  0
    9.3616   42.7252   33.7349 O   0  0  0  0  0  0  0  0  0  0  0  0
    9.8899   41.2268   34.2939 P   0  0  0  0  0  0  0  0  0  0  0  0
   10.3739   41.4565   35.8831 O   0  0  0  0  0  0  0  0  0  0  0  0
    9.9457   45.0737   33.2112 C   0  0  1  0  0  0  0  0  0  0  0  0
   11.0265   46.0294   33.4705 N   0  0  0  0  0  0  0  0  0  0  0  0
    9.7535   44.8538   31.6950 C   0  0  0  0  0  0  0  0  0  0  0  0
    8.7955   45.8410   31.0846 C   0  0  0  0  0  0  0  0  0  0  0  0
    7.4087   45.6001   31.1001 C   0  0  0  0  0  0  0  0  0  0  0  0
    9.2831   46.9874   30.4395 C   0  0  0  0  0  0  0  0  0  0  0  0
    6.5283   46.5006   30.4848 C   0  0  0  0  0  0  0  0  0  0  0  0
    8.4027   47.8888   29.8299 C   0  0  0  0  0  0  0  0  0  0  0  0
    7.0135   47.6520   29.8501 C   0  0  0  0  0  0  0  0  0  0  0  0
    6.0849   48.5292   29.2653 O   0  0  0  0  0  0  0  0  0  0  0  0
    6.4048   49.7759   28.6437 C   0  0  1  0  0  0  0  0  0  0  0  0
    5.1847   50.3114   27.8953 C   0  0  0  0  0  0  0  0  0  0  0  0
    6.9153   50.8068   29.6403 C   0  0  0  0  0  0  0  0  0  0  0  0
    7.8629   51.7468   29.1675 C   0  0  0  0  0  0  0  0  0  0  0  0
    6.5257   50.8424   31.0247 C   0  0  0  0  0  0  0  0  0  0  0  0
    8.4056   52.6563   30.0649 C   0  0  0  0  0  0  0  0  0  0  0  0
    7.1257   51.7834   31.8932 C   0  0  0  0  0  0  0  0  0  0  0  0
    5.5464   49.9429   31.5672 N   0  0  0  0  0  0  0  0  0  0  0  0
    9.3414   53.6443   29.8262 O   0  0  0  0  0  0  0  0  0  0  0  0
    8.0557   52.6712   31.3707 C   0  0  0  0  0  0  0  0  0  0  0  0
    4.3215   49.8000   30.9598 O   0  0  0  0  0  0  0  0  0  0  0  0
    5.7165   49.4489   32.7010 O   0  0  0  0  0  0  0  0  0  0  0  0
    9.5935   54.3229   31.0642 C   0  0  0  0  0  0  0  0  0  0  0  0
    8.7518   53.6698   32.0243 O   0  0  0  0  0  0  0  0  0  0  0  0
    8.8123   40.1845   34.2134 O   0  0  0  0  0  0  0  0  0  0  0  0
   11.2400   40.7955   33.3679 O   0  0  0  0  0  0  0  0  0  0  0  0
   10.9124   40.6877   31.9967 C   0  0  0  0  0  0  0  0  0  0  0  0
   11.5169   39.3811   31.4420 C   0  0  0  0  0  0  0  0  0  0  0  0
   12.7500   39.0881   32.0760 O   0  0  0  0  0  0  0  0  0  0  0  0
   10.6042   38.1893   31.6659 C   0  0  0  0  0  0  0  0  0  0  0  0
   12.9395   37.6814   32.0280 C   0  0  0  0  0  0  0  0  0  0  0  0
    9.6353   38.0951   30.6499 O   0  0  0  0  0  0  0  0  0  0  0  0
   11.5804   37.0191   31.6934 C   0  0  0  0  0  0  0  0  0  0  0  0
   13.4851   37.2119   33.3244 N   0  0  0  0  0  0  0  0  0  0  0  0
   11.6118   36.3189   30.4674 O   0  0  0  0  0  0  0  0  0  0  0  0
   14.4801   36.3316   33.5732 C   0  0  0  0  0  0  0  0  0  0  0  0
   13.1139   37.6277   34.5692 C   0  0  0  0  0  0  0  0  0  0  0  0
   15.2076   35.6154   32.6744 N   0  0  0  0  0  0  0  0  0  0  0  0
   14.6756   36.2303   34.9186 C   0  0  0  0  0  0  0  0  0  0  0  0
   13.8215   37.0451   35.5786 N   0  0  0  0  0  0  0  0  0  0  0  0
   16.1642   34.7602   33.1551 C   0  0  0  0  0  0  0  0  0  0  0  0
   15.6526   35.3505   35.4134 C   0  0  0  0  0  0  0  0  0  0  0  0
   16.3796   34.6316   34.5045 N   0  0  0  0  0  0  0  0  0  0  0  0
   15.9001   35.1933   36.8093 N   0  0  0  0  0  0  0  0  0  0  0  0
    8.9994   45.4384   33.6722 H   0  0  0  0  0  0  0  0  0  0  0  0
   10.7760   46.9370   33.0156 H   0  0  0  0  0  0  0  0  0  0  0  0
   11.0502   46.2280   34.4979 H   0  0  0  0  0  0  0  0  0  0  0  0
    9.3635   43.8352   31.4717 H   0  0  0  0  0  0  0  0  0  0  0  0
   10.7406   44.9069   31.1836 H   0  0  0  0  0  0  0  0  0  0  0  0
    7.0130   44.7161   31.5847 H   0  0  0  0  0  0  0  0  0  0  0  0
   10.3473   47.1858   30.4061 H   0  0  0  0  0  0  0  0  0  0  0  0
    5.4635   46.3058   30.5075 H   0  0  0  0  0  0  0  0  0  0  0  0
    8.8155   48.7625   29.3462 H   0  0  0  0  0  0  0  0  0  0  0  0
    7.1845   49.5814   27.8731 H   0  0  0  0  0  0  0  0  0  0  0  0
    4.8114   49.5416   27.1871 H   0  0  0  0  0  0  0  0  0  0  0  0
    5.4623   51.2163   27.3132 H   0  0  0  0  0  0  0  0  0  0  0  0
    4.3661   50.5788   28.5926 H   0  0  0  0  0  0  0  0  0  0  0  0
    8.1794   51.7581   28.1320 H   0  0  0  0  0  0  0  0  0  0  0  0
    6.8596   51.8314   32.9413 H   0  0  0  0  0  0  0  0  0  0  0  0
   10.6600   54.2129   31.3522 H   0  0  0  0  0  0  0  0  0  0  0  0
    9.3167   55.3945   30.9782 H   0  0  0  0  0  0  0  0  0  0  0  0
   11.3806   41.5456   31.4682 H   0  0  0  0  0  0  0  0  0  0  0  0
    9.8214   40.7221   31.7645 H   0  0  0  0  0  0  0  0  0  0  0  0
   11.6986   39.5088   30.3499 H   0  0  0  0  0  0  0  0  0  0  0  0
   10.1109   38.2737   32.6630 H   0  0  0  0  0  0  0  0  0  0  0  0
   13.6783   37.4562   31.2271 H   0  0  0  0  0  0  0  0  0  0  0  0
    9.0020   37.3860   30.9348 H   0  0  0  0  0  0  0  0  0  0  0  0
   11.2807   36.3052   32.4921 H   0  0  0  0  0  0  0  0  0  0  0  0
   11.8818   36.9600   29.7584 H   0  0  0  0  0  0  0  0  0  0  0  0
   12.3303   38.3538   34.7446 H   0  0  0  0  0  0  0  0  0  0  0  0
   16.7563   34.1783   32.4624 H   0  0  0  0  0  0  0  0  0  0  0  0
   16.6348   34.5302   37.1418 H   0  0  0  0  0  0  0  0  0  0  0  0
   15.3532   35.7359   37.5142 H   0  0  0  0  0  0  0  0  0  0  0  0
  1  2  2  0
  1  3  1  0
  3  4  1  0
  4  5  1  0
  6  1  1  0
  7  6  1  0
  6  8  1  0
  8  9  1  0
  9 10  2  0
 11  9  1  0
 10 12  1  0
 13 11  2  0
 12 14  2  0
 14 13  1  0
 14 15  1  0
 15 16  1  0
 16 17  1  0
 16 18  1  0
 18 19  2  0
 20 18  1  0
 19 21  1  0
 22 20  2  0
 20 23  1  0
 21 24  1  0
 21 25  2  0
 25 22  1  0
 23 26  1  0
 23 27  2  0
 24 28  1  0
 25 29  1  0
 28 29  1  0
  4 30  2  0
  4 31  1  0
 32 31  1  0
 32 33  1  0
 33 34  1  0
 33 35  1  0
 34 36  1  0
 35 37  1  0
 35 38  1  0
 38 36  1  0
 36 39  1  0
 38 40  1  0
 41 39  1  0
 42 39  1  0
 43 41  2  0
 41 44  1  0
 45 42  2  0
 46 43  1  0
 44 47  2  0
 44 45  1  0
 48 46  2  0
 48 47  1  0
 47 49  1  0
  6 50  1  1
  7 51  1  0
  7 52  1  0
  8 53  1  0
  8 54  1  0
 10 55  1  0
 11 56  1  0
 12 57  1  0
 13 58  1  0
 16 59  1  6
 17 60  1  0
 17 61  1  0
 17 62  1  0
 19 63  1  0
 22 64  1  0
 28 65  1  0
 28 66  1  0
 32 67  1  0
 32 68  1  0
 33 69  1  0
 35 70  1  0
 36 71  1  0
 37 72  1  0
 38 73  1  0
 40 74  1  0
 42 75  1  0
 46 76  1  0
 49 77  1  0
 49 78  1  0
M  CHG  3   5  -1  23   1  26  -1
M  END
>  <EmbedRMS>  (329) 
0.0814038338827

$$$$

     RDKit          3D

 78 83  0  0  0  0  0  0  0  0999 V2000
   10.2839   43.7624   33.8275 C   0  0  0  0  0  0  0  0  0  0  0  0
   11.4102   43.5858   34.3767 O   0  0  0  0  0  0  0  0  0  0  0  0
    9.3630   42.7234   33.7349 O   0  0  0  0  0  0  0  0  0  0  0  0
    9.8891   41.2248   34.2945 P   0  0  0  0  0  0  0  0  0  0  0  0
   10.3730   41.4546   35.8838 O   0  0  0  0  0  0  0  0  0  0  0  0
    9.9550   45.0701   33.2068 C   0  0  1  0  0  0  0  0  0  0  0  0
   11.0202   46.0479   33.4574 N   0  0  0  0  0  0  0  0  0  0  0  0
    9.7508   44.8516   31.6927 C   0  0  0  0  0  0  0  0  0  0  0  0
    8.7947   45.8423   31.0875 C   0  0  0  0  0  0  0  0  0  0  0  0
    7.4084   45.6021   31.1022 C   0  0  0  0  0  0  0  0  0  0  0  0
    9.2824   46.9892   30.4453 C   0  0  0  0  0  0  0  0  0  0  0  0
    6.5262   46.5006   30.4863 C   0  0  0  0  0  0  0  0  0  0  0  0
    8.4003   47.8872   29.8337 C   0  0  0  0  0  0  0  0  0  0  0  0
    7.0181   47.6542   29.8407 C   0  0  0  0  0  0  0  0  0  0  0  0
    6.1933   48.5964   29.1984 O   0  0  0  0  0  0  0  0  0  0  0  0
    4.7728   48.5341   29.0111 C   0  0  1  0  0  0  0  0  0  0  0  0
    4.4179   47.4250   28.0069 C   0  0  0  0  0  0  0  0  0  0  0  0
    4.0305   48.5108   30.3481 C   0  0  0  0  0  0  0  0  0  0  0  0
    3.0324   47.5326   30.6108 C   0  0  0  0  0  0  0  0  0  0  0  0
    4.3455   49.4691   31.3747 C   0  0  0  0  0  0  0  0  0  0  0  0
    2.4291   47.5139   31.8606 C   0  0  0  0  0  0  0  0  0  0  0  0
    3.7053   49.3874   32.6318 C   0  0  0  0  0  0  0  0  0  0  0  0
    5.3084   50.5174   31.1677 N   0  0  0  0  0  0  0  0  0  0  0  0
    1.4563   46.6524   32.3300 O   0  0  0  0  0  0  0  0  0  0  0  0
    2.7535   48.3987   32.8289 C   0  0  0  0  0  0  0  0  0  0  0  0
    6.0694   50.9641   32.2243 O   0  0  0  0  0  0  0  0  0  0  0  0
    5.3098   51.1775   30.1095 O   0  0  0  0  0  0  0  0  0  0  0  0
    1.1500   47.0248   33.6807 C   0  0  0  0  0  0  0  0  0  0  0  0
    2.0017   48.1443   33.9597 O   0  0  0  0  0  0  0  0  0  0  0  0
    8.8108   40.1835   34.2132 O   0  0  0  0  0  0  0  0  0  0  0  0
   11.2399   40.7928   33.3697 O   0  0  0  0  0  0  0  0  0  0  0  0
   10.9153   40.6906   31.9975 C   0  0  0  0  0  0  0  0  0  0  0  0
   11.5252   39.3887   31.4375 C   0  0  0  0  0  0  0  0  0  0  0  0
   12.7501   39.0874   32.0797 O   0  0  0  0  0  0  0  0  0  0  0  0
   10.6093   38.1926   31.6469 C   0  0  0  0  0  0  0  0  0  0  0  0
   12.9333   37.6793   32.0292 C   0  0  0  0  0  0  0  0  0  0  0  0
    9.6123   38.0895   30.6543 O   0  0  0  0  0  0  0  0  0  0  0  0
   11.5744   37.0145   31.7022 C   0  0  0  0  0  0  0  0  0  0  0  0
   13.4846   37.2109   33.3239 N   0  0  0  0  0  0  0  0  0  0  0  0
   11.6297   36.3235   30.4740 O   0  0  0  0  0  0  0  0  0  0  0  0
   14.4802   36.3313   33.5726 C   0  0  0  0  0  0  0  0  0  0  0  0
   13.1138   37.6269   34.5690 C   0  0  0  0  0  0  0  0  0  0  0  0
   15.2076   35.6149   32.6739 N   0  0  0  0  0  0  0  0  0  0  0  0
   14.6760   36.2302   34.9181 C   0  0  0  0  0  0  0  0  0  0  0  0
   13.8220   37.0449   35.5783 N   0  0  0  0  0  0  0  0  0  0  0  0
   16.1645   34.7599   33.1547 C   0  0  0  0  0  0  0  0  0  0  0  0
   15.6528   35.3503   35.4130 C   0  0  0  0  0  0  0  0  0  0  0  0
   16.3797   34.6313   34.5042 N   0  0  0  0  0  0  0  0  0  0  0  0
   15.9003   35.1932   36.8089 N   0  0  0  0  0  0  0  0  0  0  0  0
    9.0103   45.4353   33.6677 H   0  0  0  0  0  0  0  0  0  0  0  0
   11.1134   46.1995   34.4887 H   0  0  0  0  0  0  0  0  0  0  0  0
   11.9352   45.6927   33.0933 H   0  0  0  0  0  0  0  0  0  0  0  0
    9.3517   43.8351   31.4763 H   0  0  0  0  0  0  0  0  0  0  0  0
   10.7312   44.8936   31.1679 H   0  0  0  0  0  0  0  0  0  0  0  0
    7.0133   44.7182   31.5880 H   0  0  0  0  0  0  0  0  0  0  0  0
   10.3463   47.1899   30.4163 H   0  0  0  0  0  0  0  0  0  0  0  0
    5.4731   46.2798   30.5287 H   0  0  0  0  0  0  0  0  0  0  0  0
    8.7944   48.7691   29.3449 H   0  0  0  0  0  0  0  0  0  0  0  0
    4.4733   49.4768   28.5063 H   0  0  0  0  0  0  0  0  0  0  0  0
    5.0307   47.5481   27.0884 H   0  0  0  0  0  0  0  0  0  0  0  0
    3.3497   47.5002   27.7123 H   0  0  0  0  0  0  0  0  0  0  0  0
    4.6134   46.4140   28.4161 H   0  0  0  0  0  0  0  0  0  0  0  0
    2.7362   46.7902   29.8842 H   0  0  0  0  0  0  0  0  0  0  0  0
    3.9270   50.0899   33.4247 H   0  0  0  0  0  0  0  0  0  0  0  0
    0.0837   47.3245   33.7640 H   0  0  0  0  0  0  0  0  0  0  0  0
    1.3793   46.1865   34.3714 H   0  0  0  0  0  0  0  0  0  0  0  0
   11.3815   41.5530   31.4743 H   0  0  0  0  0  0  0  0  0  0  0  0
    9.8245   40.7222   31.7641 H   0  0  0  0  0  0  0  0  0  0  0  0
   11.7265   39.5311   30.3511 H   0  0  0  0  0  0  0  0  0  0  0  0
   10.1108   38.2749   32.6385 H   0  0  0  0  0  0  0  0  0  0  0  0
   13.6652   37.4517   31.2223 H   0  0  0  0  0  0  0  0  0  0  0  0
   10.0515   38.1147   29.7648 H   0  0  0  0  0  0  0  0  0  0  0  0
   11.2762   36.3145   32.5188 H   0  0  0  0  0  0  0  0  0  0  0  0
   10.8590   35.6978   30.4641 H   0  0  0  0  0  0  0  0  0  0  0  0
   12.3284   38.3512   34.7444 H   0  0  0  0  0  0  0  0  0  0  0  0
   16.7566   34.1780   32.4617 H   0  0  0  0  0  0  0  0  0  0  0  0
   16.6348   34.5298   37.1412 H   0  0  0  0  0  0  0  0  0  0  0  0
   15.3534   35.7358   37.5139 H   0  0  0  0  0  0  0  0  0  0  0  0
  1  2  2  0
  1  3  1  0
  3  4  1  0
  4  5  1  0
  6  1  1  0
  7  6  1  0
  6  8  1  0
  8  9  1  0
  9 10  2  0
 11  9  1  0
 10 12  1  0
 13 11  2  0
 12 14  2  0
 14 13  1  0
 14 15  1  0
 15 16  1  0
 16 17  1  0
 16 18  1  0
 18 19  2  0
 20 18  1  0
 19 21  1  0
 22 20  2  0
 20 23  1  0
 21 24  1  0
 21 25  2  0
 25 22  1  0
 23 26  1  0
 23 27  2  0
 24 28  1  0
 25 29  1  0
 28 29  1  0
  4 30  2  0
  4 31  1  0
 32 31  1  0
 32 33  1  0
 33 34  1  0
 33 35  1  0
 34 36  1  0
 35 37  1  0
 35 38  1  0
 38 36  1  0
 36 39  1  0
 38 40  1  0
 41 39  1  0
 42 39  1  0
 43 41  2  0
 41 44  1  0
 45 42  2  0
 46 43  1  0
 44 47  2  0
 44 45  1  0
 48 46  2  0
 48 47  1  0
 47 49  1  0
  6 50  1  1
  7 51  1  0
  7 52  1  0
  8 53  1  0
  8 54  1  0
 10 55  1  0
 11 56  1  0
 12 57  1  0
 13 58  1  0
 16 59  1  6
 17 60  1  0
 17 61  1  0
 17 62  1  0
 19 63  1  0
 22 64  1  0
 28 65  1  0
 28 66  1  0
 32 67  1  0
 32 68  1  0
 33 69  1  0
 35 70  1  0
 36 71  1  0
 37 72  1  0
 38 73  1  0
 40 74  1  0
 42 75  1  0
 46 76  1  0
 49 77  1  0
 49 78  1  0
M  CHG  3   5  -1  23   1  26  -1
M  END
>  <EmbedRMS>  (330) 
0.0826566962579

$$$$

     RDKit          3D

 78 83  0  0  0  0  0  0  0  0999 V2000
   10.2804   43.7664   33.8249 C   0  0  0  0  0  0  0  0  0  0  0  0
   11.4111   43.5918   34.3666 O   0  0  0  0  0  0  0  0  0  0  0  0
    9.3619   42.7249   33.7344 O   0  0  0  0  0  0  0  0  0  0  0  0
    9.8899   41.2266   34.2940 P   0  0  0  0  0  0  0  0  0  0  0  0
   10.3734   41.4567   35.8833 O   0  0  0  0  0  0  0  0  0  0  0  0
    9.9460   45.0736   33.2111 C   0  0  1  0  0  0  0  0  0  0  0  0
   11.0267   46.0292   33.4708 N   0  0  0  0  0  0  0  0  0  0  0  0
    9.7540   44.8542   31.6948 C   0  0  0  0  0  0  0  0  0  0  0  0
    8.7957   45.8412   31.0848 C   0  0  0  0  0  0  0  0  0  0  0  0
    7.4089   45.6001   31.1013 C   0  0  0  0  0  0  0  0  0  0  0  0
    9.2823   46.9882   30.4399 C   0  0  0  0  0  0  0  0  0  0  0  0
    6.5261   46.4992   30.4870 C   0  0  0  0  0  0  0  0  0  0  0  0
    8.3995   47.8876   29.8313 C   0  0  0  0  0  0  0  0  0  0  0  0
    7.0183   47.6538   29.8453 C   0  0  0  0  0  0  0  0  0  0  0  0
    6.1803   48.5856   29.2113 O   0  0  0  0  0  0  0  0  0  0  0  0
    4.7586   48.4764   29.0922 C   0  0  1  0  0  0  0  0  0  0  0  0
    4.2105   49.7906   28.5413 C   0  0  0  0  0  0  0  0  0  0  0  0
    4.3714   47.3350   28.1661 C   0  0  0  0  0  0  0  0  0  0  0  0
    5.1663   47.0854   27.0196 C   0  0  0  0  0  0  0  0  0  0  0  0
    3.1734   46.5737   28.3646 C   0  0  0  0  0  0  0  0  0  0  0  0
    4.7642   46.0919   26.1364 C   0  0  0  0  0  0  0  0  0  0  0  0
    2.8062   45.5852   27.4244 C   0  0  0  0  0  0  0  0  0  0  0  0
    2.3158   46.8042   29.4903 N   0  0  0  0  0  0  0  0  0  0  0  0
    5.3807   45.6772   24.9717 O   0  0  0  0  0  0  0  0  0  0  0  0
    3.6340   45.3738   26.3300 C   0  0  0  0  0  0  0  0  0  0  0  0
    2.7909   46.6043   30.7653 O   0  0  0  0  0  0  0  0  0  0  0  0
    1.0844   46.9111   29.3163 O   0  0  0  0  0  0  0  0  0  0  0  0
    4.5865   44.6288   24.3999 C   0  0  0  0  0  0  0  0  0  0  0  0
    3.4805   44.4674   25.2986 O   0  0  0  0  0  0  0  0  0  0  0  0
    8.8123   40.1844   34.2133 O   0  0  0  0  0  0  0  0  0  0  0  0
   11.2405   40.7942   33.3691 O   0  0  0  0  0  0  0  0  0  0  0  0
   10.9150   40.6905   31.9972 C   0  0  0  0  0  0  0  0  0  0  0  0
   11.5252   39.3886   31.4375 C   0  0  0  0  0  0  0  0  0  0  0  0
   12.7499   39.0874   32.0799 O   0  0  0  0  0  0  0  0  0  0  0  0
   10.6092   38.1926   31.6469 C   0  0  0  0  0  0  0  0  0  0  0  0
   12.9332   37.6793   32.0294 C   0  0  0  0  0  0  0  0  0  0  0  0
    9.6121   38.0894   30.6542 O   0  0  0  0  0  0  0  0  0  0  0  0
   11.5743   37.0145   31.7024 C   0  0  0  0  0  0  0  0  0  0  0  0
   13.4844   37.2108   33.3241 N   0  0  0  0  0  0  0  0  0  0  0  0
   11.6297   36.3239   30.4740 O   0  0  0  0  0  0  0  0  0  0  0  0
   14.4802   36.3313   33.5727 C   0  0  0  0  0  0  0  0  0  0  0  0
   13.1138   37.6267   34.5692 C   0  0  0  0  0  0  0  0  0  0  0  0
   15.2075   35.6149   32.6739 N   0  0  0  0  0  0  0  0  0  0  0  0
   14.6761   36.2303   34.9181 C   0  0  0  0  0  0  0  0  0  0  0  0
   13.8220   37.0447   35.5785 N   0  0  0  0  0  0  0  0  0  0  0  0
   16.1643   34.7600   33.1547 C   0  0  0  0  0  0  0  0  0  0  0  0
   15.6529   35.3505   35.4130 C   0  0  0  0  0  0  0  0  0  0  0  0
   16.3798   34.6315   34.5042 N   0  0  0  0  0  0  0  0  0  0  0  0
   15.9003   35.1932   36.8090 N   0  0  0  0  0  0  0  0  0  0  0  0
    8.9996   45.4381   33.6721 H   0  0  0  0  0  0  0  0  0  0  0  0
   10.7765   46.9369   33.0159 H   0  0  0  0  0  0  0  0  0  0  0  0
   11.0502   46.2277   34.4982 H   0  0  0  0  0  0  0  0  0  0  0  0
    9.3645   43.8354   31.4710 H   0  0  0  0  0  0  0  0  0  0  0  0
   10.7412   44.9080   31.1834 H   0  0  0  0  0  0  0  0  0  0  0  0
    7.0147   44.7154   31.5860 H   0  0  0  0  0  0  0  0  0  0  0  0
   10.3462   47.1880   30.4055 H   0  0  0  0  0  0  0  0  0  0  0  0
    5.4686   46.2841   30.5181 H   0  0  0  0  0  0  0  0  0  0  0  0
    8.7915   48.7688   29.3394 H   0  0  0  0  0  0  0  0  0  0  0  0
    4.3346   48.3465   30.1068 H   0  0  0  0  0  0  0  0  0  0  0  0
    3.1029   49.7433   28.4647 H   0  0  0  0  0  0  0  0  0  0  0  0
    4.4809   50.6253   29.2222 H   0  0  0  0  0  0  0  0  0  0  0  0
    4.6361   49.9999   27.5363 H   0  0  0  0  0  0  0  0  0  0  0  0
    6.0635   47.6556   26.8151 H   0  0  0  0  0  0  0  0  0  0  0  0
    1.9066   44.9965   27.5503 H   0  0  0  0  0  0  0  0  0  0  0  0
    4.2227   44.9275   23.3944 H   0  0  0  0  0  0  0  0  0  0  0  0
    5.1745   43.6888   24.3433 H   0  0  0  0  0  0  0  0  0  0  0  0
    9.8241   40.7215   31.7641 H   0  0  0  0  0  0  0  0  0  0  0  0
   11.3800   41.5528   31.4730 H   0  0  0  0  0  0  0  0  0  0  0  0
   11.7266   39.5310   30.3513 H   0  0  0  0  0  0  0  0  0  0  0  0
   10.1110   38.2747   32.6387 H   0  0  0  0  0  0  0  0  0  0  0  0
   13.6652   37.4520   31.2226 H   0  0  0  0  0  0  0  0  0  0  0  0
   10.0511   38.1143   29.7645 H   0  0  0  0  0  0  0  0  0  0  0  0
   11.2762   36.3141   32.5189 H   0  0  0  0  0  0  0  0  0  0  0  0
   10.8593   35.6978   30.4640 H   0  0  0  0  0  0  0  0  0  0  0  0
   12.3295   38.3518   34.7449 H   0  0  0  0  0  0  0  0  0  0  0  0
   16.7564   34.1780   32.4620 H   0  0  0  0  0  0  0  0  0  0  0  0
   16.6349   34.5300   37.1415 H   0  0  0  0  0  0  0  0  0  0  0  0
   15.3534   35.7359   37.5138 H   0  0  0  0  0  0  0  0  0  0  0  0
  1  2  2  0
  1  3  1  0
  3  4  1  0
  4  5  1  0
  6  1  1  0
  7  6  1  0
  6  8  1  0
  8  9  1  0
  9 10  2  0
 11  9  1  0
 10 12  1  0
 13 11  2  0
 12 14  2  0
 14 13  1  0
 14 15  1  0
 15 16  1  0
 16 17  1  0
 16 18  1  0
 18 19  2  0
 20 18  1  0
 19 21  1  0
 22 20  2  0
 20 23  1  0
 21 24  1  0
 21 25  2  0
 25 22  1  0
 23 26  1  0
 23 27  2  0
 24 28  1  0
 25 29  1  0
 28 29  1  0
  4 30  2  0
  4 31  1  0
 32 31  1  0
 32 33  1  0
 33 34  1  0
 33 35  1  0
 34 36  1  0
 35 37  1  0
 35 38  1  0
 38 36  1  0
 36 39  1  0
 38 40  1  0
 41 39  1  0
 42 39  1  0
 43 41  2  0
 41 44  1  0
 45 42  2  0
 46 43  1  0
 44 47  2  0
 44 45  1  0
 48 46  2  0
 48 47  1  0
 47 49  1  0
  6 50  1  1
  7 51  1  0
  7 52  1  0
  8 53  1  0
  8 54  1  0
 10 55  1  0
 11 56  1  0
 12 57  1  0
 13 58  1  0
 16 59  1  1
 17 60  1  0
 17 61  1  0
 17 62  1  0
 19 63  1  0
 22 64  1  0
 28 65  1  0
 28 66  1  0
 32 67  1  0
 32 68  1  0
 33 69  1  0
 35 70  1  0
 36 71  1  0
 37 72  1  0
 38 73  1  0
 40 74  1  0
 42 75  1  0
 46 76  1  0
 49 77  1  0
 49 78  1  0
M  CHG  3   5  -1  23   1  26  -1
M  END
>  <EmbedRMS>  (331) 
0.0816364672504

$$$$

     RDKit          3D

 78 83  0  0  0  0  0  0  0  0999 V2000
   10.2839   43.7632   33.8269 C   0  0  0  0  0  0  0  0  0  0  0  0
   11.4097   43.5875   34.3777 O   0  0  0  0  0  0  0  0  0  0  0  0
    9.3633   42.7241   33.7346 O   0  0  0  0  0  0  0  0  0  0  0  0
    9.8894   41.2255   34.2939 P   0  0  0  0  0  0  0  0  0  0  0  0
   10.3723   41.4545   35.8836 O   0  0  0  0  0  0  0  0  0  0  0  0
    9.9553   45.0701   33.2048 C   0  0  1  0  0  0  0  0  0  0  0  0
   11.0199   46.0484   33.4558 N   0  0  0  0  0  0  0  0  0  0  0  0
    9.7519   44.8521   31.6906 C   0  0  0  0  0  0  0  0  0  0  0  0
    8.7950   45.8422   31.0855 C   0  0  0  0  0  0  0  0  0  0  0  0
    7.4076   45.5991   31.0990 C   0  0  0  0  0  0  0  0  0  0  0  0
    9.2822   46.9935   30.4468 C   0  0  0  0  0  0  0  0  0  0  0  0
    6.5259   46.4985   30.4839 C   0  0  0  0  0  0  0  0  0  0  0  0
    8.3982   47.8941   29.8391 C   0  0  0  0  0  0  0  0  0  0  0  0
    7.0184   47.6487   29.8457 C   0  0  0  0  0  0  0  0  0  0  0  0
    6.1557   48.5683   29.2339 O   0  0  0  0  0  0  0  0  0  0  0  0
    5.4042   48.2917   28.0458 C   0  0  1  0  0  0  0  0  0  0  0  0
    6.3586   47.9239   26.8974 C   0  0  0  0  0  0  0  0  0  0  0  0
    4.2817   47.2882   28.3202 C   0  0  0  0  0  0  0  0  0  0  0  0
    4.2374   46.0348   27.6470 C   0  0  0  0  0  0  0  0  0  0  0  0
    3.2764   47.5769   29.3079 C   0  0  0  0  0  0  0  0  0  0  0  0
    3.2302   45.1360   27.9721 C   0  0  0  0  0  0  0  0  0  0  0  0
    2.2811   46.6148   29.6011 C   0  0  0  0  0  0  0  0  0  0  0  0
    3.2699   48.8151   30.0402 N   0  0  0  0  0  0  0  0  0  0  0  0
    3.0055   43.8758   27.4503 O   0  0  0  0  0  0  0  0  0  0  0  0
    2.2941   45.4127   28.9072 C   0  0  0  0  0  0  0  0  0  0  0  0
    3.3477   50.0182   29.3793 O   0  0  0  0  0  0  0  0  0  0  0  0
    2.9781   48.8185   31.2535 O   0  0  0  0  0  0  0  0  0  0  0  0
    1.8503   43.3282   28.1007 C   0  0  0  0  0  0  0  0  0  0  0  0
    1.4269   44.3422   29.0233 O   0  0  0  0  0  0  0  0  0  0  0  0
    8.8121   40.1832   34.2118 O   0  0  0  0  0  0  0  0  0  0  0  0
   11.2405   40.7930   33.3705 O   0  0  0  0  0  0  0  0  0  0  0  0
   10.9171   40.6922   31.9983 C   0  0  0  0  0  0  0  0  0  0  0  0
   11.5276   39.3907   31.4384 C   0  0  0  0  0  0  0  0  0  0  0  0
   12.7528   39.0901   32.0828 O   0  0  0  0  0  0  0  0  0  0  0  0
   10.6115   38.1931   31.6460 C   0  0  0  0  0  0  0  0  0  0  0  0
   12.9413   37.6828   32.0293 C   0  0  0  0  0  0  0  0  0  0  0  0
    9.6055   38.0873   30.6614 O   0  0  0  0  0  0  0  0  0  0  0  0
   11.5816   37.0192   31.6884 C   0  0  0  0  0  0  0  0  0  0  0  0
   13.4835   37.2100   33.3254 N   0  0  0  0  0  0  0  0  0  0  0  0
   11.6168   36.3072   30.4695 O   0  0  0  0  0  0  0  0  0  0  0  0
   14.4789   36.3303   33.5739 C   0  0  0  0  0  0  0  0  0  0  0  0
   13.1141   37.6277   34.5705 C   0  0  0  0  0  0  0  0  0  0  0  0
   15.2074   35.6153   32.6747 N   0  0  0  0  0  0  0  0  0  0  0  0
   14.6753   36.2295   34.9190 C   0  0  0  0  0  0  0  0  0  0  0  0
   13.8224   37.0452   35.5792 N   0  0  0  0  0  0  0  0  0  0  0  0
   16.1643   34.7602   33.1554 C   0  0  0  0  0  0  0  0  0  0  0  0
   15.6528   35.3503   35.4138 C   0  0  0  0  0  0  0  0  0  0  0  0
   16.3793   34.6310   34.5049 N   0  0  0  0  0  0  0  0  0  0  0  0
   15.8992   35.1922   36.8098 N   0  0  0  0  0  0  0  0  0  0  0  0
    9.0097   45.4338   33.6645 H   0  0  0  0  0  0  0  0  0  0  0  0
   11.1123   46.1993   34.4870 H   0  0  0  0  0  0  0  0  0  0  0  0
   11.9353   45.6936   33.0926 H   0  0  0  0  0  0  0  0  0  0  0  0
   10.7327   44.8953   31.1663 H   0  0  0  0  0  0  0  0  0  0  0  0
    9.3528   43.8358   31.4737 H   0  0  0  0  0  0  0  0  0  0  0  0
    7.0116   44.7157   31.5852 H   0  0  0  0  0  0  0  0  0  0  0  0
   10.3460   47.1960   30.4176 H   0  0  0  0  0  0  0  0  0  0  0  0
    5.4648   46.3037   30.5294 H   0  0  0  0  0  0  0  0  0  0  0  0
    8.7859   48.7800   29.3523 H   0  0  0  0  0  0  0  0  0  0  0  0
    4.9279   49.2402   27.7217 H   0  0  0  0  0  0  0  0  0  0  0  0
    5.7936   47.7975   25.9501 H   0  0  0  0  0  0  0  0  0  0  0  0
    7.0947   48.7451   26.7528 H   0  0  0  0  0  0  0  0  0  0  0  0
    6.9186   46.9906   27.1245 H   0  0  0  0  0  0  0  0  0  0  0  0
    4.9624   45.7436   26.9010 H   0  0  0  0  0  0  0  0  0  0  0  0
    1.5147   46.8063   30.3423 H   0  0  0  0  0  0  0  0  0  0  0  0
    2.1218   42.4021   28.6479 H   0  0  0  0  0  0  0  0  0  0  0  0
    1.0494   43.1273   27.3575 H   0  0  0  0  0  0  0  0  0  0  0  0
   11.3839   41.5555   31.4777 H   0  0  0  0  0  0  0  0  0  0  0  0
    9.8267   40.7243   31.7625 H   0  0  0  0  0  0  0  0  0  0  0  0
   11.7318   39.5360   30.3533 H   0  0  0  0  0  0  0  0  0  0  0  0
   10.1212   38.2707   32.6419 H   0  0  0  0  0  0  0  0  0  0  0  0
   13.6852   37.4626   31.2313 H   0  0  0  0  0  0  0  0  0  0  0  0
   10.0234   38.1764   29.7663 H   0  0  0  0  0  0  0  0  0  0  0  0
   11.2758   36.3128   32.4922 H   0  0  0  0  0  0  0  0  0  0  0  0
   11.9826   36.9117   29.7718 H   0  0  0  0  0  0  0  0  0  0  0  0
   12.3323   38.3556   34.7474 H   0  0  0  0  0  0  0  0  0  0  0  0
   16.7573   34.1792   32.4631 H   0  0  0  0  0  0  0  0  0  0  0  0
   15.3524   35.7361   37.5137 H   0  0  0  0  0  0  0  0  0  0  0  0
   16.6344   34.5299   37.1438 H   0  0  0  0  0  0  0  0  0  0  0  0
  1  2  2  0
  1  3  1  0
  3  4  1  0
  4  5  1  0
  6  1  1  0
  7  6  1  0
  6  8  1  0
  8  9  1  0
  9 10  2  0
 11  9  1  0
 10 12  1  0
 13 11  2  0
 12 14  2  0
 14 13  1  0
 14 15  1  0
 15 16  1  0
 16 17  1  0
 16 18  1  0
 18 19  2  0
 20 18  1  0
 19 21  1  0
 22 20  2  0
 20 23  1  0
 21 24  1  0
 21 25  2  0
 25 22  1  0
 23 26  1  0
 23 27  2  0
 24 28  1  0
 25 29  1  0
 28 29  1  0
  4 30  2  0
  4 31  1  0
 32 31  1  0
 32 33  1  0
 33 34  1  0
 33 35  1  0
 34 36  1  0
 35 37  1  0
 35 38  1  0
 38 36  1  0
 36 39  1  0
 38 40  1  0
 41 39  1  0
 42 39  1  0
 43 41  2  0
 41 44  1  0
 45 42  2  0
 46 43  1  0
 44 47  2  0
 44 45  1  0
 48 46  2  0
 48 47  1  0
 47 49  1  0
  6 50  1  1
  7 51  1  0
  7 52  1  0
  8 53  1  0
  8 54  1  0
 10 55  1  0
 11 56  1  0
 12 57  1  0
 13 58  1  0
 16 59  1  6
 17 60  1  0
 17 61  1  0
 17 62  1  0
 19 63  1  0
 22 64  1  0
 28 65  1  0
 28 66  1  0
 32 67  1  0
 32 68  1  0
 33 69  1  0
 35 70  1  0
 36 71  1  0
 37 72  1  0
 38 73  1  0
 40 74  1  0
 42 75  1  0
 46 76  1  0
 49 77  1  0
 49 78  1  0
M  CHG  3   5  -1  23   1  26  -1
M  END
>  <EmbedRMS>  (332) 
0.0820807400052

$$$$

     RDKit          3D

 78 83  0  0  0  0  0  0  0  0999 V2000
   10.2835   43.7662   33.8257 C   0  0  0  0  0  0  0  0  0  0  0  0
   11.4102   43.5931   34.3752 O   0  0  0  0  0  0  0  0  0  0  0  0
    9.3638   42.7255   33.7350 O   0  0  0  0  0  0  0  0  0  0  0  0
    9.8903   41.2267   34.2942 P   0  0  0  0  0  0  0  0  0  0  0  0
   10.3735   41.4561   35.8837 O   0  0  0  0  0  0  0  0  0  0  0  0
    9.9546   45.0695   33.2036 C   0  0  1  0  0  0  0  0  0  0  0  0
   11.0273   46.0323   33.4756 N   0  0  0  0  0  0  0  0  0  0  0  0
    9.7465   44.8481   31.6878 C   0  0  0  0  0  0  0  0  0  0  0  0
    8.7923   45.8409   31.0846 C   0  0  0  0  0  0  0  0  0  0  0  0
    7.4056   45.6012   31.0984 C   0  0  0  0  0  0  0  0  0  0  0  0
    9.2823   46.9875   30.4421 C   0  0  0  0  0  0  0  0  0  0  0  0
    6.5267   46.5027   30.4831 C   0  0  0  0  0  0  0  0  0  0  0  0
    8.4035   47.8893   29.8310 C   0  0  0  0  0  0  0  0  0  0  0  0
    7.0138   47.6540   29.8493 C   0  0  0  0  0  0  0  0  0  0  0  0
    6.0878   48.5287   29.2574 O   0  0  0  0  0  0  0  0  0  0  0  0
    6.4068   49.7879   28.6585 C   0  0  1  0  0  0  0  0  0  0  0  0
    5.1663   50.3201   27.9434 C   0  0  0  0  0  0  0  0  0  0  0  0
    6.8640   50.7809   29.7142 C   0  0  0  0  0  0  0  0  0  0  0  0
    6.1513   50.8436   30.9369 C   0  0  0  0  0  0  0  0  0  0  0  0
    8.0204   51.6109   29.5332 C   0  0  0  0  0  0  0  0  0  0  0  0
    6.6235   51.6818   31.9379 C   0  0  0  0  0  0  0  0  0  0  0  0
    8.4631   52.4320   30.5947 C   0  0  0  0  0  0  0  0  0  0  0  0
    8.7416   51.6449   28.2919 N   0  0  0  0  0  0  0  0  0  0  0  0
    6.1032   51.8896   33.2007 O   0  0  0  0  0  0  0  0  0  0  0  0
    7.7335   52.4381   31.7761 C   0  0  0  0  0  0  0  0  0  0  0  0
   10.1079   51.8059   28.3000 O   0  0  0  0  0  0  0  0  0  0  0  0
    8.1279   51.7662   27.2119 O   0  0  0  0  0  0  0  0  0  0  0  0
    6.9416   52.8388   33.8738 C   0  0  0  0  0  0  0  0  0  0  0  0
    7.9700   53.1631   32.9282 O   0  0  0  0  0  0  0  0  0  0  0  0
    8.8122   40.1850   34.2131 O   0  0  0  0  0  0  0  0  0  0  0  0
   11.2407   40.7940   33.3693 O   0  0  0  0  0  0  0  0  0  0  0  0
   10.9151   40.6905   31.9974 C   0  0  0  0  0  0  0  0  0  0  0  0
   11.5252   39.3886   31.4375 C   0  0  0  0  0  0  0  0  0  0  0  0
   12.7500   39.0874   32.0799 O   0  0  0  0  0  0  0  0  0  0  0  0
   10.6092   38.1926   31.6469 C   0  0  0  0  0  0  0  0  0  0  0  0
   12.9332   37.6792   32.0294 C   0  0  0  0  0  0  0  0  0  0  0  0
    9.6122   38.0895   30.6542 O   0  0  0  0  0  0  0  0  0  0  0  0
   11.5743   37.0145   31.7024 C   0  0  0  0  0  0  0  0  0  0  0  0
   13.4844   37.2108   33.3241 N   0  0  0  0  0  0  0  0  0  0  0  0
   11.6297   36.3239   30.4740 O   0  0  0  0  0  0  0  0  0  0  0  0
   14.4802   36.3313   33.5727 C   0  0  0  0  0  0  0  0  0  0  0  0
   13.1138   37.6267   34.5692 C   0  0  0  0  0  0  0  0  0  0  0  0
   15.2075   35.6149   32.6739 N   0  0  0  0  0  0  0  0  0  0  0  0
   14.6761   36.2302   34.9182 C   0  0  0  0  0  0  0  0  0  0  0  0
   13.8220   37.0446   35.5785 N   0  0  0  0  0  0  0  0  0  0  0  0
   16.1643   34.7600   33.1547 C   0  0  0  0  0  0  0  0  0  0  0  0
   15.6529   35.3505   35.4130 C   0  0  0  0  0  0  0  0  0  0  0  0
   16.3798   34.6315   34.5042 N   0  0  0  0  0  0  0  0  0  0  0  0
   15.9003   35.1932   36.8090 N   0  0  0  0  0  0  0  0  0  0  0  0
    9.0120   45.4318   33.6715 H   0  0  0  0  0  0  0  0  0  0  0  0
   11.8905   45.7661   32.9468 H   0  0  0  0  0  0  0  0  0  0  0  0
   10.7257   46.9689   33.1214 H   0  0  0  0  0  0  0  0  0  0  0  0
   10.7229   44.8814   31.1558 H   0  0  0  0  0  0  0  0  0  0  0  0
    9.3413   43.8330   31.4764 H   0  0  0  0  0  0  0  0  0  0  0  0
    7.0083   44.7164   31.5804 H   0  0  0  0  0  0  0  0  0  0  0  0
   10.3470   47.1839   30.4103 H   0  0  0  0  0  0  0  0  0  0  0  0
    5.4621   46.3074   30.5024 H   0  0  0  0  0  0  0  0  0  0  0  0
    8.8181   48.7599   29.3438 H   0  0  0  0  0  0  0  0  0  0  0  0
    7.1873   49.6147   27.8895 H   0  0  0  0  0  0  0  0  0  0  0  0
    5.3848   51.2996   27.4673 H   0  0  0  0  0  0  0  0  0  0  0  0
    4.8546   49.6056   27.1522 H   0  0  0  0  0  0  0  0  0  0  0  0
    4.3253   50.4449   28.6586 H   0  0  0  0  0  0  0  0  0  0  0  0
    5.2699   50.2392   31.1099 H   0  0  0  0  0  0  0  0  0  0  0  0
    9.3351   53.0649   30.4920 H   0  0  0  0  0  0  0  0  0  0  0  0
    6.3601   53.7478   34.1343 H   0  0  0  0  0  0  0  0  0  0  0  0
    7.3868   52.3816   34.7823 H   0  0  0  0  0  0  0  0  0  0  0  0
   11.3802   41.5529   31.4733 H   0  0  0  0  0  0  0  0  0  0  0  0
    9.8243   40.7216   31.7643 H   0  0  0  0  0  0  0  0  0  0  0  0
   11.7266   39.5311   30.3513 H   0  0  0  0  0  0  0  0  0  0  0  0
   10.1110   38.2747   32.6387 H   0  0  0  0  0  0  0  0  0  0  0  0
   13.6652   37.4519   31.2226 H   0  0  0  0  0  0  0  0  0  0  0  0
   10.0511   38.1143   29.7645 H   0  0  0  0  0  0  0  0  0  0  0  0
   11.2761   36.3141   32.5189 H   0  0  0  0  0  0  0  0  0  0  0  0
   10.8593   35.6978   30.4640 H   0  0  0  0  0  0  0  0  0  0  0  0
   12.3295   38.3518   34.7449 H   0  0  0  0  0  0  0  0  0  0  0  0
   16.7564   34.1780   32.4620 H   0  0  0  0  0  0  0  0  0  0  0  0
   15.3534   35.7359   37.5138 H   0  0  0  0  0  0  0  0  0  0  0  0
   16.6349   34.5300   37.1416 H   0  0  0  0  0  0  0  0  0  0  0  0
  1  2  2  0
  1  3  1  0
  3  4  1  0
  4  5  1  0
  6  1  1  0
  7  6  1  0
  6  8  1  0
  8  9  1  0
  9 10  2  0
 11  9  1  0
 10 12  1  0
 13 11  2  0
 12 14  2  0
 14 13  1  0
 14 15  1  0
 15 16  1  0
 16 17  1  0
 16 18  1  0
 18 19  2  0
 20 18  1  0
 19 21  1  0
 22 20  2  0
 20 23  1  0
 21 24  1  0
 21 25  2  0
 25 22  1  0
 23 26  1  0
 23 27  2  0
 24 28  1  0
 25 29  1  0
 28 29  1  0
  4 30  2  0
  4 31  1  0
 32 31  1  0
 32 33  1  0
 33 34  1  0
 33 35  1  0
 34 36  1  0
 35 37  1  0
 35 38  1  0
 38 36  1  0
 36 39  1  0
 38 40  1  0
 41 39  1  0
 42 39  1  0
 43 41  2  0
 41 44  1  0
 45 42  2  0
 46 43  1  0
 44 47  2  0
 44 45  1  0
 48 46  2  0
 48 47  1  0
 47 49  1  0
  6 50  1  1
  7 51  1  0
  7 52  1  0
  8 53  1  0
  8 54  1  0
 10 55  1  0
 11 56  1  0
 12 57  1  0
 13 58  1  0
 16 59  1  6
 17 60  1  0
 17 61  1  0
 17 62  1  0
 19 63  1  0
 22 64  1  0
 28 65  1  0
 28 66  1  0
 32 67  1  0
 32 68  1  0
 33 69  1  0
 35 70  1  0
 36 71  1  0
 37 72  1  0
 38 73  1  0
 40 74  1  0
 42 75  1  0
 46 76  1  0
 49 77  1  0
 49 78  1  0
M  CHG  3   5  -1  23   1  26  -1
M  END
>  <EmbedRMS>  (333) 
0.0818212544425

$$$$

     RDKit          3D

 78 83  0  0  0  0  0  0  0  0999 V2000
   10.2834   43.7662   33.8258 C   0  0  0  0  0  0  0  0  0  0  0  0
   11.4102   43.5930   34.3752 O   0  0  0  0  0  0  0  0  0  0  0  0
    9.3635   42.7257   33.7353 O   0  0  0  0  0  0  0  0  0  0  0  0
    9.8899   41.2270   34.2947 P   0  0  0  0  0  0  0  0  0  0  0  0
   10.3732   41.4562   35.8841 O   0  0  0  0  0  0  0  0  0  0  0  0
    9.9548   45.0695   33.2036 C   0  0  1  0  0  0  0  0  0  0  0  0
   11.0273   46.0323   33.4760 N   0  0  0  0  0  0  0  0  0  0  0  0
    9.7473   44.8482   31.6877 C   0  0  0  0  0  0  0  0  0  0  0  0
    8.7930   45.8408   31.0845 C   0  0  0  0  0  0  0  0  0  0  0  0
    7.4069   45.6016   31.0987 C   0  0  0  0  0  0  0  0  0  0  0  0
    9.2817   46.9870   30.4420 C   0  0  0  0  0  0  0  0  0  0  0  0
    6.5255   46.5015   30.4841 C   0  0  0  0  0  0  0  0  0  0  0  0
    8.3997   47.8864   29.8327 C   0  0  0  0  0  0  0  0  0  0  0  0
    7.0165   47.6585   29.8462 C   0  0  0  0  0  0  0  0  0  0  0  0
    6.1960   48.6132   29.2178 O   0  0  0  0  0  0  0  0  0  0  0  0
    4.7649   48.6518   29.1403 C   0  0  1  0  0  0  0  0  0  0  0  0
    4.2500   47.5841   28.1624 C   0  0  0  0  0  0  0  0  0  0  0  0
    4.1066   48.6829   30.5210 C   0  0  0  0  0  0  0  0  0  0  0  0
    3.2748   47.6136   30.9546 C   0  0  0  0  0  0  0  0  0  0  0  0
    4.2439   49.8358   31.3718 C   0  0  0  0  0  0  0  0  0  0  0  0
    2.6584   47.7048   32.1947 C   0  0  0  0  0  0  0  0  0  0  0  0
    3.5781   49.8736   32.6178 C   0  0  0  0  0  0  0  0  0  0  0  0
    4.9916   50.9962   30.9705 N   0  0  0  0  0  0  0  0  0  0  0  0
    1.8310   46.7856   32.8110 O   0  0  0  0  0  0  0  0  0  0  0  0
    2.8048   48.7855   32.9916 C   0  0  0  0  0  0  0  0  0  0  0  0
    4.5268   52.2497   31.2957 O   0  0  0  0  0  0  0  0  0  0  0  0
    6.1542   50.8846   30.5335 O   0  0  0  0  0  0  0  0  0  0  0  0
    1.4354   47.3266   34.0787 C   0  0  0  0  0  0  0  0  0  0  0  0
    2.0790   48.6058   34.1534 O   0  0  0  0  0  0  0  0  0  0  0  0
    8.8120   40.1851   34.2133 O   0  0  0  0  0  0  0  0  0  0  0  0
   11.2403   40.7947   33.3700 O   0  0  0  0  0  0  0  0  0  0  0  0
   10.9144   40.6914   31.9982 C   0  0  0  0  0  0  0  0  0  0  0  0
   11.5270   39.3912   31.4385 C   0  0  0  0  0  0  0  0  0  0  0  0
   12.7520   39.0911   32.0836 O   0  0  0  0  0  0  0  0  0  0  0  0
   10.6113   38.1932   31.6451 C   0  0  0  0  0  0  0  0  0  0  0  0
   12.9413   37.6838   32.0297 C   0  0  0  0  0  0  0  0  0  0  0  0
    9.6064   38.0878   30.6599 O   0  0  0  0  0  0  0  0  0  0  0  0
   11.5822   37.0198   31.6877 C   0  0  0  0  0  0  0  0  0  0  0  0
   13.4840   37.2104   33.3254 N   0  0  0  0  0  0  0  0  0  0  0  0
   11.6179   36.3072   30.4690 O   0  0  0  0  0  0  0  0  0  0  0  0
   14.4797   36.3309   33.5738 C   0  0  0  0  0  0  0  0  0  0  0  0
   13.1137   37.6269   34.5702 C   0  0  0  0  0  0  0  0  0  0  0  0
   15.2074   35.6152   32.6747 N   0  0  0  0  0  0  0  0  0  0  0  0
   14.6756   36.2298   34.9190 C   0  0  0  0  0  0  0  0  0  0  0  0
   13.8217   37.0445   35.5793 N   0  0  0  0  0  0  0  0  0  0  0  0
   16.1643   34.7603   33.1551 C   0  0  0  0  0  0  0  0  0  0  0  0
   15.6528   35.3503   35.4136 C   0  0  0  0  0  0  0  0  0  0  0  0
   16.3798   34.6316   34.5046 N   0  0  0  0  0  0  0  0  0  0  0  0
   15.9004   35.1930   36.8094 N   0  0  0  0  0  0  0  0  0  0  0  0
    9.0120   45.4318   33.6712 H   0  0  0  0  0  0  0  0  0  0  0  0
   10.7260   46.9688   33.1215 H   0  0  0  0  0  0  0  0  0  0  0  0
   11.8908   45.7659   32.9477 H   0  0  0  0  0  0  0  0  0  0  0  0
    9.3426   43.8330   31.4760 H   0  0  0  0  0  0  0  0  0  0  0  0
   10.7239   44.8821   31.1560 H   0  0  0  0  0  0  0  0  0  0  0  0
    7.0113   44.7154   31.5799 H   0  0  0  0  0  0  0  0  0  0  0  0
   10.3459   47.1858   30.4100 H   0  0  0  0  0  0  0  0  0  0  0  0
    5.4767   46.2734   30.5140 H   0  0  0  0  0  0  0  0  0  0  0  0
    8.7943   48.7689   29.3451 H   0  0  0  0  0  0  0  0  0  0  0  0
    4.5006   49.6179   28.6576 H   0  0  0  0  0  0  0  0  0  0  0  0
    4.5160   46.5586   28.4843 H   0  0  0  0  0  0  0  0  0  0  0  0
    4.7040   47.7514   27.1626 H   0  0  0  0  0  0  0  0  0  0  0  0
    3.1470   47.6615   28.0551 H   0  0  0  0  0  0  0  0  0  0  0  0
    3.1048   46.7292   30.3579 H   0  0  0  0  0  0  0  0  0  0  0  0
    3.6639   50.7285   33.2762 H   0  0  0  0  0  0  0  0  0  0  0  0
    0.3327   47.4495   34.1166 H   0  0  0  0  0  0  0  0  0  0  0  0
    1.7879   46.6715   34.9028 H   0  0  0  0  0  0  0  0  0  0  0  0
   11.3776   41.5549   31.4744 H   0  0  0  0  0  0  0  0  0  0  0  0
    9.8234   40.7201   31.7654 H   0  0  0  0  0  0  0  0  0  0  0  0
   11.7311   39.5363   30.3532 H   0  0  0  0  0  0  0  0  0  0  0  0
   10.1202   38.2696   32.6410 H   0  0  0  0  0  0  0  0  0  0  0  0
   13.6850   37.4639   31.2321 H   0  0  0  0  0  0  0  0  0  0  0  0
   10.0251   38.1793   29.7654 H   0  0  0  0  0  0  0  0  0  0  0  0
   11.2757   36.3135   32.4907 H   0  0  0  0  0  0  0  0  0  0  0  0
   11.9838   36.9111   29.7708 H   0  0  0  0  0  0  0  0  0  0  0  0
   12.3307   38.3537   34.7458 H   0  0  0  0  0  0  0  0  0  0  0  0
   16.7566   34.1787   32.4623 H   0  0  0  0  0  0  0  0  0  0  0  0
   15.3535   35.7355   37.5144 H   0  0  0  0  0  0  0  0  0  0  0  0
   16.6353   34.5301   37.1419 H   0  0  0  0  0  0  0  0  0  0  0  0
  1  2  2  0
  1  3  1  0
  3  4  1  0
  4  5  1  0
  6  1  1  0
  7  6  1  0
  6  8  1  0
  8  9  1  0
  9 10  2  0
 11  9  1  0
 10 12  1  0
 13 11  2  0
 12 14  2  0
 14 13  1  0
 14 15  1  0
 15 16  1  0
 16 17  1  0
 16 18  1  0
 18 19  2  0
 20 18  1  0
 19 21  1  0
 22 20  2  0
 20 23  1  0
 21 24  1  0
 21 25  2  0
 25 22  1  0
 23 26  1  0
 23 27  2  0
 24 28  1  0
 25 29  1  0
 28 29  1  0
  4 30  2  0
  4 31  1  0
 32 31  1  0
 32 33  1  0
 33 34  1  0
 33 35  1  0
 34 36  1  0
 35 37  1  0
 35 38  1  0
 38 36  1  0
 36 39  1  0
 38 40  1  0
 41 39  1  0
 42 39  1  0
 43 41  2  0
 41 44  1  0
 45 42  2  0
 46 43  1  0
 44 47  2  0
 44 45  1  0
 48 46  2  0
 48 47  1  0
 47 49  1  0
  6 50  1  1
  7 51  1  0
  7 52  1  0
  8 53  1  0
  8 54  1  0
 10 55  1  0
 11 56  1  0
 12 57  1  0
 13 58  1  0
 16 59  1  6
 17 60  1  0
 17 61  1  0
 17 62  1  0
 19 63  1  0
 22 64  1  0
 28 65  1  0
 28 66  1  0
 32 67  1  0
 32 68  1  0
 33 69  1  0
 35 70  1  0
 36 71  1  0
 37 72  1  0
 38 73  1  0
 40 74  1  0
 42 75  1  0
 46 76  1  0
 49 77  1  0
 49 78  1  0
M  CHG  3   5  -1  23   1  26  -1
M  END
>  <EmbedRMS>  (334) 
0.0808102093221

$$$$

     RDKit          3D

 78 83  0  0  0  0  0  0  0  0999 V2000
   10.2834   43.7663   33.8256 C   0  0  0  0  0  0  0  0  0  0  0  0
   11.4101   43.5930   34.3751 O   0  0  0  0  0  0  0  0  0  0  0  0
    9.3634   42.7257   33.7352 O   0  0  0  0  0  0  0  0  0  0  0  0
    9.8902   41.2269   34.2941 P   0  0  0  0  0  0  0  0  0  0  0  0
   10.3739   41.4560   35.8835 O   0  0  0  0  0  0  0  0  0  0  0  0
    9.9547   45.0695   33.2034 C   0  0  1  0  0  0  0  0  0  0  0  0
   11.0274   46.0322   33.4758 N   0  0  0  0  0  0  0  0  0  0  0  0
    9.7471   44.8482   31.6874 C   0  0  0  0  0  0  0  0  0  0  0  0
    8.7926   45.8406   31.0839 C   0  0  0  0  0  0  0  0  0  0  0  0
    7.4059   45.6014   31.0998 C   0  0  0  0  0  0  0  0  0  0  0  0
    9.2817   46.9881   30.4426 C   0  0  0  0  0  0  0  0  0  0  0  0
    6.5245   46.5018   30.4861 C   0  0  0  0  0  0  0  0  0  0  0  0
    8.4003   47.8886   29.8335 C   0  0  0  0  0  0  0  0  0  0  0  0
    7.0186   47.6553   29.8436 C   0  0  0  0  0  0  0  0  0  0  0  0
    6.1842   48.5900   29.2082 O   0  0  0  0  0  0  0  0  0  0  0  0
    4.7734   48.4589   29.0303 C   0  0  1  0  0  0  0  0  0  0  0  0
    4.1906   49.7988   28.5799 C   0  0  0  0  0  0  0  0  0  0  0  0
    4.4388   47.3564   28.0360 C   0  0  0  0  0  0  0  0  0  0  0  0
    3.5463   46.3367   28.4492 C   0  0  0  0  0  0  0  0  0  0  0  0
    4.9405   47.3393   26.6909 C   0  0  0  0  0  0  0  0  0  0  0  0
    3.1914   45.3518   27.5366 C   0  0  0  0  0  0  0  0  0  0  0  0
    4.5332   46.3197   25.8024 C   0  0  0  0  0  0  0  0  0  0  0  0
    5.8376   48.3456   26.2064 N   0  0  0  0  0  0  0  0  0  0  0  0
    2.3482   44.2731   27.7218 O   0  0  0  0  0  0  0  0  0  0  0  0
    3.6629   45.3443   26.2689 C   0  0  0  0  0  0  0  0  0  0  0  0
    7.1157   48.4194   26.7066 O   0  0  0  0  0  0  0  0  0  0  0  0
    5.5716   48.9457   25.1448 O   0  0  0  0  0  0  0  0  0  0  0  0
    2.2892   43.5412   26.4898 C   0  0  0  0  0  0  0  0  0  0  0  0
    3.1427   44.2600   25.5889 O   0  0  0  0  0  0  0  0  0  0  0  0
    8.8120   40.1851   34.2131 O   0  0  0  0  0  0  0  0  0  0  0  0
   11.2401   40.7951   33.3681 O   0  0  0  0  0  0  0  0  0  0  0  0
   10.9125   40.6877   31.9968 C   0  0  0  0  0  0  0  0  0  0  0  0
   11.5169   39.3811   31.4420 C   0  0  0  0  0  0  0  0  0  0  0  0
   12.7500   39.0881   32.0759 O   0  0  0  0  0  0  0  0  0  0  0  0
   10.6043   38.1893   31.6659 C   0  0  0  0  0  0  0  0  0  0  0  0
   12.9395   37.6814   32.0280 C   0  0  0  0  0  0  0  0  0  0  0  0
    9.6353   38.0951   30.6499 O   0  0  0  0  0  0  0  0  0  0  0  0
   11.5804   37.0191   31.6934 C   0  0  0  0  0  0  0  0  0  0  0  0
   13.4851   37.2119   33.3244 N   0  0  0  0  0  0  0  0  0  0  0  0
   11.6118   36.3189   30.4673 O   0  0  0  0  0  0  0  0  0  0  0  0
   14.4801   36.3316   33.5732 C   0  0  0  0  0  0  0  0  0  0  0  0
   13.1139   37.6277   34.5692 C   0  0  0  0  0  0  0  0  0  0  0  0
   15.2076   35.6154   32.6744 N   0  0  0  0  0  0  0  0  0  0  0  0
   14.6756   36.2303   34.9186 C   0  0  0  0  0  0  0  0  0  0  0  0
   13.8215   37.0451   35.5786 N   0  0  0  0  0  0  0  0  0  0  0  0
   16.1642   34.7602   33.1551 C   0  0  0  0  0  0  0  0  0  0  0  0
   15.6526   35.3505   35.4134 C   0  0  0  0  0  0  0  0  0  0  0  0
   16.3796   34.6316   34.5046 N   0  0  0  0  0  0  0  0  0  0  0  0
   15.9001   35.1933   36.8093 N   0  0  0  0  0  0  0  0  0  0  0  0
    9.0120   45.4318   33.6710 H   0  0  0  0  0  0  0  0  0  0  0  0
   11.8908   45.7658   32.9474 H   0  0  0  0  0  0  0  0  0  0  0  0
   10.7261   46.9688   33.1213 H   0  0  0  0  0  0  0  0  0  0  0  0
    9.3425   43.8330   31.4757 H   0  0  0  0  0  0  0  0  0  0  0  0
   10.7236   44.8822   31.1556 H   0  0  0  0  0  0  0  0  0  0  0  0
    7.0100   44.7174   31.5846 H   0  0  0  0  0  0  0  0  0  0  0  0
   10.3459   47.1868   30.4111 H   0  0  0  0  0  0  0  0  0  0  0  0
    5.4669   46.2906   30.5260 H   0  0  0  0  0  0  0  0  0  0  0  0
    8.7938   48.7701   29.3434 H   0  0  0  0  0  0  0  0  0  0  0  0
    4.3129   48.2438   30.0203 H   0  0  0  0  0  0  0  0  0  0  0  0
    4.6741   50.1582   27.6491 H   0  0  0  0  0  0  0  0  0  0  0  0
    3.0969   49.7035   28.4084 H   0  0  0  0  0  0  0  0  0  0  0  0
    4.3561   50.5610   29.3707 H   0  0  0  0  0  0  0  0  0  0  0  0
    3.1316   46.3149   29.4490 H   0  0  0  0  0  0  0  0  0  0  0  0
    4.8944   46.2867   24.7824 H   0  0  0  0  0  0  0  0  0  0  0  0
    2.6705   42.5091   26.6376 H   0  0  0  0  0  0  0  0  0  0  0  0
    1.2491   43.5255   26.1019 H   0  0  0  0  0  0  0  0  0  0  0  0
   11.3808   41.5456   31.4686 H   0  0  0  0  0  0  0  0  0  0  0  0
    9.8216   40.7222   31.7646 H   0  0  0  0  0  0  0  0  0  0  0  0
   11.6986   39.5089   30.3499 H   0  0  0  0  0  0  0  0  0  0  0  0
   10.1109   38.2737   32.6630 H   0  0  0  0  0  0  0  0  0  0  0  0
   13.6783   37.4561   31.2271 H   0  0  0  0  0  0  0  0  0  0  0  0
    9.0020   37.3860   30.9348 H   0  0  0  0  0  0  0  0  0  0  0  0
   11.2807   36.3053   32.4921 H   0  0  0  0  0  0  0  0  0  0  0  0
   11.8818   36.9600   29.7584 H   0  0  0  0  0  0  0  0  0  0  0  0
   12.3303   38.3538   34.7445 H   0  0  0  0  0  0  0  0  0  0  0  0
   16.7563   34.1783   32.4624 H   0  0  0  0  0  0  0  0  0  0  0  0
   15.3532   35.7359   37.5142 H   0  0  0  0  0  0  0  0  0  0  0  0
   16.6348   34.5301   37.1419 H   0  0  0  0  0  0  0  0  0  0  0  0
  1  2  2  0
  1  3  1  0
  3  4  1  0
  4  5  1  0
  6  1  1  0
  7  6  1  0
  6  8  1  0
  8  9  1  0
  9 10  2  0
 11  9  1  0
 10 12  1  0
 13 11  2  0
 12 14  2  0
 14 13  1  0
 14 15  1  0
 15 16  1  0
 16 17  1  0
 16 18  1  0
 18 19  2  0
 20 18  1  0
 19 21  1  0
 22 20  2  0
 20 23  1  0
 21 24  1  0
 21 25  2  0
 25 22  1  0
 23 26  1  0
 23 27  2  0
 24 28  1  0
 25 29  1  0
 28 29  1  0
  4 30  2  0
  4 31  1  0
 32 31  1  0
 32 33  1  0
 33 34  1  0
 33 35  1  0
 34 36  1  0
 35 37  1  0
 35 38  1  0
 38 36  1  0
 36 39  1  0
 38 40  1  0
 41 39  1  0
 42 39  1  0
 43 41  2  0
 41 44  1  0
 45 42  2  0
 46 43  1  0
 44 47  2  0
 44 45  1  0
 48 46  2  0
 48 47  1  0
 47 49  1  0
  6 50  1  1
  7 51  1  0
  7 52  1  0
  8 53  1  0
  8 54  1  0
 10 55  1  0
 11 56  1  0
 12 57  1  0
 13 58  1  0
 16 59  1  1
 17 60  1  0
 17 61  1  0
 17 62  1  0
 19 63  1  0
 22 64  1  0
 28 65  1  0
 28 66  1  0
 32 67  1  0
 32 68  1  0
 33 69  1  0
 35 70  1  0
 36 71  1  0
 37 72  1  0
 38 73  1  0
 40 74  1  0
 42 75  1  0
 46 76  1  0
 49 77  1  0
 49 78  1  0
M  CHG  3   5  -1  23   1  26  -1
M  END
>  <EmbedRMS>  (335) 
0.0815665705976

$$$$

     RDKit          3D

 78 83  0  0  0  0  0  0  0  0999 V2000
   10.2839   43.7627   33.8277 C   0  0  0  0  0  0  0  0  0  0  0  0
   11.4104   43.5864   34.3767 O   0  0  0  0  0  0  0  0  0  0  0  0
    9.3631   42.7236   33.7356 O   0  0  0  0  0  0  0  0  0  0  0  0
    9.8895   41.2250   34.2948 P   0  0  0  0  0  0  0  0  0  0  0  0
   10.3720   41.4547   35.8844 O   0  0  0  0  0  0  0  0  0  0  0  0
    9.9548   45.0700   33.2065 C   0  0  1  0  0  0  0  0  0  0  0  0
   11.0197   46.0482   33.4568 N   0  0  0  0  0  0  0  0  0  0  0  0
    9.7500   44.8508   31.6925 C   0  0  0  0  0  0  0  0  0  0  0  0
    8.7942   45.8418   31.0871 C   0  0  0  0  0  0  0  0  0  0  0  0
    7.4074   45.6006   31.0994 C   0  0  0  0  0  0  0  0  0  0  0  0
    9.2833   46.9888   30.4445 C   0  0  0  0  0  0  0  0  0  0  0  0
    6.5280   46.5014   30.4833 C   0  0  0  0  0  0  0  0  0  0  0  0
    8.4039   47.8893   29.8318 C   0  0  0  0  0  0  0  0  0  0  0  0
    7.0144   47.6530   29.8495 C   0  0  0  0  0  0  0  0  0  0  0  0
    6.0880   48.5267   29.2568 O   0  0  0  0  0  0  0  0  0  0  0  0
    6.4051   49.7879   28.6613 C   0  0  1  0  0  0  0  0  0  0  0  0
    5.1648   50.3176   27.9437 C   0  0  0  0  0  0  0  0  0  0  0  0
    6.8562   50.7792   29.7208 C   0  0  0  0  0  0  0  0  0  0  0  0
    6.1297   50.8491   30.9349 C   0  0  0  0  0  0  0  0  0  0  0  0
    8.0212   51.5981   29.5523 C   0  0  0  0  0  0  0  0  0  0  0  0
    6.5955   51.6867   31.9395 C   0  0  0  0  0  0  0  0  0  0  0  0
    8.4563   52.4206   30.6169 C   0  0  0  0  0  0  0  0  0  0  0  0
    8.7535   51.6198   28.3172 N   0  0  0  0  0  0  0  0  0  0  0  0
    6.0613   51.9012   33.1954 O   0  0  0  0  0  0  0  0  0  0  0  0
    7.7123   52.4352   31.7893 C   0  0  0  0  0  0  0  0  0  0  0  0
    8.0882   51.7735   27.1230 O   0  0  0  0  0  0  0  0  0  0  0  0
    9.9974   51.7249   28.3315 O   0  0  0  0  0  0  0  0  0  0  0  0
    6.8978   52.8466   33.8761 C   0  0  0  0  0  0  0  0  0  0  0  0
    7.9396   53.1617   32.9423 O   0  0  0  0  0  0  0  0  0  0  0  0
    8.8117   40.1832   34.2125 O   0  0  0  0  0  0  0  0  0  0  0  0
   11.2412   40.7939   33.3709 O   0  0  0  0  0  0  0  0  0  0  0  0
   10.9179   40.6920   31.9985 C   0  0  0  0  0  0  0  0  0  0  0  0
   11.5175   39.3837   31.4422 C   0  0  0  0  0  0  0  0  0  0  0  0
   12.7508   39.0887   32.0751 O   0  0  0  0  0  0  0  0  0  0  0  0
   10.6028   38.1915   31.6658 C   0  0  0  0  0  0  0  0  0  0  0  0
   12.9385   37.6818   32.0278 C   0  0  0  0  0  0  0  0  0  0  0  0
    9.6371   38.0805   30.6470 O   0  0  0  0  0  0  0  0  0  0  0  0
   11.5780   37.0215   31.6934 C   0  0  0  0  0  0  0  0  0  0  0  0
   13.4844   37.2119   33.3242 N   0  0  0  0  0  0  0  0  0  0  0  0
   11.6095   36.3201   30.4679 O   0  0  0  0  0  0  0  0  0  0  0  0
   14.4797   36.3318   33.5730 C   0  0  0  0  0  0  0  0  0  0  0  0
   13.1135   37.6278   34.5691 C   0  0  0  0  0  0  0  0  0  0  0  0
   15.2073   35.6155   32.6742 N   0  0  0  0  0  0  0  0  0  0  0  0
   14.6754   36.2305   34.9184 C   0  0  0  0  0  0  0  0  0  0  0  0
   13.8213   37.0452   35.5785 N   0  0  0  0  0  0  0  0  0  0  0  0
   16.1640   34.7604   33.1549 C   0  0  0  0  0  0  0  0  0  0  0  0
   15.6524   35.3507   35.4132 C   0  0  0  0  0  0  0  0  0  0  0  0
   16.3794   34.6318   34.5044 N   0  0  0  0  0  0  0  0  0  0  0  0
   15.8999   35.1934   36.8091 N   0  0  0  0  0  0  0  0  0  0  0  0
    9.0098   45.4349   33.6672 H   0  0  0  0  0  0  0  0  0  0  0  0
   11.9348   45.6934   33.0924 H   0  0  0  0  0  0  0  0  0  0  0  0
   11.1134   46.1995   34.4881 H   0  0  0  0  0  0  0  0  0  0  0  0
   10.7303   44.8921   31.1676 H   0  0  0  0  0  0  0  0  0  0  0  0
    9.3507   43.8343   31.4765 H   0  0  0  0  0  0  0  0  0  0  0  0
    7.0108   44.7154   31.5812 H   0  0  0  0  0  0  0  0  0  0  0  0
   10.3477   47.1870   30.4147 H   0  0  0  0  0  0  0  0  0  0  0  0
    5.4635   46.3050   30.5019 H   0  0  0  0  0  0  0  0  0  0  0  0
    8.8181   48.7598   29.3444 H   0  0  0  0  0  0  0  0  0  0  0  0
    7.1885   49.6197   27.8941 H   0  0  0  0  0  0  0  0  0  0  0  0
    5.3794   51.3012   27.4743 H   0  0  0  0  0  0  0  0  0  0  0  0
    4.3197   50.4336   28.6555 H   0  0  0  0  0  0  0  0  0  0  0  0
    4.8605   49.6060   27.1471 H   0  0  0  0  0  0  0  0  0  0  0  0
    5.2424   50.2506   31.0987 H   0  0  0  0  0  0  0  0  0  0  0  0
    9.3342   53.0469   30.5230 H   0  0  0  0  0  0  0  0  0  0  0  0
    7.3289   52.3890   34.7911 H   0  0  0  0  0  0  0  0  0  0  0  0
    6.3192   53.7602   34.1273 H   0  0  0  0  0  0  0  0  0  0  0  0
   11.3955   41.5477   31.4750 H   0  0  0  0  0  0  0  0  0  0  0  0
    9.8292   40.7410   31.7624 H   0  0  0  0  0  0  0  0  0  0  0  0
   11.6981   39.5116   30.3500 H   0  0  0  0  0  0  0  0  0  0  0  0
   10.1117   38.2603   32.6660 H   0  0  0  0  0  0  0  0  0  0  0  0
   13.6767   37.4555   31.2267 H   0  0  0  0  0  0  0  0  0  0  0  0
    8.8961   38.6951   30.8872 H   0  0  0  0  0  0  0  0  0  0  0  0
   11.2791   36.3072   32.4922 H   0  0  0  0  0  0  0  0  0  0  0  0
   11.8828   36.9598   29.7588 H   0  0  0  0  0  0  0  0  0  0  0  0
   12.3300   38.3539   34.7446 H   0  0  0  0  0  0  0  0  0  0  0  0
   16.7561   34.1785   32.4622 H   0  0  0  0  0  0  0  0  0  0  0  0
   16.6347   34.5303   37.1416 H   0  0  0  0  0  0  0  0  0  0  0  0
   15.3531   35.7360   37.5140 H   0  0  0  0  0  0  0  0  0  0  0  0
  1  2  2  0
  1  3  1  0
  3  4  1  0
  4  5  1  0
  6  1  1  0
  7  6  1  0
  6  8  1  0
  8  9  1  0
  9 10  2  0
 11  9  1  0
 10 12  1  0
 13 11  2  0
 12 14  2  0
 14 13  1  0
 14 15  1  0
 15 16  1  0
 16 17  1  0
 16 18  1  0
 18 19  2  0
 20 18  1  0
 19 21  1  0
 22 20  2  0
 20 23  1  0
 21 24  1  0
 21 25  2  0
 25 22  1  0
 23 26  1  0
 23 27  2  0
 24 28  1  0
 25 29  1  0
 28 29  1  0
  4 30  2  0
  4 31  1  0
 32 31  1  0
 32 33  1  0
 33 34  1  0
 33 35  1  0
 34 36  1  0
 35 37  1  0
 35 38  1  0
 38 36  1  0
 36 39  1  0
 38 40  1  0
 41 39  1  0
 42 39  1  0
 43 41  2  0
 41 44  1  0
 45 42  2  0
 46 43  1  0
 44 47  2  0
 44 45  1  0
 48 46  2  0
 48 47  1  0
 47 49  1  0
  6 50  1  1
  7 51  1  0
  7 52  1  0
  8 53  1  0
  8 54  1  0
 10 55  1  0
 11 56  1  0
 12 57  1  0
 13 58  1  0
 16 59  1  6
 17 60  1  0
 17 61  1  0
 17 62  1  0
 19 63  1  0
 22 64  1  0
 28 65  1  0
 28 66  1  0
 32 67  1  0
 32 68  1  0
 33 69  1  0
 35 70  1  0
 36 71  1  0
 37 72  1  0
 38 73  1  0
 40 74  1  0
 42 75  1  0
 46 76  1  0
 49 77  1  0
 49 78  1  0
M  CHG  3   5  -1  23   1  26  -1
M  END
>  <EmbedRMS>  (336) 
0.0828753731527

$$$$

     RDKit          3D

 78 83  0  0  0  0  0  0  0  0999 V2000
   10.2805   43.7663   33.8248 C   0  0  0  0  0  0  0  0  0  0  0  0
   11.4111   43.5919   34.3667 O   0  0  0  0  0  0  0  0  0  0  0  0
    9.3622   42.7247   33.7342 O   0  0  0  0  0  0  0  0  0  0  0  0
    9.8904   41.2264   34.2936 P   0  0  0  0  0  0  0  0  0  0  0  0
   10.3731   41.4565   35.8831 O   0  0  0  0  0  0  0  0  0  0  0  0
    9.9460   45.0736   33.2111 C   0  0  1  0  0  0  0  0  0  0  0  0
   11.0267   46.0292   33.4708 N   0  0  0  0  0  0  0  0  0  0  0  0
    9.7540   44.8542   31.6947 C   0  0  0  0  0  0  0  0  0  0  0  0
    8.7957   45.8412   31.0848 C   0  0  0  0  0  0  0  0  0  0  0  0
    7.4089   45.6001   31.1015 C   0  0  0  0  0  0  0  0  0  0  0  0
    9.2823   46.9882   30.4399 C   0  0  0  0  0  0  0  0  0  0  0  0
    6.5258   46.4991   30.4873 C   0  0  0  0  0  0  0  0  0  0  0  0
    8.3996   47.8876   29.8314 C   0  0  0  0  0  0  0  0  0  0  0  0
    7.0186   47.6537   29.8450 C   0  0  0  0  0  0  0  0  0  0  0  0
    6.1812   48.5830   29.2056 O   0  0  0  0  0  0  0  0  0  0  0  0
    4.7626   48.4646   29.0771 C   0  0  1  0  0  0  0  0  0  0  0  0
    4.1745   49.7833   28.5763 C   0  0  0  0  0  0  0  0  0  0  0  0
    4.3567   47.3173   28.1631 C   0  0  0  0  0  0  0  0  0  0  0  0
    3.1377   46.6592   28.4568 C   0  0  0  0  0  0  0  0  0  0  0  0
    5.1583   46.8473   27.0650 C   0  0  0  0  0  0  0  0  0  0  0  0
    2.7698   45.5626   27.6893 C   0  0  0  0  0  0  0  0  0  0  0  0
    4.7371   45.7153   26.3296 C   0  0  0  0  0  0  0  0  0  0  0  0
    6.3885   47.4852   26.6881 N   0  0  0  0  0  0  0  0  0  0  0  0
    1.6409   44.7743   27.8035 O   0  0  0  0  0  0  0  0  0  0  0  0
    3.5374   45.1082   26.6735 C   0  0  0  0  0  0  0  0  0  0  0  0
    6.4308   48.8424   26.4736 O   0  0  0  0  0  0  0  0  0  0  0  0
    7.3693   46.7920   26.3476 O   0  0  0  0  0  0  0  0  0  0  0  0
    1.7059   43.7597   26.7920 C   0  0  0  0  0  0  0  0  0  0  0  0
    2.9329   44.0098   26.0930 O   0  0  0  0  0  0  0  0  0  0  0  0
    8.8128   40.1841   34.2124 O   0  0  0  0  0  0  0  0  0  0  0  0
   11.2418   40.7944   33.3695 O   0  0  0  0  0  0  0  0  0  0  0  0
   10.9185   40.6911   31.9969 C   0  0  0  0  0  0  0  0  0  0  0  0
   11.5172   39.3814   31.4407 C   0  0  0  0  0  0  0  0  0  0  0  0
   12.7492   39.0856   32.0729 O   0  0  0  0  0  0  0  0  0  0  0  0
   10.6023   38.1908   31.6665 C   0  0  0  0  0  0  0  0  0  0  0  0
   12.9319   37.6781   32.0281 C   0  0  0  0  0  0  0  0  0  0  0  0
    9.6392   38.0797   30.6452 O   0  0  0  0  0  0  0  0  0  0  0  0
   11.5715   37.0165   31.7056 C   0  0  0  0  0  0  0  0  0  0  0  0
   13.4846   37.2121   33.3235 N   0  0  0  0  0  0  0  0  0  0  0  0
   11.6187   36.3384   30.4694 O   0  0  0  0  0  0  0  0  0  0  0  0
   14.4801   36.3321   33.5724 C   0  0  0  0  0  0  0  0  0  0  0  0
   13.1137   37.6276   34.5688 C   0  0  0  0  0  0  0  0  0  0  0  0
   15.2073   35.6153   32.6738 N   0  0  0  0  0  0  0  0  0  0  0  0
   14.6759   36.2308   34.9179 C   0  0  0  0  0  0  0  0  0  0  0  0
   13.8216   37.0452   35.5781 N   0  0  0  0  0  0  0  0  0  0  0  0
   16.1640   34.7602   33.1546 C   0  0  0  0  0  0  0  0  0  0  0  0
   15.6526   35.3508   35.4129 C   0  0  0  0  0  0  0  0  0  0  0  0
   16.3794   34.6317   34.5041 N   0  0  0  0  0  0  0  0  0  0  0  0
   15.8999   35.1934   36.8088 N   0  0  0  0  0  0  0  0  0  0  0  0
    8.9996   45.4380   33.6721 H   0  0  0  0  0  0  0  0  0  0  0  0
   10.7765   46.9368   33.0158 H   0  0  0  0  0  0  0  0  0  0  0  0
   11.0502   46.2277   34.4982 H   0  0  0  0  0  0  0  0  0  0  0  0
    9.3646   43.8354   31.4709 H   0  0  0  0  0  0  0  0  0  0  0  0
   10.7411   44.9080   31.1834 H   0  0  0  0  0  0  0  0  0  0  0  0
    7.0149   44.7153   31.5863 H   0  0  0  0  0  0  0  0  0  0  0  0
   10.3462   47.1878   30.4051 H   0  0  0  0  0  0  0  0  0  0  0  0
    5.4675   46.2829   30.5189 H   0  0  0  0  0  0  0  0  0  0  0  0
    8.7916   48.7678   29.3376 H   0  0  0  0  0  0  0  0  0  0  0  0
    4.3416   48.3002   30.0946 H   0  0  0  0  0  0  0  0  0  0  0  0
    4.5046   50.0081   27.5427 H   0  0  0  0  0  0  0  0  0  0  0  0
    4.4955   50.6134   29.2407 H   0  0  0  0  0  0  0  0  0  0  0  0
    3.0645   49.7343   28.5897 H   0  0  0  0  0  0  0  0  0  0  0  0
    2.5019   46.9842   29.2708 H   0  0  0  0  0  0  0  0  0  0  0  0
    5.3208   45.3327   25.5021 H   0  0  0  0  0  0  0  0  0  0  0  0
    1.7293   42.7528   27.2589 H   0  0  0  0  0  0  0  0  0  0  0  0
    0.8440   43.8530   26.0985 H   0  0  0  0  0  0  0  0  0  0  0  0
   11.3967   41.5459   31.4726 H   0  0  0  0  0  0  0  0  0  0  0  0
    9.8298   40.7409   31.7611 H   0  0  0  0  0  0  0  0  0  0  0  0
   11.6975   39.5066   30.3481 H   0  0  0  0  0  0  0  0  0  0  0  0
   10.1076   38.2647   32.6645 H   0  0  0  0  0  0  0  0  0  0  0  0
   13.6621   37.4468   31.2209 H   0  0  0  0  0  0  0  0  0  0  0  0
    8.8974   38.6943   30.8831 H   0  0  0  0  0  0  0  0  0  0  0  0
   11.2806   36.3073   32.5170 H   0  0  0  0  0  0  0  0  0  0  0  0
   10.8493   35.7110   30.4585 H   0  0  0  0  0  0  0  0  0  0  0  0
   12.3290   38.3524   34.7444 H   0  0  0  0  0  0  0  0  0  0  0  0
   16.7559   34.1780   32.4619 H   0  0  0  0  0  0  0  0  0  0  0  0
   15.3531   35.7362   37.5137 H   0  0  0  0  0  0  0  0  0  0  0  0
   16.6344   34.5301   37.1414 H   0  0  0  0  0  0  0  0  0  0  0  0
  1  2  2  0
  1  3  1  0
  3  4  1  0
  4  5  1  0
  6  1  1  0
  7  6  1  0
  6  8  1  0
  8  9  1  0
  9 10  2  0
 11  9  1  0
 10 12  1  0
 13 11  2  0
 12 14  2  0
 14 13  1  0
 14 15  1  0
 15 16  1  0
 16 17  1  0
 16 18  1  0
 18 19  2  0
 20 18  1  0
 19 21  1  0
 22 20  2  0
 20 23  1  0
 21 24  1  0
 21 25  2  0
 25 22  1  0
 23 26  1  0
 23 27  2  0
 24 28  1  0
 25 29  1  0
 28 29  1  0
  4 30  2  0
  4 31  1  0
 32 31  1  0
 32 33  1  0
 33 34  1  0
 33 35  1  0
 34 36  1  0
 35 37  1  0
 35 38  1  0
 38 36  1  0
 36 39  1  0
 38 40  1  0
 41 39  1  0
 42 39  1  0
 43 41  2  0
 41 44  1  0
 45 42  2  0
 46 43  1  0
 44 47  2  0
 44 45  1  0
 48 46  2  0
 48 47  1  0
 47 49  1  0
  6 50  1  1
  7 51  1  0
  7 52  1  0
  8 53  1  0
  8 54  1  0
 10 55  1  0
 11 56  1  0
 12 57  1  0
 13 58  1  0
 16 59  1  1
 17 60  1  0
 17 61  1  0
 17 62  1  0
 19 63  1  0
 22 64  1  0
 28 65  1  0
 28 66  1  0
 32 67  1  0
 32 68  1  0
 33 69  1  0
 35 70  1  0
 36 71  1  0
 37 72  1  0
 38 73  1  0
 40 74  1  0
 42 75  1  0
 46 76  1  0
 49 77  1  0
 49 78  1  0
M  CHG  3   5  -1  23   1  26  -1
M  END
>  <EmbedRMS>  (337) 
0.0827653215642

$$$$

     RDKit          3D

 78 83  0  0  0  0  0  0  0  0999 V2000
   10.2834   43.7662   33.8257 C   0  0  0  0  0  0  0  0  0  0  0  0
   11.4102   43.5931   34.3752 O   0  0  0  0  0  0  0  0  0  0  0  0
    9.3638   42.7255   33.7349 O   0  0  0  0  0  0  0  0  0  0  0  0
    9.8904   41.2267   34.2942 P   0  0  0  0  0  0  0  0  0  0  0  0
   10.3736   41.4561   35.8837 O   0  0  0  0  0  0  0  0  0  0  0  0
    9.9545   45.0696   33.2036 C   0  0  1  0  0  0  0  0  0  0  0  0
   11.0271   46.0324   33.4756 N   0  0  0  0  0  0  0  0  0  0  0  0
    9.7465   44.8481   31.6877 C   0  0  0  0  0  0  0  0  0  0  0  0
    8.7923   45.8407   31.0843 C   0  0  0  0  0  0  0  0  0  0  0  0
    7.4056   45.6011   31.0984 C   0  0  0  0  0  0  0  0  0  0  0  0
    9.2824   46.9874   30.4419 C   0  0  0  0  0  0  0  0  0  0  0  0
    6.5268   46.5027   30.4833 C   0  0  0  0  0  0  0  0  0  0  0  0
    8.4035   47.8895   29.8312 C   0  0  0  0  0  0  0  0  0  0  0  0
    7.0139   47.6539   29.8496 C   0  0  0  0  0  0  0  0  0  0  0  0
    6.0869   48.5319   29.2638 O   0  0  0  0  0  0  0  0  0  0  0  0
    6.4068   49.7847   28.6545 C   0  0  1  0  0  0  0  0  0  0  0  0
    5.1862   50.3283   27.9127 C   0  0  0  0  0  0  0  0  0  0  0  0
    6.9178   50.8036   29.6631 C   0  0  0  0  0  0  0  0  0  0  0  0
    7.8905   51.7281   29.2111 C   0  0  0  0  0  0  0  0  0  0  0  0
    6.5049   50.8407   31.0413 C   0  0  0  0  0  0  0  0  0  0  0  0
    8.4348   52.6226   30.1225 C   0  0  0  0  0  0  0  0  0  0  0  0
    7.1086   51.7641   31.9245 C   0  0  0  0  0  0  0  0  0  0  0  0
    5.5030   49.9567   31.5674 N   0  0  0  0  0  0  0  0  0  0  0  0
    9.3930   53.5940   29.9050 O   0  0  0  0  0  0  0  0  0  0  0  0
    8.0636   52.6369   31.4225 C   0  0  0  0  0  0  0  0  0  0  0  0
    5.6497   49.4366   32.8326 O   0  0  0  0  0  0  0  0  0  0  0  0
    4.4048   49.8307   30.9896 O   0  0  0  0  0  0  0  0  0  0  0  0
    9.6373   54.2608   31.1509 C   0  0  0  0  0  0  0  0  0  0  0  0
    8.7676   53.6185   32.0931 O   0  0  0  0  0  0  0  0  0  0  0  0
    8.8122   40.1850   34.2131 O   0  0  0  0  0  0  0  0  0  0  0  0
   11.2407   40.7940   33.3694 O   0  0  0  0  0  0  0  0  0  0  0  0
   10.9152   40.6905   31.9974 C   0  0  0  0  0  0  0  0  0  0  0  0
   11.5252   39.3886   31.4375 C   0  0  0  0  0  0  0  0  0  0  0  0
   12.7500   39.0874   32.0799 O   0  0  0  0  0  0  0  0  0  0  0  0
   10.6092   38.1926   31.6469 C   0  0  0  0  0  0  0  0  0  0  0  0
   12.9332   37.6792   32.0294 C   0  0  0  0  0  0  0  0  0  0  0  0
    9.6122   38.0895   30.6542 O   0  0  0  0  0  0  0  0  0  0  0  0
   11.5743   37.0145   31.7024 C   0  0  0  0  0  0  0  0  0  0  0  0
   13.4844   37.2107   33.3241 N   0  0  0  0  0  0  0  0  0  0  0  0
   11.6297   36.3239   30.4740 O   0  0  0  0  0  0  0  0  0  0  0  0
   14.4802   36.3313   33.5727 C   0  0  0  0  0  0  0  0  0  0  0  0
   13.1138   37.6266   34.5692 C   0  0  0  0  0  0  0  0  0  0  0  0
   15.2075   35.6149   32.6739 N   0  0  0  0  0  0  0  0  0  0  0  0
   14.6761   36.2303   34.9182 C   0  0  0  0  0  0  0  0  0  0  0  0
   13.8219   37.0446   35.5785 N   0  0  0  0  0  0  0  0  0  0  0  0
   16.1643   34.7600   33.1547 C   0  0  0  0  0  0  0  0  0  0  0  0
   15.6529   35.3505   35.4130 C   0  0  0  0  0  0  0  0  0  0  0  0
   16.3798   34.6315   34.5042 N   0  0  0  0  0  0  0  0  0  0  0  0
   15.9003   35.1932   36.8090 N   0  0  0  0  0  0  0  0  0  0  0  0
    9.0119   45.4318   33.6714 H   0  0  0  0  0  0  0  0  0  0  0  0
   11.8903   45.7663   32.9468 H   0  0  0  0  0  0  0  0  0  0  0  0
   10.7255   46.9690   33.1214 H   0  0  0  0  0  0  0  0  0  0  0  0
   10.7229   44.8814   31.1558 H   0  0  0  0  0  0  0  0  0  0  0  0
    9.3414   43.8329   31.4764 H   0  0  0  0  0  0  0  0  0  0  0  0
    7.0083   44.7166   31.5808 H   0  0  0  0  0  0  0  0  0  0  0  0
   10.3470   47.1843   30.4109 H   0  0  0  0  0  0  0  0  0  0  0  0
    5.4619   46.3088   30.5044 H   0  0  0  0  0  0  0  0  0  0  0  0
    8.8175   48.7627   29.3475 H   0  0  0  0  0  0  0  0  0  0  0  0
    7.1856   49.5980   27.8810 H   0  0  0  0  0  0  0  0  0  0  0  0
    5.4609   51.2456   27.3491 H   0  0  0  0  0  0  0  0  0  0  0  0
    4.8195   49.5702   27.1887 H   0  0  0  0  0  0  0  0  0  0  0  0
    4.3634   50.5770   28.6120 H   0  0  0  0  0  0  0  0  0  0  0  0
    8.2248   51.7387   28.1812 H   0  0  0  0  0  0  0  0  0  0  0  0
    6.8264   51.8115   32.9685 H   0  0  0  0  0  0  0  0  0  0  0  0
    9.3821   55.3380   31.0665 H   0  0  0  0  0  0  0  0  0  0  0  0
   10.6966   54.1292   31.4557 H   0  0  0  0  0  0  0  0  0  0  0  0
   11.3802   41.5529   31.4734 H   0  0  0  0  0  0  0  0  0  0  0  0
    9.8243   40.7216   31.7643 H   0  0  0  0  0  0  0  0  0  0  0  0
   11.7266   39.5311   30.3513 H   0  0  0  0  0  0  0  0  0  0  0  0
   10.1110   38.2747   32.6387 H   0  0  0  0  0  0  0  0  0  0  0  0
   13.6652   37.4519   31.2226 H   0  0  0  0  0  0  0  0  0  0  0  0
   10.0511   38.1144   29.7645 H   0  0  0  0  0  0  0  0  0  0  0  0
   11.2761   36.3141   32.5189 H   0  0  0  0  0  0  0  0  0  0  0  0
   10.8593   35.6977   30.4640 H   0  0  0  0  0  0  0  0  0  0  0  0
   12.3294   38.3517   34.7450 H   0  0  0  0  0  0  0  0  0  0  0  0
   16.7564   34.1780   32.4620 H   0  0  0  0  0  0  0  0  0  0  0  0
   16.6349   34.5300   37.1416 H   0  0  0  0  0  0  0  0  0  0  0  0
   15.3534   35.7359   37.5138 H   0  0  0  0  0  0  0  0  0  0  0  0
  1  2  2  0
  1  3  1  0
  3  4  1  0
  4  5  1  0
  6  1  1  0
  7  6  1  0
  6  8  1  0
  8  9  1  0
  9 10  2  0
 11  9  1  0
 10 12  1  0
 13 11  2  0
 12 14  2  0
 14 13  1  0
 14 15  1  0
 15 16  1  0
 16 17  1  0
 16 18  1  0
 18 19  2  0
 20 18  1  0
 19 21  1  0
 22 20  2  0
 20 23  1  0
 21 24  1  0
 21 25  2  0
 25 22  1  0
 23 26  1  0
 23 27  2  0
 24 28  1  0
 25 29  1  0
 28 29  1  0
  4 30  2  0
  4 31  1  0
 32 31  1  0
 32 33  1  0
 33 34  1  0
 33 35  1  0
 34 36  1  0
 35 37  1  0
 35 38  1  0
 38 36  1  0
 36 39  1  0
 38 40  1  0
 41 39  1  0
 42 39  1  0
 43 41  2  0
 41 44  1  0
 45 42  2  0
 46 43  1  0
 44 47  2  0
 44 45  1  0
 48 46  2  0
 48 47  1  0
 47 49  1  0
  6 50  1  1
  7 51  1  0
  7 52  1  0
  8 53  1  0
  8 54  1  0
 10 55  1  0
 11 56  1  0
 12 57  1  0
 13 58  1  0
 16 59  1  6
 17 60  1  0
 17 61  1  0
 17 62  1  0
 19 63  1  0
 22 64  1  0
 28 65  1  0
 28 66  1  0
 32 67  1  0
 32 68  1  0
 33 69  1  0
 35 70  1  0
 36 71  1  0
 37 72  1  0
 38 73  1  0
 40 74  1  0
 42 75  1  0
 46 76  1  0
 49 77  1  0
 49 78  1  0
M  CHG  3   5  -1  23   1  26  -1
M  END
>  <EmbedRMS>  (338) 
0.0818316256661

$$$$

     RDKit          3D

 78 83  0  0  0  0  0  0  0  0999 V2000
   10.2833   43.7665   33.8256 C   0  0  0  0  0  0  0  0  0  0  0  0
   11.4102   43.5933   34.3751 O   0  0  0  0  0  0  0  0  0  0  0  0
    9.3637   42.7257   33.7349 O   0  0  0  0  0  0  0  0  0  0  0  0
    9.8902   41.2269   34.2942 P   0  0  0  0  0  0  0  0  0  0  0  0
   10.3736   41.4561   35.8836 O   0  0  0  0  0  0  0  0  0  0  0  0
    9.9542   45.0699   33.2037 C   0  0  1  0  0  0  0  0  0  0  0  0
   11.0266   46.0329   33.4760 N   0  0  0  0  0  0  0  0  0  0  0  0
    9.7463   44.8487   31.6879 C   0  0  0  0  0  0  0  0  0  0  0  0
    8.7919   45.8415   31.0849 C   0  0  0  0  0  0  0  0  0  0  0  0
    7.4043   45.5998   31.0967 C   0  0  0  0  0  0  0  0  0  0  0  0
    9.2827   46.9877   30.4399 C   0  0  0  0  0  0  0  0  0  0  0  0
    6.5246   46.5006   30.4805 C   0  0  0  0  0  0  0  0  0  0  0  0
    8.4019   47.8867   29.8276 C   0  0  0  0  0  0  0  0  0  0  0  0
    7.0202   47.6565   29.8586 C   0  0  0  0  0  0  0  0  0  0  0  0
    6.1554   48.5731   29.2520 O   0  0  0  0  0  0  0  0  0  0  0  0
    5.3721   49.5479   29.9548 C   0  0  1  0  0  0  0  0  0  0  0  0
    4.2927   48.9009   30.8305 C   0  0  0  0  0  0  0  0  0  0  0  0
    6.2521   50.5154   30.7418 C   0  0  0  0  0  0  0  0  0  0  0  0
    6.9759   50.0400   31.8663 C   0  0  0  0  0  0  0  0  0  0  0  0
    6.4247   51.8812   30.3355 C   0  0  0  0  0  0  0  0  0  0  0  0
    7.8574   50.9007   32.5056 C   0  0  0  0  0  0  0  0  0  0  0  0
    7.3460   52.7075   31.0177 C   0  0  0  0  0  0  0  0  0  0  0  0
    5.6631   52.4478   29.2607 N   0  0  0  0  0  0  0  0  0  0  0  0
    8.6678   50.6452   33.5950 O   0  0  0  0  0  0  0  0  0  0  0  0
    8.0391   52.1761   32.0961 C   0  0  0  0  0  0  0  0  0  0  0  0
    4.2889   52.4493   29.3276 O   0  0  0  0  0  0  0  0  0  0  0  0
    6.2268   53.1738   28.4161 O   0  0  0  0  0  0  0  0  0  0  0  0
    9.4051   51.8400   33.8872 C   0  0  0  0  0  0  0  0  0  0  0  0
    8.9725   52.7931   32.9067 O   0  0  0  0  0  0  0  0  0  0  0  0
    8.8121   40.1851   34.2131 O   0  0  0  0  0  0  0  0  0  0  0  0
   11.2404   40.7942   33.3690 O   0  0  0  0  0  0  0  0  0  0  0  0
   10.9143   40.6898   31.9972 C   0  0  0  0  0  0  0  0  0  0  0  0
   11.5261   39.3885   31.4376 C   0  0  0  0  0  0  0  0  0  0  0  0
   12.7504   39.0888   32.0816 O   0  0  0  0  0  0  0  0  0  0  0  0
   10.6115   38.1910   31.6460 C   0  0  0  0  0  0  0  0  0  0  0  0
   12.9357   37.6812   32.0303 C   0  0  0  0  0  0  0  0  0  0  0  0
    9.6146   38.0859   30.6533 O   0  0  0  0  0  0  0  0  0  0  0  0
   11.5769   37.0148   31.7012 C   0  0  0  0  0  0  0  0  0  0  0  0
   13.4849   37.2112   33.3247 N   0  0  0  0  0  0  0  0  0  0  0  0
   11.6193   36.3261   30.4724 O   0  0  0  0  0  0  0  0  0  0  0  0
   14.4802   36.3313   33.5730 C   0  0  0  0  0  0  0  0  0  0  0  0
   13.1141   37.6268   34.5698 C   0  0  0  0  0  0  0  0  0  0  0  0
   15.2075   35.6151   32.6741 N   0  0  0  0  0  0  0  0  0  0  0  0
   14.6761   36.2300   34.9184 C   0  0  0  0  0  0  0  0  0  0  0  0
   13.8220   37.0445   35.5789 N   0  0  0  0  0  0  0  0  0  0  0  0
   16.1642   34.7600   33.1547 C   0  0  0  0  0  0  0  0  0  0  0  0
   15.6529   35.3503   35.4131 C   0  0  0  0  0  0  0  0  0  0  0  0
   16.3798   34.6314   34.5042 N   0  0  0  0  0  0  0  0  0  0  0  0
   15.9004   35.1930   36.8090 N   0  0  0  0  0  0  0  0  0  0  0  0
    9.0115   45.4320   33.6715 H   0  0  0  0  0  0  0  0  0  0  0  0
   11.8896   45.7677   32.9464 H   0  0  0  0  0  0  0  0  0  0  0  0
   10.7242   46.9698   33.1230 H   0  0  0  0  0  0  0  0  0  0  0  0
    9.3414   43.8336   31.4763 H   0  0  0  0  0  0  0  0  0  0  0  0
   10.7227   44.8824   31.1559 H   0  0  0  0  0  0  0  0  0  0  0  0
    7.0080   44.7114   31.5728 H   0  0  0  0  0  0  0  0  0  0  0  0
   10.3470   47.1855   30.4078 H   0  0  0  0  0  0  0  0  0  0  0  0
    5.4630   46.2928   30.4810 H   0  0  0  0  0  0  0  0  0  0  0  0
    8.7912   48.7711   29.3396 H   0  0  0  0  0  0  0  0  0  0  0  0
    4.8218   50.0944   29.1671 H   0  0  0  0  0  0  0  0  0  0  0  0
    3.6709   48.2171   30.2147 H   0  0  0  0  0  0  0  0  0  0  0  0
    4.7321   48.3227   31.6679 H   0  0  0  0  0  0  0  0  0  0  0  0
    3.6328   49.6872   31.2554 H   0  0  0  0  0  0  0  0  0  0  0  0
    6.8785   49.0242   32.2237 H   0  0  0  0  0  0  0  0  0  0  0  0
    7.4982   53.7394   30.7278 H   0  0  0  0  0  0  0  0  0  0  0  0
    9.1606   52.2022   34.9077 H   0  0  0  0  0  0  0  0  0  0  0  0
   10.4948   51.6533   33.7854 H   0  0  0  0  0  0  0  0  0  0  0  0
   11.3779   41.5526   31.4726 H   0  0  0  0  0  0  0  0  0  0  0  0
    9.8233   40.7191   31.7647 H   0  0  0  0  0  0  0  0  0  0  0  0
   11.7283   39.5312   30.3515 H   0  0  0  0  0  0  0  0  0  0  0  0
   10.1127   38.2734   32.6376 H   0  0  0  0  0  0  0  0  0  0  0  0
   13.6692   37.4566   31.2242 H   0  0  0  0  0  0  0  0  0  0  0  0
   10.0533   38.1118   29.7635 H   0  0  0  0  0  0  0  0  0  0  0  0
   11.2607   36.3148   32.5102 H   0  0  0  0  0  0  0  0  0  0  0  0
   12.1496   35.5023   30.6324 H   0  0  0  0  0  0  0  0  0  0  0  0
   12.3301   38.3524   34.7455 H   0  0  0  0  0  0  0  0  0  0  0  0
   16.7563   34.1781   32.4619 H   0  0  0  0  0  0  0  0  0  0  0  0
   15.3536   35.7357   37.5139 H   0  0  0  0  0  0  0  0  0  0  0  0
   16.6351   34.5298   37.1416 H   0  0  0  0  0  0  0  0  0  0  0  0
  1  2  2  0
  1  3  1  0
  3  4  1  0
  4  5  1  0
  6  1  1  0
  7  6  1  0
  6  8  1  0
  8  9  1  0
  9 10  2  0
 11  9  1  0
 10 12  1  0
 13 11  2  0
 12 14  2  0
 14 13  1  0
 14 15  1  0
 15 16  1  0
 16 17  1  0
 16 18  1  0
 18 19  2  0
 20 18  1  0
 19 21  1  0
 22 20  2  0
 20 23  1  0
 21 24  1  0
 21 25  2  0
 25 22  1  0
 23 26  1  0
 23 27  2  0
 24 28  1  0
 25 29  1  0
 28 29  1  0
  4 30  2  0
  4 31  1  0
 32 31  1  0
 32 33  1  0
 33 34  1  0
 33 35  1  0
 34 36  1  0
 35 37  1  0
 35 38  1  0
 38 36  1  0
 36 39  1  0
 38 40  1  0
 41 39  1  0
 42 39  1  0
 43 41  2  0
 41 44  1  0
 45 42  2  0
 46 43  1  0
 44 47  2  0
 44 45  1  0
 48 46  2  0
 48 47  1  0
 47 49  1  0
  6 50  1  1
  7 51  1  0
  7 52  1  0
  8 53  1  0
  8 54  1  0
 10 55  1  0
 11 56  1  0
 12 57  1  0
 13 58  1  0
 16 59  1  6
 17 60  1  0
 17 61  1  0
 17 62  1  0
 19 63  1  0
 22 64  1  0
 28 65  1  0
 28 66  1  0
 32 67  1  0
 32 68  1  0
 33 69  1  0
 35 70  1  0
 36 71  1  0
 37 72  1  0
 38 73  1  0
 40 74  1  0
 42 75  1  0
 46 76  1  0
 49 77  1  0
 49 78  1  0
M  CHG  3   5  -1  23   1  26  -1
M  END
>  <EmbedRMS>  (339) 
0.0817265865296

$$$$

     RDKit          3D

 78 83  0  0  0  0  0  0  0  0999 V2000
   10.2835   43.7662   33.8257 C   0  0  0  0  0  0  0  0  0  0  0  0
   11.4102   43.5930   34.3753 O   0  0  0  0  0  0  0  0  0  0  0  0
    9.3637   42.7255   33.7351 O   0  0  0  0  0  0  0  0  0  0  0  0
    9.8903   41.2268   34.2946 P   0  0  0  0  0  0  0  0  0  0  0  0
   10.3727   41.4561   35.8842 O   0  0  0  0  0  0  0  0  0  0  0  0
    9.9548   45.0695   33.2036 C   0  0  1  0  0  0  0  0  0  0  0  0
   11.0273   46.0323   33.4761 N   0  0  0  0  0  0  0  0  0  0  0  0
    9.7475   44.8482   31.6876 C   0  0  0  0  0  0  0  0  0  0  0  0
    8.7932   45.8408   31.0843 C   0  0  0  0  0  0  0  0  0  0  0  0
    7.4072   45.6013   31.0986 C   0  0  0  0  0  0  0  0  0  0  0  0
    9.2817   46.9870   30.4417 C   0  0  0  0  0  0  0  0  0  0  0  0
    6.5256   46.5011   30.4842 C   0  0  0  0  0  0  0  0  0  0  0  0
    8.3995   47.8864   29.8327 C   0  0  0  0  0  0  0  0  0  0  0  0
    7.0162   47.6585   29.8468 C   0  0  0  0  0  0  0  0  0  0  0  0
    6.1945   48.6145   29.2216 O   0  0  0  0  0  0  0  0  0  0  0  0
    4.7639   48.6458   29.1404 C   0  0  1  0  0  0  0  0  0  0  0  0
    4.2576   47.5796   28.1566 C   0  0  0  0  0  0  0  0  0  0  0  0
    4.1028   48.6649   30.5193 C   0  0  0  0  0  0  0  0  0  0  0  0
    3.2601   47.6004   30.9427 C   0  0  0  0  0  0  0  0  0  0  0  0
    4.2520   49.8066   31.3785 C   0  0  0  0  0  0  0  0  0  0  0  0
    2.6440   47.6884   32.1837 C   0  0  0  0  0  0  0  0  0  0  0  0
    3.5874   49.8442   32.6249 C   0  0  0  0  0  0  0  0  0  0  0  0
    5.0201   50.9525   30.9812 N   0  0  0  0  0  0  0  0  0  0  0  0
    1.8068   46.7732   32.7925 O   0  0  0  0  0  0  0  0  0  0  0  0
    2.8017   48.7615   32.9896 C   0  0  0  0  0  0  0  0  0  0  0  0
    6.3530   50.8201   30.6723 O   0  0  0  0  0  0  0  0  0  0  0  0
    4.5552   52.0979   31.1551 O   0  0  0  0  0  0  0  0  0  0  0  0
    1.4166   47.3082   34.0645 C   0  0  0  0  0  0  0  0  0  0  0  0
    2.0735   48.5801   34.1497 O   0  0  0  0  0  0  0  0  0  0  0  0
    8.8125   40.1848   34.2125 O   0  0  0  0  0  0  0  0  0  0  0  0
   11.2416   40.7949   33.3707 O   0  0  0  0  0  0  0  0  0  0  0  0
   10.9180   40.6923   31.9984 C   0  0  0  0  0  0  0  0  0  0  0  0
   11.5175   39.3838   31.4423 C   0  0  0  0  0  0  0  0  0  0  0  0
   12.7507   39.0888   32.0753 O   0  0  0  0  0  0  0  0  0  0  0  0
   10.6028   38.1917   31.6659 C   0  0  0  0  0  0  0  0  0  0  0  0
   12.9384   37.6819   32.0278 C   0  0  0  0  0  0  0  0  0  0  0  0
    9.6372   38.0807   30.6470 O   0  0  0  0  0  0  0  0  0  0  0  0
   11.5780   37.0215   31.6935 C   0  0  0  0  0  0  0  0  0  0  0  0
   13.4845   37.2120   33.3242 N   0  0  0  0  0  0  0  0  0  0  0  0
   11.6095   36.3202   30.4679 O   0  0  0  0  0  0  0  0  0  0  0  0
   14.4797   36.3317   33.5730 C   0  0  0  0  0  0  0  0  0  0  0  0
   13.1137   37.6279   34.5691 C   0  0  0  0  0  0  0  0  0  0  0  0
   15.2073   35.6155   32.6743 N   0  0  0  0  0  0  0  0  0  0  0  0
   14.6754   36.2304   34.9184 C   0  0  0  0  0  0  0  0  0  0  0  0
   13.8214   37.0452   35.5785 N   0  0  0  0  0  0  0  0  0  0  0  0
   16.1640   34.7603   33.1549 C   0  0  0  0  0  0  0  0  0  0  0  0
   15.6524   35.3506   35.4133 C   0  0  0  0  0  0  0  0  0  0  0  0
   16.3794   34.6317   34.5044 N   0  0  0  0  0  0  0  0  0  0  0  0
   15.8999   35.1933   36.8091 N   0  0  0  0  0  0  0  0  0  0  0  0
    9.0120   45.4315   33.6711 H   0  0  0  0  0  0  0  0  0  0  0  0
   11.8910   45.7661   32.9480 H   0  0  0  0  0  0  0  0  0  0  0  0
   10.7259   46.9688   33.1217 H   0  0  0  0  0  0  0  0  0  0  0  0
   10.7241   44.8823   31.1561 H   0  0  0  0  0  0  0  0  0  0  0  0
    9.3431   43.8329   31.4757 H   0  0  0  0  0  0  0  0  0  0  0  0
    7.0116   44.7152   31.5798 H   0  0  0  0  0  0  0  0  0  0  0  0
   10.3458   47.1861   30.4098 H   0  0  0  0  0  0  0  0  0  0  0  0
    5.4765   46.2731   30.5150 H   0  0  0  0  0  0  0  0  0  0  0  0
    8.7938   48.7694   29.3457 H   0  0  0  0  0  0  0  0  0  0  0  0
    4.4965   49.6136   28.6632 H   0  0  0  0  0  0  0  0  0  0  0  0
    4.5221   46.5538   28.4790 H   0  0  0  0  0  0  0  0  0  0  0  0
    4.7186   47.7494   27.1604 H   0  0  0  0  0  0  0  0  0  0  0  0
    3.1553   47.6560   28.0414 H   0  0  0  0  0  0  0  0  0  0  0  0
    3.0829   46.7225   30.3384 H   0  0  0  0  0  0  0  0  0  0  0  0
    3.6839   50.6945   33.2880 H   0  0  0  0  0  0  0  0  0  0  0  0
    0.3153   47.4422   34.1033 H   0  0  0  0  0  0  0  0  0  0  0  0
    1.7621   46.6428   34.8832 H   0  0  0  0  0  0  0  0  0  0  0  0
   11.3954   41.5478   31.4745 H   0  0  0  0  0  0  0  0  0  0  0  0
    9.8292   40.7411   31.7626 H   0  0  0  0  0  0  0  0  0  0  0  0
   11.6981   39.5116   30.3500 H   0  0  0  0  0  0  0  0  0  0  0  0
   10.1117   38.2605   32.6660 H   0  0  0  0  0  0  0  0  0  0  0  0
   13.6766   37.4558   31.2267 H   0  0  0  0  0  0  0  0  0  0  0  0
    8.8961   38.6953   30.8873 H   0  0  0  0  0  0  0  0  0  0  0  0
   11.2791   36.3071   32.4922 H   0  0  0  0  0  0  0  0  0  0  0  0
   11.8827   36.9599   29.7589 H   0  0  0  0  0  0  0  0  0  0  0  0
   12.3303   38.3541   34.7446 H   0  0  0  0  0  0  0  0  0  0  0  0
   16.7560   34.1784   32.4622 H   0  0  0  0  0  0  0  0  0  0  0  0
   16.6347   34.5302   37.1416 H   0  0  0  0  0  0  0  0  0  0  0  0
   15.3531   35.7360   37.5141 H   0  0  0  0  0  0  0  0  0  0  0  0
  1  2  2  0
  1  3  1  0
  3  4  1  0
  4  5  1  0
  6  1  1  0
  7  6  1  0
  6  8  1  0
  8  9  1  0
  9 10  2  0
 11  9  1  0
 10 12  1  0
 13 11  2  0
 12 14  2  0
 14 13  1  0
 14 15  1  0
 15 16  1  0
 16 17  1  0
 16 18  1  0
 18 19  2  0
 20 18  1  0
 19 21  1  0
 22 20  2  0
 20 23  1  0
 21 24  1  0
 21 25  2  0
 25 22  1  0
 23 26  1  0
 23 27  2  0
 24 28  1  0
 25 29  1  0
 28 29  1  0
  4 30  2  0
  4 31  1  0
 32 31  1  0
 32 33  1  0
 33 34  1  0
 33 35  1  0
 34 36  1  0
 35 37  1  0
 35 38  1  0
 38 36  1  0
 36 39  1  0
 38 40  1  0
 41 39  1  0
 42 39  1  0
 43 41  2  0
 41 44  1  0
 45 42  2  0
 46 43  1  0
 44 47  2  0
 44 45  1  0
 48 46  2  0
 48 47  1  0
 47 49  1  0
  6 50  1  1
  7 51  1  0
  7 52  1  0
  8 53  1  0
  8 54  1  0
 10 55  1  0
 11 56  1  0
 12 57  1  0
 13 58  1  0
 16 59  1  6
 17 60  1  0
 17 61  1  0
 17 62  1  0
 19 63  1  0
 22 64  1  0
 28 65  1  0
 28 66  1  0
 32 67  1  0
 32 68  1  0
 33 69  1  0
 35 70  1  0
 36 71  1  0
 37 72  1  0
 38 73  1  0
 40 74  1  0
 42 75  1  0
 46 76  1  0
 49 77  1  0
 49 78  1  0
M  CHG  3   5  -1  23   1  26  -1
M  END
>  <EmbedRMS>  (340) 
0.0819556855538

$$$$

     RDKit          3D

 78 83  0  0  0  0  0  0  0  0999 V2000
   10.2804   43.7649   33.8230 C   0  0  0  0  0  0  0  0  0  0  0  0
   11.4105   43.5900   34.3653 O   0  0  0  0  0  0  0  0  0  0  0  0
    9.3611   42.7240   33.7340 O   0  0  0  0  0  0  0  0  0  0  0  0
    9.8895   41.2265   34.2948 P   0  0  0  0  0  0  0  0  0  0  0  0
   10.3756   41.4567   35.8835 O   0  0  0  0  0  0  0  0  0  0  0  0
    9.9471   45.0720   33.2082 C   0  0  1  0  0  0  0  0  0  0  0  0
   11.0253   46.0293   33.4720 N   0  0  0  0  0  0  0  0  0  0  0  0
    9.7563   44.8533   31.6912 C   0  0  0  0  0  0  0  0  0  0  0  0
    8.7970   45.8396   31.0794 C   0  0  0  0  0  0  0  0  0  0  0  0
    7.4096   45.5992   31.0982 C   0  0  0  0  0  0  0  0  0  0  0  0
    9.2823   46.9898   30.4371 C   0  0  0  0  0  0  0  0  0  0  0  0
    6.5266   46.5004   30.4875 C   0  0  0  0  0  0  0  0  0  0  0  0
    8.3971   47.8941   29.8369 C   0  0  0  0  0  0  0  0  0  0  0  0
    7.0175   47.6529   29.8519 C   0  0  0  0  0  0  0  0  0  0  0  0
    6.1533   48.5816   29.2570 O   0  0  0  0  0  0  0  0  0  0  0  0
    5.4188   48.3299   28.0536 C   0  0  1  0  0  0  0  0  0  0  0  0
    6.3916   48.0243   26.9015 C   0  0  0  0  0  0  0  0  0  0  0  0
    4.3215   47.2904   28.2874 C   0  0  0  0  0  0  0  0  0  0  0  0
    4.3229   46.0541   27.5810 C   0  0  0  0  0  0  0  0  0  0  0  0
    3.3018   47.5170   29.2797 C   0  0  0  0  0  0  0  0  0  0  0  0
    3.3544   45.1075   27.8875 C   0  0  0  0  0  0  0  0  0  0  0  0
    2.3490   46.5068   29.5520 C   0  0  0  0  0  0  0  0  0  0  0  0
    3.2467   48.7294   30.0536 N   0  0  0  0  0  0  0  0  0  0  0  0
    3.1814   43.8507   27.3374 O   0  0  0  0  0  0  0  0  0  0  0  0
    2.4109   45.3223   28.8314 C   0  0  0  0  0  0  0  0  0  0  0  0
    2.8379   48.6817   31.3677 O   0  0  0  0  0  0  0  0  0  0  0  0
    3.3654   49.8436   29.5041 O   0  0  0  0  0  0  0  0  0  0  0  0
    2.0548   43.2380   27.9803 C   0  0  0  0  0  0  0  0  0  0  0  0
    1.5904   44.2134   28.9257 O   0  0  0  0  0  0  0  0  0  0  0  0
    8.8115   40.1845   34.2146 O   0  0  0  0  0  0  0  0  0  0  0  0
   11.2401   40.7958   33.3694 O   0  0  0  0  0  0  0  0  0  0  0  0
   10.9147   40.6916   31.9975 C   0  0  0  0  0  0  0  0  0  0  0  0
   11.5270   39.3906   31.4391 C   0  0  0  0  0  0  0  0  0  0  0  0
   12.7521   39.0917   32.0840 O   0  0  0  0  0  0  0  0  0  0  0  0
   10.6117   38.1924   31.6467 C   0  0  0  0  0  0  0  0  0  0  0  0
   12.9418   37.6844   32.0304 C   0  0  0  0  0  0  0  0  0  0  0  0
    9.6062   38.0846   30.6621 O   0  0  0  0  0  0  0  0  0  0  0  0
   11.5831   37.0195   31.6879 C   0  0  0  0  0  0  0  0  0  0  0  0
   13.4841   37.2118   33.3265 N   0  0  0  0  0  0  0  0  0  0  0  0
   11.6192   36.3084   30.4683 O   0  0  0  0  0  0  0  0  0  0  0  0
   14.4797   36.3322   33.5742 C   0  0  0  0  0  0  0  0  0  0  0  0
   13.1127   37.6266   34.5717 C   0  0  0  0  0  0  0  0  0  0  0  0
   15.2063   35.6156   32.6745 N   0  0  0  0  0  0  0  0  0  0  0  0
   14.6751   36.2300   34.9195 C   0  0  0  0  0  0  0  0  0  0  0  0
   13.8205   37.0434   35.5804 N   0  0  0  0  0  0  0  0  0  0  0  0
   16.1632   34.7606   33.1545 C   0  0  0  0  0  0  0  0  0  0  0  0
   15.6529   35.3511   35.4134 C   0  0  0  0  0  0  0  0  0  0  0  0
   16.3793   34.6324   34.5040 N   0  0  0  0  0  0  0  0  0  0  0  0
   15.9000   35.1924   36.8092 N   0  0  0  0  0  0  0  0  0  0  0  0
    9.0003   45.4354   33.6673 H   0  0  0  0  0  0  0  0  0  0  0  0
   10.7751   46.9365   33.0152 H   0  0  0  0  0  0  0  0  0  0  0  0
   11.0449   46.2266   34.5003 H   0  0  0  0  0  0  0  0  0  0  0  0
   10.7445   44.9056   31.1807 H   0  0  0  0  0  0  0  0  0  0  0  0
    9.3651   43.8344   31.4693 H   0  0  0  0  0  0  0  0  0  0  0  0
    7.0140   44.7185   31.5884 H   0  0  0  0  0  0  0  0  0  0  0  0
   10.3459   47.1911   30.4034 H   0  0  0  0  0  0  0  0  0  0  0  0
    5.4662   46.3059   30.5371 H   0  0  0  0  0  0  0  0  0  0  0  0
    8.7827   48.7808   29.3496 H   0  0  0  0  0  0  0  0  0  0  0  0
    4.9214   49.2760   27.7563 H   0  0  0  0  0  0  0  0  0  0  0  0
    7.1078   48.8675   26.7880 H   0  0  0  0  0  0  0  0  0  0  0  0
    5.8370   47.9139   25.9452 H   0  0  0  0  0  0  0  0  0  0  0  0
    6.9759   47.1013   27.1034 H   0  0  0  0  0  0  0  0  0  0  0  0
    5.0577   45.8076   26.8270 H   0  0  0  0  0  0  0  0  0  0  0  0
    1.5780   46.6439   30.3006 H   0  0  0  0  0  0  0  0  0  0  0  0
    2.3692   42.3119   28.5073 H   0  0  0  0  0  0  0  0  0  0  0  0
    1.2626   43.0165   27.2356 H   0  0  0  0  0  0  0  0  0  0  0  0
   11.3778   41.5544   31.4724 H   0  0  0  0  0  0  0  0  0  0  0  0
    9.8244   40.7199   31.7648 H   0  0  0  0  0  0  0  0  0  0  0  0
   11.7316   39.5339   30.3541 H   0  0  0  0  0  0  0  0  0  0  0  0
   10.1219   38.2701   32.6437 H   0  0  0  0  0  0  0  0  0  0  0  0
   13.6858   37.4639   31.2330 H   0  0  0  0  0  0  0  0  0  0  0  0
   10.0227   38.1787   29.7668 H   0  0  0  0  0  0  0  0  0  0  0  0
   11.2767   36.3112   32.4890 H   0  0  0  0  0  0  0  0  0  0  0  0
   11.9879   36.9118   29.7709 H   0  0  0  0  0  0  0  0  0  0  0  0
   12.3277   38.3510   34.7483 H   0  0  0  0  0  0  0  0  0  0  0  0
   16.7562   34.1788   32.4617 H   0  0  0  0  0  0  0  0  0  0  0  0
   16.6353   34.5302   37.1418 H   0  0  0  0  0  0  0  0  0  0  0  0
   15.3543   35.7347   37.5149 H   0  0  0  0  0  0  0  0  0  0  0  0
  1  2  2  0
  1  3  1  0
  3  4  1  0
  4  5  1  0
  6  1  1  0
  7  6  1  0
  6  8  1  0
  8  9  1  0
  9 10  2  0
 11  9  1  0
 10 12  1  0
 13 11  2  0
 12 14  2  0
 14 13  1  0
 14 15  1  0
 15 16  1  0
 16 17  1  0
 16 18  1  0
 18 19  2  0
 20 18  1  0
 19 21  1  0
 22 20  2  0
 20 23  1  0
 21 24  1  0
 21 25  2  0
 25 22  1  0
 23 26  1  0
 23 27  2  0
 24 28  1  0
 25 29  1  0
 28 29  1  0
  4 30  2  0
  4 31  1  0
 32 31  1  0
 32 33  1  0
 33 34  1  0
 33 35  1  0
 34 36  1  0
 35 37  1  0
 35 38  1  0
 38 36  1  0
 36 39  1  0
 38 40  1  0
 41 39  1  0
 42 39  1  0
 43 41  2  0
 41 44  1  0
 45 42  2  0
 46 43  1  0
 44 47  2  0
 44 45  1  0
 48 46  2  0
 48 47  1  0
 47 49  1  0
  6 50  1  1
  7 51  1  0
  7 52  1  0
  8 53  1  0
  8 54  1  0
 10 55  1  0
 11 56  1  0
 12 57  1  0
 13 58  1  0
 16 59  1  6
 17 60  1  0
 17 61  1  0
 17 62  1  0
 19 63  1  0
 22 64  1  0
 28 65  1  0
 28 66  1  0
 32 67  1  0
 32 68  1  0
 33 69  1  0
 35 70  1  0
 36 71  1  0
 37 72  1  0
 38 73  1  0
 40 74  1  0
 42 75  1  0
 46 76  1  0
 49 77  1  0
 49 78  1  0
M  CHG  3   5  -1  23   1  26  -1
M  END
>  <EmbedRMS>  (341) 
0.0808437830267

$$$$

     RDKit          3D

 78 83  0  0  0  0  0  0  0  0999 V2000
   10.2834   43.7662   33.8256 C   0  0  0  0  0  0  0  0  0  0  0  0
   11.4101   43.5931   34.3752 O   0  0  0  0  0  0  0  0  0  0  0  0
    9.3637   42.7255   33.7351 O   0  0  0  0  0  0  0  0  0  0  0  0
    9.8903   41.2268   34.2946 P   0  0  0  0  0  0  0  0  0  0  0  0
   10.3728   41.4562   35.8842 O   0  0  0  0  0  0  0  0  0  0  0  0
    9.9546   45.0695   33.2032 C   0  0  1  0  0  0  0  0  0  0  0  0
   11.0271   46.0323   33.4758 N   0  0  0  0  0  0  0  0  0  0  0  0
    9.7474   44.8479   31.6872 C   0  0  0  0  0  0  0  0  0  0  0  0
    8.7930   45.8399   31.0830 C   0  0  0  0  0  0  0  0  0  0  0  0
    7.4064   45.6015   31.1001 C   0  0  0  0  0  0  0  0  0  0  0  0
    9.2816   46.9878   30.4426 C   0  0  0  0  0  0  0  0  0  0  0  0
    6.5251   46.5019   30.4867 C   0  0  0  0  0  0  0  0  0  0  0  0
    8.3999   47.8889   29.8350 C   0  0  0  0  0  0  0  0  0  0  0  0
    7.0180   47.6555   29.8423 C   0  0  0  0  0  0  0  0  0  0  0  0
    6.1865   48.6041   29.2147 O   0  0  0  0  0  0  0  0  0  0  0  0
    4.8046   48.4528   28.8485 C   0  0  1  0  0  0  0  0  0  0  0  0
    4.6091   47.1810   27.9977 C   0  0  0  0  0  0  0  0  0  0  0  0
    3.8487   48.5438   30.0414 C   0  0  0  0  0  0  0  0  0  0  0  0
    4.3575   48.7743   31.3480 C   0  0  0  0  0  0  0  0  0  0  0  0
    2.4264   48.4164   29.8728 C   0  0  0  0  0  0  0  0  0  0  0  0
    3.4753   48.7738   32.4199 C   0  0  0  0  0  0  0  0  0  0  0  0
    1.5799   48.4067   31.0048 C   0  0  0  0  0  0  0  0  0  0  0  0
    1.8257   48.3407   28.5718 N   0  0  0  0  0  0  0  0  0  0  0  0
    3.7554   48.9503   33.7614 O   0  0  0  0  0  0  0  0  0  0  0  0
    2.1471   48.5873   32.2570 C   0  0  0  0  0  0  0  0  0  0  0  0
    2.1323   49.2834   27.6182 O   0  0  0  0  0  0  0  0  0  0  0  0
    0.8568   47.5783   28.3762 O   0  0  0  0  0  0  0  0  0  0  0  0
    2.5208   48.8654   34.4860 C   0  0  0  0  0  0  0  0  0  0  0  0
    1.5188   48.6342   33.4866 O   0  0  0  0  0  0  0  0  0  0  0  0
    8.8125   40.1848   34.2126 O   0  0  0  0  0  0  0  0  0  0  0  0
   11.2416   40.7948   33.3707 O   0  0  0  0  0  0  0  0  0  0  0  0
   10.9179   40.6922   31.9984 C   0  0  0  0  0  0  0  0  0  0  0  0
   11.5175   39.3838   31.4423 C   0  0  0  0  0  0  0  0  0  0  0  0
   12.7508   39.0887   32.0752 O   0  0  0  0  0  0  0  0  0  0  0  0
   10.6027   38.1916   31.6659 C   0  0  0  0  0  0  0  0  0  0  0  0
   12.9384   37.6819   32.0278 C   0  0  0  0  0  0  0  0  0  0  0  0
    9.6371   38.0806   30.6470 O   0  0  0  0  0  0  0  0  0  0  0  0
   11.5780   37.0215   31.6935 C   0  0  0  0  0  0  0  0  0  0  0  0
   13.4844   37.2119   33.3242 N   0  0  0  0  0  0  0  0  0  0  0  0
   11.6095   36.3202   30.4679 O   0  0  0  0  0  0  0  0  0  0  0  0
   14.4797   36.3318   33.5730 C   0  0  0  0  0  0  0  0  0  0  0  0
   13.1136   37.6278   34.5691 C   0  0  0  0  0  0  0  0  0  0  0  0
   15.2073   35.6155   32.6742 N   0  0  0  0  0  0  0  0  0  0  0  0
   14.6754   36.2305   34.9184 C   0  0  0  0  0  0  0  0  0  0  0  0
   13.8213   37.0452   35.5785 N   0  0  0  0  0  0  0  0  0  0  0  0
   16.1640   34.7604   33.1549 C   0  0  0  0  0  0  0  0  0  0  0  0
   15.6524   35.3507   35.4132 C   0  0  0  0  0  0  0  0  0  0  0  0
   16.3794   34.6318   34.5044 N   0  0  0  0  0  0  0  0  0  0  0  0
   15.8999   35.1934   36.8091 N   0  0  0  0  0  0  0  0  0  0  0  0
    9.0117   45.4317   33.6706 H   0  0  0  0  0  0  0  0  0  0  0  0
   10.7257   46.9688   33.1213 H   0  0  0  0  0  0  0  0  0  0  0  0
   11.8906   45.7661   32.9475 H   0  0  0  0  0  0  0  0  0  0  0  0
    9.3430   43.8326   31.4756 H   0  0  0  0  0  0  0  0  0  0  0  0
   10.7240   44.8819   31.1557 H   0  0  0  0  0  0  0  0  0  0  0  0
    7.0101   44.7210   31.5909 H   0  0  0  0  0  0  0  0  0  0  0  0
   10.3458   47.1871   30.4119 H   0  0  0  0  0  0  0  0  0  0  0  0
    5.4671   46.3025   30.5514 H   0  0  0  0  0  0  0  0  0  0  0  0
    8.7937   48.7721   29.3482 H   0  0  0  0  0  0  0  0  0  0  0  0
    4.5778   49.3192   28.1933 H   0  0  0  0  0  0  0  0  0  0  0  0
    3.8173   47.3319   27.2367 H   0  0  0  0  0  0  0  0  0  0  0  0
    5.5426   46.9391   27.4465 H   0  0  0  0  0  0  0  0  0  0  0  0
    4.3229   46.3080   28.6184 H   0  0  0  0  0  0  0  0  0  0  0  0
    5.4059   48.9467   31.5416 H   0  0  0  0  0  0  0  0  0  0  0  0
    0.5072   48.3001   30.9054 H   0  0  0  0  0  0  0  0  0  0  0  0
    2.3203   49.8199   35.0162 H   0  0  0  0  0  0  0  0  0  0  0  0
    2.5525   48.0163   35.2006 H   0  0  0  0  0  0  0  0  0  0  0  0
   11.3951   41.5478   31.4744 H   0  0  0  0  0  0  0  0  0  0  0  0
    9.8291   40.7409   31.7627 H   0  0  0  0  0  0  0  0  0  0  0  0
   11.6981   39.5115   30.3500 H   0  0  0  0  0  0  0  0  0  0  0  0
   10.1117   38.2604   32.6661 H   0  0  0  0  0  0  0  0  0  0  0  0
   13.6767   37.4556   31.2267 H   0  0  0  0  0  0  0  0  0  0  0  0
    8.8961   38.6952   30.8872 H   0  0  0  0  0  0  0  0  0  0  0  0
   11.2791   36.3072   32.4922 H   0  0  0  0  0  0  0  0  0  0  0  0
   11.8827   36.9598   29.7588 H   0  0  0  0  0  0  0  0  0  0  0  0
   12.3300   38.3539   34.7446 H   0  0  0  0  0  0  0  0  0  0  0  0
   16.7561   34.1785   32.4622 H   0  0  0  0  0  0  0  0  0  0  0  0
   15.3531   35.7360   37.5140 H   0  0  0  0  0  0  0  0  0  0  0  0
   16.6347   34.5303   37.1416 H   0  0  0  0  0  0  0  0  0  0  0  0
  1  2  2  0
  1  3  1  0
  3  4  1  0
  4  5  1  0
  6  1  1  0
  7  6  1  0
  6  8  1  0
  8  9  1  0
  9 10  2  0
 11  9  1  0
 10 12  1  0
 13 11  2  0
 12 14  2  0
 14 13  1  0
 14 15  1  0
 15 16  1  0
 16 17  1  0
 16 18  1  0
 18 19  2  0
 20 18  1  0
 19 21  1  0
 22 20  2  0
 20 23  1  0
 21 24  1  0
 21 25  2  0
 25 22  1  0
 23 26  1  0
 23 27  2  0
 24 28  1  0
 25 29  1  0
 28 29  1  0
  4 30  2  0
  4 31  1  0
 32 31  1  0
 32 33  1  0
 33 34  1  0
 33 35  1  0
 34 36  1  0
 35 37  1  0
 35 38  1  0
 38 36  1  0
 36 39  1  0
 38 40  1  0
 41 39  1  0
 42 39  1  0
 43 41  2  0
 41 44  1  0
 45 42  2  0
 46 43  1  0
 44 47  2  0
 44 45  1  0
 48 46  2  0
 48 47  1  0
 47 49  1  0
  6 50  1  1
  7 51  1  0
  7 52  1  0
  8 53  1  0
  8 54  1  0
 10 55  1  0
 11 56  1  0
 12 57  1  0
 13 58  1  0
 16 59  1  6
 17 60  1  0
 17 61  1  0
 17 62  1  0
 19 63  1  0
 22 64  1  0
 28 65  1  0
 28 66  1  0
 32 67  1  0
 32 68  1  0
 33 69  1  0
 35 70  1  0
 36 71  1  0
 37 72  1  0
 38 73  1  0
 40 74  1  0
 42 75  1  0
 46 76  1  0
 49 77  1  0
 49 78  1  0
M  CHG  3   5  -1  23   1  26  -1
M  END
>  <EmbedRMS>  (342) 
0.0819892127055

$$$$

     RDKit          3D

 78 83  0  0  0  0  0  0  0  0999 V2000
   10.2839   43.7625   33.8276 C   0  0  0  0  0  0  0  0  0  0  0  0
   11.4104   43.5863   34.3767 O   0  0  0  0  0  0  0  0  0  0  0  0
    9.3634   42.7233   33.7352 O   0  0  0  0  0  0  0  0  0  0  0  0
    9.8899   41.2246   34.2940 P   0  0  0  0  0  0  0  0  0  0  0  0
   10.3724   41.4544   35.8837 O   0  0  0  0  0  0  0  0  0  0  0  0
    9.9548   45.0698   33.2064 C   0  0  1  0  0  0  0  0  0  0  0  0
   11.0198   46.0480   33.4568 N   0  0  0  0  0  0  0  0  0  0  0  0
    9.7501   44.8506   31.6923 C   0  0  0  0  0  0  0  0  0  0  0  0
    8.7942   45.8415   31.0867 C   0  0  0  0  0  0  0  0  0  0  0  0
    7.4076   45.6011   31.1003 C   0  0  0  0  0  0  0  0  0  0  0  0
    9.2830   46.9890   30.4451 C   0  0  0  0  0  0  0  0  0  0  0  0
    6.5283   46.5023   30.4850 C   0  0  0  0  0  0  0  0  0  0  0  0
    8.4037   47.8906   29.8331 C   0  0  0  0  0  0  0  0  0  0  0  0
    7.0142   47.6513   29.8458 C   0  0  0  0  0  0  0  0  0  0  0  0
    6.0824   48.5184   29.2518 O   0  0  0  0  0  0  0  0  0  0  0  0
    6.3863   49.6674   28.4565 C   0  0  1  0  0  0  0  0  0  0  0  0
    6.9124   49.2630   27.0740 C   0  0  0  0  0  0  0  0  0  0  0  0
    5.1645   50.5593   28.3120 C   0  0  0  0  0  0  0  0  0  0  0  0
    5.3875   51.9548   28.2109 C   0  0  0  0  0  0  0  0  0  0  0  0
    3.8120   50.0662   28.3036 C   0  0  0  0  0  0  0  0  0  0  0  0
    4.2908   52.8027   28.1381 C   0  0  0  0  0  0  0  0  0  0  0  0
    2.7367   50.9815   28.2447 C   0  0  0  0  0  0  0  0  0  0  0  0
    3.5048   48.6644   28.3575 N   0  0  0  0  0  0  0  0  0  0  0  0
    4.2755   54.1810   28.0432 O   0  0  0  0  0  0  0  0  0  0  0  0
    3.0217   52.3371   28.1588 C   0  0  0  0  0  0  0  0  0  0  0  0
    2.4265   48.2318   29.0945 O   0  0  0  0  0  0  0  0  0  0  0  0
    4.0480   47.8690   27.5649 O   0  0  0  0  0  0  0  0  0  0  0  0
    2.9065   54.6063   28.0015 C   0  0  0  0  0  0  0  0  0  0  0  0
    2.1392   53.3971   28.0778 O   0  0  0  0  0  0  0  0  0  0  0  0
    8.8119   40.1831   34.2121 O   0  0  0  0  0  0  0  0  0  0  0  0
   11.2416   40.7932   33.3699 O   0  0  0  0  0  0  0  0  0  0  0  0
   10.9187   40.6909   31.9972 C   0  0  0  0  0  0  0  0  0  0  0  0
   11.5172   39.3814   31.4407 C   0  0  0  0  0  0  0  0  0  0  0  0
   12.7493   39.0855   32.0727 O   0  0  0  0  0  0  0  0  0  0  0  0
   10.6023   38.1907   31.6665 C   0  0  0  0  0  0  0  0  0  0  0  0
   12.9319   37.6781   32.0281 C   0  0  0  0  0  0  0  0  0  0  0  0
    9.6392   38.0797   30.6452 O   0  0  0  0  0  0  0  0  0  0  0  0
   11.5715   37.0165   31.7056 C   0  0  0  0  0  0  0  0  0  0  0  0
   13.4847   37.2121   33.3235 N   0  0  0  0  0  0  0  0  0  0  0  0
   11.6187   36.3383   30.4694 O   0  0  0  0  0  0  0  0  0  0  0  0
   14.4801   36.3321   33.5724 C   0  0  0  0  0  0  0  0  0  0  0  0
   13.1137   37.6275   34.5687 C   0  0  0  0  0  0  0  0  0  0  0  0
   15.2073   35.6153   32.6738 N   0  0  0  0  0  0  0  0  0  0  0  0
   14.6759   36.2308   34.9179 C   0  0  0  0  0  0  0  0  0  0  0  0
   13.8216   37.0452   35.5781 N   0  0  0  0  0  0  0  0  0  0  0  0
   16.1640   34.7602   33.1546 C   0  0  0  0  0  0  0  0  0  0  0  0
   15.6526   35.3508   35.4129 C   0  0  0  0  0  0  0  0  0  0  0  0
   16.3794   34.6317   34.5041 N   0  0  0  0  0  0  0  0  0  0  0  0
   15.8999   35.1935   36.8088 N   0  0  0  0  0  0  0  0  0  0  0  0
    9.0098   45.4347   33.6671 H   0  0  0  0  0  0  0  0  0  0  0  0
   11.1134   46.1992   34.4881 H   0  0  0  0  0  0  0  0  0  0  0  0
   11.9348   45.6932   33.0924 H   0  0  0  0  0  0  0  0  0  0  0  0
    9.3509   43.8341   31.4762 H   0  0  0  0  0  0  0  0  0  0  0  0
   10.7304   44.8920   31.1675 H   0  0  0  0  0  0  0  0  0  0  0  0
    7.0109   44.7163   31.5827 H   0  0  0  0  0  0  0  0  0  0  0  0
   10.3473   47.1884   30.4179 H   0  0  0  0  0  0  0  0  0  0  0  0
    5.4638   46.3054   30.5031 H   0  0  0  0  0  0  0  0  0  0  0  0
    8.8204   48.7659   29.3569 H   0  0  0  0  0  0  0  0  0  0  0  0
    7.1746   50.2536   28.9776 H   0  0  0  0  0  0  0  0  0  0  0  0
    7.7938   48.5970   27.1687 H   0  0  0  0  0  0  0  0  0  0  0  0
    7.2233   50.1675   26.5090 H   0  0  0  0  0  0  0  0  0  0  0  0
    6.1361   48.7323   26.4876 H   0  0  0  0  0  0  0  0  0  0  0  0
    6.3883   52.3684   28.2013 H   0  0  0  0  0  0  0  0  0  0  0  0
    1.7086   50.6428   28.2435 H   0  0  0  0  0  0  0  0  0  0  0  0
    2.6804   55.2590   28.8706 H   0  0  0  0  0  0  0  0  0  0  0  0
    2.6970   55.1335   27.0473 H   0  0  0  0  0  0  0  0  0  0  0  0
    9.8300   40.7410   31.7611 H   0  0  0  0  0  0  0  0  0  0  0  0
   11.3972   41.5459   31.4735 H   0  0  0  0  0  0  0  0  0  0  0  0
   11.6974   39.5067   30.3480 H   0  0  0  0  0  0  0  0  0  0  0  0
   10.1077   38.2647   32.6645 H   0  0  0  0  0  0  0  0  0  0  0  0
   13.6621   37.4467   31.2208 H   0  0  0  0  0  0  0  0  0  0  0  0
    8.8974   38.6943   30.8831 H   0  0  0  0  0  0  0  0  0  0  0  0
   11.2806   36.3073   32.5170 H   0  0  0  0  0  0  0  0  0  0  0  0
   10.8493   35.7110   30.4585 H   0  0  0  0  0  0  0  0  0  0  0  0
   12.3290   38.3524   34.7444 H   0  0  0  0  0  0  0  0  0  0  0  0
   16.7559   34.1780   32.4619 H   0  0  0  0  0  0  0  0  0  0  0  0
   16.6344   34.5301   37.1414 H   0  0  0  0  0  0  0  0  0  0  0  0
   15.3531   35.7362   37.5137 H   0  0  0  0  0  0  0  0  0  0  0  0
  1  2  2  0
  1  3  1  0
  3  4  1  0
  4  5  1  0
  6  1  1  0
  7  6  1  0
  6  8  1  0
  8  9  1  0
  9 10  2  0
 11  9  1  0
 10 12  1  0
 13 11  2  0
 12 14  2  0
 14 13  1  0
 14 15  1  0
 15 16  1  0
 16 17  1  0
 16 18  1  0
 18 19  2  0
 20 18  1  0
 19 21  1  0
 22 20  2  0
 20 23  1  0
 21 24  1  0
 21 25  2  0
 25 22  1  0
 23 26  1  0
 23 27  2  0
 24 28  1  0
 25 29  1  0
 28 29  1  0
  4 30  2  0
  4 31  1  0
 32 31  1  0
 32 33  1  0
 33 34  1  0
 33 35  1  0
 34 36  1  0
 35 37  1  0
 35 38  1  0
 38 36  1  0
 36 39  1  0
 38 40  1  0
 41 39  1  0
 42 39  1  0
 43 41  2  0
 41 44  1  0
 45 42  2  0
 46 43  1  0
 44 47  2  0
 44 45  1  0
 48 46  2  0
 48 47  1  0
 47 49  1  0
  6 50  1  1
  7 51  1  0
  7 52  1  0
  8 53  1  0
  8 54  1  0
 10 55  1  0
 11 56  1  0
 12 57  1  0
 13 58  1  0
 16 59  1  1
 17 60  1  0
 17 61  1  0
 17 62  1  0
 19 63  1  0
 22 64  1  0
 28 65  1  0
 28 66  1  0
 32 67  1  0
 32 68  1  0
 33 69  1  0
 35 70  1  0
 36 71  1  0
 37 72  1  0
 38 73  1  0
 40 74  1  0
 42 75  1  0
 46 76  1  0
 49 77  1  0
 49 78  1  0
M  CHG  3   5  -1  23   1  26  -1
M  END
>  <EmbedRMS>  (343) 
0.083834476876

$$$$

     RDKit          3D

 78 83  0  0  0  0  0  0  0  0999 V2000
   10.2835   43.7661   33.8257 C   0  0  0  0  0  0  0  0  0  0  0  0
   11.4102   43.5930   34.3753 O   0  0  0  0  0  0  0  0  0  0  0  0
    9.3638   42.7255   33.7351 O   0  0  0  0  0  0  0  0  0  0  0  0
    9.8904   41.2267   34.2946 P   0  0  0  0  0  0  0  0  0  0  0  0
   10.3729   41.4561   35.8842 O   0  0  0  0  0  0  0  0  0  0  0  0
    9.9546   45.0694   33.2035 C   0  0  1  0  0  0  0  0  0  0  0  0
   11.0273   46.0321   33.4756 N   0  0  0  0  0  0  0  0  0  0  0  0
    9.7467   44.8478   31.6876 C   0  0  0  0  0  0  0  0  0  0  0  0
    8.7924   45.8404   31.0841 C   0  0  0  0  0  0  0  0  0  0  0  0
    7.4058   45.6016   31.0993 C   0  0  0  0  0  0  0  0  0  0  0  0
    9.2821   46.9876   30.4426 C   0  0  0  0  0  0  0  0  0  0  0  0
    6.5271   46.5036   30.4847 C   0  0  0  0  0  0  0  0  0  0  0  0
    8.4033   47.8906   29.8324 C   0  0  0  0  0  0  0  0  0  0  0  0
    7.0135   47.6526   29.8457 C   0  0  0  0  0  0  0  0  0  0  0  0
    6.0822   48.5213   29.2523 O   0  0  0  0  0  0  0  0  0  0  0  0
    6.3902   49.6749   28.4633 C   0  0  1  0  0  0  0  0  0  0  0  0
    6.8876   49.2491   27.0772 C   0  0  0  0  0  0  0  0  0  0  0  0
    5.1422   50.5253   28.3205 C   0  0  0  0  0  0  0  0  0  0  0  0
    3.9159   49.8823   28.0189 C   0  0  0  0  0  0  0  0  0  0  0  0
    5.1574   51.9462   28.5201 C   0  0  0  0  0  0  0  0  0  0  0  0
    2.7597   50.6492   27.9630 C   0  0  0  0  0  0  0  0  0  0  0  0
    3.9448   52.6719   28.4669 C   0  0  0  0  0  0  0  0  0  0  0  0
    6.3815   52.6628   28.7462 N   0  0  0  0  0  0  0  0  0  0  0  0
    1.4676   50.2373   27.6995 O   0  0  0  0  0  0  0  0  0  0  0  0
    2.7727   51.9839   28.1829 C   0  0  0  0  0  0  0  0  0  0  0  0
    7.4657   52.4518   27.9261 O   0  0  0  0  0  0  0  0  0  0  0  0
    6.3993   53.6350   29.5291 O   0  0  0  0  0  0  0  0  0  0  0  0
    0.6156   51.3895   27.7571 C   0  0  0  0  0  0  0  0  0  0  0  0
    1.4896   52.4832   28.0682 O   0  0  0  0  0  0  0  0  0  0  0  0
    8.8125   40.1848   34.2126 O   0  0  0  0  0  0  0  0  0  0  0  0
   11.2416   40.7948   33.3707 O   0  0  0  0  0  0  0  0  0  0  0  0
   10.9179   40.6922   31.9984 C   0  0  0  0  0  0  0  0  0  0  0  0
   11.5175   39.3838   31.4423 C   0  0  0  0  0  0  0  0  0  0  0  0
   12.7508   39.0887   32.0752 O   0  0  0  0  0  0  0  0  0  0  0  0
   10.6028   38.1916   31.6659 C   0  0  0  0  0  0  0  0  0  0  0  0
   12.9384   37.6818   32.0278 C   0  0  0  0  0  0  0  0  0  0  0  0
    9.6371   38.0806   30.6470 O   0  0  0  0  0  0  0  0  0  0  0  0
   11.5780   37.0215   31.6935 C   0  0  0  0  0  0  0  0  0  0  0  0
   13.4844   37.2119   33.3242 N   0  0  0  0  0  0  0  0  0  0  0  0
   11.6095   36.3201   30.4679 O   0  0  0  0  0  0  0  0  0  0  0  0
   14.4797   36.3318   33.5730 C   0  0  0  0  0  0  0  0  0  0  0  0
   13.1135   37.6278   34.5691 C   0  0  0  0  0  0  0  0  0  0  0  0
   15.2073   35.6155   32.6742 N   0  0  0  0  0  0  0  0  0  0  0  0
   14.6754   36.2305   34.9184 C   0  0  0  0  0  0  0  0  0  0  0  0
   13.8213   37.0452   35.5785 N   0  0  0  0  0  0  0  0  0  0  0  0
   16.1640   34.7604   33.1549 C   0  0  0  0  0  0  0  0  0  0  0  0
   15.6524   35.3507   35.4132 C   0  0  0  0  0  0  0  0  0  0  0  0
   16.3794   34.6318   34.5044 N   0  0  0  0  0  0  0  0  0  0  0  0
   15.8999   35.1934   36.8091 N   0  0  0  0  0  0  0  0  0  0  0  0
    9.0120   45.4317   33.6713 H   0  0  0  0  0  0  0  0  0  0  0  0
   11.8906   45.7658   32.9469 H   0  0  0  0  0  0  0  0  0  0  0  0
   10.7259   46.9687   33.1213 H   0  0  0  0  0  0  0  0  0  0  0  0
    9.3416   43.8327   31.4763 H   0  0  0  0  0  0  0  0  0  0  0  0
   10.7230   44.8812   31.1556 H   0  0  0  0  0  0  0  0  0  0  0  0
    7.0084   44.7172   31.5819 H   0  0  0  0  0  0  0  0  0  0  0  0
   10.3467   47.1852   30.4134 H   0  0  0  0  0  0  0  0  0  0  0  0
    5.4625   46.3075   30.5040 H   0  0  0  0  0  0  0  0  0  0  0  0
    8.8209   48.7658   29.3569 H   0  0  0  0  0  0  0  0  0  0  0  0
    7.1797   50.2548   28.9804 H   0  0  0  0  0  0  0  0  0  0  0  0
    7.0818   50.1425   26.4466 H   0  0  0  0  0  0  0  0  0  0  0  0
    6.1321   48.6101   26.5723 H   0  0  0  0  0  0  0  0  0  0  0  0
    7.8315   48.6732   27.1605 H   0  0  0  0  0  0  0  0  0  0  0  0
    3.8629   48.8139   27.8511 H   0  0  0  0  0  0  0  0  0  0  0  0
    3.9224   53.7439   28.6157 H   0  0  0  0  0  0  0  0  0  0  0  0
    0.1281   51.5563   26.7738 H   0  0  0  0  0  0  0  0  0  0  0  0
   -0.1437   51.2661   28.5577 H   0  0  0  0  0  0  0  0  0  0  0  0
   11.3952   41.5478   31.4744 H   0  0  0  0  0  0  0  0  0  0  0  0
    9.8291   40.7409   31.7627 H   0  0  0  0  0  0  0  0  0  0  0  0
   11.6981   39.5115   30.3500 H   0  0  0  0  0  0  0  0  0  0  0  0
   10.1117   38.2604   32.6661 H   0  0  0  0  0  0  0  0  0  0  0  0
   13.6767   37.4556   31.2267 H   0  0  0  0  0  0  0  0  0  0  0  0
    8.8961   38.6951   30.8872 H   0  0  0  0  0  0  0  0  0  0  0  0
   11.2791   36.3072   32.4922 H   0  0  0  0  0  0  0  0  0  0  0  0
   11.8828   36.9598   29.7589 H   0  0  0  0  0  0  0  0  0  0  0  0
   12.3300   38.3538   34.7446 H   0  0  0  0  0  0  0  0  0  0  0  0
   16.7562   34.1785   32.4622 H   0  0  0  0  0  0  0  0  0  0  0  0
   15.3531   35.7360   37.5140 H   0  0  0  0  0  0  0  0  0  0  0  0
   16.6347   34.5303   37.1416 H   0  0  0  0  0  0  0  0  0  0  0  0
  1  2  2  0
  1  3  1  0
  3  4  1  0
  4  5  1  0
  6  1  1  0
  7  6  1  0
  6  8  1  0
  8  9  1  0
  9 10  2  0
 11  9  1  0
 10 12  1  0
 13 11  2  0
 12 14  2  0
 14 13  1  0
 14 15  1  0
 15 16  1  0
 16 17  1  0
 16 18  1  0
 18 19  2  0
 20 18  1  0
 19 21  1  0
 22 20  2  0
 20 23  1  0
 21 24  1  0
 21 25  2  0
 25 22  1  0
 23 26  1  0
 23 27  2  0
 24 28  1  0
 25 29  1  0
 28 29  1  0
  4 30  2  0
  4 31  1  0
 32 31  1  0
 32 33  1  0
 33 34  1  0
 33 35  1  0
 34 36  1  0
 35 37  1  0
 35 38  1  0
 38 36  1  0
 36 39  1  0
 38 40  1  0
 41 39  1  0
 42 39  1  0
 43 41  2  0
 41 44  1  0
 45 42  2  0
 46 43  1  0
 44 47  2  0
 44 45  1  0
 48 46  2  0
 48 47  1  0
 47 49  1  0
  6 50  1  1
  7 51  1  0
  7 52  1  0
  8 53  1  0
  8 54  1  0
 10 55  1  0
 11 56  1  0
 12 57  1  0
 13 58  1  0
 16 59  1  1
 17 60  1  0
 17 61  1  0
 17 62  1  0
 19 63  1  0
 22 64  1  0
 28 65  1  0
 28 66  1  0
 32 67  1  0
 32 68  1  0
 33 69  1  0
 35 70  1  0
 36 71  1  0
 37 72  1  0
 38 73  1  0
 40 74  1  0
 42 75  1  0
 46 76  1  0
 49 77  1  0
 49 78  1  0
M  CHG  3   5  -1  23   1  26  -1
M  END
>  <EmbedRMS>  (344) 
0.0819764004217

$$$$

     RDKit          3D

 78 83  0  0  0  0  0  0  0  0999 V2000
   10.2838   43.7627   33.8277 C   0  0  0  0  0  0  0  0  0  0  0  0
   11.4103   43.5863   34.3766 O   0  0  0  0  0  0  0  0  0  0  0  0
    9.3628   42.7238   33.7358 O   0  0  0  0  0  0  0  0  0  0  0  0
    9.8891   41.2251   34.2949 P   0  0  0  0  0  0  0  0  0  0  0  0
   10.3724   41.4548   35.8843 O   0  0  0  0  0  0  0  0  0  0  0  0
    9.9548   45.0699   33.2064 C   0  0  1  0  0  0  0  0  0  0  0  0
   11.0198   46.0480   33.4567 N   0  0  0  0  0  0  0  0  0  0  0  0
    9.7501   44.8506   31.6923 C   0  0  0  0  0  0  0  0  0  0  0  0
    8.7942   45.8415   31.0867 C   0  0  0  0  0  0  0  0  0  0  0  0
    7.4076   45.6011   31.1002 C   0  0  0  0  0  0  0  0  0  0  0  0
    9.2830   46.9890   30.4450 C   0  0  0  0  0  0  0  0  0  0  0  0
    6.5283   46.5023   30.4849 C   0  0  0  0  0  0  0  0  0  0  0  0
    8.4037   47.8906   29.8332 C   0  0  0  0  0  0  0  0  0  0  0  0
    7.0142   47.6514   29.8459 C   0  0  0  0  0  0  0  0  0  0  0  0
    6.0824   48.5186   29.2520 O   0  0  0  0  0  0  0  0  0  0  0  0
    6.3864   49.6698   28.4602 C   0  0  1  0  0  0  0  0  0  0  0  0
    6.9125   49.2685   27.0770 C   0  0  0  0  0  0  0  0  0  0  0  0
    5.1661   50.5640   28.3164 C   0  0  0  0  0  0  0  0  0  0  0  0
    5.3942   51.9555   28.1792 C   0  0  0  0  0  0  0  0  0  0  0  0
    3.8121   50.0778   28.3425 C   0  0  0  0  0  0  0  0  0  0  0  0
    4.3005   52.8073   28.1045 C   0  0  0  0  0  0  0  0  0  0  0  0
    2.7396   50.9972   28.2782 C   0  0  0  0  0  0  0  0  0  0  0  0
    3.5043   48.6777   28.4290 N   0  0  0  0  0  0  0  0  0  0  0  0
    4.2904   54.1831   27.9777 O   0  0  0  0  0  0  0  0  0  0  0  0
    3.0297   52.3489   28.1563 C   0  0  0  0  0  0  0  0  0  0  0  0
    4.0677   47.7884   27.5447 O   0  0  0  0  0  0  0  0  0  0  0  0
    2.5609   48.2924   29.1501 O   0  0  0  0  0  0  0  0  0  0  0  0
    2.9230   54.6144   27.9479 C   0  0  0  0  0  0  0  0  0  0  0  0
    2.1511   53.4114   28.0645 O   0  0  0  0  0  0  0  0  0  0  0  0
    8.8113   40.1834   34.2132 O   0  0  0  0  0  0  0  0  0  0  0  0
   11.2398   40.7938   33.3702 O   0  0  0  0  0  0  0  0  0  0  0  0
   10.9144   40.6912   31.9983 C   0  0  0  0  0  0  0  0  0  0  0  0
   11.5270   39.3911   31.4385 C   0  0  0  0  0  0  0  0  0  0  0  0
   12.7520   39.0910   32.0836 O   0  0  0  0  0  0  0  0  0  0  0  0
   10.6114   38.1931   31.6451 C   0  0  0  0  0  0  0  0  0  0  0  0
   12.9413   37.6837   32.0297 C   0  0  0  0  0  0  0  0  0  0  0  0
    9.6064   38.0877   30.6599 O   0  0  0  0  0  0  0  0  0  0  0  0
   11.5822   37.0197   31.6876 C   0  0  0  0  0  0  0  0  0  0  0  0
   13.4840   37.2104   33.3254 N   0  0  0  0  0  0  0  0  0  0  0  0
   11.6179   36.3071   30.4690 O   0  0  0  0  0  0  0  0  0  0  0  0
   14.4797   36.3309   33.5738 C   0  0  0  0  0  0  0  0  0  0  0  0
   13.1136   37.6269   34.5702 C   0  0  0  0  0  0  0  0  0  0  0  0
   15.2074   35.6152   32.6747 N   0  0  0  0  0  0  0  0  0  0  0  0
   14.6756   36.2298   34.9190 C   0  0  0  0  0  0  0  0  0  0  0  0
   13.8217   37.0445   35.5793 N   0  0  0  0  0  0  0  0  0  0  0  0
   16.1643   34.7603   33.1551 C   0  0  0  0  0  0  0  0  0  0  0  0
   15.6528   35.3503   35.4136 C   0  0  0  0  0  0  0  0  0  0  0  0
   16.3798   34.6316   34.5046 N   0  0  0  0  0  0  0  0  0  0  0  0
   15.9004   35.1930   36.8094 N   0  0  0  0  0  0  0  0  0  0  0  0
    9.0099   45.4350   33.6670 H   0  0  0  0  0  0  0  0  0  0  0  0
   11.9348   45.6932   33.0923 H   0  0  0  0  0  0  0  0  0  0  0  0
   11.1135   46.1992   34.4880 H   0  0  0  0  0  0  0  0  0  0  0  0
    9.3508   43.8341   31.4764 H   0  0  0  0  0  0  0  0  0  0  0  0
   10.7304   44.8920   31.1675 H   0  0  0  0  0  0  0  0  0  0  0  0
    7.0108   44.7162   31.5826 H   0  0  0  0  0  0  0  0  0  0  0  0
   10.3474   47.1883   30.4178 H   0  0  0  0  0  0  0  0  0  0  0  0
    5.4637   46.3055   30.5030 H   0  0  0  0  0  0  0  0  0  0  0  0
    8.8204   48.7658   29.3566 H   0  0  0  0  0  0  0  0  0  0  0  0
    7.1736   50.2551   28.9842 H   0  0  0  0  0  0  0  0  0  0  0  0
    6.1316   48.7495   26.4860 H   0  0  0  0  0  0  0  0  0  0  0  0
    7.7869   48.5930   27.1698 H   0  0  0  0  0  0  0  0  0  0  0  0
    7.2338   50.1730   26.5178 H   0  0  0  0  0  0  0  0  0  0  0  0
    6.3969   52.3632   28.1440 H   0  0  0  0  0  0  0  0  0  0  0  0
    1.7101   50.6634   28.3008 H   0  0  0  0  0  0  0  0  0  0  0  0
    2.7141   55.2883   28.8050 H   0  0  0  0  0  0  0  0  0  0  0  0
    2.7009   55.1204   26.9850 H   0  0  0  0  0  0  0  0  0  0  0  0
   11.3780   41.5548   31.4750 H   0  0  0  0  0  0  0  0  0  0  0  0
    9.8235   40.7202   31.7651 H   0  0  0  0  0  0  0  0  0  0  0  0
   11.7311   39.5363   30.3531 H   0  0  0  0  0  0  0  0  0  0  0  0
   10.1203   38.2695   32.6410 H   0  0  0  0  0  0  0  0  0  0  0  0
   13.6850   37.4638   31.2321 H   0  0  0  0  0  0  0  0  0  0  0  0
   10.0251   38.1792   29.7654 H   0  0  0  0  0  0  0  0  0  0  0  0
   11.2757   36.3135   32.4907 H   0  0  0  0  0  0  0  0  0  0  0  0
   11.9838   36.9110   29.7708 H   0  0  0  0  0  0  0  0  0  0  0  0
   12.3307   38.3536   34.7457 H   0  0  0  0  0  0  0  0  0  0  0  0
   16.7566   34.1787   32.4623 H   0  0  0  0  0  0  0  0  0  0  0  0
   16.6353   34.5301   37.1419 H   0  0  0  0  0  0  0  0  0  0  0  0
   15.3535   35.7355   37.5144 H   0  0  0  0  0  0  0  0  0  0  0  0
  1  2  2  0
  1  3  1  0
  3  4  1  0
  4  5  1  0
  6  1  1  0
  7  6  1  0
  6  8  1  0
  8  9  1  0
  9 10  2  0
 11  9  1  0
 10 12  1  0
 13 11  2  0
 12 14  2  0
 14 13  1  0
 14 15  1  0
 15 16  1  0
 16 17  1  0
 16 18  1  0
 18 19  2  0
 20 18  1  0
 19 21  1  0
 22 20  2  0
 20 23  1  0
 21 24  1  0
 21 25  2  0
 25 22  1  0
 23 26  1  0
 23 27  2  0
 24 28  1  0
 25 29  1  0
 28 29  1  0
  4 30  2  0
  4 31  1  0
 32 31  1  0
 32 33  1  0
 33 34  1  0
 33 35  1  0
 34 36  1  0
 35 37  1  0
 35 38  1  0
 38 36  1  0
 36 39  1  0
 38 40  1  0
 41 39  1  0
 42 39  1  0
 43 41  2  0
 41 44  1  0
 45 42  2  0
 46 43  1  0
 44 47  2  0
 44 45  1  0
 48 46  2  0
 48 47  1  0
 47 49  1  0
  6 50  1  1
  7 51  1  0
  7 52  1  0
  8 53  1  0
  8 54  1  0
 10 55  1  0
 11 56  1  0
 12 57  1  0
 13 58  1  0
 16 59  1  1
 17 60  1  0
 17 61  1  0
 17 62  1  0
 19 63  1  0
 22 64  1  0
 28 65  1  0
 28 66  1  0
 32 67  1  0
 32 68  1  0
 33 69  1  0
 35 70  1  0
 36 71  1  0
 37 72  1  0
 38 73  1  0
 40 74  1  0
 42 75  1  0
 46 76  1  0
 49 77  1  0
 49 78  1  0
M  CHG  3   5  -1  23   1  26  -1
M  END
>  <EmbedRMS>  (345) 
0.0817438933553

$$$$

     RDKit          3D

 78 83  0  0  0  0  0  0  0  0999 V2000
   10.2816   43.7666   33.8242 C   0  0  0  0  0  0  0  0  0  0  0  0
   11.4119   43.5924   34.3665 O   0  0  0  0  0  0  0  0  0  0  0  0
    9.3628   42.7249   33.7338 O   0  0  0  0  0  0  0  0  0  0  0  0
    9.8909   41.2263   34.2930 P   0  0  0  0  0  0  0  0  0  0  0  0
   10.3731   41.4562   35.8827 O   0  0  0  0  0  0  0  0  0  0  0  0
    9.9473   45.0747   33.2123 C   0  0  1  0  0  0  0  0  0  0  0  0
   11.0258   46.0323   33.4751 N   0  0  0  0  0  0  0  0  0  0  0  0
    9.7572   44.8572   31.6952 C   0  0  0  0  0  0  0  0  0  0  0  0
    8.7983   45.8443   31.0875 C   0  0  0  0  0  0  0  0  0  0  0  0
    7.4127   45.5996   31.1054 C   0  0  0  0  0  0  0  0  0  0  0  0
    9.2820   46.9928   30.4418 C   0  0  0  0  0  0  0  0  0  0  0  0
    6.5301   46.4950   30.4888 C   0  0  0  0  0  0  0  0  0  0  0  0
    8.3974   47.8876   29.8260 C   0  0  0  0  0  0  0  0  0  0  0  0
    7.0103   47.6399   29.8401 C   0  0  0  0  0  0  0  0  0  0  0  0
    6.0757   48.4790   29.2138 O   0  0  0  0  0  0  0  0  0  0  0  0
    6.3740   49.6783   28.4990 C   0  0  1  0  0  0  0  0  0  0  0  0
    5.1622   50.0755   27.6537 C   0  0  0  0  0  0  0  0  0  0  0  0
    6.7704   50.8064   29.4419 C   0  0  0  0  0  0  0  0  0  0  0  0
    7.9844   51.4896   29.1837 C   0  0  0  0  0  0  0  0  0  0  0  0
    5.9315   51.2599   30.5184 C   0  0  0  0  0  0  0  0  0  0  0  0
    8.3148   52.5850   29.9721 C   0  0  0  0  0  0  0  0  0  0  0  0
    6.3099   52.3927   31.2735 C   0  0  0  0  0  0  0  0  0  0  0  0
    4.6996   50.6045   30.8481 N   0  0  0  0  0  0  0  0  0  0  0  0
    9.4313   53.3942   29.8927 O   0  0  0  0  0  0  0  0  0  0  0  0
    7.5103   53.0220   30.9688 C   0  0  0  0  0  0  0  0  0  0  0  0
    3.5627   51.3528   31.0303 O   0  0  0  0  0  0  0  0  0  0  0  0
    4.7144   49.4282   31.2640 O   0  0  0  0  0  0  0  0  0  0  0  0
    9.3169   54.4082   30.9022 C   0  0  0  0  0  0  0  0  0  0  0  0
    8.0765   54.1327   31.5674 O   0  0  0  0  0  0  0  0  0  0  0  0
    8.8139   40.1833   34.2112 O   0  0  0  0  0  0  0  0  0  0  0  0
   11.2430   40.7963   33.3689 O   0  0  0  0  0  0  0  0  0  0  0  0
   10.9190   40.6917   31.9966 C   0  0  0  0  0  0  0  0  0  0  0  0
   11.5180   39.3820   31.4401 C   0  0  0  0  0  0  0  0  0  0  0  0
   12.7499   39.0860   32.0727 O   0  0  0  0  0  0  0  0  0  0  0  0
   10.6021   38.1918   31.6655 C   0  0  0  0  0  0  0  0  0  0  0  0
   12.9319   37.6787   32.0287 C   0  0  0  0  0  0  0  0  0  0  0  0
    9.6391   38.0786   30.6440 O   0  0  0  0  0  0  0  0  0  0  0  0
   11.5713   37.0181   31.7059 C   0  0  0  0  0  0  0  0  0  0  0  0
   13.4843   37.2131   33.3244 N   0  0  0  0  0  0  0  0  0  0  0  0
   11.6185   36.3392   30.4702 O   0  0  0  0  0  0  0  0  0  0  0  0
   14.4797   36.3330   33.5727 C   0  0  0  0  0  0  0  0  0  0  0  0
   13.1127   37.6270   34.5703 C   0  0  0  0  0  0  0  0  0  0  0  0
   15.2061   35.6162   32.6736 N   0  0  0  0  0  0  0  0  0  0  0  0
   14.6753   36.2306   34.9180 C   0  0  0  0  0  0  0  0  0  0  0  0
   13.8205   37.0437   35.5790 N   0  0  0  0  0  0  0  0  0  0  0  0
   16.1620   34.7601   33.1537 C   0  0  0  0  0  0  0  0  0  0  0  0
   15.6515   35.3498   35.4121 C   0  0  0  0  0  0  0  0  0  0  0  0
   16.3775   34.6305   34.5030 N   0  0  0  0  0  0  0  0  0  0  0  0
   15.8998   35.1927   36.8075 N   0  0  0  0  0  0  0  0  0  0  0  0
    9.0009   45.4370   33.6744 H   0  0  0  0  0  0  0  0  0  0  0  0
   11.0471   46.2308   34.5029 H   0  0  0  0  0  0  0  0  0  0  0  0
   10.7754   46.9405   33.0205 H   0  0  0  0  0  0  0  0  0  0  0  0
   10.7440   44.9113   31.1834 H   0  0  0  0  0  0  0  0  0  0  0  0
    9.3685   43.8386   31.4682 H   0  0  0  0  0  0  0  0  0  0  0  0
    7.0188   44.7176   31.5954 H   0  0  0  0  0  0  0  0  0  0  0  0
   10.3461   47.1932   30.4048 H   0  0  0  0  0  0  0  0  0  0  0  0
    5.4671   46.2922   30.5076 H   0  0  0  0  0  0  0  0  0  0  0  0
    8.8048   48.7553   29.3304 H   0  0  0  0  0  0  0  0  0  0  0  0
    7.1929   49.4640   27.7755 H   0  0  0  0  0  0  0  0  0  0  0  0
    5.3805   50.9987   27.0754 H   0  0  0  0  0  0  0  0  0  0  0  0
    4.9257   49.2601   26.9347 H   0  0  0  0  0  0  0  0  0  0  0  0
    4.2695   50.2498   28.2864 H   0  0  0  0  0  0  0  0  0  0  0  0
    8.6440   51.1904   28.3785 H   0  0  0  0  0  0  0  0  0  0  0  0
    5.6904   52.7615   32.0804 H   0  0  0  0  0  0  0  0  0  0  0  0
    9.2826   55.4149   30.4320 H   0  0  0  0  0  0  0  0  0  0  0  0
   10.1605   54.3310   31.6205 H   0  0  0  0  0  0  0  0  0  0  0  0
    9.8301   40.7416   31.7612 H   0  0  0  0  0  0  0  0  0  0  0  0
   11.3964   41.5465   31.4723 H   0  0  0  0  0  0  0  0  0  0  0  0
   11.7001   39.5063   30.3478 H   0  0  0  0  0  0  0  0  0  0  0  0
   10.1072   38.2684   32.6635 H   0  0  0  0  0  0  0  0  0  0  0  0
   13.6621   37.4458   31.2217 H   0  0  0  0  0  0  0  0  0  0  0  0
    8.8973   38.6932   30.8812 H   0  0  0  0  0  0  0  0  0  0  0  0
   11.2793   36.3107   32.5181 H   0  0  0  0  0  0  0  0  0  0  0  0
   10.8483   35.7131   30.4600 H   0  0  0  0  0  0  0  0  0  0  0  0
   12.3291   38.3526   34.7480 H   0  0  0  0  0  0  0  0  0  0  0  0
   16.7530   34.1786   32.4601 H   0  0  0  0  0  0  0  0  0  0  0  0
   16.6344   34.5294   37.1399 H   0  0  0  0  0  0  0  0  0  0  0  0
   15.3525   35.7358   37.5115 H   0  0  0  0  0  0  0  0  0  0  0  0
  1  2  2  0
  1  3  1  0
  3  4  1  0
  4  5  1  0
  6  1  1  0
  7  6  1  0
  6  8  1  0
  8  9  1  0
  9 10  2  0
 11  9  1  0
 10 12  1  0
 13 11  2  0
 12 14  2  0
 14 13  1  0
 14 15  1  0
 15 16  1  0
 16 17  1  0
 16 18  1  0
 18 19  2  0
 20 18  1  0
 19 21  1  0
 22 20  2  0
 20 23  1  0
 21 24  1  0
 21 25  2  0
 25 22  1  0
 23 26  1  0
 23 27  2  0
 24 28  1  0
 25 29  1  0
 28 29  1  0
  4 30  2  0
  4 31  1  0
 32 31  1  0
 32 33  1  0
 33 34  1  0
 33 35  1  0
 34 36  1  0
 35 37  1  0
 35 38  1  0
 38 36  1  0
 36 39  1  0
 38 40  1  0
 41 39  1  0
 42 39  1  0
 43 41  2  0
 41 44  1  0
 45 42  2  0
 46 43  1  0
 44 47  2  0
 44 45  1  0
 48 46  2  0
 48 47  1  0
 47 49  1  0
  6 50  1  1
  7 51  1  0
  7 52  1  0
  8 53  1  0
  8 54  1  0
 10 55  1  0
 11 56  1  0
 12 57  1  0
 13 58  1  0
 16 59  1  6
 17 60  1  0
 17 61  1  0
 17 62  1  0
 19 63  1  0
 22 64  1  0
 28 65  1  0
 28 66  1  0
 32 67  1  0
 32 68  1  0
 33 69  1  0
 35 70  1  0
 36 71  1  0
 37 72  1  0
 38 73  1  0
 40 74  1  0
 42 75  1  0
 46 76  1  0
 49 77  1  0
 49 78  1  0
M  CHG  3   5  -1  23   1  26  -1
M  END
>  <EmbedRMS>  (346) 
0.0831096580568

$$$$

     RDKit          3D

 78 83  0  0  0  0  0  0  0  0999 V2000
   10.2835   43.7661   33.8256 C   0  0  0  0  0  0  0  0  0  0  0  0
   11.4102   43.5930   34.3753 O   0  0  0  0  0  0  0  0  0  0  0  0
    9.3640   42.7253   33.7347 O   0  0  0  0  0  0  0  0  0  0  0  0
    9.8908   41.2264   34.2939 P   0  0  0  0  0  0  0  0  0  0  0  0
   10.3732   41.4559   35.8835 O   0  0  0  0  0  0  0  0  0  0  0  0
    9.9547   45.0694   33.2035 C   0  0  1  0  0  0  0  0  0  0  0  0
   11.0273   46.0321   33.4756 N   0  0  0  0  0  0  0  0  0  0  0  0
    9.7467   44.8479   31.6876 C   0  0  0  0  0  0  0  0  0  0  0  0
    8.7924   45.8405   31.0841 C   0  0  0  0  0  0  0  0  0  0  0  0
    7.4058   45.6016   31.0993 C   0  0  0  0  0  0  0  0  0  0  0  0
    9.2821   46.9877   30.4425 C   0  0  0  0  0  0  0  0  0  0  0  0
    6.5270   46.5036   30.4848 C   0  0  0  0  0  0  0  0  0  0  0  0
    8.4032   47.8906   29.8323 C   0  0  0  0  0  0  0  0  0  0  0  0
    7.0135   47.6524   29.8458 C   0  0  0  0  0  0  0  0  0  0  0  0
    6.0820   48.5204   29.2528 O   0  0  0  0  0  0  0  0  0  0  0  0
    6.3862   49.6689   28.4570 C   0  0  1  0  0  0  0  0  0  0  0  0
    6.9105   49.2637   27.0741 C   0  0  0  0  0  0  0  0  0  0  0  0
    5.1652   50.5622   28.3135 C   0  0  0  0  0  0  0  0  0  0  0  0
    5.3897   51.9574   28.2119 C   0  0  0  0  0  0  0  0  0  0  0  0
    3.8121   50.0705   28.3062 C   0  0  0  0  0  0  0  0  0  0  0  0
    4.2938   52.8064   28.1397 C   0  0  0  0  0  0  0  0  0  0  0  0
    2.7378   50.9870   28.2480 C   0  0  0  0  0  0  0  0  0  0  0  0
    3.5034   48.6691   28.3609 N   0  0  0  0  0  0  0  0  0  0  0  0
    4.2800   54.1848   28.0446 O   0  0  0  0  0  0  0  0  0  0  0  0
    3.0242   52.3422   28.1616 C   0  0  0  0  0  0  0  0  0  0  0  0
    2.4251   48.2380   29.0986 O   0  0  0  0  0  0  0  0  0  0  0  0
    4.0453   47.8728   27.5682 O   0  0  0  0  0  0  0  0  0  0  0  0
    2.9115   54.6115   28.0038 C   0  0  0  0  0  0  0  0  0  0  0  0
    2.1428   53.4032   28.0809 O   0  0  0  0  0  0  0  0  0  0  0  0
    8.8127   40.1847   34.2122 O   0  0  0  0  0  0  0  0  0  0  0  0
   11.2421   40.7941   33.3697 O   0  0  0  0  0  0  0  0  0  0  0  0
   10.9187   40.6911   31.9971 C   0  0  0  0  0  0  0  0  0  0  0  0
   11.5172   39.3815   31.4407 C   0  0  0  0  0  0  0  0  0  0  0  0
   12.7493   39.0856   32.0728 O   0  0  0  0  0  0  0  0  0  0  0  0
   10.6023   38.1908   31.6665 C   0  0  0  0  0  0  0  0  0  0  0  0
   12.9319   37.6781   32.0281 C   0  0  0  0  0  0  0  0  0  0  0  0
    9.6393   38.0797   30.6452 O   0  0  0  0  0  0  0  0  0  0  0  0
   11.5715   37.0166   31.7056 C   0  0  0  0  0  0  0  0  0  0  0  0
   13.4846   37.2121   33.3236 N   0  0  0  0  0  0  0  0  0  0  0  0
   11.6187   36.3384   30.4695 O   0  0  0  0  0  0  0  0  0  0  0  0
   14.4801   36.3321   33.5724 C   0  0  0  0  0  0  0  0  0  0  0  0
   13.1137   37.6275   34.5688 C   0  0  0  0  0  0  0  0  0  0  0  0
   15.2073   35.6153   32.6738 N   0  0  0  0  0  0  0  0  0  0  0  0
   14.6759   36.2308   34.9179 C   0  0  0  0  0  0  0  0  0  0  0  0
   13.8216   37.0452   35.5781 N   0  0  0  0  0  0  0  0  0  0  0  0
   16.1640   34.7602   33.1546 C   0  0  0  0  0  0  0  0  0  0  0  0
   15.6526   35.3508   35.4129 C   0  0  0  0  0  0  0  0  0  0  0  0
   16.3794   34.6317   34.5041 N   0  0  0  0  0  0  0  0  0  0  0  0
   15.8999   35.1934   36.8088 N   0  0  0  0  0  0  0  0  0  0  0  0
    9.0120   45.4316   33.6713 H   0  0  0  0  0  0  0  0  0  0  0  0
   11.8906   45.7659   32.9469 H   0  0  0  0  0  0  0  0  0  0  0  0
   10.7259   46.9687   33.1213 H   0  0  0  0  0  0  0  0  0  0  0  0
    9.3416   43.8327   31.4762 H   0  0  0  0  0  0  0  0  0  0  0  0
   10.7231   44.8813   31.1556 H   0  0  0  0  0  0  0  0  0  0  0  0
    7.0084   44.7171   31.5819 H   0  0  0  0  0  0  0  0  0  0  0  0
   10.3467   47.1853   30.4132 H   0  0  0  0  0  0  0  0  0  0  0  0
    5.4623   46.3077   30.5037 H   0  0  0  0  0  0  0  0  0  0  0  0
    8.8203   48.7657   29.3559 H   0  0  0  0  0  0  0  0  0  0  0  0
    7.1757   50.2545   28.9771 H   0  0  0  0  0  0  0  0  0  0  0  0
    6.1331   48.7333   26.4886 H   0  0  0  0  0  0  0  0  0  0  0  0
    7.2215   50.1677   26.5083 H   0  0  0  0  0  0  0  0  0  0  0  0
    7.7915   48.5970   27.1681 H   0  0  0  0  0  0  0  0  0  0  0  0
    6.3909   52.3700   28.2014 H   0  0  0  0  0  0  0  0  0  0  0  0
    1.7093   50.6494   28.2477 H   0  0  0  0  0  0  0  0  0  0  0  0
    2.7018   55.1387   27.0495 H   0  0  0  0  0  0  0  0  0  0  0  0
    2.6867   55.2648   28.8729 H   0  0  0  0  0  0  0  0  0  0  0  0
   11.3968   41.5460   31.4729 H   0  0  0  0  0  0  0  0  0  0  0  0
    9.8300   40.7410   31.7613 H   0  0  0  0  0  0  0  0  0  0  0  0
   11.6975   39.5067   30.3481 H   0  0  0  0  0  0  0  0  0  0  0  0
   10.1077   38.2648   32.6645 H   0  0  0  0  0  0  0  0  0  0  0  0
   13.6621   37.4467   31.2209 H   0  0  0  0  0  0  0  0  0  0  0  0
    8.8975   38.6944   30.8831 H   0  0  0  0  0  0  0  0  0  0  0  0
   11.2806   36.3073   32.5170 H   0  0  0  0  0  0  0  0  0  0  0  0
   10.8492   35.7111   30.4586 H   0  0  0  0  0  0  0  0  0  0  0  0
   12.3290   38.3523   34.7444 H   0  0  0  0  0  0  0  0  0  0  0  0
   16.7559   34.1781   32.4619 H   0  0  0  0  0  0  0  0  0  0  0  0
   16.6345   34.5301   37.1414 H   0  0  0  0  0  0  0  0  0  0  0  0
   15.3532   35.7362   37.5137 H   0  0  0  0  0  0  0  0  0  0  0  0
  1  2  2  0
  1  3  1  0
  3  4  1  0
  4  5  1  0
  6  1  1  0
  7  6  1  0
  6  8  1  0
  8  9  1  0
  9 10  2  0
 11  9  1  0
 10 12  1  0
 13 11  2  0
 12 14  2  0
 14 13  1  0
 14 15  1  0
 15 16  1  0
 16 17  1  0
 16 18  1  0
 18 19  2  0
 20 18  1  0
 19 21  1  0
 22 20  2  0
 20 23  1  0
 21 24  1  0
 21 25  2  0
 25 22  1  0
 23 26  1  0
 23 27  2  0
 24 28  1  0
 25 29  1  0
 28 29  1  0
  4 30  2  0
  4 31  1  0
 32 31  1  0
 32 33  1  0
 33 34  1  0
 33 35  1  0
 34 36  1  0
 35 37  1  0
 35 38  1  0
 38 36  1  0
 36 39  1  0
 38 40  1  0
 41 39  1  0
 42 39  1  0
 43 41  2  0
 41 44  1  0
 45 42  2  0
 46 43  1  0
 44 47  2  0
 44 45  1  0
 48 46  2  0
 48 47  1  0
 47 49  1  0
  6 50  1  1
  7 51  1  0
  7 52  1  0
  8 53  1  0
  8 54  1  0
 10 55  1  0
 11 56  1  0
 12 57  1  0
 13 58  1  0
 16 59  1  1
 17 60  1  0
 17 61  1  0
 17 62  1  0
 19 63  1  0
 22 64  1  0
 28 65  1  0
 28 66  1  0
 32 67  1  0
 32 68  1  0
 33 69  1  0
 35 70  1  0
 36 71  1  0
 37 72  1  0
 38 73  1  0
 40 74  1  0
 42 75  1  0
 46 76  1  0
 49 77  1  0
 49 78  1  0
M  CHG  3   5  -1  23   1  26  -1
M  END
>  <EmbedRMS>  (347) 
0.0829483225275

$$$$

     RDKit          3D

 78 83  0  0  0  0  0  0  0  0999 V2000
   10.2804   43.7665   33.8250 C   0  0  0  0  0  0  0  0  0  0  0  0
   11.4111   43.5918   34.3666 O   0  0  0  0  0  0  0  0  0  0  0  0
    9.3616   42.7251   33.7348 O   0  0  0  0  0  0  0  0  0  0  0  0
    9.8896   41.2269   34.2945 P   0  0  0  0  0  0  0  0  0  0  0  0
   10.3732   41.4568   35.8838 O   0  0  0  0  0  0  0  0  0  0  0  0
    9.9460   45.0737   33.2113 C   0  0  1  0  0  0  0  0  0  0  0  0
   11.0268   46.0292   33.4709 N   0  0  0  0  0  0  0  0  0  0  0  0
    9.7540   44.8542   31.6950 C   0  0  0  0  0  0  0  0  0  0  0  0
    8.7957   45.8413   31.0850 C   0  0  0  0  0  0  0  0  0  0  0  0
    7.4091   45.6002   31.1011 C   0  0  0  0  0  0  0  0  0  0  0  0
    9.2824   46.9877   30.4397 C   0  0  0  0  0  0  0  0  0  0  0  0
    6.5257   46.4985   30.4858 C   0  0  0  0  0  0  0  0  0  0  0  0
    8.3997   47.8867   29.8308 C   0  0  0  0  0  0  0  0  0  0  0  0
    7.0179   47.6557   29.8464 C   0  0  0  0  0  0  0  0  0  0  0  0
    6.1864   48.5912   29.2079 O   0  0  0  0  0  0  0  0  0  0  0  0
    4.7564   48.5622   29.1696 C   0  0  1  0  0  0  0  0  0  0  0  0
    4.2074   49.0342   30.5252 C   0  0  0  0  0  0  0  0  0  0  0  0
    4.2922   49.3830   27.9670 C   0  0  0  0  0  0  0  0  0  0  0  0
    3.4115   50.4909   28.1194 C   0  0  0  0  0  0  0  0  0  0  0  0
    4.7792   49.0680   26.6490 C   0  0  0  0  0  0  0  0  0  0  0  0
    3.0710   51.2338   26.9971 C   0  0  0  0  0  0  0  0  0  0  0  0
    4.4070   49.8738   25.5495 C   0  0  0  0  0  0  0  0  0  0  0  0
    5.6640   47.9596   26.4088 N   0  0  0  0  0  0  0  0  0  0  0  0
    2.2446   52.3386   26.9187 O   0  0  0  0  0  0  0  0  0  0  0  0
    3.5494   50.9407   25.7682 C   0  0  0  0  0  0  0  0  0  0  0  0
    6.6407   48.0622   25.4452 O   0  0  0  0  0  0  0  0  0  0  0  0
    5.4333   46.8412   26.9116 O   0  0  0  0  0  0  0  0  0  0  0  0
    2.2030   52.7641   25.5499 C   0  0  0  0  0  0  0  0  0  0  0  0
    3.0504   51.8438   24.8493 O   0  0  0  0  0  0  0  0  0  0  0  0
    8.8122   40.1844   34.2135 O   0  0  0  0  0  0  0  0  0  0  0  0
   11.2401   40.7949   33.3698 O   0  0  0  0  0  0  0  0  0  0  0  0
   10.9143   40.6914   31.9981 C   0  0  0  0  0  0  0  0  0  0  0  0
   11.5269   39.3911   31.4385 C   0  0  0  0  0  0  0  0  0  0  0  0
   12.7519   39.0911   32.0837 O   0  0  0  0  0  0  0  0  0  0  0  0
   10.6113   38.1932   31.6451 C   0  0  0  0  0  0  0  0  0  0  0  0
   12.9413   37.6838   32.0297 C   0  0  0  0  0  0  0  0  0  0  0  0
    9.6064   38.0877   30.6599 O   0  0  0  0  0  0  0  0  0  0  0  0
   11.5822   37.0197   31.6877 C   0  0  0  0  0  0  0  0  0  0  0  0
   13.4840   37.2105   33.3254 N   0  0  0  0  0  0  0  0  0  0  0  0
   11.6179   36.3072   30.4690 O   0  0  0  0  0  0  0  0  0  0  0  0
   14.4797   36.3309   33.5738 C   0  0  0  0  0  0  0  0  0  0  0  0
   13.1137   37.6269   34.5702 C   0  0  0  0  0  0  0  0  0  0  0  0
   15.2074   35.6152   32.6747 N   0  0  0  0  0  0  0  0  0  0  0  0
   14.6756   36.2298   34.9190 C   0  0  0  0  0  0  0  0  0  0  0  0
   13.8217   37.0445   35.5793 N   0  0  0  0  0  0  0  0  0  0  0  0
   16.1643   34.7603   33.1551 C   0  0  0  0  0  0  0  0  0  0  0  0
   15.6528   35.3503   35.4136 C   0  0  0  0  0  0  0  0  0  0  0  0
   16.3798   34.6316   34.5045 N   0  0  0  0  0  0  0  0  0  0  0  0
   15.9004   35.1930   36.8094 N   0  0  0  0  0  0  0  0  0  0  0  0
    8.9996   45.4383   33.6722 H   0  0  0  0  0  0  0  0  0  0  0  0
   10.7766   46.9369   33.0159 H   0  0  0  0  0  0  0  0  0  0  0  0
   11.0503   46.2277   34.4983 H   0  0  0  0  0  0  0  0  0  0  0  0
    9.3645   43.8355   31.4712 H   0  0  0  0  0  0  0  0  0  0  0  0
   10.7412   44.9079   31.1836 H   0  0  0  0  0  0  0  0  0  0  0  0
    7.0153   44.7150   31.5853 H   0  0  0  0  0  0  0  0  0  0  0  0
   10.3463   47.1873   30.4048 H   0  0  0  0  0  0  0  0  0  0  0  0
    5.4694   46.2764   30.5174 H   0  0  0  0  0  0  0  0  0  0  0  0
    8.7925   48.7673   29.3383 H   0  0  0  0  0  0  0  0  0  0  0  0
    4.3927   47.5268   29.0099 H   0  0  0  0  0  0  0  0  0  0  0  0
    4.5327   50.0753   30.7360 H   0  0  0  0  0  0  0  0  0  0  0  0
    3.0985   48.9706   30.5382 H   0  0  0  0  0  0  0  0  0  0  0  0
    4.5876   48.3880   31.3426 H   0  0  0  0  0  0  0  0  0  0  0  0
    3.0008   50.7896   29.0723 H   0  0  0  0  0  0  0  0  0  0  0  0
    4.7636   49.6628   24.5496 H   0  0  0  0  0  0  0  0  0  0  0  0
    1.1654   52.7027   25.1599 H   0  0  0  0  0  0  0  0  0  0  0  0
    2.5991   53.7970   25.4566 H   0  0  0  0  0  0  0  0  0  0  0  0
   11.3775   41.5548   31.4741 H   0  0  0  0  0  0  0  0  0  0  0  0
    9.8233   40.7200   31.7652 H   0  0  0  0  0  0  0  0  0  0  0  0
   11.7312   39.5362   30.3532 H   0  0  0  0  0  0  0  0  0  0  0  0
   10.1202   38.2696   32.6410 H   0  0  0  0  0  0  0  0  0  0  0  0
   13.6850   37.4639   31.2321 H   0  0  0  0  0  0  0  0  0  0  0  0
   10.0250   38.1792   29.7654 H   0  0  0  0  0  0  0  0  0  0  0  0
   11.2757   36.3135   32.4908 H   0  0  0  0  0  0  0  0  0  0  0  0
   11.9838   36.9111   29.7708 H   0  0  0  0  0  0  0  0  0  0  0  0
   12.3307   38.3536   34.7458 H   0  0  0  0  0  0  0  0  0  0  0  0
   16.7566   34.1787   32.4622 H   0  0  0  0  0  0  0  0  0  0  0  0
   16.6353   34.5301   37.1418 H   0  0  0  0  0  0  0  0  0  0  0  0
   15.3535   35.7355   37.5144 H   0  0  0  0  0  0  0  0  0  0  0  0
  1  2  2  0
  1  3  1  0
  3  4  1  0
  4  5  1  0
  6  1  1  0
  7  6  1  0
  6  8  1  0
  8  9  1  0
  9 10  2  0
 11  9  1  0
 10 12  1  0
 13 11  2  0
 12 14  2  0
 14 13  1  0
 14 15  1  0
 15 16  1  0
 16 17  1  0
 16 18  1  0
 18 19  2  0
 20 18  1  0
 19 21  1  0
 22 20  2  0
 20 23  1  0
 21 24  1  0
 21 25  2  0
 25 22  1  0
 23 26  1  0
 23 27  2  0
 24 28  1  0
 25 29  1  0
 28 29  1  0
  4 30  2  0
  4 31  1  0
 32 31  1  0
 32 33  1  0
 33 34  1  0
 33 35  1  0
 34 36  1  0
 35 37  1  0
 35 38  1  0
 38 36  1  0
 36 39  1  0
 38 40  1  0
 41 39  1  0
 42 39  1  0
 43 41  2  0
 41 44  1  0
 45 42  2  0
 46 43  1  0
 44 47  2  0
 44 45  1  0
 48 46  2  0
 48 47  1  0
 47 49  1  0
  6 50  1  1
  7 51  1  0
  7 52  1  0
  8 53  1  0
  8 54  1  0
 10 55  1  0
 11 56  1  0
 12 57  1  0
 13 58  1  0
 16 59  1  6
 17 60  1  0
 17 61  1  0
 17 62  1  0
 19 63  1  0
 22 64  1  0
 28 65  1  0
 28 66  1  0
 32 67  1  0
 32 68  1  0
 33 69  1  0
 35 70  1  0
 36 71  1  0
 37 72  1  0
 38 73  1  0
 40 74  1  0
 42 75  1  0
 46 76  1  0
 49 77  1  0
 49 78  1  0
M  CHG  3   5  -1  23   1  26  -1
M  END
>  <EmbedRMS>  (348) 
0.0806257573405

$$$$

     RDKit          3D

 78 83  0  0  0  0  0  0  0  0999 V2000
   10.2835   43.7670   33.8262 C   0  0  0  0  0  0  0  0  0  0  0  0
   11.4104   43.5929   34.3752 O   0  0  0  0  0  0  0  0  0  0  0  0
    9.3636   42.7265   33.7350 O   0  0  0  0  0  0  0  0  0  0  0  0
    9.8907   41.2275   34.2932 P   0  0  0  0  0  0  0  0  0  0  0  0
   10.3757   41.4563   35.8822 O   0  0  0  0  0  0  0  0  0  0  0  0
    9.9555   45.0704   33.2039 C   0  0  1  0  0  0  0  0  0  0  0  0
   11.0293   46.0326   33.4743 N   0  0  0  0  0  0  0  0  0  0  0  0
    9.7482   44.8486   31.6879 C   0  0  0  0  0  0  0  0  0  0  0  0
    8.7941   45.8412   31.0856 C   0  0  0  0  0  0  0  0  0  0  0  0
    7.4083   45.6006   31.1016 C   0  0  0  0  0  0  0  0  0  0  0  0
    9.2814   46.9917   30.4481 C   0  0  0  0  0  0  0  0  0  0  0  0
    6.5261   46.4959   30.4846 C   0  0  0  0  0  0  0  0  0  0  0  0
    8.3974   47.8907   29.8393 C   0  0  0  0  0  0  0  0  0  0  0  0
    7.0174   47.6454   29.8350 C   0  0  0  0  0  0  0  0  0  0  0  0
    6.1776   48.5528   29.1675 O   0  0  0  0  0  0  0  0  0  0  0  0
    4.8403   48.2716   28.7465 C   0  0  1  0  0  0  0  0  0  0  0  0
    4.1745   49.5480   28.2302 C   0  0  0  0  0  0  0  0  0  0  0  0
    4.8167   47.1616   27.7019 C   0  0  0  0  0  0  0  0  0  0  0  0
    4.1030   45.9769   28.0179 C   0  0  0  0  0  0  0  0  0  0  0  0
    5.4642   47.2631   26.4202 C   0  0  0  0  0  0  0  0  0  0  0  0
    4.0671   44.9476   27.0872 C   0  0  0  0  0  0  0  0  0  0  0  0
    5.3745   46.1852   25.5075 C   0  0  0  0  0  0  0  0  0  0  0  0
    6.1818   48.4386   26.0108 N   0  0  0  0  0  0  0  0  0  0  0  0
    3.4566   43.7123   27.1940 O   0  0  0  0  0  0  0  0  0  0  0  0
    4.6764   45.0475   25.8858 C   0  0  0  0  0  0  0  0  0  0  0  0
    7.1966   48.9431   26.7875 O   0  0  0  0  0  0  0  0  0  0  0  0
    6.0637   48.8535   24.8404 O   0  0  0  0  0  0  0  0  0  0  0  0
    3.7045   42.9903   25.9801 C   0  0  0  0  0  0  0  0  0  0  0  0
    4.4834   43.8812   25.1706 O   0  0  0  0  0  0  0  0  0  0  0  0
    8.8113   40.1871   34.2129 O   0  0  0  0  0  0  0  0  0  0  0  0
   11.2408   40.7947   33.3670 O   0  0  0  0  0  0  0  0  0  0  0  0
   10.9142   40.6878   31.9952 C   0  0  0  0  0  0  0  0  0  0  0  0
   11.5164   39.3792   31.4398 C   0  0  0  0  0  0  0  0  0  0  0  0
   12.7488   39.0854   32.0724 O   0  0  0  0  0  0  0  0  0  0  0  0
   10.6037   38.1886   31.6664 C   0  0  0  0  0  0  0  0  0  0  0  0
   12.9328   37.6778   32.0281 C   0  0  0  0  0  0  0  0  0  0  0  0
    9.6356   38.0942   30.6485 O   0  0  0  0  0  0  0  0  0  0  0  0
   11.5737   37.0144   31.7053 C   0  0  0  0  0  0  0  0  0  0  0  0
   13.4852   37.2118   33.3234 N   0  0  0  0  0  0  0  0  0  0  0  0
   11.6211   36.3382   30.4682 O   0  0  0  0  0  0  0  0  0  0  0  0
   14.4797   36.3311   33.5722 C   0  0  0  0  0  0  0  0  0  0  0  0
   13.1142   37.6277   34.5682 C   0  0  0  0  0  0  0  0  0  0  0  0
   15.2073   35.6145   32.6736 N   0  0  0  0  0  0  0  0  0  0  0  0
   14.6753   36.2303   34.9178 C   0  0  0  0  0  0  0  0  0  0  0  0
   13.8217   37.0455   35.5779 N   0  0  0  0  0  0  0  0  0  0  0  0
   16.1643   34.7602   33.1552 C   0  0  0  0  0  0  0  0  0  0  0  0
   15.6516   35.3505   35.4132 C   0  0  0  0  0  0  0  0  0  0  0  0
   16.3791   34.6321   34.5047 N   0  0  0  0  0  0  0  0  0  0  0  0
   15.8989   35.1934   36.8091 N   0  0  0  0  0  0  0  0  0  0  0  0
    9.0140   45.4335   33.6735 H   0  0  0  0  0  0  0  0  0  0  0  0
   10.7291   46.9699   33.1196 H   0  0  0  0  0  0  0  0  0  0  0  0
   11.8916   45.7653   32.9444 H   0  0  0  0  0  0  0  0  0  0  0  0
    9.3437   43.8331   31.4747 H   0  0  0  0  0  0  0  0  0  0  0  0
   10.7251   44.8860   31.1573 H   0  0  0  0  0  0  0  0  0  0  0  0
    7.0132   44.7171   31.5857 H   0  0  0  0  0  0  0  0  0  0  0  0
   10.3454   47.1934   30.4191 H   0  0  0  0  0  0  0  0  0  0  0  0
    5.4691   46.2825   30.5278 H   0  0  0  0  0  0  0  0  0  0  0  0
    8.7889   48.7717   29.3489 H   0  0  0  0  0  0  0  0  0  0  0  0
    4.2500   47.9710   29.6390 H   0  0  0  0  0  0  0  0  0  0  0  0
    4.7764   50.0320   27.4344 H   0  0  0  0  0  0  0  0  0  0  0  0
    3.1637   49.3173   27.8323 H   0  0  0  0  0  0  0  0  0  0  0  0
    4.0670   50.2739   29.0656 H   0  0  0  0  0  0  0  0  0  0  0  0
    3.5930   45.8540   28.9633 H   0  0  0  0  0  0  0  0  0  0  0  0
    5.8503   46.2283   24.5347 H   0  0  0  0  0  0  0  0  0  0  0  0
    4.2806   42.0665   26.1947 H   0  0  0  0  0  0  0  0  0  0  0  0
    2.7475   42.7492   25.4729 H   0  0  0  0  0  0  0  0  0  0  0  0
   11.3873   41.5447   31.4682 H   0  0  0  0  0  0  0  0  0  0  0  0
    9.8227   40.7234   31.7644 H   0  0  0  0  0  0  0  0  0  0  0  0
   11.6968   39.5041   30.3468 H   0  0  0  0  0  0  0  0  0  0  0  0
   10.1105   38.2779   32.6629 H   0  0  0  0  0  0  0  0  0  0  0  0
   13.6634   37.4461   31.2216 H   0  0  0  0  0  0  0  0  0  0  0  0
    8.9739   37.4189   30.9514 H   0  0  0  0  0  0  0  0  0  0  0  0
   11.2827   36.3053   32.5169 H   0  0  0  0  0  0  0  0  0  0  0  0
   10.8660   35.6939   30.4646 H   0  0  0  0  0  0  0  0  0  0  0  0
   12.3283   38.3514   34.7428 H   0  0  0  0  0  0  0  0  0  0  0  0
   16.7564   34.1781   32.4632 H   0  0  0  0  0  0  0  0  0  0  0  0
   15.3528   35.7363   37.5144 H   0  0  0  0  0  0  0  0  0  0  0  0
   16.6336   34.5301   37.1410 H   0  0  0  0  0  0  0  0  0  0  0  0
  1  2  2  0
  1  3  1  0
  3  4  1  0
  4  5  1  0
  6  1  1  0
  7  6  1  0
  6  8  1  0
  8  9  1  0
  9 10  2  0
 11  9  1  0
 10 12  1  0
 13 11  2  0
 12 14  2  0
 14 13  1  0
 14 15  1  0
 15 16  1  0
 16 17  1  0
 16 18  1  0
 18 19  2  0
 20 18  1  0
 19 21  1  0
 22 20  2  0
 20 23  1  0
 21 24  1  0
 21 25  2  0
 25 22  1  0
 23 26  1  0
 23 27  2  0
 24 28  1  0
 25 29  1  0
 28 29  1  0
  4 30  2  0
  4 31  1  0
 32 31  1  0
 32 33  1  0
 33 34  1  0
 33 35  1  0
 34 36  1  0
 35 37  1  0
 35 38  1  0
 38 36  1  0
 36 39  1  0
 38 40  1  0
 41 39  1  0
 42 39  1  0
 43 41  2  0
 41 44  1  0
 45 42  2  0
 46 43  1  0
 44 47  2  0
 44 45  1  0
 48 46  2  0
 48 47  1  0
 47 49  1  0
  6 50  1  1
  7 51  1  0
  7 52  1  0
  8 53  1  0
  8 54  1  0
 10 55  1  0
 11 56  1  0
 12 57  1  0
 13 58  1  0
 16 59  1  1
 17 60  1  0
 17 61  1  0
 17 62  1  0
 19 63  1  0
 22 64  1  0
 28 65  1  0
 28 66  1  0
 32 67  1  0
 32 68  1  0
 33 69  1  0
 35 70  1  0
 36 71  1  0
 37 72  1  0
 38 73  1  0
 40 74  1  0
 42 75  1  0
 46 76  1  0
 49 77  1  0
 49 78  1  0
M  CHG  3   5  -1  23   1  26  -1
M  END
>  <EmbedRMS>  (349) 
0.0826314889736

$$$$

     RDKit          3D

 78 83  0  0  0  0  0  0  0  0999 V2000
   10.2838   43.7626   33.8272 C   0  0  0  0  0  0  0  0  0  0  0  0
   11.4102   43.5864   34.3765 O   0  0  0  0  0  0  0  0  0  0  0  0
    9.3632   42.7234   33.7350 O   0  0  0  0  0  0  0  0  0  0  0  0
    9.8898   41.2247   34.2939 P   0  0  0  0  0  0  0  0  0  0  0  0
   10.3724   41.4545   35.8836 O   0  0  0  0  0  0  0  0  0  0  0  0
    9.9547   45.0699   33.2059 C   0  0  1  0  0  0  0  0  0  0  0  0
   11.0196   46.0481   33.4565 N   0  0  0  0  0  0  0  0  0  0  0  0
    9.7500   44.8510   31.6916 C   0  0  0  0  0  0  0  0  0  0  0  0
    8.7940   45.8418   31.0861 C   0  0  0  0  0  0  0  0  0  0  0  0
    7.4059   45.6011   31.1017 C   0  0  0  0  0  0  0  0  0  0  0  0
    9.2831   46.9913   30.4452 C   0  0  0  0  0  0  0  0  0  0  0  0
    6.5256   46.5028   30.4877 C   0  0  0  0  0  0  0  0  0  0  0  0
    8.4012   47.8918   29.8352 C   0  0  0  0  0  0  0  0  0  0  0  0
    7.0223   47.6458   29.8429 C   0  0  0  0  0  0  0  0  0  0  0  0
    6.1501   48.5535   29.2361 O   0  0  0  0  0  0  0  0  0  0  0  0
    5.5898   48.3707   27.9320 C   0  0  1  0  0  0  0  0  0  0  0  0
    6.6440   48.5926   26.8399 C   0  0  0  0  0  0  0  0  0  0  0  0
    4.7844   47.0754   27.8398 C   0  0  0  0  0  0  0  0  0  0  0  0
    3.4675   47.1139   28.3626 C   0  0  0  0  0  0  0  0  0  0  0  0
    5.2707   45.8390   27.2876 C   0  0  0  0  0  0  0  0  0  0  0  0
    2.6859   45.9681   28.2981 C   0  0  0  0  0  0  0  0  0  0  0  0
    4.4260   44.7089   27.2388 C   0  0  0  0  0  0  0  0  0  0  0  0
    6.6030   45.6962   26.7916 N   0  0  0  0  0  0  0  0  0  0  0  0
    1.3888   45.7872   28.7382 O   0  0  0  0  0  0  0  0  0  0  0  0
    3.1438   44.8173   27.7567 C   0  0  0  0  0  0  0  0  0  0  0  0
    7.6365   45.5120   27.6790 O   0  0  0  0  0  0  0  0  0  0  0  0
    6.7817   45.4151   25.5890 O   0  0  0  0  0  0  0  0  0  0  0  0
    1.0097   44.4338   28.4528 C   0  0  0  0  0  0  0  0  0  0  0  0
    2.1599   43.8499   27.8261 O   0  0  0  0  0  0  0  0  0  0  0  0
    8.8118   40.1831   34.2121 O   0  0  0  0  0  0  0  0  0  0  0  0
   11.2412   40.7934   33.3696 O   0  0  0  0  0  0  0  0  0  0  0  0
   10.9178   40.6902   31.9970 C   0  0  0  0  0  0  0  0  0  0  0  0
   11.5181   39.3813   31.4407 C   0  0  0  0  0  0  0  0  0  0  0  0
   12.7497   39.0870   32.0745 O   0  0  0  0  0  0  0  0  0  0  0  0
   10.6045   38.1891   31.6655 C   0  0  0  0  0  0  0  0  0  0  0  0
   12.9344   37.6801   32.0290 C   0  0  0  0  0  0  0  0  0  0  0  0
    9.6418   38.0758   30.6440 O   0  0  0  0  0  0  0  0  0  0  0  0
   11.5741   37.0169   31.7045 C   0  0  0  0  0  0  0  0  0  0  0  0
   13.4851   37.2125   33.3241 N   0  0  0  0  0  0  0  0  0  0  0  0
   11.6079   36.3407   30.4679 O   0  0  0  0  0  0  0  0  0  0  0  0
   14.4801   36.3321   33.5727 C   0  0  0  0  0  0  0  0  0  0  0  0
   13.1140   37.6277   34.5692 C   0  0  0  0  0  0  0  0  0  0  0  0
   15.2073   35.6155   32.6739 N   0  0  0  0  0  0  0  0  0  0  0  0
   14.6758   36.2306   34.9182 C   0  0  0  0  0  0  0  0  0  0  0  0
   13.8217   37.0451   35.5784 N   0  0  0  0  0  0  0  0  0  0  0  0
   16.1639   34.7602   33.1546 C   0  0  0  0  0  0  0  0  0  0  0  0
   15.6526   35.3506   35.4130 C   0  0  0  0  0  0  0  0  0  0  0  0
   16.3794   34.6316   34.5041 N   0  0  0  0  0  0  0  0  0  0  0  0
   15.9000   35.1933   36.8089 N   0  0  0  0  0  0  0  0  0  0  0  0
    9.0097   45.4348   33.6665 H   0  0  0  0  0  0  0  0  0  0  0  0
   11.9347   45.6933   33.0921 H   0  0  0  0  0  0  0  0  0  0  0  0
   11.1132   46.1991   34.4878 H   0  0  0  0  0  0  0  0  0  0  0  0
    9.3509   43.8345   31.4753 H   0  0  0  0  0  0  0  0  0  0  0  0
   10.7302   44.8929   31.1667 H   0  0  0  0  0  0  0  0  0  0  0  0
    7.0094   44.7178   31.5869 H   0  0  0  0  0  0  0  0  0  0  0  0
   10.3470   47.1922   30.4174 H   0  0  0  0  0  0  0  0  0  0  0  0
    5.4607   46.3126   30.5167 H   0  0  0  0  0  0  0  0  0  0  0  0
    8.7899   48.7768   29.3478 H   0  0  0  0  0  0  0  0  0  0  0  0
    4.8672   49.2039   27.7831 H   0  0  0  0  0  0  0  0  0  0  0  0
    6.2338   48.3246   25.8430 H   0  0  0  0  0  0  0  0  0  0  0  0
    6.9309   49.6655   26.8178 H   0  0  0  0  0  0  0  0  0  0  0  0
    7.5684   48.0163   27.0375 H   0  0  0  0  0  0  0  0  0  0  0  0
    3.0622   48.0144   28.8070 H   0  0  0  0  0  0  0  0  0  0  0  0
    4.7704   43.7698   26.8245 H   0  0  0  0  0  0  0  0  0  0  0  0
    0.1441   44.4158   27.7580 H   0  0  0  0  0  0  0  0  0  0  0  0
    0.7713   43.8953   29.3939 H   0  0  0  0  0  0  0  0  0  0  0  0
   11.3949   41.5458   31.4728 H   0  0  0  0  0  0  0  0  0  0  0  0
    9.8290   40.7386   31.7614 H   0  0  0  0  0  0  0  0  0  0  0  0
   11.6994   39.5070   30.3483 H   0  0  0  0  0  0  0  0  0  0  0  0
   10.1090   38.2634   32.6632 H   0  0  0  0  0  0  0  0  0  0  0  0
   13.6662   37.4514   31.2224 H   0  0  0  0  0  0  0  0  0  0  0  0
    8.9010   38.6926   30.8792 H   0  0  0  0  0  0  0  0  0  0  0  0
   11.2650   36.3082   32.5086 H   0  0  0  0  0  0  0  0  0  0  0  0
   12.1372   35.5140   30.6163 H   0  0  0  0  0  0  0  0  0  0  0  0
   12.3297   38.3530   34.7449 H   0  0  0  0  0  0  0  0  0  0  0  0
   16.7558   34.1781   32.4619 H   0  0  0  0  0  0  0  0  0  0  0  0
   16.6346   34.5300   37.1414 H   0  0  0  0  0  0  0  0  0  0  0  0
   15.3533   35.7360   37.5138 H   0  0  0  0  0  0  0  0  0  0  0  0
  1  2  2  0
  1  3  1  0
  3  4  1  0
  4  5  1  0
  6  1  1  0
  7  6  1  0
  6  8  1  0
  8  9  1  0
  9 10  2  0
 11  9  1  0
 10 12  1  0
 13 11  2  0
 12 14  2  0
 14 13  1  0
 14 15  1  0
 15 16  1  0
 16 17  1  0
 16 18  1  0
 18 19  2  0
 20 18  1  0
 19 21  1  0
 22 20  2  0
 20 23  1  0
 21 24  1  0
 21 25  2  0
 25 22  1  0
 23 26  1  0
 23 27  2  0
 24 28  1  0
 25 29  1  0
 28 29  1  0
  4 30  2  0
  4 31  1  0
 32 31  1  0
 32 33  1  0
 33 34  1  0
 33 35  1  0
 34 36  1  0
 35 37  1  0
 35 38  1  0
 38 36  1  0
 36 39  1  0
 38 40  1  0
 41 39  1  0
 42 39  1  0
 43 41  2  0
 41 44  1  0
 45 42  2  0
 46 43  1  0
 44 47  2  0
 44 45  1  0
 48 46  2  0
 48 47  1  0
 47 49  1  0
  6 50  1  1
  7 51  1  0
  7 52  1  0
  8 53  1  0
  8 54  1  0
 10 55  1  0
 11 56  1  0
 12 57  1  0
 13 58  1  0
 16 59  1  6
 17 60  1  0
 17 61  1  0
 17 62  1  0
 19 63  1  0
 22 64  1  0
 28 65  1  0
 28 66  1  0
 32 67  1  0
 32 68  1  0
 33 69  1  0
 35 70  1  0
 36 71  1  0
 37 72  1  0
 38 73  1  0
 40 74  1  0
 42 75  1  0
 46 76  1  0
 49 77  1  0
 49 78  1  0
M  CHG  3   5  -1  23   1  26  -1
M  END
>  <EmbedRMS>  (350) 
0.0838393103767

$$$$

     RDKit          3D

 78 83  0  0  0  0  0  0  0  0999 V2000
   10.2832   43.7663   33.8257 C   0  0  0  0  0  0  0  0  0  0  0  0
   11.4100   43.5931   34.3751 O   0  0  0  0  0  0  0  0  0  0  0  0
    9.3634   42.7257   33.7352 O   0  0  0  0  0  0  0  0  0  0  0  0
    9.8902   41.2269   34.2941 P   0  0  0  0  0  0  0  0  0  0  0  0
   10.3739   41.4560   35.8835 O   0  0  0  0  0  0  0  0  0  0  0  0
    9.9546   45.0696   33.2032 C   0  0  1  0  0  0  0  0  0  0  0  0
   11.0271   46.0323   33.4758 N   0  0  0  0  0  0  0  0  0  0  0  0
    9.7475   44.8480   31.6872 C   0  0  0  0  0  0  0  0  0  0  0  0
    8.7930   45.8399   31.0829 C   0  0  0  0  0  0  0  0  0  0  0  0
    7.4065   45.6015   31.1001 C   0  0  0  0  0  0  0  0  0  0  0  0
    9.2816   46.9877   30.4424 C   0  0  0  0  0  0  0  0  0  0  0  0
    6.5251   46.5019   30.4868 C   0  0  0  0  0  0  0  0  0  0  0  0
    8.3999   47.8888   29.8349 C   0  0  0  0  0  0  0  0  0  0  0  0
    7.0180   47.6556   29.8425 C   0  0  0  0  0  0  0  0  0  0  0  0
    6.1864   48.6046   29.2155 O   0  0  0  0  0  0  0  0  0  0  0  0
    4.8043   48.4544   28.8494 C   0  0  1  0  0  0  0  0  0  0  0  0
    4.6055   47.1799   28.0032 C   0  0  0  0  0  0  0  0  0  0  0  0
    3.8477   48.5513   30.0414 C   0  0  0  0  0  0  0  0  0  0  0  0
    4.3566   48.7712   31.3498 C   0  0  0  0  0  0  0  0  0  0  0  0
    2.4237   48.4388   29.8704 C   0  0  0  0  0  0  0  0  0  0  0  0
    3.4729   48.7724   32.4205 C   0  0  0  0  0  0  0  0  0  0  0  0
    1.5764   48.4287   31.0008 C   0  0  0  0  0  0  0  0  0  0  0  0
    1.8195   48.3736   28.5707 N   0  0  0  0  0  0  0  0  0  0  0  0
    3.7526   48.9394   33.7633 O   0  0  0  0  0  0  0  0  0  0  0  0
    2.1435   48.5976   32.2548 C   0  0  0  0  0  0  0  0  0  0  0  0
    0.7241   47.5664   28.3671 O   0  0  0  0  0  0  0  0  0  0  0  0
    2.1140   49.2193   27.7015 O   0  0  0  0  0  0  0  0  0  0  0  0
    2.5164   48.8604   34.4858 C   0  0  0  0  0  0  0  0  0  0  0  0
    1.5139   48.6428   33.4838 O   0  0  0  0  0  0  0  0  0  0  0  0
    8.8120   40.1852   34.2131 O   0  0  0  0  0  0  0  0  0  0  0  0
   11.2401   40.7952   33.3681 O   0  0  0  0  0  0  0  0  0  0  0  0
   10.9125   40.6877   31.9968 C   0  0  0  0  0  0  0  0  0  0  0  0
   11.5169   39.3811   31.4421 C   0  0  0  0  0  0  0  0  0  0  0  0
   12.7500   39.0881   32.0759 O   0  0  0  0  0  0  0  0  0  0  0  0
   10.6043   38.1893   31.6659 C   0  0  0  0  0  0  0  0  0  0  0  0
   12.9395   37.6814   32.0280 C   0  0  0  0  0  0  0  0  0  0  0  0
    9.6353   38.0951   30.6499 O   0  0  0  0  0  0  0  0  0  0  0  0
   11.5804   37.0191   31.6934 C   0  0  0  0  0  0  0  0  0  0  0  0
   13.4851   37.2119   33.3244 N   0  0  0  0  0  0  0  0  0  0  0  0
   11.6118   36.3189   30.4673 O   0  0  0  0  0  0  0  0  0  0  0  0
   14.4801   36.3317   33.5732 C   0  0  0  0  0  0  0  0  0  0  0  0
   13.1139   37.6277   34.5692 C   0  0  0  0  0  0  0  0  0  0  0  0
   15.2076   35.6154   32.6744 N   0  0  0  0  0  0  0  0  0  0  0  0
   14.6756   36.2303   34.9186 C   0  0  0  0  0  0  0  0  0  0  0  0
   13.8215   37.0451   35.5786 N   0  0  0  0  0  0  0  0  0  0  0  0
   16.1642   34.7602   33.1551 C   0  0  0  0  0  0  0  0  0  0  0  0
   15.6526   35.3505   35.4134 C   0  0  0  0  0  0  0  0  0  0  0  0
   16.3796   34.6316   34.5045 N   0  0  0  0  0  0  0  0  0  0  0  0
   15.9000   35.1933   36.8093 N   0  0  0  0  0  0  0  0  0  0  0  0
    9.0117   45.4318   33.6705 H   0  0  0  0  0  0  0  0  0  0  0  0
   10.7258   46.9689   33.1212 H   0  0  0  0  0  0  0  0  0  0  0  0
   11.8907   45.7660   32.9476 H   0  0  0  0  0  0  0  0  0  0  0  0
    9.3431   43.8326   31.4756 H   0  0  0  0  0  0  0  0  0  0  0  0
   10.7241   44.8820   31.1557 H   0  0  0  0  0  0  0  0  0  0  0  0
    7.0101   44.7211   31.5911 H   0  0  0  0  0  0  0  0  0  0  0  0
   10.3458   47.1870   30.4117 H   0  0  0  0  0  0  0  0  0  0  0  0
    5.4672   46.3029   30.5523 H   0  0  0  0  0  0  0  0  0  0  0  0
    8.7937   48.7721   29.3482 H   0  0  0  0  0  0  0  0  0  0  0  0
    4.5796   49.3190   28.1909 H   0  0  0  0  0  0  0  0  0  0  0  0
    4.3143   46.3106   28.6268 H   0  0  0  0  0  0  0  0  0  0  0  0
    3.8158   47.3304   27.2401 H   0  0  0  0  0  0  0  0  0  0  0  0
    5.5392   46.9320   27.4550 H   0  0  0  0  0  0  0  0  0  0  0  0
    5.4060   48.9336   31.5460 H   0  0  0  0  0  0  0  0  0  0  0  0
    0.5031   48.3316   30.8997 H   0  0  0  0  0  0  0  0  0  0  0  0
    2.5402   48.0072   35.1957 H   0  0  0  0  0  0  0  0  0  0  0  0
    2.3228   49.8136   35.0209 H   0  0  0  0  0  0  0  0  0  0  0  0
   11.3808   41.5457   31.4686 H   0  0  0  0  0  0  0  0  0  0  0  0
    9.8216   40.7222   31.7646 H   0  0  0  0  0  0  0  0  0  0  0  0
   11.6986   39.5089   30.3499 H   0  0  0  0  0  0  0  0  0  0  0  0
   10.1109   38.2737   32.6630 H   0  0  0  0  0  0  0  0  0  0  0  0
   13.6783   37.4562   31.2271 H   0  0  0  0  0  0  0  0  0  0  0  0
    9.0020   37.3860   30.9348 H   0  0  0  0  0  0  0  0  0  0  0  0
   11.2807   36.3052   32.4921 H   0  0  0  0  0  0  0  0  0  0  0  0
   11.8819   36.9600   29.7584 H   0  0  0  0  0  0  0  0  0  0  0  0
   12.3303   38.3538   34.7446 H   0  0  0  0  0  0  0  0  0  0  0  0
   16.7564   34.1783   32.4623 H   0  0  0  0  0  0  0  0  0  0  0  0
   15.3532   35.7359   37.5142 H   0  0  0  0  0  0  0  0  0  0  0  0
   16.6347   34.5301   37.1418 H   0  0  0  0  0  0  0  0  0  0  0  0
  1  2  2  0
  1  3  1  0
  3  4  1  0
  4  5  1  0
  6  1  1  0
  7  6  1  0
  6  8  1  0
  8  9  1  0
  9 10  2  0
 11  9  1  0
 10 12  1  0
 13 11  2  0
 12 14  2  0
 14 13  1  0
 14 15  1  0
 15 16  1  0
 16 17  1  0
 16 18  1  0
 18 19  2  0
 20 18  1  0
 19 21  1  0
 22 20  2  0
 20 23  1  0
 21 24  1  0
 21 25  2  0
 25 22  1  0
 23 26  1  0
 23 27  2  0
 24 28  1  0
 25 29  1  0
 28 29  1  0
  4 30  2  0
  4 31  1  0
 32 31  1  0
 32 33  1  0
 33 34  1  0
 33 35  1  0
 34 36  1  0
 35 37  1  0
 35 38  1  0
 38 36  1  0
 36 39  1  0
 38 40  1  0
 41 39  1  0
 42 39  1  0
 43 41  2  0
 41 44  1  0
 45 42  2  0
 46 43  1  0
 44 47  2  0
 44 45  1  0
 48 46  2  0
 48 47  1  0
 47 49  1  0
  6 50  1  1
  7 51  1  0
  7 52  1  0
  8 53  1  0
  8 54  1  0
 10 55  1  0
 11 56  1  0
 12 57  1  0
 13 58  1  0
 16 59  1  6
 17 60  1  0
 17 61  1  0
 17 62  1  0
 19 63  1  0
 22 64  1  0
 28 65  1  0
 28 66  1  0
 32 67  1  0
 32 68  1  0
 33 69  1  0
 35 70  1  0
 36 71  1  0
 37 72  1  0
 38 73  1  0
 40 74  1  0
 42 75  1  0
 46 76  1  0
 49 77  1  0
 49 78  1  0
M  CHG  3   5  -1  23   1  26  -1
M  END
>  <EmbedRMS>  (351) 
0.0815817341021

$$$$

     RDKit          3D

 78 83  0  0  0  0  0  0  0  0999 V2000
   10.2836   43.7661   33.8255 C   0  0  0  0  0  0  0  0  0  0  0  0
   11.4102   43.5930   34.3752 O   0  0  0  0  0  0  0  0  0  0  0  0
    9.3639   42.7253   33.7346 O   0  0  0  0  0  0  0  0  0  0  0  0
    9.8906   41.2265   34.2938 P   0  0  0  0  0  0  0  0  0  0  0  0
   10.3733   41.4559   35.8835 O   0  0  0  0  0  0  0  0  0  0  0  0
    9.9548   45.0694   33.2034 C   0  0  1  0  0  0  0  0  0  0  0  0
   11.0274   46.0322   33.4758 N   0  0  0  0  0  0  0  0  0  0  0  0
    9.7470   44.8484   31.6874 C   0  0  0  0  0  0  0  0  0  0  0  0
    8.7924   45.8409   31.0844 C   0  0  0  0  0  0  0  0  0  0  0  0
    7.4057   45.6011   31.0997 C   0  0  0  0  0  0  0  0  0  0  0  0
    9.2816   46.9883   30.4426 C   0  0  0  0  0  0  0  0  0  0  0  0
    6.5244   46.5012   30.4855 C   0  0  0  0  0  0  0  0  0  0  0  0
    8.4005   47.8886   29.8329 C   0  0  0  0  0  0  0  0  0  0  0  0
    7.0191   47.6555   29.8442 C   0  0  0  0  0  0  0  0  0  0  0  0
    6.1835   48.5853   29.2033 O   0  0  0  0  0  0  0  0  0  0  0  0
    4.7659   48.4648   29.0668 C   0  0  1  0  0  0  0  0  0  0  0  0
    4.1783   49.7831   28.5645 C   0  0  0  0  0  0  0  0  0  0  0  0
    4.3672   47.3180   28.1490 C   0  0  0  0  0  0  0  0  0  0  0  0
    3.1482   46.6567   28.4351 C   0  0  0  0  0  0  0  0  0  0  0  0
    5.1757   46.8514   27.0543 C   0  0  0  0  0  0  0  0  0  0  0  0
    2.7867   45.5606   27.6641 C   0  0  0  0  0  0  0  0  0  0  0  0
    4.7608   45.7197   26.3149 C   0  0  0  0  0  0  0  0  0  0  0  0
    6.4066   47.4924   26.6850 N   0  0  0  0  0  0  0  0  0  0  0  0
    1.6590   44.7695   27.7711 O   0  0  0  0  0  0  0  0  0  0  0  0
    3.5607   45.1094   26.6515 C   0  0  0  0  0  0  0  0  0  0  0  0
    6.4474   48.8500   26.4729 O   0  0  0  0  0  0  0  0  0  0  0  0
    7.3907   46.8017   26.3489 O   0  0  0  0  0  0  0  0  0  0  0  0
    1.7316   43.7567   26.7583 C   0  0  0  0  0  0  0  0  0  0  0  0
    2.9617   44.0106   26.0662 O   0  0  0  0  0  0  0  0  0  0  0  0
    8.8126   40.1848   34.2122 O   0  0  0  0  0  0  0  0  0  0  0  0
   11.2417   40.7942   33.3694 O   0  0  0  0  0  0  0  0  0  0  0  0
   10.9179   40.6904   31.9970 C   0  0  0  0  0  0  0  0  0  0  0  0
   11.5181   39.3814   31.4408 C   0  0  0  0  0  0  0  0  0  0  0  0
   12.7497   39.0870   32.0745 O   0  0  0  0  0  0  0  0  0  0  0  0
   10.6045   38.1892   31.6655 C   0  0  0  0  0  0  0  0  0  0  0  0
   12.9344   37.6801   32.0290 C   0  0  0  0  0  0  0  0  0  0  0  0
    9.6418   38.0758   30.6441 O   0  0  0  0  0  0  0  0  0  0  0  0
   11.5741   37.0170   31.7045 C   0  0  0  0  0  0  0  0  0  0  0  0
   13.4851   37.2126   33.3241 N   0  0  0  0  0  0  0  0  0  0  0  0
   11.6078   36.3407   30.4680 O   0  0  0  0  0  0  0  0  0  0  0  0
   14.4801   36.3321   33.5727 C   0  0  0  0  0  0  0  0  0  0  0  0
   13.1140   37.6277   34.5693 C   0  0  0  0  0  0  0  0  0  0  0  0
   15.2073   35.6155   32.6739 N   0  0  0  0  0  0  0  0  0  0  0  0
   14.6758   36.2306   34.9182 C   0  0  0  0  0  0  0  0  0  0  0  0
   13.8217   37.0451   35.5785 N   0  0  0  0  0  0  0  0  0  0  0  0
   16.1639   34.7602   33.1546 C   0  0  0  0  0  0  0  0  0  0  0  0
   15.6526   35.3506   35.4130 C   0  0  0  0  0  0  0  0  0  0  0  0
   16.3794   34.6316   34.5041 N   0  0  0  0  0  0  0  0  0  0  0  0
   15.9001   35.1933   36.8089 N   0  0  0  0  0  0  0  0  0  0  0  0
    9.0121   45.4316   33.6712 H   0  0  0  0  0  0  0  0  0  0  0  0
   10.7260   46.9688   33.1214 H   0  0  0  0  0  0  0  0  0  0  0  0
   11.8908   45.7659   32.9474 H   0  0  0  0  0  0  0  0  0  0  0  0
   10.7234   44.8824   31.1555 H   0  0  0  0  0  0  0  0  0  0  0  0
    9.3424   43.8331   31.4756 H   0  0  0  0  0  0  0  0  0  0  0  0
    7.0101   44.7159   31.5823 H   0  0  0  0  0  0  0  0  0  0  0  0
   10.3459   47.1864   30.4104 H   0  0  0  0  0  0  0  0  0  0  0  0
    5.4658   46.2858   30.5154 H   0  0  0  0  0  0  0  0  0  0  0  0
    8.7938   48.7687   29.3403 H   0  0  0  0  0  0  0  0  0  0  0  0
    4.3394   48.2983   30.0817 H   0  0  0  0  0  0  0  0  0  0  0  0
    3.0684   49.7323   28.5718 H   0  0  0  0  0  0  0  0  0  0  0  0
    4.4943   50.6129   29.2317 H   0  0  0  0  0  0  0  0  0  0  0  0
    4.5136   50.0099   27.5330 H   0  0  0  0  0  0  0  0  0  0  0  0
    2.5074   46.9791   29.2463 H   0  0  0  0  0  0  0  0  0  0  0  0
    5.3498   45.3396   25.4900 H   0  0  0  0  0  0  0  0  0  0  0  0
    0.8731   43.8491   26.0605 H   0  0  0  0  0  0  0  0  0  0  0  0
    1.7548   42.7491   27.2238 H   0  0  0  0  0  0  0  0  0  0  0  0
   11.3945   41.5459   31.4722 H   0  0  0  0  0  0  0  0  0  0  0  0
    9.8290   40.7386   31.7617 H   0  0  0  0  0  0  0  0  0  0  0  0
   11.6994   39.5069   30.3484 H   0  0  0  0  0  0  0  0  0  0  0  0
   10.1090   38.2635   32.6632 H   0  0  0  0  0  0  0  0  0  0  0  0
   13.6662   37.4515   31.2224 H   0  0  0  0  0  0  0  0  0  0  0  0
    8.9010   38.6926   30.8792 H   0  0  0  0  0  0  0  0  0  0  0  0
   11.2650   36.3083   32.5087 H   0  0  0  0  0  0  0  0  0  0  0  0
   12.1371   35.5140   30.6163 H   0  0  0  0  0  0  0  0  0  0  0  0
   12.3297   38.3530   34.7450 H   0  0  0  0  0  0  0  0  0  0  0  0
   16.7558   34.1781   32.4618 H   0  0  0  0  0  0  0  0  0  0  0  0
   16.6347   34.5300   37.1414 H   0  0  0  0  0  0  0  0  0  0  0  0
   15.3533   35.7360   37.5138 H   0  0  0  0  0  0  0  0  0  0  0  0
  1  2  2  0
  1  3  1  0
  3  4  1  0
  4  5  1  0
  6  1  1  0
  7  6  1  0
  6  8  1  0
  8  9  1  0
  9 10  2  0
 11  9  1  0
 10 12  1  0
 13 11  2  0
 12 14  2  0
 14 13  1  0
 14 15  1  0
 15 16  1  0
 16 17  1  0
 16 18  1  0
 18 19  2  0
 20 18  1  0
 19 21  1  0
 22 20  2  0
 20 23  1  0
 21 24  1  0
 21 25  2  0
 25 22  1  0
 23 26  1  0
 23 27  2  0
 24 28  1  0
 25 29  1  0
 28 29  1  0
  4 30  2  0
  4 31  1  0
 32 31  1  0
 32 33  1  0
 33 34  1  0
 33 35  1  0
 34 36  1  0
 35 37  1  0
 35 38  1  0
 38 36  1  0
 36 39  1  0
 38 40  1  0
 41 39  1  0
 42 39  1  0
 43 41  2  0
 41 44  1  0
 45 42  2  0
 46 43  1  0
 44 47  2  0
 44 45  1  0
 48 46  2  0
 48 47  1  0
 47 49  1  0
  6 50  1  1
  7 51  1  0
  7 52  1  0
  8 53  1  0
  8 54  1  0
 10 55  1  0
 11 56  1  0
 12 57  1  0
 13 58  1  0
 16 59  1  1
 17 60  1  0
 17 61  1  0
 17 62  1  0
 19 63  1  0
 22 64  1  0
 28 65  1  0
 28 66  1  0
 32 67  1  0
 32 68  1  0
 33 69  1  0
 35 70  1  0
 36 71  1  0
 37 72  1  0
 38 73  1  0
 40 74  1  0
 42 75  1  0
 46 76  1  0
 49 77  1  0
 49 78  1  0
M  CHG  3   5  -1  23   1  26  -1
M  END
>  <EmbedRMS>  (352) 
0.0828255840952

$$$$

     RDKit          3D

 78 83  0  0  0  0  0  0  0  0999 V2000
   10.2809   43.7675   33.8238 C   0  0  0  0  0  0  0  0  0  0  0  0
   11.4111   43.5922   34.3662 O   0  0  0  0  0  0  0  0  0  0  0  0
    9.3617   42.7265   33.7333 O   0  0  0  0  0  0  0  0  0  0  0  0
    9.8886   41.2279   34.2944 P   0  0  0  0  0  0  0  0  0  0  0  0
   10.3714   41.4566   35.8840 O   0  0  0  0  0  0  0  0  0  0  0  0
    9.9475   45.0755   33.2101 C   0  0  1  0  0  0  0  0  0  0  0  0
   11.0280   46.0305   33.4715 N   0  0  0  0  0  0  0  0  0  0  0  0
    9.7596   44.8576   31.6935 C   0  0  0  0  0  0  0  0  0  0  0  0
    8.7995   45.8435   31.0835 C   0  0  0  0  0  0  0  0  0  0  0  0
    7.4154   45.5961   31.0994 C   0  0  0  0  0  0  0  0  0  0  0  0
    9.2806   46.9933   30.4372 C   0  0  0  0  0  0  0  0  0  0  0  0
    6.5315   46.4907   30.4835 C   0  0  0  0  0  0  0  0  0  0  0  0
    8.3937   47.8949   29.8325 C   0  0  0  0  0  0  0  0  0  0  0  0
    7.0058   47.6490   29.8537 C   0  0  0  0  0  0  0  0  0  0  0  0
    6.0538   48.5010   29.2672 O   0  0  0  0  0  0  0  0  0  0  0  0
    6.2400   49.8487   28.8163 C   0  0  1  0  0  0  0  0  0  0  0  0
    6.5807   50.7593   30.0082 C   0  0  0  0  0  0  0  0  0  0  0  0
    7.1790   49.9226   27.6113 C   0  0  0  0  0  0  0  0  0  0  0  0
    8.2234   50.8866   27.5649 C   0  0  0  0  0  0  0  0  0  0  0  0
    7.0134   49.0305   26.4945 C   0  0  0  0  0  0  0  0  0  0  0  0
    9.0582   50.9156   26.4559 C   0  0  0  0  0  0  0  0  0  0  0  0
    7.9112   49.0975   25.4022 C   0  0  0  0  0  0  0  0  0  0  0  0
    5.9565   48.0565   26.4543 N   0  0  0  0  0  0  0  0  0  0  0  0
   10.1193   51.7650   26.2042 O   0  0  0  0  0  0  0  0  0  0  0  0
    8.9115   50.0582   25.4215 C   0  0  0  0  0  0  0  0  0  0  0  0
    4.6661   48.4125   26.7784 O   0  0  0  0  0  0  0  0  0  0  0  0
    6.1554   46.9480   25.9114 O   0  0  0  0  0  0  0  0  0  0  0  0
   10.6729   51.4181   24.9266 C   0  0  0  0  0  0  0  0  0  0  0  0
    9.8726   50.3211   24.4616 O   0  0  0  0  0  0  0  0  0  0  0  0
    8.8122   40.1845   34.2133 O   0  0  0  0  0  0  0  0  0  0  0  0
   11.2396   40.7943   33.3714 O   0  0  0  0  0  0  0  0  0  0  0  0
   10.9161   40.6919   31.9990 C   0  0  0  0  0  0  0  0  0  0  0  0
   11.5282   39.3910   31.4392 C   0  0  0  0  0  0  0  0  0  0  0  0
   12.7530   39.0898   32.0841 O   0  0  0  0  0  0  0  0  0  0  0  0
   10.6120   38.1936   31.6447 C   0  0  0  0  0  0  0  0  0  0  0  0
   12.9410   37.6823   32.0301 C   0  0  0  0  0  0  0  0  0  0  0  0
    9.6064   38.0898   30.6600 O   0  0  0  0  0  0  0  0  0  0  0  0
   11.5821   37.0192   31.6878 C   0  0  0  0  0  0  0  0  0  0  0  0
   13.4822   37.2088   33.3259 N   0  0  0  0  0  0  0  0  0  0  0  0
   11.6191   36.3054   30.4699 O   0  0  0  0  0  0  0  0  0  0  0  0
   14.4793   36.3308   33.5739 C   0  0  0  0  0  0  0  0  0  0  0  0
   13.1117   37.6258   34.5707 C   0  0  0  0  0  0  0  0  0  0  0  0
   15.2068   35.6147   32.6749 N   0  0  0  0  0  0  0  0  0  0  0  0
   14.6760   36.2305   34.9187 C   0  0  0  0  0  0  0  0  0  0  0  0
   13.8215   37.0446   35.5792 N   0  0  0  0  0  0  0  0  0  0  0  0
   16.1639   34.7598   33.1554 C   0  0  0  0  0  0  0  0  0  0  0  0
   15.6526   35.3503   35.4130 C   0  0  0  0  0  0  0  0  0  0  0  0
   16.3793   34.6308   34.5046 N   0  0  0  0  0  0  0  0  0  0  0  0
   15.8987   35.1919   36.8085 N   0  0  0  0  0  0  0  0  0  0  0  0
    9.0000   45.4407   33.6688 H   0  0  0  0  0  0  0  0  0  0  0  0
   10.7789   46.9388   33.0167 H   0  0  0  0  0  0  0  0  0  0  0  0
   11.0507   46.2269   34.4992 H   0  0  0  0  0  0  0  0  0  0  0  0
   10.7479   44.9170   31.1860 H   0  0  0  0  0  0  0  0  0  0  0  0
    9.3768   43.8368   31.4666 H   0  0  0  0  0  0  0  0  0  0  0  0
    7.0251   44.7074   31.5801 H   0  0  0  0  0  0  0  0  0  0  0  0
   10.3444   47.1928   30.3958 H   0  0  0  0  0  0  0  0  0  0  0  0
    5.4691   46.2836   30.5006 H   0  0  0  0  0  0  0  0  0  0  0  0
    8.8016   48.7675   29.3471 H   0  0  0  0  0  0  0  0  0  0  0  0
    5.2509   50.2030   28.4570 H   0  0  0  0  0  0  0  0  0  0  0  0
    5.8551   50.5782   30.8295 H   0  0  0  0  0  0  0  0  0  0  0  0
    6.4998   51.8271   29.7152 H   0  0  0  0  0  0  0  0  0  0  0  0
    7.5998   50.5560   30.3971 H   0  0  0  0  0  0  0  0  0  0  0  0
    8.3987   51.5986   28.3580 H   0  0  0  0  0  0  0  0  0  0  0  0
    7.8125   48.4374   24.5499 H   0  0  0  0  0  0  0  0  0  0  0  0
   11.7313   51.1015   25.0406 H   0  0  0  0  0  0  0  0  0  0  0  0
   10.5923   52.2746   24.2261 H   0  0  0  0  0  0  0  0  0  0  0  0
   11.3815   41.5552   31.4768 H   0  0  0  0  0  0  0  0  0  0  0  0
    9.8257   40.7242   31.7636 H   0  0  0  0  0  0  0  0  0  0  0  0
   11.7331   39.5360   30.3542 H   0  0  0  0  0  0  0  0  0  0  0  0
   10.1208   38.2712   32.6403 H   0  0  0  0  0  0  0  0  0  0  0  0
   13.6848   37.4612   31.2327 H   0  0  0  0  0  0  0  0  0  0  0  0
   10.0245   38.1786   29.7652 H   0  0  0  0  0  0  0  0  0  0  0  0
   11.2751   36.3145   32.4921 H   0  0  0  0  0  0  0  0  0  0  0  0
   11.9841   36.9095   29.7712 H   0  0  0  0  0  0  0  0  0  0  0  0
   12.3277   38.3522   34.7474 H   0  0  0  0  0  0  0  0  0  0  0  0
   16.7553   34.1774   32.4633 H   0  0  0  0  0  0  0  0  0  0  0  0
   15.3531   35.7348   37.5134 H   0  0  0  0  0  0  0  0  0  0  0  0
   16.6336   34.5305   37.1424 H   0  0  0  0  0  0  0  0  0  0  0  0
  1  2  2  0
  1  3  1  0
  3  4  1  0
  4  5  1  0
  6  1  1  0
  7  6  1  0
  6  8  1  0
  8  9  1  0
  9 10  2  0
 11  9  1  0
 10 12  1  0
 13 11  2  0
 12 14  2  0
 14 13  1  0
 14 15  1  0
 15 16  1  0
 16 17  1  0
 16 18  1  0
 18 19  2  0
 20 18  1  0
 19 21  1  0
 22 20  2  0
 20 23  1  0
 21 24  1  0
 21 25  2  0
 25 22  1  0
 23 26  1  0
 23 27  2  0
 24 28  1  0
 25 29  1  0
 28 29  1  0
  4 30  2  0
  4 31  1  0
 32 31  1  0
 32 33  1  0
 33 34  1  0
 33 35  1  0
 34 36  1  0
 35 37  1  0
 35 38  1  0
 38 36  1  0
 36 39  1  0
 38 40  1  0
 41 39  1  0
 42 39  1  0
 43 41  2  0
 41 44  1  0
 45 42  2  0
 46 43  1  0
 44 47  2  0
 44 45  1  0
 48 46  2  0
 48 47  1  0
 47 49  1  0
  6 50  1  1
  7 51  1  0
  7 52  1  0
  8 53  1  0
  8 54  1  0
 10 55  1  0
 11 56  1  0
 12 57  1  0
 13 58  1  0
 16 59  1  6
 17 60  1  0
 17 61  1  0
 17 62  1  0
 19 63  1  0
 22 64  1  0
 28 65  1  0
 28 66  1  0
 32 67  1  0
 32 68  1  0
 33 69  1  0
 35 70  1  0
 36 71  1  0
 37 72  1  0
 38 73  1  0
 40 74  1  0
 42 75  1  0
 46 76  1  0
 49 77  1  0
 49 78  1  0
M  CHG  3   5  -1  23   1  26  -1
M  END
>  <EmbedRMS>  (353) 
0.0811758375785

$$$$

     RDKit          3D

 78 83  0  0  0  0  0  0  0  0999 V2000
   10.2832   43.7665   33.8257 C   0  0  0  0  0  0  0  0  0  0  0  0
   11.4101   43.5934   34.3750 O   0  0  0  0  0  0  0  0  0  0  0  0
    9.3635   42.7258   33.7352 O   0  0  0  0  0  0  0  0  0  0  0  0
    9.8900   41.2271   34.2947 P   0  0  0  0  0  0  0  0  0  0  0  0
   10.3732   41.4563   35.8841 O   0  0  0  0  0  0  0  0  0  0  0  0
    9.9542   45.0699   33.2036 C   0  0  1  0  0  0  0  0  0  0  0  0
   11.0267   46.0329   33.4757 N   0  0  0  0  0  0  0  0  0  0  0  0
    9.7462   44.8486   31.6877 C   0  0  0  0  0  0  0  0  0  0  0  0
    8.7919   45.8413   31.0845 C   0  0  0  0  0  0  0  0  0  0  0  0
    7.4039   45.6001   31.0971 C   0  0  0  0  0  0  0  0  0  0  0  0
    9.2828   46.9881   30.4402 C   0  0  0  0  0  0  0  0  0  0  0  0
    6.5246   46.5014   30.4811 C   0  0  0  0  0  0  0  0  0  0  0  0
    8.4021   47.8876   29.8285 C   0  0  0  0  0  0  0  0  0  0  0  0
    7.0203   47.6545   29.8574 C   0  0  0  0  0  0  0  0  0  0  0  0
    6.1444   48.5621   29.2545 O   0  0  0  0  0  0  0  0  0  0  0  0
    5.5809   49.6877   29.9364 C   0  0  1  0  0  0  0  0  0  0  0  0
    4.5320   49.2438   30.9660 C   0  0  0  0  0  0  0  0  0  0  0  0
    6.6682   50.5843   30.5212 C   0  0  0  0  0  0  0  0  0  0  0  0
    7.2284   50.2804   31.7898 C   0  0  0  0  0  0  0  0  0  0  0  0
    7.1500   51.7322   29.8069 C   0  0  0  0  0  0  0  0  0  0  0  0
    8.1858   51.1358   32.3173 C   0  0  0  0  0  0  0  0  0  0  0  0
    8.1115   52.5786   30.4057 C   0  0  0  0  0  0  0  0  0  0  0  0
    6.7109   52.0246   28.4706 N   0  0  0  0  0  0  0  0  0  0  0  0
    8.8526   51.0380   33.5234 O   0  0  0  0  0  0  0  0  0  0  0  0
    8.6029   52.2402   31.6585 C   0  0  0  0  0  0  0  0  0  0  0  0
    6.6784   51.0283   27.5221 O   0  0  0  0  0  0  0  0  0  0  0  0
    6.5740   53.2099   28.1036 O   0  0  0  0  0  0  0  0  0  0  0  0
    9.7451   52.1556   33.6271 C   0  0  0  0  0  0  0  0  0  0  0  0
    9.5538   52.8979   32.4150 O   0  0  0  0  0  0  0  0  0  0  0  0
    8.8121   40.1851   34.2133 O   0  0  0  0  0  0  0  0  0  0  0  0
   11.2403   40.7947   33.3700 O   0  0  0  0  0  0  0  0  0  0  0  0
   10.9145   40.6914   31.9982 C   0  0  0  0  0  0  0  0  0  0  0  0
   11.5270   39.3912   31.4385 C   0  0  0  0  0  0  0  0  0  0  0  0
   12.7520   39.0911   32.0836 O   0  0  0  0  0  0  0  0  0  0  0  0
   10.6113   38.1932   31.6451 C   0  0  0  0  0  0  0  0  0  0  0  0
   12.9413   37.6838   32.0297 C   0  0  0  0  0  0  0  0  0  0  0  0
    9.6064   38.0878   30.6599 O   0  0  0  0  0  0  0  0  0  0  0  0
   11.5822   37.0198   31.6877 C   0  0  0  0  0  0  0  0  0  0  0  0
   13.4840   37.2105   33.3254 N   0  0  0  0  0  0  0  0  0  0  0  0
   11.6179   36.3072   30.4690 O   0  0  0  0  0  0  0  0  0  0  0  0
   14.4797   36.3309   33.5738 C   0  0  0  0  0  0  0  0  0  0  0  0
   13.1137   37.6269   34.5702 C   0  0  0  0  0  0  0  0  0  0  0  0
   15.2074   35.6152   32.6747 N   0  0  0  0  0  0  0  0  0  0  0  0
   14.6756   36.2298   34.9190 C   0  0  0  0  0  0  0  0  0  0  0  0
   13.8217   37.0446   35.5793 N   0  0  0  0  0  0  0  0  0  0  0  0
   16.1643   34.7603   33.1551 C   0  0  0  0  0  0  0  0  0  0  0  0
   15.6528   35.3503   35.4136 C   0  0  0  0  0  0  0  0  0  0  0  0
   16.3798   34.6316   34.5046 N   0  0  0  0  0  0  0  0  0  0  0  0
   15.9004   35.1931   36.8094 N   0  0  0  0  0  0  0  0  0  0  0  0
    9.0115   45.4321   33.6714 H   0  0  0  0  0  0  0  0  0  0  0  0
   10.7245   46.9697   33.1224 H   0  0  0  0  0  0  0  0  0  0  0  0
   11.8898   45.7674   32.9464 H   0  0  0  0  0  0  0  0  0  0  0  0
    9.3411   43.8335   31.4763 H   0  0  0  0  0  0  0  0  0  0  0  0
   10.7226   44.8821   31.1558 H   0  0  0  0  0  0  0  0  0  0  0  0
    7.0071   44.7139   31.5768 H   0  0  0  0  0  0  0  0  0  0  0  0
   10.3471   47.1856   30.4079 H   0  0  0  0  0  0  0  0  0  0  0  0
    5.4601   46.3059   30.4929 H   0  0  0  0  0  0  0  0  0  0  0  0
    8.7921   48.7700   29.3373 H   0  0  0  0  0  0  0  0  0  0  0  0
    5.0038   50.2686   29.1879 H   0  0  0  0  0  0  0  0  0  0  0  0
    4.1194   50.1283   31.4966 H   0  0  0  0  0  0  0  0  0  0  0  0
    3.6980   48.7261   30.4463 H   0  0  0  0  0  0  0  0  0  0  0  0
    4.9554   48.5404   31.7105 H   0  0  0  0  0  0  0  0  0  0  0  0
    6.9379   49.4048   32.3526 H   0  0  0  0  0  0  0  0  0  0  0  0
    8.4906   53.4531   29.8927 H   0  0  0  0  0  0  0  0  0  0  0  0
    9.4780   52.7803   34.5051 H   0  0  0  0  0  0  0  0  0  0  0  0
   10.7953   51.8029   33.6987 H   0  0  0  0  0  0  0  0  0  0  0  0
   11.3777   41.5549   31.4744 H   0  0  0  0  0  0  0  0  0  0  0  0
    9.8235   40.7202   31.7654 H   0  0  0  0  0  0  0  0  0  0  0  0
   11.7311   39.5363   30.3532 H   0  0  0  0  0  0  0  0  0  0  0  0
   10.1202   38.2696   32.6410 H   0  0  0  0  0  0  0  0  0  0  0  0
   13.6850   37.4639   31.2321 H   0  0  0  0  0  0  0  0  0  0  0  0
   10.0251   38.1793   29.7654 H   0  0  0  0  0  0  0  0  0  0  0  0
   11.2757   36.3135   32.4908 H   0  0  0  0  0  0  0  0  0  0  0  0
   11.9838   36.9111   29.7708 H   0  0  0  0  0  0  0  0  0  0  0  0
   12.3307   38.3537   34.7457 H   0  0  0  0  0  0  0  0  0  0  0  0
   16.7565   34.1786   32.4623 H   0  0  0  0  0  0  0  0  0  0  0  0
   15.3535   35.7355   37.5144 H   0  0  0  0  0  0  0  0  0  0  0  0
   16.6353   34.5301   37.1419 H   0  0  0  0  0  0  0  0  0  0  0  0
  1  2  2  0
  1  3  1  0
  3  4  1  0
  4  5  1  0
  6  1  1  0
  7  6  1  0
  6  8  1  0
  8  9  1  0
  9 10  2  0
 11  9  1  0
 10 12  1  0
 13 11  2  0
 12 14  2  0
 14 13  1  0
 14 15  1  0
 15 16  1  0
 16 17  1  0
 16 18  1  0
 18 19  2  0
 20 18  1  0
 19 21  1  0
 22 20  2  0
 20 23  1  0
 21 24  1  0
 21 25  2  0
 25 22  1  0
 23 26  1  0
 23 27  2  0
 24 28  1  0
 25 29  1  0
 28 29  1  0
  4 30  2  0
  4 31  1  0
 32 31  1  0
 32 33  1  0
 33 34  1  0
 33 35  1  0
 34 36  1  0
 35 37  1  0
 35 38  1  0
 38 36  1  0
 36 39  1  0
 38 40  1  0
 41 39  1  0
 42 39  1  0
 43 41  2  0
 41 44  1  0
 45 42  2  0
 46 43  1  0
 44 47  2  0
 44 45  1  0
 48 46  2  0
 48 47  1  0
 47 49  1  0
  6 50  1  1
  7 51  1  0
  7 52  1  0
  8 53  1  0
  8 54  1  0
 10 55  1  0
 11 56  1  0
 12 57  1  0
 13 58  1  0
 16 59  1  6
 17 60  1  0
 17 61  1  0
 17 62  1  0
 19 63  1  0
 22 64  1  0
 28 65  1  0
 28 66  1  0
 32 67  1  0
 32 68  1  0
 33 69  1  0
 35 70  1  0
 36 71  1  0
 37 72  1  0
 38 73  1  0
 40 74  1  0
 42 75  1  0
 46 76  1  0
 49 77  1  0
 49 78  1  0
M  CHG  3   5  -1  23   1  26  -1
M  END
>  <EmbedRMS>  (354) 
0.0809424971239

$$$$

     RDKit          3D

 78 83  0  0  0  0  0  0  0  0999 V2000
   10.2844   43.7657   33.8257 C   0  0  0  0  0  0  0  0  0  0  0  0
   11.4112   43.5920   34.3751 O   0  0  0  0  0  0  0  0  0  0  0  0
    9.3634   42.7261   33.7360 O   0  0  0  0  0  0  0  0  0  0  0  0
    9.8898   41.2273   34.2946 P   0  0  0  0  0  0  0  0  0  0  0  0
   10.3735   41.4565   35.8839 O   0  0  0  0  0  0  0  0  0  0  0  0
    9.9560   45.0690   33.2040 C   0  0  1  0  0  0  0  0  0  0  0  0
   11.0289   46.0319   33.4764 N   0  0  0  0  0  0  0  0  0  0  0  0
    9.7469   44.8482   31.6879 C   0  0  0  0  0  0  0  0  0  0  0  0
    8.7927   45.8417   31.0856 C   0  0  0  0  0  0  0  0  0  0  0  0
    7.4058   45.6029   31.1032 C   0  0  0  0  0  0  0  0  0  0  0  0
    9.2815   46.9909   30.4465 C   0  0  0  0  0  0  0  0  0  0  0  0
    6.5250   46.5011   30.4866 C   0  0  0  0  0  0  0  0  0  0  0  0
    8.4000   47.8894   29.8344 C   0  0  0  0  0  0  0  0  0  0  0  0
    7.0195   47.6475   29.8328 C   0  0  0  0  0  0  0  0  0  0  0  0
    6.1857   48.5564   29.1608 O   0  0  0  0  0  0  0  0  0  0  0  0
    4.8145   48.3315   28.8265 C   0  0  1  0  0  0  0  0  0  0  0  0
    4.2035   49.6204   28.2752 C   0  0  0  0  0  0  0  0  0  0  0  0
    4.6655   47.1811   27.8388 C   0  0  0  0  0  0  0  0  0  0  0  0
    3.8577   46.0816   28.2227 C   0  0  0  0  0  0  0  0  0  0  0  0
    5.2700   47.1779   26.5349 C   0  0  0  0  0  0  0  0  0  0  0  0
    3.6938   45.0300   27.3312 C   0  0  0  0  0  0  0  0  0  0  0  0
    5.0491   46.0876   25.6632 C   0  0  0  0  0  0  0  0  0  0  0  0
    6.0821   48.2648   26.0695 N   0  0  0  0  0  0  0  0  0  0  0  0
    2.9710   43.8651   27.5010 O   0  0  0  0  0  0  0  0  0  0  0  0
    4.2631   45.0335   26.1051 C   0  0  0  0  0  0  0  0  0  0  0  0
    7.2409   48.5921   26.7318 O   0  0  0  0  0  0  0  0  0  0  0  0
    5.8914   48.7312   24.9278 O   0  0  0  0  0  0  0  0  0  0  0  0
    3.0983   43.0871   26.3033 C   0  0  0  0  0  0  0  0  0  0  0  0
    3.9291   43.8717   25.4369 O   0  0  0  0  0  0  0  0  0  0  0  0
    8.8119   40.1858   34.2134 O   0  0  0  0  0  0  0  0  0  0  0  0
   11.2396   40.7943   33.3693 O   0  0  0  0  0  0  0  0  0  0  0  0
   10.9141   40.6905   31.9973 C   0  0  0  0  0  0  0  0  0  0  0  0
   11.5246   39.3884   31.4378 C   0  0  0  0  0  0  0  0  0  0  0  0
   12.7493   39.0873   32.0801 O   0  0  0  0  0  0  0  0  0  0  0  0
   10.6088   38.1922   31.6469 C   0  0  0  0  0  0  0  0  0  0  0  0
   12.9328   37.6792   32.0294 C   0  0  0  0  0  0  0  0  0  0  0  0
    9.6122   38.0896   30.6538 O   0  0  0  0  0  0  0  0  0  0  0  0
   11.5741   37.0140   31.7020 C   0  0  0  0  0  0  0  0  0  0  0  0
   13.4840   37.2106   33.3241 N   0  0  0  0  0  0  0  0  0  0  0  0
   11.6305   36.3249   30.4728 O   0  0  0  0  0  0  0  0  0  0  0  0
   14.4796   36.3310   33.5725 C   0  0  0  0  0  0  0  0  0  0  0  0
   13.1141   37.6270   34.5694 C   0  0  0  0  0  0  0  0  0  0  0  0
   15.2073   35.6152   32.6738 N   0  0  0  0  0  0  0  0  0  0  0  0
   14.6758   36.2299   34.9179 C   0  0  0  0  0  0  0  0  0  0  0  0
   13.8226   37.0450   35.5784 N   0  0  0  0  0  0  0  0  0  0  0  0
   16.1647   34.7608   33.1543 C   0  0  0  0  0  0  0  0  0  0  0  0
   15.6529   35.3506   35.4127 C   0  0  0  0  0  0  0  0  0  0  0  0
   16.3802   34.6321   34.5038 N   0  0  0  0  0  0  0  0  0  0  0  0
   15.8996   35.1934   36.8085 N   0  0  0  0  0  0  0  0  0  0  0  0
    9.0133   45.4301   33.6724 H   0  0  0  0  0  0  0  0  0  0  0  0
   11.8920   45.7675   32.9467 H   0  0  0  0  0  0  0  0  0  0  0  0
   10.7280   46.9683   33.1216 H   0  0  0  0  0  0  0  0  0  0  0  0
   10.7229   44.8803   31.1550 H   0  0  0  0  0  0  0  0  0  0  0  0
    9.3395   43.8336   31.4764 H   0  0  0  0  0  0  0  0  0  0  0  0
    7.0090   44.7203   31.5904 H   0  0  0  0  0  0  0  0  0  0  0  0
   10.3454   47.1910   30.4170 H   0  0  0  0  0  0  0  0  0  0  0  0
    5.4671   46.2924   30.5298 H   0  0  0  0  0  0  0  0  0  0  0  0
    8.7937   48.7690   29.3410 H   0  0  0  0  0  0  0  0  0  0  0  0
    4.2600   48.1094   29.7655 H   0  0  0  0  0  0  0  0  0  0  0  0
    3.1653   49.4345   27.9195 H   0  0  0  0  0  0  0  0  0  0  0  0
    4.8080   50.0334   27.4407 H   0  0  0  0  0  0  0  0  0  0  0  0
    4.1643   50.3858   29.0816 H   0  0  0  0  0  0  0  0  0  0  0  0
    3.3676   46.0450   29.1878 H   0  0  0  0  0  0  0  0  0  0  0  0
    5.4895   46.0598   24.6755 H   0  0  0  0  0  0  0  0  0  0  0  0
    2.1015   42.9309   25.8399 H   0  0  0  0  0  0  0  0  0  0  0  0
    3.5896   42.1152   26.5263 H   0  0  0  0  0  0  0  0  0  0  0  0
    9.8234   40.7223   31.7628 H   0  0  0  0  0  0  0  0  0  0  0  0
   11.3792   41.5531   31.4741 H   0  0  0  0  0  0  0  0  0  0  0  0
   11.7266   39.5308   30.3516 H   0  0  0  0  0  0  0  0  0  0  0  0
   10.1105   38.2734   32.6387 H   0  0  0  0  0  0  0  0  0  0  0  0
   13.6655   37.4533   31.2228 H   0  0  0  0  0  0  0  0  0  0  0  0
   10.0515   38.1149   29.7642 H   0  0  0  0  0  0  0  0  0  0  0  0
   11.2764   36.3124   32.5179 H   0  0  0  0  0  0  0  0  0  0  0  0
   10.8611   35.6978   30.4615 H   0  0  0  0  0  0  0  0  0  0  0  0
   12.3300   38.3522   34.7456 H   0  0  0  0  0  0  0  0  0  0  0  0
   16.7567   34.1793   32.4613 H   0  0  0  0  0  0  0  0  0  0  0  0
   16.6339   34.5305   37.1423 H   0  0  0  0  0  0  0  0  0  0  0  0
   15.3521   35.7372   37.5120 H   0  0  0  0  0  0  0  0  0  0  0  0
  1  2  2  0
  1  3  1  0
  3  4  1  0
  4  5  1  0
  6  1  1  0
  7  6  1  0
  6  8  1  0
  8  9  1  0
  9 10  2  0
 11  9  1  0
 10 12  1  0
 13 11  2  0
 12 14  2  0
 14 13  1  0
 14 15  1  0
 15 16  1  0
 16 17  1  0
 16 18  1  0
 18 19  2  0
 20 18  1  0
 19 21  1  0
 22 20  2  0
 20 23  1  0
 21 24  1  0
 21 25  2  0
 25 22  1  0
 23 26  1  0
 23 27  2  0
 24 28  1  0
 25 29  1  0
 28 29  1  0
  4 30  2  0
  4 31  1  0
 32 31  1  0
 32 33  1  0
 33 34  1  0
 33 35  1  0
 34 36  1  0
 35 37  1  0
 35 38  1  0
 38 36  1  0
 36 39  1  0
 38 40  1  0
 41 39  1  0
 42 39  1  0
 43 41  2  0
 41 44  1  0
 45 42  2  0
 46 43  1  0
 44 47  2  0
 44 45  1  0
 48 46  2  0
 48 47  1  0
 47 49  1  0
  6 50  1  1
  7 51  1  0
  7 52  1  0
  8 53  1  0
  8 54  1  0
 10 55  1  0
 11 56  1  0
 12 57  1  0
 13 58  1  0
 16 59  1  1
 17 60  1  0
 17 61  1  0
 17 62  1  0
 19 63  1  0
 22 64  1  0
 28 65  1  0
 28 66  1  0
 32 67  1  0
 32 68  1  0
 33 69  1  0
 35 70  1  0
 36 71  1  0
 37 72  1  0
 38 73  1  0
 40 74  1  0
 42 75  1  0
 46 76  1  0
 49 77  1  0
 49 78  1  0
M  CHG  3   5  -1  23   1  26  -1
M  END
>  <EmbedRMS>  (355) 
0.0817445066996

$$$$

     RDKit          3D

 78 83  0  0  0  0  0  0  0  0999 V2000
   10.2794   43.7666   33.8254 C   0  0  0  0  0  0  0  0  0  0  0  0
   11.4100   43.5926   34.3675 O   0  0  0  0  0  0  0  0  0  0  0  0
    9.3614   42.7246   33.7345 O   0  0  0  0  0  0  0  0  0  0  0  0
    9.8904   41.2263   34.2932 P   0  0  0  0  0  0  0  0  0  0  0  0
   10.3727   41.4566   35.8829 O   0  0  0  0  0  0  0  0  0  0  0  0
    9.9449   45.0735   33.2107 C   0  0  1  0  0  0  0  0  0  0  0  0
   11.0255   46.0292   33.4704 N   0  0  0  0  0  0  0  0  0  0  0  0
    9.7540   44.8527   31.6943 C   0  0  0  0  0  0  0  0  0  0  0  0
    8.7964   45.8394   31.0823 C   0  0  0  0  0  0  0  0  0  0  0  0
    7.4095   45.6009   31.1015 C   0  0  0  0  0  0  0  0  0  0  0  0
    9.2834   46.9855   30.4368 C   0  0  0  0  0  0  0  0  0  0  0  0
    6.5261   46.5032   30.4923 C   0  0  0  0  0  0  0  0  0  0  0  0
    8.4002   47.8859   29.8303 C   0  0  0  0  0  0  0  0  0  0  0  0
    7.0178   47.6573   29.8473 C   0  0  0  0  0  0  0  0  0  0  0  0
    6.1868   48.6183   29.2377 O   0  0  0  0  0  0  0  0  0  0  0  0
    4.7838   48.5135   28.9429 C   0  0  1  0  0  0  0  0  0  0  0  0
    4.4991   47.2505   28.1047 C   0  0  0  0  0  0  0  0  0  0  0  0
    3.8908   48.6431   30.1810 C   0  0  0  0  0  0  0  0  0  0  0  0
    4.4714   48.8355   31.4641 C   0  0  0  0  0  0  0  0  0  0  0  0
    2.4564   48.5977   30.0788 C   0  0  0  0  0  0  0  0  0  0  0  0
    3.6411   48.8806   32.5756 C   0  0  0  0  0  0  0  0  0  0  0  0
    1.6648   48.6302   31.2487 C   0  0  0  0  0  0  0  0  0  0  0  0
    1.7866   48.5593   28.8099 N   0  0  0  0  0  0  0  0  0  0  0  0
    3.9922   49.0349   33.9029 O   0  0  0  0  0  0  0  0  0  0  0  0
    2.2985   48.7734   32.4736 C   0  0  0  0  0  0  0  0  0  0  0  0
    0.6449   47.8060   28.6638 O   0  0  0  0  0  0  0  0  0  0  0  0
    2.0755   49.3905   27.9252 O   0  0  0  0  0  0  0  0  0  0  0  0
    2.7894   49.0216   34.6834 C   0  0  0  0  0  0  0  0  0  0  0  0
    1.7310   48.8533   33.7308 O   0  0  0  0  0  0  0  0  0  0  0  0
    8.8131   40.1835   34.2118 O   0  0  0  0  0  0  0  0  0  0  0  0
   11.2423   40.7953   33.3690 O   0  0  0  0  0  0  0  0  0  0  0  0
   10.9184   40.6909   31.9966 C   0  0  0  0  0  0  0  0  0  0  0  0
   11.5169   39.3812   31.4405 C   0  0  0  0  0  0  0  0  0  0  0  0
   12.7490   39.0855   32.0726 O   0  0  0  0  0  0  0  0  0  0  0  0
   10.6025   38.1902   31.6665 C   0  0  0  0  0  0  0  0  0  0  0  0
   12.9319   37.6781   32.0281 C   0  0  0  0  0  0  0  0  0  0  0  0
    9.6390   38.0790   30.6457 O   0  0  0  0  0  0  0  0  0  0  0  0
   11.5720   37.0163   31.7052 C   0  0  0  0  0  0  0  0  0  0  0  0
   13.4847   37.2121   33.3237 N   0  0  0  0  0  0  0  0  0  0  0  0
   11.6191   36.3382   30.4689 O   0  0  0  0  0  0  0  0  0  0  0  0
   14.4804   36.3322   33.5725 C   0  0  0  0  0  0  0  0  0  0  0  0
   13.1137   37.6276   34.5689 C   0  0  0  0  0  0  0  0  0  0  0  0
   15.2080   35.6157   32.6740 N   0  0  0  0  0  0  0  0  0  0  0  0
   14.6759   36.2307   34.9181 C   0  0  0  0  0  0  0  0  0  0  0  0
   13.8214   37.0449   35.5782 N   0  0  0  0  0  0  0  0  0  0  0  0
   16.1643   34.7601   33.1548 C   0  0  0  0  0  0  0  0  0  0  0  0
   15.6529   35.3511   35.4131 C   0  0  0  0  0  0  0  0  0  0  0  0
   16.3797   34.6318   34.5044 N   0  0  0  0  0  0  0  0  0  0  0  0
   15.8997   35.1933   36.8090 N   0  0  0  0  0  0  0  0  0  0  0  0
    8.9982   45.4386   33.6706 H   0  0  0  0  0  0  0  0  0  0  0  0
   11.0491   46.2280   34.4978 H   0  0  0  0  0  0  0  0  0  0  0  0
   10.7761   46.9369   33.0148 H   0  0  0  0  0  0  0  0  0  0  0  0
   10.7416   44.9053   31.1835 H   0  0  0  0  0  0  0  0  0  0  0  0
    9.3638   43.8338   31.4717 H   0  0  0  0  0  0  0  0  0  0  0  0
    7.0148   44.7211   31.5945 H   0  0  0  0  0  0  0  0  0  0  0  0
   10.3479   47.1850   30.4018 H   0  0  0  0  0  0  0  0  0  0  0  0
    5.4685   46.3093   30.5703 H   0  0  0  0  0  0  0  0  0  0  0  0
    8.7928   48.7689   29.3419 H   0  0  0  0  0  0  0  0  0  0  0  0
    4.5566   49.3868   28.2961 H   0  0  0  0  0  0  0  0  0  0  0  0
    4.2190   46.3846   28.7371 H   0  0  0  0  0  0  0  0  0  0  0  0
    5.3914   46.9820   27.4998 H   0  0  0  0  0  0  0  0  0  0  0  0
    3.6699   47.4275   27.3910 H   0  0  0  0  0  0  0  0  0  0  0  0
    5.5348   48.9512   31.6110 H   0  0  0  0  0  0  0  0  0  0  0  0
    0.5839   48.5858   31.1994 H   0  0  0  0  0  0  0  0  0  0  0  0
    2.8035   48.1703   35.3955 H   0  0  0  0  0  0  0  0  0  0  0  0
    2.6709   49.9853   35.2222 H   0  0  0  0  0  0  0  0  0  0  0  0
   11.3958   41.5459   31.4719 H   0  0  0  0  0  0  0  0  0  0  0  0
    9.8295   40.7405   31.7611 H   0  0  0  0  0  0  0  0  0  0  0  0
   11.6969   39.5065   30.3477 H   0  0  0  0  0  0  0  0  0  0  0  0
   10.1083   38.2641   32.6648 H   0  0  0  0  0  0  0  0  0  0  0  0
   13.6622   37.4465   31.2212 H   0  0  0  0  0  0  0  0  0  0  0  0
    8.8990   38.6955   30.8839 H   0  0  0  0  0  0  0  0  0  0  0  0
   11.2819   36.3069   32.5166 H   0  0  0  0  0  0  0  0  0  0  0  0
   10.8495   35.7111   30.4584 H   0  0  0  0  0  0  0  0  0  0  0  0
   12.3286   38.3521   34.7446 H   0  0  0  0  0  0  0  0  0  0  0  0
   16.7563   34.1780   32.4618 H   0  0  0  0  0  0  0  0  0  0  0  0
   16.6343   34.5302   37.1417 H   0  0  0  0  0  0  0  0  0  0  0  0
   15.3527   35.7361   37.5135 H   0  0  0  0  0  0  0  0  0  0  0  0
  1  2  2  0
  1  3  1  0
  3  4  1  0
  4  5  1  0
  6  1  1  0
  7  6  1  0
  6  8  1  0
  8  9  1  0
  9 10  2  0
 11  9  1  0
 10 12  1  0
 13 11  2  0
 12 14  2  0
 14 13  1  0
 14 15  1  0
 15 16  1  0
 16 17  1  0
 16 18  1  0
 18 19  2  0
 20 18  1  0
 19 21  1  0
 22 20  2  0
 20 23  1  0
 21 24  1  0
 21 25  2  0
 25 22  1  0
 23 26  1  0
 23 27  2  0
 24 28  1  0
 25 29  1  0
 28 29  1  0
  4 30  2  0
  4 31  1  0
 32 31  1  0
 32 33  1  0
 33 34  1  0
 33 35  1  0
 34 36  1  0
 35 37  1  0
 35 38  1  0
 38 36  1  0
 36 39  1  0
 38 40  1  0
 41 39  1  0
 42 39  1  0
 43 41  2  0
 41 44  1  0
 45 42  2  0
 46 43  1  0
 44 47  2  0
 44 45  1  0
 48 46  2  0
 48 47  1  0
 47 49  1  0
  6 50  1  1
  7 51  1  0
  7 52  1  0
  8 53  1  0
  8 54  1  0
 10 55  1  0
 11 56  1  0
 12 57  1  0
 13 58  1  0
 16 59  1  6
 17 60  1  0
 17 61  1  0
 17 62  1  0
 19 63  1  0
 22 64  1  0
 28 65  1  0
 28 66  1  0
 32 67  1  0
 32 68  1  0
 33 69  1  0
 35 70  1  0
 36 71  1  0
 37 72  1  0
 38 73  1  0
 40 74  1  0
 42 75  1  0
 46 76  1  0
 49 77  1  0
 49 78  1  0
M  CHG  3   5  -1  23   1  26  -1
M  END
>  <EmbedRMS>  (356) 
0.0827569200626

$$$$

     RDKit          3D

 78 83  0  0  0  0  0  0  0  0999 V2000
   10.2803   43.7665   33.8251 C   0  0  0  0  0  0  0  0  0  0  0  0
   11.4111   43.5919   34.3666 O   0  0  0  0  0  0  0  0  0  0  0  0
    9.3617   42.7251   33.7349 O   0  0  0  0  0  0  0  0  0  0  0  0
    9.8896   41.2269   34.2946 P   0  0  0  0  0  0  0  0  0  0  0  0
   10.3732   41.4568   35.8838 O   0  0  0  0  0  0  0  0  0  0  0  0
    9.9458   45.0737   33.2113 C   0  0  1  0  0  0  0  0  0  0  0  0
   11.0266   46.0293   33.4706 N   0  0  0  0  0  0  0  0  0  0  0  0
    9.7534   44.8539   31.6952 C   0  0  0  0  0  0  0  0  0  0  0  0
    8.7954   45.8412   31.0852 C   0  0  0  0  0  0  0  0  0  0  0  0
    7.4088   45.6001   31.1000 C   0  0  0  0  0  0  0  0  0  0  0  0
    9.2828   46.9872   30.4394 C   0  0  0  0  0  0  0  0  0  0  0  0
    6.5285   46.5004   30.4841 C   0  0  0  0  0  0  0  0  0  0  0  0
    8.4024   47.8883   29.8293 C   0  0  0  0  0  0  0  0  0  0  0  0
    7.0134   47.6531   29.8506 C   0  0  0  0  0  0  0  0  0  0  0  0
    6.0839   48.5251   29.2602 O   0  0  0  0  0  0  0  0  0  0  0  0
    6.3807   49.8083   28.7082 C   0  0  1  0  0  0  0  0  0  0  0  0
    5.1722   50.3185   27.9225 C   0  0  0  0  0  0  0  0  0  0  0  0
    6.7903   50.7998   29.7894 C   0  0  0  0  0  0  0  0  0  0  0  0
    8.0399   51.4527   29.6471 C   0  0  0  0  0  0  0  0  0  0  0  0
    5.9485   51.1432   30.9035 C   0  0  0  0  0  0  0  0  0  0  0  0
    8.4094   52.4000   30.5924 C   0  0  0  0  0  0  0  0  0  0  0  0
    6.3719   52.1277   31.8236 C   0  0  0  0  0  0  0  0  0  0  0  0
    4.6635   50.5396   31.1049 N   0  0  0  0  0  0  0  0  0  0  0  0
    9.5698   53.1477   30.6506 O   0  0  0  0  0  0  0  0  0  0  0  0
    7.6104   52.7243   31.6337 C   0  0  0  0  0  0  0  0  0  0  0  0
    3.5887   51.3339   31.4306 O   0  0  0  0  0  0  0  0  0  0  0  0
    4.5682   49.3065   31.2648 O   0  0  0  0  0  0  0  0  0  0  0  0
    9.4929   53.9944   31.8056 C   0  0  0  0  0  0  0  0  0  0  0  0
    8.2251   53.6925   32.4041 O   0  0  0  0  0  0  0  0  0  0  0  0
    8.8122   40.1844   34.2135 O   0  0  0  0  0  0  0  0  0  0  0  0
   11.2401   40.7950   33.3698 O   0  0  0  0  0  0  0  0  0  0  0  0
   10.9143   40.6914   31.9981 C   0  0  0  0  0  0  0  0  0  0  0  0
   11.5269   39.3912   31.4385 C   0  0  0  0  0  0  0  0  0  0  0  0
   12.7519   39.0911   32.0837 O   0  0  0  0  0  0  0  0  0  0  0  0
   10.6113   38.1932   31.6451 C   0  0  0  0  0  0  0  0  0  0  0  0
   12.9413   37.6838   32.0297 C   0  0  0  0  0  0  0  0  0  0  0  0
    9.6064   38.0877   30.6599 O   0  0  0  0  0  0  0  0  0  0  0  0
   11.5822   37.0197   31.6877 C   0  0  0  0  0  0  0  0  0  0  0  0
   13.4840   37.2104   33.3254 N   0  0  0  0  0  0  0  0  0  0  0  0
   11.6179   36.3072   30.4690 O   0  0  0  0  0  0  0  0  0  0  0  0
   14.4797   36.3309   33.5738 C   0  0  0  0  0  0  0  0  0  0  0  0
   13.1136   37.6269   34.5702 C   0  0  0  0  0  0  0  0  0  0  0  0
   15.2074   35.6152   32.6747 N   0  0  0  0  0  0  0  0  0  0  0  0
   14.6756   36.2298   34.9190 C   0  0  0  0  0  0  0  0  0  0  0  0
   13.8217   37.0445   35.5793 N   0  0  0  0  0  0  0  0  0  0  0  0
   16.1643   34.7603   33.1551 C   0  0  0  0  0  0  0  0  0  0  0  0
   15.6528   35.3503   35.4136 C   0  0  0  0  0  0  0  0  0  0  0  0
   16.3798   34.6316   34.5046 N   0  0  0  0  0  0  0  0  0  0  0  0
   15.9004   35.1930   36.8094 N   0  0  0  0  0  0  0  0  0  0  0  0
    8.9995   45.4383   33.6725 H   0  0  0  0  0  0  0  0  0  0  0  0
   11.0503   46.2280   34.4979 H   0  0  0  0  0  0  0  0  0  0  0  0
   10.7763   46.9369   33.0155 H   0  0  0  0  0  0  0  0  0  0  0  0
    9.3633   43.8353   31.4718 H   0  0  0  0  0  0  0  0  0  0  0  0
   10.7405   44.9069   31.1836 H   0  0  0  0  0  0  0  0  0  0  0  0
    7.0130   44.7156   31.5838 H   0  0  0  0  0  0  0  0  0  0  0  0
   10.3473   47.1841   30.4033 H   0  0  0  0  0  0  0  0  0  0  0  0
    5.4641   46.3039   30.5046 H   0  0  0  0  0  0  0  0  0  0  0  0
    8.8170   48.7537   29.3355 H   0  0  0  0  0  0  0  0  0  0  0  0
    7.1975   49.6868   27.9621 H   0  0  0  0  0  0  0  0  0  0  0  0
    4.2651   50.3652   28.5581 H   0  0  0  0  0  0  0  0  0  0  0  0
    5.3807   51.3297   27.5117 H   0  0  0  0  0  0  0  0  0  0  0  0
    4.9633   49.6324   27.0744 H   0  0  0  0  0  0  0  0  0  0  0  0
    8.7024   51.2386   28.8181 H   0  0  0  0  0  0  0  0  0  0  0  0
    5.7561   52.4092   32.6682 H   0  0  0  0  0  0  0  0  0  0  0  0
   10.3162   53.7569   32.5115 H   0  0  0  0  0  0  0  0  0  0  0  0
    9.5290   55.0618   31.5023 H   0  0  0  0  0  0  0  0  0  0  0  0
   11.3775   41.5548   31.4741 H   0  0  0  0  0  0  0  0  0  0  0  0
    9.8233   40.7201   31.7652 H   0  0  0  0  0  0  0  0  0  0  0  0
   11.7312   39.5362   30.3532 H   0  0  0  0  0  0  0  0  0  0  0  0
   10.1203   38.2696   32.6410 H   0  0  0  0  0  0  0  0  0  0  0  0
   13.6850   37.4639   31.2321 H   0  0  0  0  0  0  0  0  0  0  0  0
   10.0251   38.1792   29.7654 H   0  0  0  0  0  0  0  0  0  0  0  0
   11.2757   36.3135   32.4907 H   0  0  0  0  0  0  0  0  0  0  0  0
   11.9839   36.9111   29.7709 H   0  0  0  0  0  0  0  0  0  0  0  0
   12.3307   38.3536   34.7458 H   0  0  0  0  0  0  0  0  0  0  0  0
   16.7566   34.1787   32.4623 H   0  0  0  0  0  0  0  0  0  0  0  0
   15.3535   35.7355   37.5144 H   0  0  0  0  0  0  0  0  0  0  0  0
   16.6353   34.5301   37.1419 H   0  0  0  0  0  0  0  0  0  0  0  0
  1  2  2  0
  1  3  1  0
  3  4  1  0
  4  5  1  0
  6  1  1  0
  7  6  1  0
  6  8  1  0
  8  9  1  0
  9 10  2  0
 11  9  1  0
 10 12  1  0
 13 11  2  0
 12 14  2  0
 14 13  1  0
 14 15  1  0
 15 16  1  0
 16 17  1  0
 16 18  1  0
 18 19  2  0
 20 18  1  0
 19 21  1  0
 22 20  2  0
 20 23  1  0
 21 24  1  0
 21 25  2  0
 25 22  1  0
 23 26  1  0
 23 27  2  0
 24 28  1  0
 25 29  1  0
 28 29  1  0
  4 30  2  0
  4 31  1  0
 32 31  1  0
 32 33  1  0
 33 34  1  0
 33 35  1  0
 34 36  1  0
 35 37  1  0
 35 38  1  0
 38 36  1  0
 36 39  1  0
 38 40  1  0
 41 39  1  0
 42 39  1  0
 43 41  2  0
 41 44  1  0
 45 42  2  0
 46 43  1  0
 44 47  2  0
 44 45  1  0
 48 46  2  0
 48 47  1  0
 47 49  1  0
  6 50  1  1
  7 51  1  0
  7 52  1  0
  8 53  1  0
  8 54  1  0
 10 55  1  0
 11 56  1  0
 12 57  1  0
 13 58  1  0
 16 59  1  6
 17 60  1  0
 17 61  1  0
 17 62  1  0
 19 63  1  0
 22 64  1  0
 28 65  1  0
 28 66  1  0
 32 67  1  0
 32 68  1  0
 33 69  1  0
 35 70  1  0
 36 71  1  0
 37 72  1  0
 38 73  1  0
 40 74  1  0
 42 75  1  0
 46 76  1  0
 49 77  1  0
 49 78  1  0
M  CHG  3   5  -1  23   1  26  -1
M  END
>  <EmbedRMS>  (357) 
0.0806536181833

$$$$

     RDKit          3D

 78 83  0  0  0  0  0  0  0  0999 V2000
   10.2804   43.7664   33.8249 C   0  0  0  0  0  0  0  0  0  0  0  0
   11.4111   43.5918   34.3666 O   0  0  0  0  0  0  0  0  0  0  0  0
    9.3619   42.7249   33.7344 O   0  0  0  0  0  0  0  0  0  0  0  0
    9.8899   41.2266   34.2940 P   0  0  0  0  0  0  0  0  0  0  0  0
   10.3734   41.4567   35.8833 O   0  0  0  0  0  0  0  0  0  0  0  0
    9.9460   45.0736   33.2111 C   0  0  1  0  0  0  0  0  0  0  0  0
   11.0267   46.0292   33.4708 N   0  0  0  0  0  0  0  0  0  0  0  0
    9.7540   44.8541   31.6947 C   0  0  0  0  0  0  0  0  0  0  0  0
    8.7957   45.8410   31.0846 C   0  0  0  0  0  0  0  0  0  0  0  0
    7.4089   45.6002   31.1016 C   0  0  0  0  0  0  0  0  0  0  0  0
    9.2823   46.9882   30.4399 C   0  0  0  0  0  0  0  0  0  0  0  0
    6.5259   46.4994   30.4877 C   0  0  0  0  0  0  0  0  0  0  0  0
    8.3996   47.8878   29.8315 C   0  0  0  0  0  0  0  0  0  0  0  0
    7.0185   47.6537   29.8447 C   0  0  0  0  0  0  0  0  0  0  0  0
    6.1805   48.5853   29.2101 O   0  0  0  0  0  0  0  0  0  0  0  0
    4.7643   48.4540   29.0584 C   0  0  1  0  0  0  0  0  0  0  0  0
    4.2037   49.7702   28.5228 C   0  0  0  0  0  0  0  0  0  0  0  0
    4.4318   47.3206   28.1023 C   0  0  0  0  0  0  0  0  0  0  0  0
    5.1931   47.1928   26.9145 C   0  0  0  0  0  0  0  0  0  0  0  0
    3.4140   46.3511   28.3905 C   0  0  0  0  0  0  0  0  0  0  0  0
    4.9528   46.1047   26.0862 C   0  0  0  0  0  0  0  0  0  0  0  0
    3.2267   45.2554   27.5180 C   0  0  0  0  0  0  0  0  0  0  0  0
    2.5621   46.4663   29.5409 N   0  0  0  0  0  0  0  0  0  0  0  0
    5.5771   45.7747   24.8987 O   0  0  0  0  0  0  0  0  0  0  0  0
    4.0153   45.1741   26.3780 C   0  0  0  0  0  0  0  0  0  0  0  0
    2.1471   45.3321   30.1997 O   0  0  0  0  0  0  0  0  0  0  0  0
    2.0084   47.5529   29.8063 O   0  0  0  0  0  0  0  0  0  0  0  0
    4.9917   44.5583   24.4145 C   0  0  0  0  0  0  0  0  0  0  0  0
    3.9988   44.2096   25.3888 O   0  0  0  0  0  0  0  0  0  0  0  0
    8.8123   40.1844   34.2133 O   0  0  0  0  0  0  0  0  0  0  0  0
   11.2405   40.7942   33.3691 O   0  0  0  0  0  0  0  0  0  0  0  0
   10.9150   40.6905   31.9972 C   0  0  0  0  0  0  0  0  0  0  0  0
   11.5252   39.3886   31.4375 C   0  0  0  0  0  0  0  0  0  0  0  0
   12.7499   39.0874   32.0799 O   0  0  0  0  0  0  0  0  0  0  0  0
   10.6092   38.1926   31.6469 C   0  0  0  0  0  0  0  0  0  0  0  0
   12.9332   37.6793   32.0294 C   0  0  0  0  0  0  0  0  0  0  0  0
    9.6122   38.0894   30.6542 O   0  0  0  0  0  0  0  0  0  0  0  0
   11.5743   37.0145   31.7024 C   0  0  0  0  0  0  0  0  0  0  0  0
   13.4844   37.2108   33.3241 N   0  0  0  0  0  0  0  0  0  0  0  0
   11.6298   36.3239   30.4740 O   0  0  0  0  0  0  0  0  0  0  0  0
   14.4802   36.3313   33.5727 C   0  0  0  0  0  0  0  0  0  0  0  0
   13.1139   37.6267   34.5692 C   0  0  0  0  0  0  0  0  0  0  0  0
   15.2075   35.6149   32.6739 N   0  0  0  0  0  0  0  0  0  0  0  0
   14.6761   36.2303   34.9182 C   0  0  0  0  0  0  0  0  0  0  0  0
   13.8220   37.0447   35.5785 N   0  0  0  0  0  0  0  0  0  0  0  0
   16.1643   34.7600   33.1547 C   0  0  0  0  0  0  0  0  0  0  0  0
   15.6529   35.3505   35.4131 C   0  0  0  0  0  0  0  0  0  0  0  0
   16.3798   34.6315   34.5042 N   0  0  0  0  0  0  0  0  0  0  0  0
   15.9002   35.1932   36.8090 N   0  0  0  0  0  0  0  0  0  0  0  0
    8.9995   45.4381   33.6720 H   0  0  0  0  0  0  0  0  0  0  0  0
   10.7765   46.9368   33.0158 H   0  0  0  0  0  0  0  0  0  0  0  0
   11.0502   46.2277   34.4982 H   0  0  0  0  0  0  0  0  0  0  0  0
    9.3646   43.8354   31.4709 H   0  0  0  0  0  0  0  0  0  0  0  0
   10.7412   44.9079   31.1834 H   0  0  0  0  0  0  0  0  0  0  0  0
    7.0147   44.7161   31.5875 H   0  0  0  0  0  0  0  0  0  0  0  0
   10.3462   47.1881   30.4057 H   0  0  0  0  0  0  0  0  0  0  0  0
    5.4675   46.2859   30.5242 H   0  0  0  0  0  0  0  0  0  0  0  0
    8.7917   48.7689   29.3396 H   0  0  0  0  0  0  0  0  0  0  0  0
    4.3251   48.2879   30.0635 H   0  0  0  0  0  0  0  0  0  0  0  0
    4.4221   50.5898   29.2397 H   0  0  0  0  0  0  0  0  0  0  0  0
    4.6657   50.0235   27.5446 H   0  0  0  0  0  0  0  0  0  0  0  0
    3.1026   49.6982   28.3949 H   0  0  0  0  0  0  0  0  0  0  0  0
    5.9648   47.9073   26.6571 H   0  0  0  0  0  0  0  0  0  0  0  0
    2.4718   44.5040   27.7104 H   0  0  0  0  0  0  0  0  0  0  0  0
    4.5156   44.7281   23.4261 H   0  0  0  0  0  0  0  0  0  0  0  0
    5.7615   43.7609   24.3496 H   0  0  0  0  0  0  0  0  0  0  0  0
   11.3800   41.5528   31.4730 H   0  0  0  0  0  0  0  0  0  0  0  0
    9.8241   40.7215   31.7641 H   0  0  0  0  0  0  0  0  0  0  0  0
   11.7266   39.5310   30.3512 H   0  0  0  0  0  0  0  0  0  0  0  0
   10.1110   38.2747   32.6387 H   0  0  0  0  0  0  0  0  0  0  0  0
   13.6652   37.4520   31.2226 H   0  0  0  0  0  0  0  0  0  0  0  0
   10.0511   38.1143   29.7645 H   0  0  0  0  0  0  0  0  0  0  0  0
   11.2762   36.3141   32.5189 H   0  0  0  0  0  0  0  0  0  0  0  0
   10.8593   35.6978   30.4639 H   0  0  0  0  0  0  0  0  0  0  0  0
   12.3295   38.3518   34.7449 H   0  0  0  0  0  0  0  0  0  0  0  0
   16.7564   34.1780   32.4620 H   0  0  0  0  0  0  0  0  0  0  0  0
   15.3534   35.7359   37.5138 H   0  0  0  0  0  0  0  0  0  0  0  0
   16.6348   34.5300   37.1416 H   0  0  0  0  0  0  0  0  0  0  0  0
  1  2  2  0
  1  3  1  0
  3  4  1  0
  4  5  1  0
  6  1  1  0
  7  6  1  0
  6  8  1  0
  8  9  1  0
  9 10  2  0
 11  9  1  0
 10 12  1  0
 13 11  2  0
 12 14  2  0
 14 13  1  0
 14 15  1  0
 15 16  1  0
 16 17  1  0
 16 18  1  0
 18 19  2  0
 20 18  1  0
 19 21  1  0
 22 20  2  0
 20 23  1  0
 21 24  1  0
 21 25  2  0
 25 22  1  0
 23 26  1  0
 23 27  2  0
 24 28  1  0
 25 29  1  0
 28 29  1  0
  4 30  2  0
  4 31  1  0
 32 31  1  0
 32 33  1  0
 33 34  1  0
 33 35  1  0
 34 36  1  0
 35 37  1  0
 35 38  1  0
 38 36  1  0
 36 39  1  0
 38 40  1  0
 41 39  1  0
 42 39  1  0
 43 41  2  0
 41 44  1  0
 45 42  2  0
 46 43  1  0
 44 47  2  0
 44 45  1  0
 48 46  2  0
 48 47  1  0
 47 49  1  0
  6 50  1  1
  7 51  1  0
  7 52  1  0
  8 53  1  0
  8 54  1  0
 10 55  1  0
 11 56  1  0
 12 57  1  0
 13 58  1  0
 16 59  1  1
 17 60  1  0
 17 61  1  0
 17 62  1  0
 19 63  1  0
 22 64  1  0
 28 65  1  0
 28 66  1  0
 32 67  1  0
 32 68  1  0
 33 69  1  0
 35 70  1  0
 36 71  1  0
 37 72  1  0
 38 73  1  0
 40 74  1  0
 42 75  1  0
 46 76  1  0
 49 77  1  0
 49 78  1  0
M  CHG  3   5  -1  23   1  26  -1
M  END
>  <EmbedRMS>  (358) 
0.0816365530633

$$$$

     RDKit          3D

 78 83  0  0  0  0  0  0  0  0999 V2000
   10.2836   43.7661   33.8257 C   0  0  0  0  0  0  0  0  0  0  0  0
   11.4103   43.5929   34.3753 O   0  0  0  0  0  0  0  0  0  0  0  0
    9.3638   42.7255   33.7349 O   0  0  0  0  0  0  0  0  0  0  0  0
    9.8907   41.2265   34.2933 P   0  0  0  0  0  0  0  0  0  0  0  0
   10.3743   41.4556   35.8828 O   0  0  0  0  0  0  0  0  0  0  0  0
    9.9548   45.0695   33.2038 C   0  0  1  0  0  0  0  0  0  0  0  0
   11.0275   46.0321   33.4757 N   0  0  0  0  0  0  0  0  0  0  0  0
    9.7464   44.8482   31.6880 C   0  0  0  0  0  0  0  0  0  0  0  0
    8.7922   45.8415   31.0858 C   0  0  0  0  0  0  0  0  0  0  0  0
    7.4059   45.6014   31.0985 C   0  0  0  0  0  0  0  0  0  0  0  0
    9.2820   46.9869   30.4416 C   0  0  0  0  0  0  0  0  0  0  0  0
    6.5277   46.5022   30.4816 C   0  0  0  0  0  0  0  0  0  0  0  0
    8.4031   47.8884   29.8302 C   0  0  0  0  0  0  0  0  0  0  0  0
    7.0127   47.6559   29.8500 C   0  0  0  0  0  0  0  0  0  0  0  0
    6.0768   48.5199   29.2478 O   0  0  0  0  0  0  0  0  0  0  0  0
    6.2892   49.8707   28.8041 C   0  0  1  0  0  0  0  0  0  0  0  0
    6.8945   50.7221   29.9391 C   0  0  0  0  0  0  0  0  0  0  0  0
    7.0694   49.9603   27.4895 C   0  0  0  0  0  0  0  0  0  0  0  0
    7.4929   48.7758   26.8285 C   0  0  0  0  0  0  0  0  0  0  0  0
    7.3768   51.2287   26.8860 C   0  0  0  0  0  0  0  0  0  0  0  0
    8.2643   48.8891   25.6799 C   0  0  0  0  0  0  0  0  0  0  0  0
    8.1812   51.2810   25.7248 C   0  0  0  0  0  0  0  0  0  0  0  0
    6.8510   52.4581   27.4066 N   0  0  0  0  0  0  0  0  0  0  0  0
    8.7976   47.8795   24.9018 O   0  0  0  0  0  0  0  0  0  0  0  0
    8.6027   50.0882   25.1573 C   0  0  0  0  0  0  0  0  0  0  0  0
    5.5009   52.5841   27.6377 O   0  0  0  0  0  0  0  0  0  0  0  0
    7.5639   53.4827   27.4249 O   0  0  0  0  0  0  0  0  0  0  0  0
    9.5203   48.4875   23.8226 C   0  0  0  0  0  0  0  0  0  0  0  0
    9.3689   49.8993   24.0233 O   0  0  0  0  0  0  0  0  0  0  0  0
    8.8123   40.1850   34.2127 O   0  0  0  0  0  0  0  0  0  0  0  0
   11.2407   40.7945   33.3670 O   0  0  0  0  0  0  0  0  0  0  0  0
   10.9134   40.6866   31.9954 C   0  0  0  0  0  0  0  0  0  0  0  0
   11.5167   39.3787   31.4404 C   0  0  0  0  0  0  0  0  0  0  0  0
   12.7486   39.0849   32.0734 O   0  0  0  0  0  0  0  0  0  0  0  0
   10.6039   38.1884   31.6669 C   0  0  0  0  0  0  0  0  0  0  0  0
   12.9329   37.6776   32.0284 C   0  0  0  0  0  0  0  0  0  0  0  0
    9.6374   38.0938   30.6484 O   0  0  0  0  0  0  0  0  0  0  0  0
   11.5737   37.0141   31.7055 C   0  0  0  0  0  0  0  0  0  0  0  0
   13.4853   37.2120   33.3238 N   0  0  0  0  0  0  0  0  0  0  0  0
   11.6210   36.3379   30.4683 O   0  0  0  0  0  0  0  0  0  0  0  0
   14.4804   36.3319   33.5726 C   0  0  0  0  0  0  0  0  0  0  0  0
   13.1141   37.6275   34.5689 C   0  0  0  0  0  0  0  0  0  0  0  0
   15.2076   35.6152   32.6740 N   0  0  0  0  0  0  0  0  0  0  0  0
   14.6761   36.2306   34.9181 C   0  0  0  0  0  0  0  0  0  0  0  0
   13.8218   37.0451   35.5783 N   0  0  0  0  0  0  0  0  0  0  0  0
   16.1642   34.7600   33.1548 C   0  0  0  0  0  0  0  0  0  0  0  0
   15.6527   35.3506   35.4131 C   0  0  0  0  0  0  0  0  0  0  0  0
   16.3795   34.6315   34.5043 N   0  0  0  0  0  0  0  0  0  0  0  0
   15.9000   35.1933   36.8090 N   0  0  0  0  0  0  0  0  0  0  0  0
    9.0123   45.4317   33.6720 H   0  0  0  0  0  0  0  0  0  0  0  0
   10.7262   46.9687   33.1211 H   0  0  0  0  0  0  0  0  0  0  0  0
   11.8907   45.7656   32.9471 H   0  0  0  0  0  0  0  0  0  0  0  0
   10.7227   44.8815   31.1558 H   0  0  0  0  0  0  0  0  0  0  0  0
    9.3410   43.8332   31.4765 H   0  0  0  0  0  0  0  0  0  0  0  0
    7.0086   44.7160   31.5793 H   0  0  0  0  0  0  0  0  0  0  0  0
   10.3472   47.1791   30.4026 H   0  0  0  0  0  0  0  0  0  0  0  0
    5.4634   46.3040   30.4979 H   0  0  0  0  0  0  0  0  0  0  0  0
    8.8229   48.7394   29.3176 H   0  0  0  0  0  0  0  0  0  0  0  0
    5.2764   50.2754   28.6001 H   0  0  0  0  0  0  0  0  0  0  0  0
    8.0017   50.7513   29.8888 H   0  0  0  0  0  0  0  0  0  0  0  0
    6.5239   51.7656   29.8918 H   0  0  0  0  0  0  0  0  0  0  0  0
    6.5905   50.3175   30.9278 H   0  0  0  0  0  0  0  0  0  0  0  0
    7.2411   47.7885   27.1867 H   0  0  0  0  0  0  0  0  0  0  0  0
    8.4367   52.2238   25.2582 H   0  0  0  0  0  0  0  0  0  0  0  0
   10.5931   48.2063   23.8721 H   0  0  0  0  0  0  0  0  0  0  0  0
    9.0788   48.1893   22.8486 H   0  0  0  0  0  0  0  0  0  0  0  0
    9.8225   40.7225   31.7631 H   0  0  0  0  0  0  0  0  0  0  0  0
   11.3828   41.5438   31.4669 H   0  0  0  0  0  0  0  0  0  0  0  0
   11.6978   39.5037   30.3478 H   0  0  0  0  0  0  0  0  0  0  0  0
   10.1084   38.2787   32.6627 H   0  0  0  0  0  0  0  0  0  0  0  0
   13.6638   37.4472   31.2214 H   0  0  0  0  0  0  0  0  0  0  0  0
    8.9763   37.4191   30.9532 H   0  0  0  0  0  0  0  0  0  0  0  0
   11.2821   36.3054   32.5171 H   0  0  0  0  0  0  0  0  0  0  0  0
   10.8658   35.6935   30.4652 H   0  0  0  0  0  0  0  0  0  0  0  0
   12.3293   38.3523   34.7445 H   0  0  0  0  0  0  0  0  0  0  0  0
   16.7561   34.1778   32.4621 H   0  0  0  0  0  0  0  0  0  0  0  0
   16.6345   34.5300   37.1416 H   0  0  0  0  0  0  0  0  0  0  0  0
   15.3533   35.7361   37.5138 H   0  0  0  0  0  0  0  0  0  0  0  0
  1  2  2  0
  1  3  1  0
  3  4  1  0
  4  5  1  0
  6  1  1  0
  7  6  1  0
  6  8  1  0
  8  9  1  0
  9 10  2  0
 11  9  1  0
 10 12  1  0
 13 11  2  0
 12 14  2  0
 14 13  1  0
 14 15  1  0
 15 16  1  0
 16 17  1  0
 16 18  1  0
 18 19  2  0
 20 18  1  0
 19 21  1  0
 22 20  2  0
 20 23  1  0
 21 24  1  0
 21 25  2  0
 25 22  1  0
 23 26  1  0
 23 27  2  0
 24 28  1  0
 25 29  1  0
 28 29  1  0
  4 30  2  0
  4 31  1  0
 32 31  1  0
 32 33  1  0
 33 34  1  0
 33 35  1  0
 34 36  1  0
 35 37  1  0
 35 38  1  0
 38 36  1  0
 36 39  1  0
 38 40  1  0
 41 39  1  0
 42 39  1  0
 43 41  2  0
 41 44  1  0
 45 42  2  0
 46 43  1  0
 44 47  2  0
 44 45  1  0
 48 46  2  0
 48 47  1  0
 47 49  1  0
  6 50  1  1
  7 51  1  0
  7 52  1  0
  8 53  1  0
  8 54  1  0
 10 55  1  0
 11 56  1  0
 12 57  1  0
 13 58  1  0
 16 59  1  6
 17 60  1  0
 17 61  1  0
 17 62  1  0
 19 63  1  0
 22 64  1  0
 28 65  1  0
 28 66  1  0
 32 67  1  0
 32 68  1  0
 33 69  1  0
 35 70  1  0
 36 71  1  0
 37 72  1  0
 38 73  1  0
 40 74  1  0
 42 75  1  0
 46 76  1  0
 49 77  1  0
 49 78  1  0
M  CHG  3   5  -1  23   1  26  -1
M  END
>  <EmbedRMS>  (359) 
0.0825384209907

$$$$

     RDKit          3D

 78 83  0  0  0  0  0  0  0  0999 V2000
   10.2857   43.7627   33.8255 C   0  0  0  0  0  0  0  0  0  0  0  0
   11.4113   43.5879   34.3768 O   0  0  0  0  0  0  0  0  0  0  0  0
    9.3642   42.7236   33.7349 O   0  0  0  0  0  0  0  0  0  0  0  0
    9.8898   41.2254   34.2957 P   0  0  0  0  0  0  0  0  0  0  0  0
   10.3727   41.4565   35.8855 O   0  0  0  0  0  0  0  0  0  0  0  0
    9.9563   45.0704   33.2046 C   0  0  1  0  0  0  0  0  0  0  0  0
   11.0199   46.0495   33.4568 N   0  0  0  0  0  0  0  0  0  0  0  0
    9.7511   44.8523   31.6911 C   0  0  0  0  0  0  0  0  0  0  0  0
    8.7943   45.8433   31.0874 C   0  0  0  0  0  0  0  0  0  0  0  0
    7.4076   45.5978   31.0972 C   0  0  0  0  0  0  0  0  0  0  0  0
    9.2815   46.9957   30.4518 C   0  0  0  0  0  0  0  0  0  0  0  0
    6.5268   46.4951   30.4782 C   0  0  0  0  0  0  0  0  0  0  0  0
    8.3987   47.8959   29.8431 C   0  0  0  0  0  0  0  0  0  0  0  0
    7.0196   47.6482   29.8397 C   0  0  0  0  0  0  0  0  0  0  0  0
    6.1719   48.5745   29.2133 O   0  0  0  0  0  0  0  0  0  0  0  0
    5.2124   48.2561   28.1941 C   0  0  1  0  0  0  0  0  0  0  0  0
    5.9222   47.5641   27.0154 C   0  0  0  0  0  0  0  0  0  0  0  0
    4.0029   47.5162   28.7697 C   0  0  0  0  0  0  0  0  0  0  0  0
    3.5836   46.2659   28.2332 C   0  0  0  0  0  0  0  0  0  0  0  0
    3.2963   48.0515   29.9045 C   0  0  0  0  0  0  0  0  0  0  0  0
    2.5254   45.5991   28.8385 C   0  0  0  0  0  0  0  0  0  0  0  0
    2.2391   47.3139   30.4879 C   0  0  0  0  0  0  0  0  0  0  0  0
    3.6574   49.3124   30.4970 N   0  0  0  0  0  0  0  0  0  0  0  0
    1.9674   44.3825   28.4911 O   0  0  0  0  0  0  0  0  0  0  0  0
    1.8855   46.0969   29.9204 C   0  0  0  0  0  0  0  0  0  0  0  0
    3.5853   49.4738   31.8600 O   0  0  0  0  0  0  0  0  0  0  0  0
    3.8508   50.3179   29.7829 O   0  0  0  0  0  0  0  0  0  0  0  0
    0.9094   44.0985   29.4176 C   0  0  0  0  0  0  0  0  0  0  0  0
    0.8925   45.2182   30.3159 O   0  0  0  0  0  0  0  0  0  0  0  0
    8.8123   40.1827   34.2155 O   0  0  0  0  0  0  0  0  0  0  0  0
   11.2407   40.7966   33.3687 O   0  0  0  0  0  0  0  0  0  0  0  0
   10.9156   40.6908   31.9963 C   0  0  0  0  0  0  0  0  0  0  0  0
   11.5168   39.3810   31.4407 C   0  0  0  0  0  0  0  0  0  0  0  0
   12.7482   39.0868   32.0756 O   0  0  0  0  0  0  0  0  0  0  0  0
   10.6041   38.1876   31.6638 C   0  0  0  0  0  0  0  0  0  0  0  0
   12.9344   37.6800   32.0291 C   0  0  0  0  0  0  0  0  0  0  0  0
    9.6405   38.0731   30.6436 O   0  0  0  0  0  0  0  0  0  0  0  0
   11.5742   37.0161   31.7042 C   0  0  0  0  0  0  0  0  0  0  0  0
   13.4862   37.2125   33.3239 N   0  0  0  0  0  0  0  0  0  0  0  0
   11.6088   36.3408   30.4677 O   0  0  0  0  0  0  0  0  0  0  0  0
   14.4804   36.3317   33.5732 C   0  0  0  0  0  0  0  0  0  0  0  0
   13.1150   37.6278   34.5682 C   0  0  0  0  0  0  0  0  0  0  0  0
   15.2062   35.6144   32.6747 N   0  0  0  0  0  0  0  0  0  0  0  0
   14.6753   36.2292   34.9187 C   0  0  0  0  0  0  0  0  0  0  0  0
   13.8205   37.0437   35.5785 N   0  0  0  0  0  0  0  0  0  0  0  0
   16.1624   34.7589   33.1548 C   0  0  0  0  0  0  0  0  0  0  0  0
   15.6536   35.3500   35.4131 C   0  0  0  0  0  0  0  0  0  0  0  0
   16.3801   34.6314   34.5040 N   0  0  0  0  0  0  0  0  0  0  0  0
   15.9024   35.1926   36.8083 N   0  0  0  0  0  0  0  0  0  0  0  0
    9.0104   45.4350   33.6625 H   0  0  0  0  0  0  0  0  0  0  0  0
   11.1114   46.2029   34.4882 H   0  0  0  0  0  0  0  0  0  0  0  0
   11.9359   45.6946   33.0948 H   0  0  0  0  0  0  0  0  0  0  0  0
   10.7315   44.8895   31.1649 H   0  0  0  0  0  0  0  0  0  0  0  0
    9.3451   43.8384   31.4780 H   0  0  0  0  0  0  0  0  0  0  0  0
    7.0108   44.7128   31.5822 H   0  0  0  0  0  0  0  0  0  0  0  0
   10.3446   47.2011   30.4287 H   0  0  0  0  0  0  0  0  0  0  0  0
    5.4691   46.2932   30.5280 H   0  0  0  0  0  0  0  0  0  0  0  0
    8.7888   48.7842   29.3607 H   0  0  0  0  0  0  0  0  0  0  0  0
    4.8357   49.2189   27.7852 H   0  0  0  0  0  0  0  0  0  0  0  0
    6.3110   46.5659   27.3142 H   0  0  0  0  0  0  0  0  0  0  0  0
    5.2270   47.4521   26.1548 H   0  0  0  0  0  0  0  0  0  0  0  0
    6.7821   48.1873   26.6809 H   0  0  0  0  0  0  0  0  0  0  0  0
    4.0612   45.8038   27.3810 H   0  0  0  0  0  0  0  0  0  0  0  0
    1.7025   47.6847   31.3534 H   0  0  0  0  0  0  0  0  0  0  0  0
    1.1271   43.1598   29.9697 H   0  0  0  0  0  0  0  0  0  0  0  0
   -0.0617   44.0229   28.8844 H   0  0  0  0  0  0  0  0  0  0  0  0
   11.3922   41.5466   31.4700 H   0  0  0  0  0  0  0  0  0  0  0  0
    9.8257   40.7360   31.7628 H   0  0  0  0  0  0  0  0  0  0  0  0
   11.6998   39.5069   30.3488 H   0  0  0  0  0  0  0  0  0  0  0  0
   10.1076   38.2620   32.6595 H   0  0  0  0  0  0  0  0  0  0  0  0
   13.6666   37.4521   31.2227 H   0  0  0  0  0  0  0  0  0  0  0  0
    8.9008   38.6901   30.8818 H   0  0  0  0  0  0  0  0  0  0  0  0
   11.2651   36.3067   32.5083 H   0  0  0  0  0  0  0  0  0  0  0  0
   12.1365   35.5140   30.6191 H   0  0  0  0  0  0  0  0  0  0  0  0
   12.3298   38.3522   34.7401 H   0  0  0  0  0  0  0  0  0  0  0  0
   16.7529   34.1777   32.4610 H   0  0  0  0  0  0  0  0  0  0  0  0
   15.3520   35.7341   37.5109 H   0  0  0  0  0  0  0  0  0  0  0  0
   16.6350   34.5265   37.1408 H   0  0  0  0  0  0  0  0  0  0  0  0
  1  2  2  0
  1  3  1  0
  3  4  1  0
  4  5  1  0
  6  1  1  0
  7  6  1  0
  6  8  1  0
  8  9  1  0
  9 10  2  0
 11  9  1  0
 10 12  1  0
 13 11  2  0
 12 14  2  0
 14 13  1  0
 14 15  1  0
 15 16  1  0
 16 17  1  0
 16 18  1  0
 18 19  2  0
 20 18  1  0
 19 21  1  0
 22 20  2  0
 20 23  1  0
 21 24  1  0
 21 25  2  0
 25 22  1  0
 23 26  1  0
 23 27  2  0
 24 28  1  0
 25 29  1  0
 28 29  1  0
  4 30  2  0
  4 31  1  0
 32 31  1  0
 32 33  1  0
 33 34  1  0
 33 35  1  0
 34 36  1  0
 35 37  1  0
 35 38  1  0
 38 36  1  0
 36 39  1  0
 38 40  1  0
 41 39  1  0
 42 39  1  0
 43 41  2  0
 41 44  1  0
 45 42  2  0
 46 43  1  0
 44 47  2  0
 44 45  1  0
 48 46  2  0
 48 47  1  0
 47 49  1  0
  6 50  1  1
  7 51  1  0
  7 52  1  0
  8 53  1  0
  8 54  1  0
 10 55  1  0
 11 56  1  0
 12 57  1  0
 13 58  1  0
 16 59  1  6
 17 60  1  0
 17 61  1  0
 17 62  1  0
 19 63  1  0
 22 64  1  0
 28 65  1  0
 28 66  1  0
 32 67  1  0
 32 68  1  0
 33 69  1  0
 35 70  1  0
 36 71  1  0
 37 72  1  0
 38 73  1  0
 40 74  1  0
 42 75  1  0
 46 76  1  0
 49 77  1  0
 49 78  1  0
M  CHG  3   5  -1  23   1  26  -1
M  END
>  <EmbedRMS>  (360) 
0.08361045815

$$$$

     RDKit          3D

 78 83  0  0  0  0  0  0  0  0999 V2000
   10.2803   43.7667   33.8250 C   0  0  0  0  0  0  0  0  0  0  0  0
   11.4110   43.5923   34.3666 O   0  0  0  0  0  0  0  0  0  0  0  0
    9.3619   42.7251   33.7347 O   0  0  0  0  0  0  0  0  0  0  0  0
    9.8900   41.2268   34.2944 P   0  0  0  0  0  0  0  0  0  0  0  0
   10.3728   41.4568   35.8838 O   0  0  0  0  0  0  0  0  0  0  0  0
    9.9454   45.0740   33.2114 C   0  0  1  0  0  0  0  0  0  0  0  0
   11.0258   46.0300   33.4708 N   0  0  0  0  0  0  0  0  0  0  0  0
    9.7532   44.8545   31.6952 C   0  0  0  0  0  0  0  0  0  0  0  0
    8.7951   45.8417   31.0852 C   0  0  0  0  0  0  0  0  0  0  0  0
    7.4074   45.5987   31.0983 C   0  0  0  0  0  0  0  0  0  0  0  0
    9.2834   46.9876   30.4374 C   0  0  0  0  0  0  0  0  0  0  0  0
    6.5261   46.4984   30.4819 C   0  0  0  0  0  0  0  0  0  0  0  0
    8.4011   47.8859   29.8265 C   0  0  0  0  0  0  0  0  0  0  0  0
    7.0198   47.6548   29.8595 C   0  0  0  0  0  0  0  0  0  0  0  0
    6.1535   48.5714   29.2551 O   0  0  0  0  0  0  0  0  0  0  0  0
    5.3705   49.5447   29.9603 C   0  0  1  0  0  0  0  0  0  0  0  0
    4.2883   48.8958   30.8312 C   0  0  0  0  0  0  0  0  0  0  0  0
    6.2509   50.5078   30.7532 C   0  0  0  0  0  0  0  0  0  0  0  0
    6.9697   50.0255   31.8782 C   0  0  0  0  0  0  0  0  0  0  0  0
    6.4305   51.8753   30.3529 C   0  0  0  0  0  0  0  0  0  0  0  0
    7.8536   50.8799   32.5225 C   0  0  0  0  0  0  0  0  0  0  0  0
    7.3550   52.6938   31.0389 C   0  0  0  0  0  0  0  0  0  0  0  0
    5.6811   52.4529   29.2756 N   0  0  0  0  0  0  0  0  0  0  0  0
    8.6603   50.6170   33.6128 O   0  0  0  0  0  0  0  0  0  0  0  0
    8.0427   52.1557   32.1173 C   0  0  0  0  0  0  0  0  0  0  0  0
    6.3163   53.2697   28.3692 O   0  0  0  0  0  0  0  0  0  0  0  0
    4.4338   52.4616   29.3234 O   0  0  0  0  0  0  0  0  0  0  0  0
    9.4031   51.8071   33.9103 C   0  0  0  0  0  0  0  0  0  0  0  0
    8.9775   52.7653   32.9318 O   0  0  0  0  0  0  0  0  0  0  0  0
    8.8127   40.1843   34.2128 O   0  0  0  0  0  0  0  0  0  0  0  0
   11.2415   40.7951   33.3705 O   0  0  0  0  0  0  0  0  0  0  0  0
   10.9178   40.6922   31.9982 C   0  0  0  0  0  0  0  0  0  0  0  0
   11.5175   39.3837   31.4423 C   0  0  0  0  0  0  0  0  0  0  0  0
   12.7507   39.0887   32.0753 O   0  0  0  0  0  0  0  0  0  0  0  0
   10.6027   38.1916   31.6659 C   0  0  0  0  0  0  0  0  0  0  0  0
   12.9384   37.6819   32.0278 C   0  0  0  0  0  0  0  0  0  0  0  0
    9.6371   38.0805   30.6470 O   0  0  0  0  0  0  0  0  0  0  0  0
   11.5780   37.0215   31.6935 C   0  0  0  0  0  0  0  0  0  0  0  0
   13.4844   37.2120   33.3242 N   0  0  0  0  0  0  0  0  0  0  0  0
   11.6095   36.3202   30.4679 O   0  0  0  0  0  0  0  0  0  0  0  0
   14.4797   36.3318   33.5730 C   0  0  0  0  0  0  0  0  0  0  0  0
   13.1135   37.6278   34.5691 C   0  0  0  0  0  0  0  0  0  0  0  0
   15.2073   35.6155   32.6742 N   0  0  0  0  0  0  0  0  0  0  0  0
   14.6754   36.2305   34.9184 C   0  0  0  0  0  0  0  0  0  0  0  0
   13.8213   37.0452   35.5785 N   0  0  0  0  0  0  0  0  0  0  0  0
   16.1640   34.7604   33.1549 C   0  0  0  0  0  0  0  0  0  0  0  0
   15.6524   35.3507   35.4132 C   0  0  0  0  0  0  0  0  0  0  0  0
   16.3794   34.6318   34.5044 N   0  0  0  0  0  0  0  0  0  0  0  0
   15.8999   35.1934   36.8091 N   0  0  0  0  0  0  0  0  0  0  0  0
    8.9989   45.4384   33.6724 H   0  0  0  0  0  0  0  0  0  0  0  0
   11.0499   46.2280   34.4983 H   0  0  0  0  0  0  0  0  0  0  0  0
   10.7744   46.9379   33.0168 H   0  0  0  0  0  0  0  0  0  0  0  0
    9.3635   43.8358   31.4716 H   0  0  0  0  0  0  0  0  0  0  0  0
   10.7404   44.9079   31.1838 H   0  0  0  0  0  0  0  0  0  0  0  0
    7.0128   44.7107   31.5765 H   0  0  0  0  0  0  0  0  0  0  0  0
   10.3473   47.1869   30.4027 H   0  0  0  0  0  0  0  0  0  0  0  0
    5.4647   46.2896   30.4839 H   0  0  0  0  0  0  0  0  0  0  0  0
    8.7891   48.7705   29.3377 H   0  0  0  0  0  0  0  0  0  0  0  0
    4.8218   50.0942   29.1738 H   0  0  0  0  0  0  0  0  0  0  0  0
    4.7249   48.3135   31.6673 H   0  0  0  0  0  0  0  0  0  0  0  0
    3.6670   48.2152   30.2115 H   0  0  0  0  0  0  0  0  0  0  0  0
    3.6287   49.6813   31.2579 H   0  0  0  0  0  0  0  0  0  0  0  0
    6.8676   49.0090   32.2318 H   0  0  0  0  0  0  0  0  0  0  0  0
    7.5137   53.7254   30.7521 H   0  0  0  0  0  0  0  0  0  0  0  0
    9.1581   52.1674   34.9314 H   0  0  0  0  0  0  0  0  0  0  0  0
   10.4919   51.6151   33.8105 H   0  0  0  0  0  0  0  0  0  0  0  0
   11.3950   41.5477   31.4741 H   0  0  0  0  0  0  0  0  0  0  0  0
    9.8290   40.7408   31.7625 H   0  0  0  0  0  0  0  0  0  0  0  0
   11.6982   39.5114   30.3500 H   0  0  0  0  0  0  0  0  0  0  0  0
   10.1117   38.2604   32.6661 H   0  0  0  0  0  0  0  0  0  0  0  0
   13.6767   37.4557   31.2267 H   0  0  0  0  0  0  0  0  0  0  0  0
    8.8960   38.6949   30.8873 H   0  0  0  0  0  0  0  0  0  0  0  0
   11.2791   36.3072   32.4922 H   0  0  0  0  0  0  0  0  0  0  0  0
   11.8828   36.9598   29.7589 H   0  0  0  0  0  0  0  0  0  0  0  0
   12.3300   38.3539   34.7446 H   0  0  0  0  0  0  0  0  0  0  0  0
   16.7561   34.1785   32.4621 H   0  0  0  0  0  0  0  0  0  0  0  0
   15.3531   35.7360   37.5140 H   0  0  0  0  0  0  0  0  0  0  0  0
   16.6347   34.5303   37.1416 H   0  0  0  0  0  0  0  0  0  0  0  0
  1  2  2  0
  1  3  1  0
  3  4  1  0
  4  5  1  0
  6  1  1  0
  7  6  1  0
  6  8  1  0
  8  9  1  0
  9 10  2  0
 11  9  1  0
 10 12  1  0
 13 11  2  0
 12 14  2  0
 14 13  1  0
 14 15  1  0
 15 16  1  0
 16 17  1  0
 16 18  1  0
 18 19  2  0
 20 18  1  0
 19 21  1  0
 22 20  2  0
 20 23  1  0
 21 24  1  0
 21 25  2  0
 25 22  1  0
 23 26  1  0
 23 27  2  0
 24 28  1  0
 25 29  1  0
 28 29  1  0
  4 30  2  0
  4 31  1  0
 32 31  1  0
 32 33  1  0
 33 34  1  0
 33 35  1  0
 34 36  1  0
 35 37  1  0
 35 38  1  0
 38 36  1  0
 36 39  1  0
 38 40  1  0
 41 39  1  0
 42 39  1  0
 43 41  2  0
 41 44  1  0
 45 42  2  0
 46 43  1  0
 44 47  2  0
 44 45  1  0
 48 46  2  0
 48 47  1  0
 47 49  1  0
  6 50  1  1
  7 51  1  0
  7 52  1  0
  8 53  1  0
  8 54  1  0
 10 55  1  0
 11 56  1  0
 12 57  1  0
 13 58  1  0
 16 59  1  6
 17 60  1  0
 17 61  1  0
 17 62  1  0
 19 63  1  0
 22 64  1  0
 28 65  1  0
 28 66  1  0
 32 67  1  0
 32 68  1  0
 33 69  1  0
 35 70  1  0
 36 71  1  0
 37 72  1  0
 38 73  1  0
 40 74  1  0
 42 75  1  0
 46 76  1  0
 49 77  1  0
 49 78  1  0
M  CHG  3   5  -1  23   1  26  -1
M  END
>  <EmbedRMS>  (361) 
0.0819154139827

$$$$

     RDKit          3D

 78 83  0  0  0  0  0  0  0  0999 V2000
   10.2837   43.7627   33.8273 C   0  0  0  0  0  0  0  0  0  0  0  0
   11.4101   43.5864   34.3764 O   0  0  0  0  0  0  0  0  0  0  0  0
    9.3627   42.7238   33.7355 O   0  0  0  0  0  0  0  0  0  0  0  0
    9.8890   41.2252   34.2948 P   0  0  0  0  0  0  0  0  0  0  0  0
   10.3723   41.4549   35.8842 O   0  0  0  0  0  0  0  0  0  0  0  0
    9.9547   45.0700   33.2059 C   0  0  1  0  0  0  0  0  0  0  0  0
   11.0197   46.0481   33.4564 N   0  0  0  0  0  0  0  0  0  0  0  0
    9.7499   44.8511   31.6917 C   0  0  0  0  0  0  0  0  0  0  0  0
    8.7939   45.8419   31.0864 C   0  0  0  0  0  0  0  0  0  0  0  0
    7.4057   45.6012   31.1017 C   0  0  0  0  0  0  0  0  0  0  0  0
    9.2832   46.9913   30.4452 C   0  0  0  0  0  0  0  0  0  0  0  0
    6.5257   46.5029   30.4874 C   0  0  0  0  0  0  0  0  0  0  0  0
    8.4014   47.8918   29.8349 C   0  0  0  0  0  0  0  0  0  0  0  0
    7.0223   47.6455   29.8433 C   0  0  0  0  0  0  0  0  0  0  0  0
    6.1440   48.5509   29.2428 O   0  0  0  0  0  0  0  0  0  0  0  0
    5.6620   48.4276   27.9008 C   0  0  1  0  0  0  0  0  0  0  0  0
    6.7445   48.7996   26.8818 C   0  0  0  0  0  0  0  0  0  0  0  0
    4.9709   47.0846   27.6681 C   0  0  0  0  0  0  0  0  0  0  0  0
    3.5804   47.0231   27.9379 C   0  0  0  0  0  0  0  0  0  0  0  0
    5.6522   45.8766   27.2885 C   0  0  0  0  0  0  0  0  0  0  0  0
    2.9270   45.8037   27.8163 C   0  0  0  0  0  0  0  0  0  0  0  0
    4.9369   44.6649   27.1840 C   0  0  0  0  0  0  0  0  0  0  0  0
    7.0486   45.8534   26.9910 N   0  0  0  0  0  0  0  0  0  0  0  0
    1.5917   45.5200   28.0294 O   0  0  0  0  0  0  0  0  0  0  0  0
    3.5767   44.6743   27.4560 C   0  0  0  0  0  0  0  0  0  0  0  0
    7.4488   46.0338   25.6878 O   0  0  0  0  0  0  0  0  0  0  0  0
    7.8323   45.3001   27.7885 O   0  0  0  0  0  0  0  0  0  0  0  0
    1.3922   44.1211   27.7843 C   0  0  0  0  0  0  0  0  0  0  0  0
    2.6855   43.6192   27.4207 O   0  0  0  0  0  0  0  0  0  0  0  0
    8.8112   40.1834   34.2131 O   0  0  0  0  0  0  0  0  0  0  0  0
   11.2397   40.7938   33.3702 O   0  0  0  0  0  0  0  0  0  0  0  0
   10.9144   40.6912   31.9983 C   0  0  0  0  0  0  0  0  0  0  0  0
   11.5270   39.3911   31.4384 C   0  0  0  0  0  0  0  0  0  0  0  0
   12.7520   39.0911   32.0835 O   0  0  0  0  0  0  0  0  0  0  0  0
   10.6113   38.1932   31.6451 C   0  0  0  0  0  0  0  0  0  0  0  0
   12.9413   37.6837   32.0297 C   0  0  0  0  0  0  0  0  0  0  0  0
    9.6064   38.0877   30.6599 O   0  0  0  0  0  0  0  0  0  0  0  0
   11.5822   37.0197   31.6876 C   0  0  0  0  0  0  0  0  0  0  0  0
   13.4840   37.2104   33.3254 N   0  0  0  0  0  0  0  0  0  0  0  0
   11.6179   36.3071   30.4690 O   0  0  0  0  0  0  0  0  0  0  0  0
   14.4797   36.3309   33.5738 C   0  0  0  0  0  0  0  0  0  0  0  0
   13.1136   37.6269   34.5702 C   0  0  0  0  0  0  0  0  0  0  0  0
   15.2074   35.6152   32.6747 N   0  0  0  0  0  0  0  0  0  0  0  0
   14.6756   36.2298   34.9190 C   0  0  0  0  0  0  0  0  0  0  0  0
   13.8217   37.0445   35.5793 N   0  0  0  0  0  0  0  0  0  0  0  0
   16.1643   34.7603   33.1551 C   0  0  0  0  0  0  0  0  0  0  0  0
   15.6528   35.3503   35.4136 C   0  0  0  0  0  0  0  0  0  0  0  0
   16.3798   34.6316   34.5046 N   0  0  0  0  0  0  0  0  0  0  0  0
   15.9004   35.1930   36.8094 N   0  0  0  0  0  0  0  0  0  0  0  0
    9.0098   45.4350   33.6665 H   0  0  0  0  0  0  0  0  0  0  0  0
   11.1134   46.1991   34.4877 H   0  0  0  0  0  0  0  0  0  0  0  0
   11.9347   45.6933   33.0919 H   0  0  0  0  0  0  0  0  0  0  0  0
   10.7300   44.8929   31.1666 H   0  0  0  0  0  0  0  0  0  0  0  0
    9.3506   43.8346   31.4754 H   0  0  0  0  0  0  0  0  0  0  0  0
    7.0092   44.7170   31.5853 H   0  0  0  0  0  0  0  0  0  0  0  0
   10.3469   47.1926   30.4182 H   0  0  0  0  0  0  0  0  0  0  0  0
    5.4605   46.3116   30.5088 H   0  0  0  0  0  0  0  0  0  0  0  0
    8.7902   48.7791   29.3519 H   0  0  0  0  0  0  0  0  0  0  0  0
    4.8894   49.2191   27.7799 H   0  0  0  0  0  0  0  0  0  0  0  0
    6.9563   49.8880   26.9496 H   0  0  0  0  0  0  0  0  0  0  0  0
    7.6969   48.2720   27.0833 H   0  0  0  0  0  0  0  0  0  0  0  0
    6.3976   48.5783   25.8501 H   0  0  0  0  0  0  0  0  0  0  0  0
    3.0241   47.8981   28.2502 H   0  0  0  0  0  0  0  0  0  0  0  0
    5.4316   43.7458   26.8966 H   0  0  0  0  0  0  0  0  0  0  0  0
    1.0308   43.6174   28.7053 H   0  0  0  0  0  0  0  0  0  0  0  0
    0.6760   43.9759   26.9485 H   0  0  0  0  0  0  0  0  0  0  0  0
   11.3780   41.5548   31.4750 H   0  0  0  0  0  0  0  0  0  0  0  0
    9.8235   40.7202   31.7650 H   0  0  0  0  0  0  0  0  0  0  0  0
   11.7311   39.5363   30.3531 H   0  0  0  0  0  0  0  0  0  0  0  0
   10.1203   38.2696   32.6409 H   0  0  0  0  0  0  0  0  0  0  0  0
   13.6850   37.4638   31.2321 H   0  0  0  0  0  0  0  0  0  0  0  0
   10.0250   38.1793   29.7654 H   0  0  0  0  0  0  0  0  0  0  0  0
   11.2757   36.3135   32.4907 H   0  0  0  0  0  0  0  0  0  0  0  0
   11.9838   36.9111   29.7708 H   0  0  0  0  0  0  0  0  0  0  0  0
   12.3307   38.3536   34.7457 H   0  0  0  0  0  0  0  0  0  0  0  0
   16.7566   34.1787   32.4623 H   0  0  0  0  0  0  0  0  0  0  0  0
   16.6353   34.5301   37.1419 H   0  0  0  0  0  0  0  0  0  0  0  0
   15.3535   35.7355   37.5144 H   0  0  0  0  0  0  0  0  0  0  0  0
  1  2  2  0
  1  3  1  0
  3  4  1  0
  4  5  1  0
  6  1  1  0
  7  6  1  0
  6  8  1  0
  8  9  1  0
  9 10  2  0
 11  9  1  0
 10 12  1  0
 13 11  2  0
 12 14  2  0
 14 13  1  0
 14 15  1  0
 15 16  1  0
 16 17  1  0
 16 18  1  0
 18 19  2  0
 20 18  1  0
 19 21  1  0
 22 20  2  0
 20 23  1  0
 21 24  1  0
 21 25  2  0
 25 22  1  0
 23 26  1  0
 23 27  2  0
 24 28  1  0
 25 29  1  0
 28 29  1  0
  4 30  2  0
  4 31  1  0
 32 31  1  0
 32 33  1  0
 33 34  1  0
 33 35  1  0
 34 36  1  0
 35 37  1  0
 35 38  1  0
 38 36  1  0
 36 39  1  0
 38 40  1  0
 41 39  1  0
 42 39  1  0
 43 41  2  0
 41 44  1  0
 45 42  2  0
 46 43  1  0
 44 47  2  0
 44 45  1  0
 48 46  2  0
 48 47  1  0
 47 49  1  0
  6 50  1  1
  7 51  1  0
  7 52  1  0
  8 53  1  0
  8 54  1  0
 10 55  1  0
 11 56  1  0
 12 57  1  0
 13 58  1  0
 16 59  1  1
 17 60  1  0
 17 61  1  0
 17 62  1  0
 19 63  1  0
 22 64  1  0
 28 65  1  0
 28 66  1  0
 32 67  1  0
 32 68  1  0
 33 69  1  0
 35 70  1  0
 36 71  1  0
 37 72  1  0
 38 73  1  0
 40 74  1  0
 42 75  1  0
 46 76  1  0
 49 77  1  0
 49 78  1  0
M  CHG  3   5  -1  23   1  26  -1
M  END
>  <EmbedRMS>  (362) 
0.0818634631491

$$$$

     RDKit          3D

 78 83  0  0  0  0  0  0  0  0999 V2000
   10.2836   43.7630   33.8277 C   0  0  0  0  0  0  0  0  0  0  0  0
   11.4102   43.5866   34.3765 O   0  0  0  0  0  0  0  0  0  0  0  0
    9.3628   42.7240   33.7357 O   0  0  0  0  0  0  0  0  0  0  0  0
    9.8891   41.2253   34.2949 P   0  0  0  0  0  0  0  0  0  0  0  0
   10.3724   41.4549   35.8843 O   0  0  0  0  0  0  0  0  0  0  0  0
    9.9545   45.0704   33.2066 C   0  0  1  0  0  0  0  0  0  0  0  0
   11.0194   46.0486   33.4571 N   0  0  0  0  0  0  0  0  0  0  0  0
    9.7499   44.8516   31.6926 C   0  0  0  0  0  0  0  0  0  0  0  0
    8.7938   45.8426   31.0876 C   0  0  0  0  0  0  0  0  0  0  0  0
    7.4062   45.5993   31.0977 C   0  0  0  0  0  0  0  0  0  0  0  0
    9.2835   46.9891   30.4425 C   0  0  0  0  0  0  0  0  0  0  0  0
    6.5259   46.4992   30.4806 C   0  0  0  0  0  0  0  0  0  0  0  0
    8.4022   47.8868   29.8286 C   0  0  0  0  0  0  0  0  0  0  0  0
    7.0206   47.6554   29.8584 C   0  0  0  0  0  0  0  0  0  0  0  0
    6.1558   48.5700   29.2489 O   0  0  0  0  0  0  0  0  0  0  0  0
    5.3639   49.5403   29.9484 C   0  0  1  0  0  0  0  0  0  0  0  0
    4.2857   48.8878   30.8216 C   0  0  0  0  0  0  0  0  0  0  0  0
    6.2354   50.5142   30.7375 C   0  0  0  0  0  0  0  0  0  0  0  0
    6.9600   50.0424   31.8630 C   0  0  0  0  0  0  0  0  0  0  0  0
    6.3997   51.8828   30.3341 C   0  0  0  0  0  0  0  0  0  0  0  0
    7.8345   50.9081   32.5052 C   0  0  0  0  0  0  0  0  0  0  0  0
    7.3154   52.7129   31.0177 C   0  0  0  0  0  0  0  0  0  0  0  0
    5.6426   52.4499   29.2565 N   0  0  0  0  0  0  0  0  0  0  0  0
    8.6440   50.6568   33.5963 O   0  0  0  0  0  0  0  0  0  0  0  0
    8.0093   52.1849   32.0972 C   0  0  0  0  0  0  0  0  0  0  0  0
    6.2676   53.2727   28.3483 O   0  0  0  0  0  0  0  0  0  0  0  0
    4.3954   52.4443   29.3054 O   0  0  0  0  0  0  0  0  0  0  0  0
    9.3733   51.8558   33.8911 C   0  0  0  0  0  0  0  0  0  0  0  0
    8.9372   52.8069   32.9102 O   0  0  0  0  0  0  0  0  0  0  0  0
    8.8113   40.1835   34.2131 O   0  0  0  0  0  0  0  0  0  0  0  0
   11.2398   40.7939   33.3702 O   0  0  0  0  0  0  0  0  0  0  0  0
   10.9144   40.6912   31.9983 C   0  0  0  0  0  0  0  0  0  0  0  0
   11.5270   39.3911   31.4385 C   0  0  0  0  0  0  0  0  0  0  0  0
   12.7520   39.0911   32.0835 O   0  0  0  0  0  0  0  0  0  0  0  0
   10.6113   38.1931   31.6451 C   0  0  0  0  0  0  0  0  0  0  0  0
   12.9413   37.6838   32.0297 C   0  0  0  0  0  0  0  0  0  0  0  0
    9.6064   38.0877   30.6599 O   0  0  0  0  0  0  0  0  0  0  0  0
   11.5822   37.0197   31.6876 C   0  0  0  0  0  0  0  0  0  0  0  0
   13.4840   37.2104   33.3254 N   0  0  0  0  0  0  0  0  0  0  0  0
   11.6179   36.3071   30.4690 O   0  0  0  0  0  0  0  0  0  0  0  0
   14.4797   36.3309   33.5738 C   0  0  0  0  0  0  0  0  0  0  0  0
   13.1136   37.6269   34.5702 C   0  0  0  0  0  0  0  0  0  0  0  0
   15.2074   35.6152   32.6747 N   0  0  0  0  0  0  0  0  0  0  0  0
   14.6756   36.2298   34.9190 C   0  0  0  0  0  0  0  0  0  0  0  0
   13.8217   37.0445   35.5793 N   0  0  0  0  0  0  0  0  0  0  0  0
   16.1643   34.7603   33.1551 C   0  0  0  0  0  0  0  0  0  0  0  0
   15.6528   35.3503   35.4136 C   0  0  0  0  0  0  0  0  0  0  0  0
   16.3798   34.6316   34.5046 N   0  0  0  0  0  0  0  0  0  0  0  0
   15.9004   35.1930   36.8094 N   0  0  0  0  0  0  0  0  0  0  0  0
    9.0095   45.4354   33.6673 H   0  0  0  0  0  0  0  0  0  0  0  0
   11.1126   46.2003   34.4883 H   0  0  0  0  0  0  0  0  0  0  0  0
   11.9346   45.6938   33.0931 H   0  0  0  0  0  0  0  0  0  0  0  0
    9.3508   43.8350   31.4763 H   0  0  0  0  0  0  0  0  0  0  0  0
   10.7301   44.8934   31.1678 H   0  0  0  0  0  0  0  0  0  0  0  0
    7.0106   44.7104   31.5736 H   0  0  0  0  0  0  0  0  0  0  0  0
   10.3476   47.1888   30.4124 H   0  0  0  0  0  0  0  0  0  0  0  0
    5.4647   46.2894   30.4796 H   0  0  0  0  0  0  0  0  0  0  0  0
    8.7910   48.7713   29.3403 H   0  0  0  0  0  0  0  0  0  0  0  0
    4.8121   50.0814   29.1583 H   0  0  0  0  0  0  0  0  0  0  0  0
    4.7258   48.3148   31.6622 H   0  0  0  0  0  0  0  0  0  0  0  0
    3.6188   49.6705   31.2421 H   0  0  0  0  0  0  0  0  0  0  0  0
    3.6709   48.1982   30.2051 H   0  0  0  0  0  0  0  0  0  0  0  0
    6.8686   49.0257   32.2193 H   0  0  0  0  0  0  0  0  0  0  0  0
    7.4624   53.7457   30.7287 H   0  0  0  0  0  0  0  0  0  0  0  0
   10.4643   51.6758   33.7918 H   0  0  0  0  0  0  0  0  0  0  0  0
    9.1242   52.2158   34.9113 H   0  0  0  0  0  0  0  0  0  0  0  0
    9.8235   40.7202   31.7651 H   0  0  0  0  0  0  0  0  0  0  0  0
   11.3780   41.5548   31.4750 H   0  0  0  0  0  0  0  0  0  0  0  0
   11.7311   39.5363   30.3532 H   0  0  0  0  0  0  0  0  0  0  0  0
   10.1203   38.2695   32.6410 H   0  0  0  0  0  0  0  0  0  0  0  0
   13.6850   37.4638   31.2321 H   0  0  0  0  0  0  0  0  0  0  0  0
   10.0251   38.1792   29.7654 H   0  0  0  0  0  0  0  0  0  0  0  0
   11.2757   36.3135   32.4907 H   0  0  0  0  0  0  0  0  0  0  0  0
   11.9838   36.9110   29.7708 H   0  0  0  0  0  0  0  0  0  0  0  0
   12.3307   38.3536   34.7457 H   0  0  0  0  0  0  0  0  0  0  0  0
   16.7566   34.1787   32.4623 H   0  0  0  0  0  0  0  0  0  0  0  0
   15.3535   35.7355   37.5144 H   0  0  0  0  0  0  0  0  0  0  0  0
   16.6353   34.5301   37.1419 H   0  0  0  0  0  0  0  0  0  0  0  0
  1  2  2  0
  1  3  1  0
  3  4  1  0
  4  5  1  0
  6  1  1  0
  7  6  1  0
  6  8  1  0
  8  9  1  0
  9 10  2  0
 11  9  1  0
 10 12  1  0
 13 11  2  0
 12 14  2  0
 14 13  1  0
 14 15  1  0
 15 16  1  0
 16 17  1  0
 16 18  1  0
 18 19  2  0
 20 18  1  0
 19 21  1  0
 22 20  2  0
 20 23  1  0
 21 24  1  0
 21 25  2  0
 25 22  1  0
 23 26  1  0
 23 27  2  0
 24 28  1  0
 25 29  1  0
 28 29  1  0
  4 30  2  0
  4 31  1  0
 32 31  1  0
 32 33  1  0
 33 34  1  0
 33 35  1  0
 34 36  1  0
 35 37  1  0
 35 38  1  0
 38 36  1  0
 36 39  1  0
 38 40  1  0
 41 39  1  0
 42 39  1  0
 43 41  2  0
 41 44  1  0
 45 42  2  0
 46 43  1  0
 44 47  2  0
 44 45  1  0
 48 46  2  0
 48 47  1  0
 47 49  1  0
  6 50  1  1
  7 51  1  0
  7 52  1  0
  8 53  1  0
  8 54  1  0
 10 55  1  0
 11 56  1  0
 12 57  1  0
 13 58  1  0
 16 59  1  6
 17 60  1  0
 17 61  1  0
 17 62  1  0
 19 63  1  0
 22 64  1  0
 28 65  1  0
 28 66  1  0
 32 67  1  0
 32 68  1  0
 33 69  1  0
 35 70  1  0
 36 71  1  0
 37 72  1  0
 38 73  1  0
 40 74  1  0
 42 75  1  0
 46 76  1  0
 49 77  1  0
 49 78  1  0
M  CHG  3   5  -1  23   1  26  -1
M  END
>  <EmbedRMS>  (363) 
0.0818278505648

$$$$

     RDKit          3D

 78 83  0  0  0  0  0  0  0  0999 V2000
   10.2837   43.7627   33.8272 C   0  0  0  0  0  0  0  0  0  0  0  0
   11.4102   43.5864   34.3764 O   0  0  0  0  0  0  0  0  0  0  0  0
    9.3630   42.7236   33.7350 O   0  0  0  0  0  0  0  0  0  0  0  0
    9.8897   41.2248   34.2934 P   0  0  0  0  0  0  0  0  0  0  0  0
   10.3734   41.4544   35.8828 O   0  0  0  0  0  0  0  0  0  0  0  0
    9.9547   45.0700   33.2059 C   0  0  1  0  0  0  0  0  0  0  0  0
   11.0197   46.0481   33.4565 N   0  0  0  0  0  0  0  0  0  0  0  0
    9.7499   44.8512   31.6917 C   0  0  0  0  0  0  0  0  0  0  0  0
    8.7939   45.8420   31.0864 C   0  0  0  0  0  0  0  0  0  0  0  0
    7.4058   45.6012   31.1018 C   0  0  0  0  0  0  0  0  0  0  0  0
    9.2831   46.9915   30.4453 C   0  0  0  0  0  0  0  0  0  0  0  0
    6.5257   46.5028   30.4873 C   0  0  0  0  0  0  0  0  0  0  0  0
    8.4014   47.8919   29.8349 C   0  0  0  0  0  0  0  0  0  0  0  0
    7.0223   47.6453   29.8431 C   0  0  0  0  0  0  0  0  0  0  0  0
    6.1439   48.5500   29.2417 O   0  0  0  0  0  0  0  0  0  0  0  0
    5.6628   48.4258   27.8994 C   0  0  1  0  0  0  0  0  0  0  0  0
    6.7447   48.8016   26.8811 C   0  0  0  0  0  0  0  0  0  0  0  0
    4.9760   47.0807   27.6656 C   0  0  0  0  0  0  0  0  0  0  0  0
    3.5855   47.0148   27.9340 C   0  0  0  0  0  0  0  0  0  0  0  0
    5.6616   45.8749   27.2866 C   0  0  0  0  0  0  0  0  0  0  0  0
    2.9361   45.7933   27.8120 C   0  0  0  0  0  0  0  0  0  0  0  0
    4.9502   44.6609   27.1814 C   0  0  0  0  0  0  0  0  0  0  0  0
    7.0583   45.8561   26.9904 N   0  0  0  0  0  0  0  0  0  0  0  0
    1.6016   45.5052   28.0240 O   0  0  0  0  0  0  0  0  0  0  0  0
    3.5898   44.6659   27.4523 C   0  0  0  0  0  0  0  0  0  0  0  0
    7.4592   46.0391   25.6876 O   0  0  0  0  0  0  0  0  0  0  0  0
    7.8427   45.3038   27.7878 O   0  0  0  0  0  0  0  0  0  0  0  0
    1.4068   44.1057   27.7788 C   0  0  0  0  0  0  0  0  0  0  0  0
    2.7020   43.6080   27.4163 O   0  0  0  0  0  0  0  0  0  0  0  0
    8.8115   40.1834   34.2125 O   0  0  0  0  0  0  0  0  0  0  0  0
   11.2401   40.7936   33.3672 O   0  0  0  0  0  0  0  0  0  0  0  0
   10.9134   40.6864   31.9955 C   0  0  0  0  0  0  0  0  0  0  0  0
   11.5166   39.3786   31.4403 C   0  0  0  0  0  0  0  0  0  0  0  0
   12.7486   39.0849   32.0734 O   0  0  0  0  0  0  0  0  0  0  0  0
   10.6039   38.1883   31.6669 C   0  0  0  0  0  0  0  0  0  0  0  0
   12.9329   37.6775   32.0284 C   0  0  0  0  0  0  0  0  0  0  0  0
    9.6373   38.0938   30.6484 O   0  0  0  0  0  0  0  0  0  0  0  0
   11.5737   37.0140   31.7055 C   0  0  0  0  0  0  0  0  0  0  0  0
   13.4853   37.2120   33.3238 N   0  0  0  0  0  0  0  0  0  0  0  0
   11.6210   36.3379   30.4683 O   0  0  0  0  0  0  0  0  0  0  0  0
   14.4804   36.3319   33.5726 C   0  0  0  0  0  0  0  0  0  0  0  0
   13.1141   37.6275   34.5689 C   0  0  0  0  0  0  0  0  0  0  0  0
   15.2075   35.6152   32.6740 N   0  0  0  0  0  0  0  0  0  0  0  0
   14.6761   36.2307   34.9181 C   0  0  0  0  0  0  0  0  0  0  0  0
   13.8218   37.0451   35.5783 N   0  0  0  0  0  0  0  0  0  0  0  0
   16.1642   34.7600   33.1548 C   0  0  0  0  0  0  0  0  0  0  0  0
   15.6528   35.3507   35.4131 C   0  0  0  0  0  0  0  0  0  0  0  0
   16.3795   34.6315   34.5043 N   0  0  0  0  0  0  0  0  0  0  0  0
   15.9001   35.1933   36.8090 N   0  0  0  0  0  0  0  0  0  0  0  0
    9.0097   45.4349   33.6666 H   0  0  0  0  0  0  0  0  0  0  0  0
   11.1133   46.1991   34.4878 H   0  0  0  0  0  0  0  0  0  0  0  0
   11.9347   45.6933   33.0920 H   0  0  0  0  0  0  0  0  0  0  0  0
    9.3507   43.8347   31.4753 H   0  0  0  0  0  0  0  0  0  0  0  0
   10.7300   44.8930   31.1666 H   0  0  0  0  0  0  0  0  0  0  0  0
    7.0093   44.7170   31.5853 H   0  0  0  0  0  0  0  0  0  0  0  0
   10.3469   47.1928   30.4183 H   0  0  0  0  0  0  0  0  0  0  0  0
    5.4605   46.3113   30.5085 H   0  0  0  0  0  0  0  0  0  0  0  0
    8.7901   48.7790   29.3518 H   0  0  0  0  0  0  0  0  0  0  0  0
    4.8879   49.2150   27.7785 H   0  0  0  0  0  0  0  0  0  0  0  0
    7.6987   48.2771   27.0831 H   0  0  0  0  0  0  0  0  0  0  0  0
    6.3992   48.5795   25.8492 H   0  0  0  0  0  0  0  0  0  0  0  0
    6.9530   49.8906   26.9494 H   0  0  0  0  0  0  0  0  0  0  0  0
    3.0262   47.8879   28.2459 H   0  0  0  0  0  0  0  0  0  0  0  0
    5.4481   43.7434   26.8945 H   0  0  0  0  0  0  0  0  0  0  0  0
    1.0463   43.6009   28.6995 H   0  0  0  0  0  0  0  0  0  0  0  0
    0.6918   43.9581   26.9424 H   0  0  0  0  0  0  0  0  0  0  0  0
   11.3830   41.5438   31.4674 H   0  0  0  0  0  0  0  0  0  0  0  0
    9.8226   40.7226   31.7628 H   0  0  0  0  0  0  0  0  0  0  0  0
   11.6978   39.5037   30.3477 H   0  0  0  0  0  0  0  0  0  0  0  0
   10.1084   38.2786   32.6626 H   0  0  0  0  0  0  0  0  0  0  0  0
   13.6638   37.4472   31.2214 H   0  0  0  0  0  0  0  0  0  0  0  0
    8.9762   37.4191   30.9532 H   0  0  0  0  0  0  0  0  0  0  0  0
   11.2821   36.3054   32.5171 H   0  0  0  0  0  0  0  0  0  0  0  0
   10.8658   35.6935   30.4652 H   0  0  0  0  0  0  0  0  0  0  0  0
   12.3293   38.3523   34.7444 H   0  0  0  0  0  0  0  0  0  0  0  0
   16.7561   34.1778   32.4621 H   0  0  0  0  0  0  0  0  0  0  0  0
   16.6345   34.5300   37.1416 H   0  0  0  0  0  0  0  0  0  0  0  0
   15.3533   35.7361   37.5138 H   0  0  0  0  0  0  0  0  0  0  0  0
  1  2  2  0
  1  3  1  0
  3  4  1  0
  4  5  1  0
  6  1  1  0
  7  6  1  0
  6  8  1  0
  8  9  1  0
  9 10  2  0
 11  9  1  0
 10 12  1  0
 13 11  2  0
 12 14  2  0
 14 13  1  0
 14 15  1  0
 15 16  1  0
 16 17  1  0
 16 18  1  0
 18 19  2  0
 20 18  1  0
 19 21  1  0
 22 20  2  0
 20 23  1  0
 21 24  1  0
 21 25  2  0
 25 22  1  0
 23 26  1  0
 23 27  2  0
 24 28  1  0
 25 29  1  0
 28 29  1  0
  4 30  2  0
  4 31  1  0
 32 31  1  0
 32 33  1  0
 33 34  1  0
 33 35  1  0
 34 36  1  0
 35 37  1  0
 35 38  1  0
 38 36  1  0
 36 39  1  0
 38 40  1  0
 41 39  1  0
 42 39  1  0
 43 41  2  0
 41 44  1  0
 45 42  2  0
 46 43  1  0
 44 47  2  0
 44 45  1  0
 48 46  2  0
 48 47  1  0
 47 49  1  0
  6 50  1  1
  7 51  1  0
  7 52  1  0
  8 53  1  0
  8 54  1  0
 10 55  1  0
 11 56  1  0
 12 57  1  0
 13 58  1  0
 16 59  1  1
 17 60  1  0
 17 61  1  0
 17 62  1  0
 19 63  1  0
 22 64  1  0
 28 65  1  0
 28 66  1  0
 32 67  1  0
 32 68  1  0
 33 69  1  0
 35 70  1  0
 36 71  1  0
 37 72  1  0
 38 73  1  0
 40 74  1  0
 42 75  1  0
 46 76  1  0
 49 77  1  0
 49 78  1  0
M  CHG  3   5  -1  23   1  26  -1
M  END
>  <EmbedRMS>  (364) 
0.0835706883327

$$$$

     RDKit          3D

 78 83  0  0  0  0  0  0  0  0999 V2000
   10.2804   43.7665   33.8251 C   0  0  0  0  0  0  0  0  0  0  0  0
   11.4111   43.5918   34.3667 O   0  0  0  0  0  0  0  0  0  0  0  0
    9.3616   42.7251   33.7349 O   0  0  0  0  0  0  0  0  0  0  0  0
    9.8896   41.2269   34.2946 P   0  0  0  0  0  0  0  0  0  0  0  0
   10.3732   41.4568   35.8838 O   0  0  0  0  0  0  0  0  0  0  0  0
    9.9460   45.0736   33.2112 C   0  0  1  0  0  0  0  0  0  0  0  0
   11.0268   46.0291   33.4706 N   0  0  0  0  0  0  0  0  0  0  0  0
    9.7538   44.8536   31.6950 C   0  0  0  0  0  0  0  0  0  0  0  0
    8.7956   45.8405   31.0848 C   0  0  0  0  0  0  0  0  0  0  0  0
    7.4095   45.6006   31.1010 C   0  0  0  0  0  0  0  0  0  0  0  0
    9.2819   46.9870   30.4404 C   0  0  0  0  0  0  0  0  0  0  0  0
    6.5301   46.5016   30.4857 C   0  0  0  0  0  0  0  0  0  0  0  0
    8.4013   47.8886   29.8312 C   0  0  0  0  0  0  0  0  0  0  0  0
    7.0125   47.6527   29.8458 C   0  0  0  0  0  0  0  0  0  0  0  0
    6.0673   48.5061   29.2474 O   0  0  0  0  0  0  0  0  0  0  0  0
    6.2929   49.7086   28.5000 C   0  0  1  0  0  0  0  0  0  0  0  0
    6.7292   50.8486   29.4336 C   0  0  0  0  0  0  0  0  0  0  0  0
    7.1619   49.4725   27.2633 C   0  0  0  0  0  0  0  0  0  0  0  0
    8.4385   50.0881   27.1428 C   0  0  0  0  0  0  0  0  0  0  0  0
    6.6658   48.6962   26.1573 C   0  0  0  0  0  0  0  0  0  0  0  0
    9.1723   49.8871   25.9821 C   0  0  0  0  0  0  0  0  0  0  0  0
    7.4564   48.5411   24.9963 C   0  0  0  0  0  0  0  0  0  0  0  0
    5.3505   48.1161   26.1609 N   0  0  0  0  0  0  0  0  0  0  0  0
   10.4265   50.3730   25.6653 O   0  0  0  0  0  0  0  0  0  0  0  0
    8.7033   49.1454   24.9554 C   0  0  0  0  0  0  0  0  0  0  0  0
    4.6091   48.1069   25.0019 O   0  0  0  0  0  0  0  0  0  0  0  0
    4.9608   47.4282   27.1252 O   0  0  0  0  0  0  0  0  0  0  0  0
   10.7651   49.9019   24.3540 C   0  0  0  0  0  0  0  0  0  0  0  0
    9.6362   49.1224   23.9366 O   0  0  0  0  0  0  0  0  0  0  0  0
    8.8122   40.1844   34.2135 O   0  0  0  0  0  0  0  0  0  0  0  0
   11.2401   40.7950   33.3698 O   0  0  0  0  0  0  0  0  0  0  0  0
   10.9143   40.6914   31.9981 C   0  0  0  0  0  0  0  0  0  0  0  0
   11.5269   39.3912   31.4385 C   0  0  0  0  0  0  0  0  0  0  0  0
   12.7519   39.0911   32.0837 O   0  0  0  0  0  0  0  0  0  0  0  0
   10.6113   38.1932   31.6451 C   0  0  0  0  0  0  0  0  0  0  0  0
   12.9413   37.6838   32.0297 C   0  0  0  0  0  0  0  0  0  0  0  0
    9.6064   38.0878   30.6599 O   0  0  0  0  0  0  0  0  0  0  0  0
   11.5822   37.0197   31.6877 C   0  0  0  0  0  0  0  0  0  0  0  0
   13.4840   37.2105   33.3254 N   0  0  0  0  0  0  0  0  0  0  0  0
   11.6179   36.3072   30.4690 O   0  0  0  0  0  0  0  0  0  0  0  0
   14.4797   36.3309   33.5738 C   0  0  0  0  0  0  0  0  0  0  0  0
   13.1137   37.6269   34.5702 C   0  0  0  0  0  0  0  0  0  0  0  0
   15.2074   35.6152   32.6747 N   0  0  0  0  0  0  0  0  0  0  0  0
   14.6756   36.2298   34.9190 C   0  0  0  0  0  0  0  0  0  0  0  0
   13.8217   37.0445   35.5793 N   0  0  0  0  0  0  0  0  0  0  0  0
   16.1643   34.7603   33.1551 C   0  0  0  0  0  0  0  0  0  0  0  0
   15.6528   35.3503   35.4136 C   0  0  0  0  0  0  0  0  0  0  0  0
   16.3798   34.6316   34.5046 N   0  0  0  0  0  0  0  0  0  0  0  0
   15.9004   35.1930   36.8094 N   0  0  0  0  0  0  0  0  0  0  0  0
    8.9996   45.4382   33.6722 H   0  0  0  0  0  0  0  0  0  0  0  0
   10.7765   46.9367   33.0155 H   0  0  0  0  0  0  0  0  0  0  0  0
   11.0504   46.2278   34.4979 H   0  0  0  0  0  0  0  0  0  0  0  0
   10.7409   44.9070   31.1835 H   0  0  0  0  0  0  0  0  0  0  0  0
    9.3641   43.8349   31.4715 H   0  0  0  0  0  0  0  0  0  0  0  0
    7.0134   44.7163   31.5850 H   0  0  0  0  0  0  0  0  0  0  0  0
   10.3460   47.1864   30.4082 H   0  0  0  0  0  0  0  0  0  0  0  0
    5.4660   46.3024   30.5046 H   0  0  0  0  0  0  0  0  0  0  0  0
    8.8223   48.7564   29.3592 H   0  0  0  0  0  0  0  0  0  0  0  0
    5.3012   50.0318   28.1152 H   0  0  0  0  0  0  0  0  0  0  0  0
    7.6814   50.6236   29.9520 H   0  0  0  0  0  0  0  0  0  0  0  0
    6.8369   51.7942   28.8606 H   0  0  0  0  0  0  0  0  0  0  0  0
    5.9516   51.0057   30.2109 H   0  0  0  0  0  0  0  0  0  0  0  0
    8.8633   50.7053   27.9212 H   0  0  0  0  0  0  0  0  0  0  0  0
    7.1068   47.9633   24.1503 H   0  0  0  0  0  0  0  0  0  0  0  0
   10.9149   50.7592   23.6647 H   0  0  0  0  0  0  0  0  0  0  0  0
   11.6746   49.2667   24.3969 H   0  0  0  0  0  0  0  0  0  0  0  0
   11.3775   41.5548   31.4741 H   0  0  0  0  0  0  0  0  0  0  0  0
    9.8233   40.7200   31.7652 H   0  0  0  0  0  0  0  0  0  0  0  0
   11.7312   39.5362   30.3532 H   0  0  0  0  0  0  0  0  0  0  0  0
   10.1202   38.2696   32.6410 H   0  0  0  0  0  0  0  0  0  0  0  0
   13.6850   37.4639   31.2321 H   0  0  0  0  0  0  0  0  0  0  0  0
   10.0251   38.1792   29.7654 H   0  0  0  0  0  0  0  0  0  0  0  0
   11.2757   36.3135   32.4908 H   0  0  0  0  0  0  0  0  0  0  0  0
   11.9838   36.9111   29.7709 H   0  0  0  0  0  0  0  0  0  0  0  0
   12.3307   38.3536   34.7458 H   0  0  0  0  0  0  0  0  0  0  0  0
   16.7566   34.1787   32.4623 H   0  0  0  0  0  0  0  0  0  0  0  0
   16.6353   34.5301   37.1418 H   0  0  0  0  0  0  0  0  0  0  0  0
   15.3535   35.7355   37.5144 H   0  0  0  0  0  0  0  0  0  0  0  0
  1  2  2  0
  1  3  1  0
  3  4  1  0
  4  5  1  0
  6  1  1  0
  7  6  1  0
  6  8  1  0
  8  9  1  0
  9 10  2  0
 11  9  1  0
 10 12  1  0
 13 11  2  0
 12 14  2  0
 14 13  1  0
 14 15  1  0
 15 16  1  0
 16 17  1  0
 16 18  1  0
 18 19  2  0
 20 18  1  0
 19 21  1  0
 22 20  2  0
 20 23  1  0
 21 24  1  0
 21 25  2  0
 25 22  1  0
 23 26  1  0
 23 27  2  0
 24 28  1  0
 25 29  1  0
 28 29  1  0
  4 30  2  0
  4 31  1  0
 32 31  1  0
 32 33  1  0
 33 34  1  0
 33 35  1  0
 34 36  1  0
 35 37  1  0
 35 38  1  0
 38 36  1  0
 36 39  1  0
 38 40  1  0
 41 39  1  0
 42 39  1  0
 43 41  2  0
 41 44  1  0
 45 42  2  0
 46 43  1  0
 44 47  2  0
 44 45  1  0
 48 46  2  0
 48 47  1  0
 47 49  1  0
  6 50  1  1
  7 51  1  0
  7 52  1  0
  8 53  1  0
  8 54  1  0
 10 55  1  0
 11 56  1  0
 12 57  1  0
 13 58  1  0
 16 59  1  6
 17 60  1  0
 17 61  1  0
 17 62  1  0
 19 63  1  0
 22 64  1  0
 28 65  1  0
 28 66  1  0
 32 67  1  0
 32 68  1  0
 33 69  1  0
 35 70  1  0
 36 71  1  0
 37 72  1  0
 38 73  1  0
 40 74  1  0
 42 75  1  0
 46 76  1  0
 49 77  1  0
 49 78  1  0
M  CHG  3   5  -1  23   1  26  -1
M  END
>  <EmbedRMS>  (365) 
0.0806428561352

$$$$

     RDKit          3D

 78 83  0  0  0  0  0  0  0  0999 V2000
   10.2833   43.7663   33.8258 C   0  0  0  0  0  0  0  0  0  0  0  0
   11.4101   43.5931   34.3752 O   0  0  0  0  0  0  0  0  0  0  0  0
    9.3635   42.7257   33.7353 O   0  0  0  0  0  0  0  0  0  0  0  0
    9.8900   41.2270   34.2948 P   0  0  0  0  0  0  0  0  0  0  0  0
   10.3733   41.4563   35.8841 O   0  0  0  0  0  0  0  0  0  0  0  0
    9.9545   45.0696   33.2036 C   0  0  1  0  0  0  0  0  0  0  0  0
   11.0272   46.0324   33.4756 N   0  0  0  0  0  0  0  0  0  0  0  0
    9.7465   44.8480   31.6877 C   0  0  0  0  0  0  0  0  0  0  0  0
    8.7923   45.8406   31.0843 C   0  0  0  0  0  0  0  0  0  0  0  0
    7.4056   45.6012   31.0984 C   0  0  0  0  0  0  0  0  0  0  0  0
    9.2824   46.9874   30.4419 C   0  0  0  0  0  0  0  0  0  0  0  0
    6.5268   46.5028   30.4833 C   0  0  0  0  0  0  0  0  0  0  0  0
    8.4036   47.8895   29.8312 C   0  0  0  0  0  0  0  0  0  0  0  0
    7.0140   47.6539   29.8495 C   0  0  0  0  0  0  0  0  0  0  0  0
    6.0869   48.5321   29.2638 O   0  0  0  0  0  0  0  0  0  0  0  0
    6.4089   49.7781   28.6418 C   0  0  1  0  0  0  0  0  0  0  0  0
    5.1901   50.3147   27.8921 C   0  0  0  0  0  0  0  0  0  0  0  0
    6.9199   50.8088   29.6383 C   0  0  0  0  0  0  0  0  0  0  0  0
    7.8692   51.7473   29.1657 C   0  0  0  0  0  0  0  0  0  0  0  0
    6.5293   50.8457   31.0223 C   0  0  0  0  0  0  0  0  0  0  0  0
    8.4125   52.6564   30.0630 C   0  0  0  0  0  0  0  0  0  0  0  0
    7.1300   51.7862   31.8908 C   0  0  0  0  0  0  0  0  0  0  0  0
    5.5483   49.9478   31.5645 N   0  0  0  0  0  0  0  0  0  0  0  0
    9.3500   53.6429   29.8246 O   0  0  0  0  0  0  0  0  0  0  0  0
    8.0616   52.6724   31.3686 C   0  0  0  0  0  0  0  0  0  0  0  0
    4.3238   49.8061   30.9562 O   0  0  0  0  0  0  0  0  0  0  0  0
    5.7169   49.4543   32.6988 O   0  0  0  0  0  0  0  0  0  0  0  0
    9.6022   54.3217   31.0625 C   0  0  0  0  0  0  0  0  0  0  0  0
    8.7587   53.6703   32.0222 O   0  0  0  0  0  0  0  0  0  0  0  0
    8.8121   40.1851   34.2133 O   0  0  0  0  0  0  0  0  0  0  0  0
   11.2403   40.7947   33.3700 O   0  0  0  0  0  0  0  0  0  0  0  0
   10.9144   40.6914   31.9982 C   0  0  0  0  0  0  0  0  0  0  0  0
   11.5270   39.3912   31.4385 C   0  0  0  0  0  0  0  0  0  0  0  0
   12.7520   39.0911   32.0836 O   0  0  0  0  0  0  0  0  0  0  0  0
   10.6113   38.1932   31.6451 C   0  0  0  0  0  0  0  0  0  0  0  0
   12.9413   37.6838   32.0297 C   0  0  0  0  0  0  0  0  0  0  0  0
    9.6064   38.0878   30.6599 O   0  0  0  0  0  0  0  0  0  0  0  0
   11.5822   37.0197   31.6877 C   0  0  0  0  0  0  0  0  0  0  0  0
   13.4840   37.2104   33.3254 N   0  0  0  0  0  0  0  0  0  0  0  0
   11.6179   36.3072   30.4690 O   0  0  0  0  0  0  0  0  0  0  0  0
   14.4797   36.3309   33.5738 C   0  0  0  0  0  0  0  0  0  0  0  0
   13.1137   37.6269   34.5702 C   0  0  0  0  0  0  0  0  0  0  0  0
   15.2074   35.6152   32.6747 N   0  0  0  0  0  0  0  0  0  0  0  0
   14.6756   36.2298   34.9190 C   0  0  0  0  0  0  0  0  0  0  0  0
   13.8217   37.0446   35.5793 N   0  0  0  0  0  0  0  0  0  0  0  0
   16.1643   34.7603   33.1551 C   0  0  0  0  0  0  0  0  0  0  0  0
   15.6528   35.3503   35.4136 C   0  0  0  0  0  0  0  0  0  0  0  0
   16.3798   34.6316   34.5046 N   0  0  0  0  0  0  0  0  0  0  0  0
   15.9004   35.1931   36.8094 N   0  0  0  0  0  0  0  0  0  0  0  0
    9.0119   45.4319   33.6713 H   0  0  0  0  0  0  0  0  0  0  0  0
   11.8903   45.7662   32.9468 H   0  0  0  0  0  0  0  0  0  0  0  0
   10.7256   46.9690   33.1214 H   0  0  0  0  0  0  0  0  0  0  0  0
    9.3413   43.8329   31.4764 H   0  0  0  0  0  0  0  0  0  0  0  0
   10.7229   44.8812   31.1558 H   0  0  0  0  0  0  0  0  0  0  0  0
    7.0082   44.7167   31.5809 H   0  0  0  0  0  0  0  0  0  0  0  0
   10.3470   47.1843   30.4112 H   0  0  0  0  0  0  0  0  0  0  0  0
    5.4619   46.3090   30.5046 H   0  0  0  0  0  0  0  0  0  0  0  0
    8.8177   48.7632   29.3485 H   0  0  0  0  0  0  0  0  0  0  0  0
    7.1890   49.5821   27.8720 H   0  0  0  0  0  0  0  0  0  0  0  0
    5.4692   51.2190   27.3099 H   0  0  0  0  0  0  0  0  0  0  0  0
    4.3712   50.5833   28.5887 H   0  0  0  0  0  0  0  0  0  0  0  0
    4.8164   49.5450   27.1840 H   0  0  0  0  0  0  0  0  0  0  0  0
    8.1865   51.7577   28.1304 H   0  0  0  0  0  0  0  0  0  0  0  0
    6.8632   51.8352   32.9388 H   0  0  0  0  0  0  0  0  0  0  0  0
    9.3271   55.3937   30.9757 H   0  0  0  0  0  0  0  0  0  0  0  0
   10.6683   54.2103   31.3513 H   0  0  0  0  0  0  0  0  0  0  0  0
   11.3776   41.5549   31.4744 H   0  0  0  0  0  0  0  0  0  0  0  0
    9.8234   40.7201   31.7654 H   0  0  0  0  0  0  0  0  0  0  0  0
   11.7311   39.5363   30.3532 H   0  0  0  0  0  0  0  0  0  0  0  0
   10.1202   38.2696   32.6410 H   0  0  0  0  0  0  0  0  0  0  0  0
   13.6850   37.4639   31.2321 H   0  0  0  0  0  0  0  0  0  0  0  0
   10.0251   38.1793   29.7654 H   0  0  0  0  0  0  0  0  0  0  0  0
   11.2757   36.3135   32.4907 H   0  0  0  0  0  0  0  0  0  0  0  0
   11.9838   36.9111   29.7708 H   0  0  0  0  0  0  0  0  0  0  0  0
   12.3307   38.3537   34.7457 H   0  0  0  0  0  0  0  0  0  0  0  0
   16.7565   34.1786   32.4623 H   0  0  0  0  0  0  0  0  0  0  0  0
   15.3535   35.7355   37.5144 H   0  0  0  0  0  0  0  0  0  0  0  0
   16.6353   34.5301   37.1419 H   0  0  0  0  0  0  0  0  0  0  0  0
  1  2  2  0
  1  3  1  0
  3  4  1  0
  4  5  1  0
  6  1  1  0
  7  6  1  0
  6  8  1  0
  8  9  1  0
  9 10  2  0
 11  9  1  0
 10 12  1  0
 13 11  2  0
 12 14  2  0
 14 13  1  0
 14 15  1  0
 15 16  1  0
 16 17  1  0
 16 18  1  0
 18 19  2  0
 20 18  1  0
 19 21  1  0
 22 20  2  0
 20 23  1  0
 21 24  1  0
 21 25  2  0
 25 22  1  0
 23 26  1  0
 23 27  2  0
 24 28  1  0
 25 29  1  0
 28 29  1  0
  4 30  2  0
  4 31  1  0
 32 31  1  0
 32 33  1  0
 33 34  1  0
 33 35  1  0
 34 36  1  0
 35 37  1  0
 35 38  1  0
 38 36  1  0
 36 39  1  0
 38 40  1  0
 41 39  1  0
 42 39  1  0
 43 41  2  0
 41 44  1  0
 45 42  2  0
 46 43  1  0
 44 47  2  0
 44 45  1  0
 48 46  2  0
 48 47  1  0
 47 49  1  0
  6 50  1  1
  7 51  1  0
  7 52  1  0
  8 53  1  0
  8 54  1  0
 10 55  1  0
 11 56  1  0
 12 57  1  0
 13 58  1  0
 16 59  1  6
 17 60  1  0
 17 61  1  0
 17 62  1  0
 19 63  1  0
 22 64  1  0
 28 65  1  0
 28 66  1  0
 32 67  1  0
 32 68  1  0
 33 69  1  0
 35 70  1  0
 36 71  1  0
 37 72  1  0
 38 73  1  0
 40 74  1  0
 42 75  1  0
 46 76  1  0
 49 77  1  0
 49 78  1  0
M  CHG  3   5  -1  23   1  26  -1
M  END
>  <EmbedRMS>  (366) 
0.0808406666961

$$$$

     RDKit          3D

 78 83  0  0  0  0  0  0  0  0999 V2000
   10.2836   43.7661   33.8257 C   0  0  0  0  0  0  0  0  0  0  0  0
   11.4103   43.5929   34.3753 O   0  0  0  0  0  0  0  0  0  0  0  0
    9.3638   42.7255   33.7350 O   0  0  0  0  0  0  0  0  0  0  0  0
    9.8903   41.2267   34.2943 P   0  0  0  0  0  0  0  0  0  0  0  0
   10.3735   41.4560   35.8837 O   0  0  0  0  0  0  0  0  0  0  0  0
    9.9548   45.0694   33.2039 C   0  0  1  0  0  0  0  0  0  0  0  0
   11.0275   46.0321   33.4757 N   0  0  0  0  0  0  0  0  0  0  0  0
    9.7464   44.8482   31.6881 C   0  0  0  0  0  0  0  0  0  0  0  0
    8.7922   45.8415   31.0858 C   0  0  0  0  0  0  0  0  0  0  0  0
    7.4059   45.6014   31.0986 C   0  0  0  0  0  0  0  0  0  0  0  0
    9.2820   46.9868   30.4416 C   0  0  0  0  0  0  0  0  0  0  0  0
    6.5277   46.5022   30.4816 C   0  0  0  0  0  0  0  0  0  0  0  0
    8.4031   47.8884   29.8302 C   0  0  0  0  0  0  0  0  0  0  0  0
    7.0128   47.6559   29.8499 C   0  0  0  0  0  0  0  0  0  0  0  0
    6.0768   48.5198   29.2475 O   0  0  0  0  0  0  0  0  0  0  0  0
    6.2880   49.8712   28.8051 C   0  0  1  0  0  0  0  0  0  0  0  0
    6.8988   50.7215   29.9381 C   0  0  0  0  0  0  0  0  0  0  0  0
    7.0626   49.9632   27.4872 C   0  0  0  0  0  0  0  0  0  0  0  0
    7.4966   48.7807   26.8297 C   0  0  0  0  0  0  0  0  0  0  0  0
    7.3557   51.2328   26.8774 C   0  0  0  0  0  0  0  0  0  0  0  0
    8.2655   48.8977   25.6797 C   0  0  0  0  0  0  0  0  0  0  0  0
    8.1591   51.2890   25.7168 C   0  0  0  0  0  0  0  0  0  0  0  0
    6.8220   52.4615   27.3914 N   0  0  0  0  0  0  0  0  0  0  0  0
    8.8081   47.8908   24.9045 O   0  0  0  0  0  0  0  0  0  0  0  0
    8.5918   50.0984   25.1530 C   0  0  0  0  0  0  0  0  0  0  0  0
    7.5923   53.6012   27.3716 O   0  0  0  0  0  0  0  0  0  0  0  0
    5.5992   52.5651   27.6185 O   0  0  0  0  0  0  0  0  0  0  0  0
    9.5240   48.5023   23.8228 C   0  0  0  0  0  0  0  0  0  0  0  0
    9.3590   49.9133   24.0190 O   0  0  0  0  0  0  0  0  0  0  0  0
    8.8122   40.1850   34.2131 O   0  0  0  0  0  0  0  0  0  0  0  0
   11.2407   40.7939   33.3694 O   0  0  0  0  0  0  0  0  0  0  0  0
   10.9152   40.6905   31.9974 C   0  0  0  0  0  0  0  0  0  0  0  0
   11.5252   39.3886   31.4375 C   0  0  0  0  0  0  0  0  0  0  0  0
   12.7500   39.0874   32.0799 O   0  0  0  0  0  0  0  0  0  0  0  0
   10.6092   38.1926   31.6470 C   0  0  0  0  0  0  0  0  0  0  0  0
   12.9332   37.6793   32.0294 C   0  0  0  0  0  0  0  0  0  0  0  0
    9.6122   38.0895   30.6542 O   0  0  0  0  0  0  0  0  0  0  0  0
   11.5743   37.0145   31.7024 C   0  0  0  0  0  0  0  0  0  0  0  0
   13.4844   37.2108   33.3241 N   0  0  0  0  0  0  0  0  0  0  0  0
   11.6297   36.3239   30.4740 O   0  0  0  0  0  0  0  0  0  0  0  0
   14.4802   36.3313   33.5727 C   0  0  0  0  0  0  0  0  0  0  0  0
   13.1139   37.6267   34.5692 C   0  0  0  0  0  0  0  0  0  0  0  0
   15.2075   35.6149   32.6739 N   0  0  0  0  0  0  0  0  0  0  0  0
   14.6761   36.2303   34.9181 C   0  0  0  0  0  0  0  0  0  0  0  0
   13.8220   37.0447   35.5785 N   0  0  0  0  0  0  0  0  0  0  0  0
   16.1643   34.7600   33.1547 C   0  0  0  0  0  0  0  0  0  0  0  0
   15.6529   35.3505   35.4130 C   0  0  0  0  0  0  0  0  0  0  0  0
   16.3798   34.6315   34.5042 N   0  0  0  0  0  0  0  0  0  0  0  0
   15.9003   35.1932   36.8090 N   0  0  0  0  0  0  0  0  0  0  0  0
    9.0123   45.4317   33.6720 H   0  0  0  0  0  0  0  0  0  0  0  0
   10.7262   46.9686   33.1211 H   0  0  0  0  0  0  0  0  0  0  0  0
   11.8907   45.7656   32.9471 H   0  0  0  0  0  0  0  0  0  0  0  0
    9.3409   43.8332   31.4766 H   0  0  0  0  0  0  0  0  0  0  0  0
   10.7227   44.8814   31.1559 H   0  0  0  0  0  0  0  0  0  0  0  0
    7.0086   44.7161   31.5794 H   0  0  0  0  0  0  0  0  0  0  0  0
   10.3472   47.1790   30.4025 H   0  0  0  0  0  0  0  0  0  0  0  0
    5.4635   46.3040   30.4978 H   0  0  0  0  0  0  0  0  0  0  0  0
    8.8230   48.7390   29.3170 H   0  0  0  0  0  0  0  0  0  0  0  0
    5.2741   50.2764   28.6063 H   0  0  0  0  0  0  0  0  0  0  0  0
    6.5274   51.7649   29.8945 H   0  0  0  0  0  0  0  0  0  0  0  0
    6.6008   50.3152   30.9279 H   0  0  0  0  0  0  0  0  0  0  0  0
    8.0056   50.7522   29.8814 H   0  0  0  0  0  0  0  0  0  0  0  0
    7.2552   47.7922   27.1913 H   0  0  0  0  0  0  0  0  0  0  0  0
    8.4050   52.2325   25.2467 H   0  0  0  0  0  0  0  0  0  0  0  0
    9.0847   48.1967   22.8502 H   0  0  0  0  0  0  0  0  0  0  0  0
   10.5995   48.2317   23.8724 H   0  0  0  0  0  0  0  0  0  0  0  0
   11.3802   41.5529   31.4733 H   0  0  0  0  0  0  0  0  0  0  0  0
    9.8243   40.7216   31.7643 H   0  0  0  0  0  0  0  0  0  0  0  0
   11.7266   39.5311   30.3513 H   0  0  0  0  0  0  0  0  0  0  0  0
   10.1110   38.2747   32.6387 H   0  0  0  0  0  0  0  0  0  0  0  0
   13.6652   37.4519   31.2226 H   0  0  0  0  0  0  0  0  0  0  0  0
   10.0512   38.1143   29.7645 H   0  0  0  0  0  0  0  0  0  0  0  0
   11.2762   36.3141   32.5189 H   0  0  0  0  0  0  0  0  0  0  0  0
   10.8593   35.6978   30.4640 H   0  0  0  0  0  0  0  0  0  0  0  0
   12.3295   38.3518   34.7449 H   0  0  0  0  0  0  0  0  0  0  0  0
   16.7564   34.1779   32.4620 H   0  0  0  0  0  0  0  0  0  0  0  0
   16.6349   34.5300   37.1415 H   0  0  0  0  0  0  0  0  0  0  0  0
   15.3534   35.7359   37.5138 H   0  0  0  0  0  0  0  0  0  0  0  0
  1  2  2  0
  1  3  1  0
  3  4  1  0
  4  5  1  0
  6  1  1  0
  7  6  1  0
  6  8  1  0
  8  9  1  0
  9 10  2  0
 11  9  1  0
 10 12  1  0
 13 11  2  0
 12 14  2  0
 14 13  1  0
 14 15  1  0
 15 16  1  0
 16 17  1  0
 16 18  1  0
 18 19  2  0
 20 18  1  0
 19 21  1  0
 22 20  2  0
 20 23  1  0
 21 24  1  0
 21 25  2  0
 25 22  1  0
 23 26  1  0
 23 27  2  0
 24 28  1  0
 25 29  1  0
 28 29  1  0
  4 30  2  0
  4 31  1  0
 32 31  1  0
 32 33  1  0
 33 34  1  0
 33 35  1  0
 34 36  1  0
 35 37  1  0
 35 38  1  0
 38 36  1  0
 36 39  1  0
 38 40  1  0
 41 39  1  0
 42 39  1  0
 43 41  2  0
 41 44  1  0
 45 42  2  0
 46 43  1  0
 44 47  2  0
 44 45  1  0
 48 46  2  0
 48 47  1  0
 47 49  1  0
  6 50  1  1
  7 51  1  0
  7 52  1  0
  8 53  1  0
  8 54  1  0
 10 55  1  0
 11 56  1  0
 12 57  1  0
 13 58  1  0
 16 59  1  6
 17 60  1  0
 17 61  1  0
 17 62  1  0
 19 63  1  0
 22 64  1  0
 28 65  1  0
 28 66  1  0
 32 67  1  0
 32 68  1  0
 33 69  1  0
 35 70  1  0
 36 71  1  0
 37 72  1  0
 38 73  1  0
 40 74  1  0
 42 75  1  0
 46 76  1  0
 49 77  1  0
 49 78  1  0
M  CHG  3   5  -1  23   1  26  -1
M  END
>  <EmbedRMS>  (367) 
0.0817968664214

$$$$

     RDKit          3D

 78 83  0  0  0  0  0  0  0  0999 V2000
   10.2836   43.7661   33.8258 C   0  0  0  0  0  0  0  0  0  0  0  0
   11.4103   43.5929   34.3754 O   0  0  0  0  0  0  0  0  0  0  0  0
    9.3638   42.7255   33.7352 O   0  0  0  0  0  0  0  0  0  0  0  0
    9.8904   41.2267   34.2946 P   0  0  0  0  0  0  0  0  0  0  0  0
   10.3729   41.4560   35.8843 O   0  0  0  0  0  0  0  0  0  0  0  0
    9.9548   45.0694   33.2039 C   0  0  1  0  0  0  0  0  0  0  0  0
   11.0275   46.0321   33.4757 N   0  0  0  0  0  0  0  0  0  0  0  0
    9.7464   44.8482   31.6881 C   0  0  0  0  0  0  0  0  0  0  0  0
    8.7922   45.8414   31.0858 C   0  0  0  0  0  0  0  0  0  0  0  0
    7.4059   45.6014   31.0986 C   0  0  0  0  0  0  0  0  0  0  0  0
    9.2820   46.9868   30.4417 C   0  0  0  0  0  0  0  0  0  0  0  0
    6.5277   46.5022   30.4816 C   0  0  0  0  0  0  0  0  0  0  0  0
    8.4032   47.8884   29.8302 C   0  0  0  0  0  0  0  0  0  0  0  0
    7.0128   47.6559   29.8499 C   0  0  0  0  0  0  0  0  0  0  0  0
    6.0769   48.5198   29.2474 O   0  0  0  0  0  0  0  0  0  0  0  0
    6.2880   49.8713   28.8053 C   0  0  1  0  0  0  0  0  0  0  0  0
    6.8987   50.7214   29.9385 C   0  0  0  0  0  0  0  0  0  0  0  0
    7.0626   49.9637   27.4875 C   0  0  0  0  0  0  0  0  0  0  0  0
    7.4970   48.7814   26.8298 C   0  0  0  0  0  0  0  0  0  0  0  0
    7.3555   51.2335   26.8779 C   0  0  0  0  0  0  0  0  0  0  0  0
    8.2660   48.8988   25.6799 C   0  0  0  0  0  0  0  0  0  0  0  0
    8.1590   51.2900   25.7174 C   0  0  0  0  0  0  0  0  0  0  0  0
    6.8214   52.4620   27.3920 N   0  0  0  0  0  0  0  0  0  0  0  0
    8.8088   47.8922   24.9045 O   0  0  0  0  0  0  0  0  0  0  0  0
    8.5920   50.0997   25.1534 C   0  0  0  0  0  0  0  0  0  0  0  0
    7.5915   53.6019   27.3724 O   0  0  0  0  0  0  0  0  0  0  0  0
    5.5986   52.5653   27.6190 O   0  0  0  0  0  0  0  0  0  0  0  0
    9.5246   48.5041   23.8230 C   0  0  0  0  0  0  0  0  0  0  0  0
    9.3593   49.9149   24.0194 O   0  0  0  0  0  0  0  0  0  0  0  0
    8.8125   40.1848   34.2126 O   0  0  0  0  0  0  0  0  0  0  0  0
   11.2416   40.7947   33.3707 O   0  0  0  0  0  0  0  0  0  0  0  0
   10.9179   40.6922   31.9984 C   0  0  0  0  0  0  0  0  0  0  0  0
   11.5175   39.3838   31.4423 C   0  0  0  0  0  0  0  0  0  0  0  0
   12.7508   39.0887   32.0752 O   0  0  0  0  0  0  0  0  0  0  0  0
   10.6028   38.1916   31.6659 C   0  0  0  0  0  0  0  0  0  0  0  0
   12.9384   37.6818   32.0278 C   0  0  0  0  0  0  0  0  0  0  0  0
    9.6371   38.0806   30.6470 O   0  0  0  0  0  0  0  0  0  0  0  0
   11.5780   37.0215   31.6935 C   0  0  0  0  0  0  0  0  0  0  0  0
   13.4844   37.2119   33.3242 N   0  0  0  0  0  0  0  0  0  0  0  0
   11.6095   36.3202   30.4679 O   0  0  0  0  0  0  0  0  0  0  0  0
   14.4797   36.3318   33.5730 C   0  0  0  0  0  0  0  0  0  0  0  0
   13.1136   37.6278   34.5691 C   0  0  0  0  0  0  0  0  0  0  0  0
   15.2073   35.6155   32.6742 N   0  0  0  0  0  0  0  0  0  0  0  0
   14.6754   36.2305   34.9184 C   0  0  0  0  0  0  0  0  0  0  0  0
   13.8213   37.0452   35.5785 N   0  0  0  0  0  0  0  0  0  0  0  0
   16.1640   34.7604   33.1549 C   0  0  0  0  0  0  0  0  0  0  0  0
   15.6524   35.3507   35.4132 C   0  0  0  0  0  0  0  0  0  0  0  0
   16.3794   34.6318   34.5044 N   0  0  0  0  0  0  0  0  0  0  0  0
   15.8999   35.1934   36.8091 N   0  0  0  0  0  0  0  0  0  0  0  0
    9.0123   45.4317   33.6720 H   0  0  0  0  0  0  0  0  0  0  0  0
   11.8907   45.7656   32.9471 H   0  0  0  0  0  0  0  0  0  0  0  0
   10.7261   46.9686   33.1211 H   0  0  0  0  0  0  0  0  0  0  0  0
    9.3409   43.8332   31.4766 H   0  0  0  0  0  0  0  0  0  0  0  0
   10.7226   44.8814   31.1559 H   0  0  0  0  0  0  0  0  0  0  0  0
    7.0085   44.7160   31.5794 H   0  0  0  0  0  0  0  0  0  0  0  0
   10.3472   47.1789   30.4025 H   0  0  0  0  0  0  0  0  0  0  0  0
    5.4635   46.3040   30.4978 H   0  0  0  0  0  0  0  0  0  0  0  0
    8.8231   48.7390   29.3170 H   0  0  0  0  0  0  0  0  0  0  0  0
    5.2741   50.2765   28.6065 H   0  0  0  0  0  0  0  0  0  0  0  0
    6.6003   50.3151   30.9282 H   0  0  0  0  0  0  0  0  0  0  0  0
    8.0055   50.7519   29.8822 H   0  0  0  0  0  0  0  0  0  0  0  0
    6.5274   51.7649   29.8950 H   0  0  0  0  0  0  0  0  0  0  0  0
    7.2559   47.7928   27.1913 H   0  0  0  0  0  0  0  0  0  0  0  0
    8.4047   52.2337   25.2474 H   0  0  0  0  0  0  0  0  0  0  0  0
   10.6002   48.2337   23.8726 H   0  0  0  0  0  0  0  0  0  0  0  0
    9.0855   48.1985   22.8502 H   0  0  0  0  0  0  0  0  0  0  0  0
   11.3952   41.5478   31.4744 H   0  0  0  0  0  0  0  0  0  0  0  0
    9.8291   40.7409   31.7627 H   0  0  0  0  0  0  0  0  0  0  0  0
   11.6981   39.5115   30.3500 H   0  0  0  0  0  0  0  0  0  0  0  0
   10.1117   38.2604   32.6660 H   0  0  0  0  0  0  0  0  0  0  0  0
   13.6767   37.4556   31.2267 H   0  0  0  0  0  0  0  0  0  0  0  0
    8.8961   38.6952   30.8872 H   0  0  0  0  0  0  0  0  0  0  0  0
   11.2791   36.3072   32.4922 H   0  0  0  0  0  0  0  0  0  0  0  0
   11.8828   36.9598   29.7589 H   0  0  0  0  0  0  0  0  0  0  0  0
   12.3300   38.3539   34.7446 H   0  0  0  0  0  0  0  0  0  0  0  0
   16.7562   34.1785   32.4622 H   0  0  0  0  0  0  0  0  0  0  0  0
   16.6347   34.5303   37.1416 H   0  0  0  0  0  0  0  0  0  0  0  0
   15.3531   35.7360   37.5140 H   0  0  0  0  0  0  0  0  0  0  0  0
  1  2  2  0
  1  3  1  0
  3  4  1  0
  4  5  1  0
  6  1  1  0
  7  6  1  0
  6  8  1  0
  8  9  1  0
  9 10  2  0
 11  9  1  0
 10 12  1  0
 13 11  2  0
 12 14  2  0
 14 13  1  0
 14 15  1  0
 15 16  1  0
 16 17  1  0
 16 18  1  0
 18 19  2  0
 20 18  1  0
 19 21  1  0
 22 20  2  0
 20 23  1  0
 21 24  1  0
 21 25  2  0
 25 22  1  0
 23 26  1  0
 23 27  2  0
 24 28  1  0
 25 29  1  0
 28 29  1  0
  4 30  2  0
  4 31  1  0
 32 31  1  0
 32 33  1  0
 33 34  1  0
 33 35  1  0
 34 36  1  0
 35 37  1  0
 35 38  1  0
 38 36  1  0
 36 39  1  0
 38 40  1  0
 41 39  1  0
 42 39  1  0
 43 41  2  0
 41 44  1  0
 45 42  2  0
 46 43  1  0
 44 47  2  0
 44 45  1  0
 48 46  2  0
 48 47  1  0
 47 49  1  0
  6 50  1  1
  7 51  1  0
  7 52  1  0
  8 53  1  0
  8 54  1  0
 10 55  1  0
 11 56  1  0
 12 57  1  0
 13 58  1  0
 16 59  1  6
 17 60  1  0
 17 61  1  0
 17 62  1  0
 19 63  1  0
 22 64  1  0
 28 65  1  0
 28 66  1  0
 32 67  1  0
 32 68  1  0
 33 69  1  0
 35 70  1  0
 36 71  1  0
 37 72  1  0
 38 73  1  0
 40 74  1  0
 42 75  1  0
 46 76  1  0
 49 77  1  0
 49 78  1  0
M  CHG  3   5  -1  23   1  26  -1
M  END
>  <EmbedRMS>  (368) 
0.0819557136367

$$$$

     RDKit          3D

 78 83  0  0  0  0  0  0  0  0999 V2000
   10.2836   43.7630   33.8276 C   0  0  0  0  0  0  0  0  0  0  0  0
   11.4101   43.5869   34.3766 O   0  0  0  0  0  0  0  0  0  0  0  0
    9.3633   42.7236   33.7351 O   0  0  0  0  0  0  0  0  0  0  0  0
    9.8899   41.2249   34.2940 P   0  0  0  0  0  0  0  0  0  0  0  0
   10.3724   41.4546   35.8836 O   0  0  0  0  0  0  0  0  0  0  0  0
    9.9542   45.0705   33.2064 C   0  0  1  0  0  0  0  0  0  0  0  0
   11.0190   46.0488   33.4569 N   0  0  0  0  0  0  0  0  0  0  0  0
    9.7499   44.8513   31.6924 C   0  0  0  0  0  0  0  0  0  0  0  0
    8.7941   45.8420   31.0866 C   0  0  0  0  0  0  0  0  0  0  0  0
    7.4060   45.5993   31.0981 C   0  0  0  0  0  0  0  0  0  0  0  0
    9.2840   46.9891   30.4421 C   0  0  0  0  0  0  0  0  0  0  0  0
    6.5260   46.4998   30.4814 C   0  0  0  0  0  0  0  0  0  0  0  0
    8.4026   47.8880   29.8299 C   0  0  0  0  0  0  0  0  0  0  0  0
    7.0207   47.6535   29.8582 C   0  0  0  0  0  0  0  0  0  0  0  0
    6.1443   48.5499   29.2420 O   0  0  0  0  0  0  0  0  0  0  0  0
    5.6038   49.7087   29.8852 C   0  0  1  0  0  0  0  0  0  0  0  0
    4.5048   49.3320   30.8845 C   0  0  0  0  0  0  0  0  0  0  0  0
    6.7036   50.6204   30.4287 C   0  0  0  0  0  0  0  0  0  0  0  0
    7.1963   51.6226   29.5553 C   0  0  0  0  0  0  0  0  0  0  0  0
    7.3256   50.4628   31.7158 C   0  0  0  0  0  0  0  0  0  0  0  0
    8.2531   52.4190   29.9765 C   0  0  0  0  0  0  0  0  0  0  0  0
    8.3992   51.2991   32.0886 C   0  0  0  0  0  0  0  0  0  0  0  0
    6.8831   49.4868   32.6598 N   0  0  0  0  0  0  0  0  0  0  0  0
    8.8828   53.4420   29.2939 O   0  0  0  0  0  0  0  0  0  0  0  0
    8.8298   52.2634   31.1893 C   0  0  0  0  0  0  0  0  0  0  0  0
    5.9182   49.8431   33.5727 O   0  0  0  0  0  0  0  0  0  0  0  0
    7.6156   48.5092   32.9130 O   0  0  0  0  0  0  0  0  0  0  0  0
    9.9207   53.9623   30.1359 C   0  0  0  0  0  0  0  0  0  0  0  0
    9.8519   53.1812   31.3366 O   0  0  0  0  0  0  0  0  0  0  0  0
    8.8119   40.1832   34.2121 O   0  0  0  0  0  0  0  0  0  0  0  0
   11.2416   40.7934   33.3699 O   0  0  0  0  0  0  0  0  0  0  0  0
   10.9186   40.6909   31.9972 C   0  0  0  0  0  0  0  0  0  0  0  0
   11.5172   39.3814   31.4407 C   0  0  0  0  0  0  0  0  0  0  0  0
   12.7493   39.0855   32.0728 O   0  0  0  0  0  0  0  0  0  0  0  0
   10.6023   38.1907   31.6665 C   0  0  0  0  0  0  0  0  0  0  0  0
   12.9319   37.6781   32.0281 C   0  0  0  0  0  0  0  0  0  0  0  0
    9.6392   38.0797   30.6452 O   0  0  0  0  0  0  0  0  0  0  0  0
   11.5715   37.0165   31.7056 C   0  0  0  0  0  0  0  0  0  0  0  0
   13.4847   37.2121   33.3235 N   0  0  0  0  0  0  0  0  0  0  0  0
   11.6187   36.3383   30.4694 O   0  0  0  0  0  0  0  0  0  0  0  0
   14.4801   36.3321   33.5724 C   0  0  0  0  0  0  0  0  0  0  0  0
   13.1137   37.6275   34.5687 C   0  0  0  0  0  0  0  0  0  0  0  0
   15.2073   35.6153   32.6738 N   0  0  0  0  0  0  0  0  0  0  0  0
   14.6759   36.2308   34.9179 C   0  0  0  0  0  0  0  0  0  0  0  0
   13.8216   37.0452   35.5781 N   0  0  0  0  0  0  0  0  0  0  0  0
   16.1640   34.7601   33.1546 C   0  0  0  0  0  0  0  0  0  0  0  0
   15.6526   35.3508   35.4129 C   0  0  0  0  0  0  0  0  0  0  0  0
   16.3794   34.6317   34.5041 N   0  0  0  0  0  0  0  0  0  0  0  0
   15.8999   35.1934   36.8088 N   0  0  0  0  0  0  0  0  0  0  0  0
    9.0091   45.4354   33.6667 H   0  0  0  0  0  0  0  0  0  0  0  0
   11.9343   45.6940   33.0932 H   0  0  0  0  0  0  0  0  0  0  0  0
   11.1118   46.2007   34.4881 H   0  0  0  0  0  0  0  0  0  0  0  0
    9.3510   43.8348   31.4762 H   0  0  0  0  0  0  0  0  0  0  0  0
   10.7303   44.8931   31.1678 H   0  0  0  0  0  0  0  0  0  0  0  0
    7.0100   44.7126   31.5774 H   0  0  0  0  0  0  0  0  0  0  0  0
   10.3481   47.1882   30.4112 H   0  0  0  0  0  0  0  0  0  0  0  0
    5.4619   46.3018   30.4904 H   0  0  0  0  0  0  0  0  0  0  0  0
    8.7928   48.7687   29.3360 H   0  0  0  0  0  0  0  0  0  0  0  0
    5.0688   50.2762   29.0917 H   0  0  0  0  0  0  0  0  0  0  0  0
    3.6217   48.9449   30.3328 H   0  0  0  0  0  0  0  0  0  0  0  0
    4.1866   50.2241   31.4646 H   0  0  0  0  0  0  0  0  0  0  0  0
    4.8331   48.5292   31.5725 H   0  0  0  0  0  0  0  0  0  0  0  0
    6.7799   51.7678   28.5664 H   0  0  0  0  0  0  0  0  0  0  0  0
    8.8786   51.1978   33.0540 H   0  0  0  0  0  0  0  0  0  0  0  0
   10.9105   53.8322   29.6503 H   0  0  0  0  0  0  0  0  0  0  0  0
    9.7306   55.0322   30.3633 H   0  0  0  0  0  0  0  0  0  0  0  0
   11.3971   41.5459   31.4734 H   0  0  0  0  0  0  0  0  0  0  0  0
    9.8300   40.7410   31.7610 H   0  0  0  0  0  0  0  0  0  0  0  0
   11.6974   39.5067   30.3480 H   0  0  0  0  0  0  0  0  0  0  0  0
   10.1077   38.2647   32.6645 H   0  0  0  0  0  0  0  0  0  0  0  0
   13.6621   37.4467   31.2208 H   0  0  0  0  0  0  0  0  0  0  0  0
    8.8975   38.6943   30.8831 H   0  0  0  0  0  0  0  0  0  0  0  0
   11.2806   36.3073   32.5170 H   0  0  0  0  0  0  0  0  0  0  0  0
   10.8492   35.7110   30.4586 H   0  0  0  0  0  0  0  0  0  0  0  0
   12.3290   38.3524   34.7444 H   0  0  0  0  0  0  0  0  0  0  0  0
   16.7559   34.1780   32.4619 H   0  0  0  0  0  0  0  0  0  0  0  0
   16.6344   34.5301   37.1414 H   0  0  0  0  0  0  0  0  0  0  0  0
   15.3531   35.7362   37.5137 H   0  0  0  0  0  0  0  0  0  0  0  0
  1  2  2  0
  1  3  1  0
  3  4  1  0
  4  5  1  0
  6  1  1  0
  7  6  1  0
  6  8  1  0
  8  9  1  0
  9 10  2  0
 11  9  1  0
 10 12  1  0
 13 11  2  0
 12 14  2  0
 14 13  1  0
 14 15  1  0
 15 16  1  0
 16 17  1  0
 16 18  1  0
 18 19  2  0
 20 18  1  0
 19 21  1  0
 22 20  2  0
 20 23  1  0
 21 24  1  0
 21 25  2  0
 25 22  1  0
 23 26  1  0
 23 27  2  0
 24 28  1  0
 25 29  1  0
 28 29  1  0
  4 30  2  0
  4 31  1  0
 32 31  1  0
 32 33  1  0
 33 34  1  0
 33 35  1  0
 34 36  1  0
 35 37  1  0
 35 38  1  0
 38 36  1  0
 36 39  1  0
 38 40  1  0
 41 39  1  0
 42 39  1  0
 43 41  2  0
 41 44  1  0
 45 42  2  0
 46 43  1  0
 44 47  2  0
 44 45  1  0
 48 46  2  0
 48 47  1  0
 47 49  1  0
  6 50  1  1
  7 51  1  0
  7 52  1  0
  8 53  1  0
  8 54  1  0
 10 55  1  0
 11 56  1  0
 12 57  1  0
 13 58  1  0
 16 59  1  6
 17 60  1  0
 17 61  1  0
 17 62  1  0
 19 63  1  0
 22 64  1  0
 28 65  1  0
 28 66  1  0
 32 67  1  0
 32 68  1  0
 33 69  1  0
 35 70  1  0
 36 71  1  0
 37 72  1  0
 38 73  1  0
 40 74  1  0
 42 75  1  0
 46 76  1  0
 49 77  1  0
 49 78  1  0
M  CHG  3   5  -1  23   1  26  -1
M  END
>  <EmbedRMS>  (369) 
0.0839469970774

$$$$

     RDKit          3D

 78 83  0  0  0  0  0  0  0  0999 V2000
   10.2836   43.7661   33.8257 C   0  0  0  0  0  0  0  0  0  0  0  0
   11.4103   43.5931   34.3754 O   0  0  0  0  0  0  0  0  0  0  0  0
    9.3641   42.7253   33.7347 O   0  0  0  0  0  0  0  0  0  0  0  0
    9.8908   41.2265   34.2939 P   0  0  0  0  0  0  0  0  0  0  0  0
   10.3732   41.4558   35.8836 O   0  0  0  0  0  0  0  0  0  0  0  0
    9.9546   45.0694   33.2037 C   0  0  1  0  0  0  0  0  0  0  0  0
   11.0272   46.0323   33.4757 N   0  0  0  0  0  0  0  0  0  0  0  0
    9.7465   44.8481   31.6878 C   0  0  0  0  0  0  0  0  0  0  0  0
    8.7923   45.8409   31.0848 C   0  0  0  0  0  0  0  0  0  0  0  0
    7.4057   45.6012   31.0985 C   0  0  0  0  0  0  0  0  0  0  0  0
    9.2821   46.9873   30.4419 C   0  0  0  0  0  0  0  0  0  0  0  0
    6.5271   46.5026   30.4829 C   0  0  0  0  0  0  0  0  0  0  0  0
    8.4032   47.8891   29.8306 C   0  0  0  0  0  0  0  0  0  0  0  0
    7.0137   47.6547   29.8496 C   0  0  0  0  0  0  0  0  0  0  0  0
    6.0856   48.5275   29.2577 O   0  0  0  0  0  0  0  0  0  0  0  0
    6.3916   49.7932   28.6716 C   0  0  1  0  0  0  0  0  0  0  0  0
    5.1833   50.2926   27.8789 C   0  0  0  0  0  0  0  0  0  0  0  0
    6.8096   50.8075   29.7264 C   0  0  0  0  0  0  0  0  0  0  0  0
    8.0502   51.4703   29.5571 C   0  0  0  0  0  0  0  0  0  0  0  0
    5.9801   51.1580   30.8447 C   0  0  0  0  0  0  0  0  0  0  0  0
    8.4224   52.4348   30.4843 C   0  0  0  0  0  0  0  0  0  0  0  0
    6.4047   52.1574   31.7479 C   0  0  0  0  0  0  0  0  0  0  0  0
    4.7102   50.5339   31.0684 N   0  0  0  0  0  0  0  0  0  0  0  0
    9.5754   53.1953   30.5167 O   0  0  0  0  0  0  0  0  0  0  0  0
    7.6340   52.7648   31.5326 C   0  0  0  0  0  0  0  0  0  0  0  0
    4.6538   49.2047   31.4136 O   0  0  0  0  0  0  0  0  0  0  0  0
    3.6993   51.2445   31.2443 O   0  0  0  0  0  0  0  0  0  0  0  0
    9.5053   54.0566   31.6612 C   0  0  0  0  0  0  0  0  0  0  0  0
    8.2492   53.7495   32.2814 O   0  0  0  0  0  0  0  0  0  0  0  0
    8.8127   40.1848   34.2122 O   0  0  0  0  0  0  0  0  0  0  0  0
   11.2421   40.7941   33.3697 O   0  0  0  0  0  0  0  0  0  0  0  0
   10.9187   40.6911   31.9971 C   0  0  0  0  0  0  0  0  0  0  0  0
   11.5172   39.3815   31.4407 C   0  0  0  0  0  0  0  0  0  0  0  0
   12.7493   39.0856   32.0728 O   0  0  0  0  0  0  0  0  0  0  0  0
   10.6023   38.1908   31.6665 C   0  0  0  0  0  0  0  0  0  0  0  0
   12.9319   37.6781   32.0281 C   0  0  0  0  0  0  0  0  0  0  0  0
    9.6392   38.0798   30.6452 O   0  0  0  0  0  0  0  0  0  0  0  0
   11.5715   37.0166   31.7056 C   0  0  0  0  0  0  0  0  0  0  0  0
   13.4846   37.2121   33.3235 N   0  0  0  0  0  0  0  0  0  0  0  0
   11.6187   36.3384   30.4695 O   0  0  0  0  0  0  0  0  0  0  0  0
   14.4801   36.3321   33.5724 C   0  0  0  0  0  0  0  0  0  0  0  0
   13.1137   37.6275   34.5688 C   0  0  0  0  0  0  0  0  0  0  0  0
   15.2073   35.6153   32.6738 N   0  0  0  0  0  0  0  0  0  0  0  0
   14.6759   36.2308   34.9179 C   0  0  0  0  0  0  0  0  0  0  0  0
   13.8216   37.0452   35.5781 N   0  0  0  0  0  0  0  0  0  0  0  0
   16.1640   34.7602   33.1546 C   0  0  0  0  0  0  0  0  0  0  0  0
   15.6526   35.3508   35.4129 C   0  0  0  0  0  0  0  0  0  0  0  0
   16.3794   34.6317   34.5041 N   0  0  0  0  0  0  0  0  0  0  0  0
   15.8999   35.1934   36.8088 N   0  0  0  0  0  0  0  0  0  0  0  0
    9.0120   45.4316   33.6716 H   0  0  0  0  0  0  0  0  0  0  0  0
   10.7257   46.9688   33.1214 H   0  0  0  0  0  0  0  0  0  0  0  0
   11.8905   45.7660   32.9470 H   0  0  0  0  0  0  0  0  0  0  0  0
   10.7229   44.8814   31.1558 H   0  0  0  0  0  0  0  0  0  0  0  0
    9.3413   43.8329   31.4764 H   0  0  0  0  0  0  0  0  0  0  0  0
    7.0084   44.7163   31.5803 H   0  0  0  0  0  0  0  0  0  0  0  0
   10.3470   47.1829   30.4088 H   0  0  0  0  0  0  0  0  0  0  0  0
    5.4625   46.3068   30.5019 H   0  0  0  0  0  0  0  0  0  0  0  0
    8.8192   48.7556   29.3398 H   0  0  0  0  0  0  0  0  0  0  0  0
    7.2056   49.6477   27.9268 H   0  0  0  0  0  0  0  0  0  0  0  0
    4.9654   49.5870   27.0492 H   0  0  0  0  0  0  0  0  0  0  0  0
    4.2801   50.3614   28.5181 H   0  0  0  0  0  0  0  0  0  0  0  0
    5.3970   51.2917   27.4422 H   0  0  0  0  0  0  0  0  0  0  0  0
    8.7035   51.2493   28.7226 H   0  0  0  0  0  0  0  0  0  0  0  0
    5.7961   52.4421   32.5968 H   0  0  0  0  0  0  0  0  0  0  0  0
    9.5258   55.1201   31.3433 H   0  0  0  0  0  0  0  0  0  0  0  0
   10.3407   53.8374   32.3587 H   0  0  0  0  0  0  0  0  0  0  0  0
    9.8300   40.7410   31.7613 H   0  0  0  0  0  0  0  0  0  0  0  0
   11.3969   41.5460   31.4729 H   0  0  0  0  0  0  0  0  0  0  0  0
   11.6975   39.5067   30.3481 H   0  0  0  0  0  0  0  0  0  0  0  0
   10.1077   38.2648   32.6645 H   0  0  0  0  0  0  0  0  0  0  0  0
   13.6621   37.4467   31.2209 H   0  0  0  0  0  0  0  0  0  0  0  0
    8.8975   38.6944   30.8831 H   0  0  0  0  0  0  0  0  0  0  0  0
   11.2806   36.3073   32.5170 H   0  0  0  0  0  0  0  0  0  0  0  0
   10.8492   35.7110   30.4586 H   0  0  0  0  0  0  0  0  0  0  0  0
   12.3290   38.3524   34.7444 H   0  0  0  0  0  0  0  0  0  0  0  0
   16.7559   34.1780   32.4619 H   0  0  0  0  0  0  0  0  0  0  0  0
   16.6344   34.5301   37.1414 H   0  0  0  0  0  0  0  0  0  0  0  0
   15.3531   35.7362   37.5137 H   0  0  0  0  0  0  0  0  0  0  0  0
  1  2  2  0
  1  3  1  0
  3  4  1  0
  4  5  1  0
  6  1  1  0
  7  6  1  0
  6  8  1  0
  8  9  1  0
  9 10  2  0
 11  9  1  0
 10 12  1  0
 13 11  2  0
 12 14  2  0
 14 13  1  0
 14 15  1  0
 15 16  1  0
 16 17  1  0
 16 18  1  0
 18 19  2  0
 20 18  1  0
 19 21  1  0
 22 20  2  0
 20 23  1  0
 21 24  1  0
 21 25  2  0
 25 22  1  0
 23 26  1  0
 23 27  2  0
 24 28  1  0
 25 29  1  0
 28 29  1  0
  4 30  2  0
  4 31  1  0
 32 31  1  0
 32 33  1  0
 33 34  1  0
 33 35  1  0
 34 36  1  0
 35 37  1  0
 35 38  1  0
 38 36  1  0
 36 39  1  0
 38 40  1  0
 41 39  1  0
 42 39  1  0
 43 41  2  0
 41 44  1  0
 45 42  2  0
 46 43  1  0
 44 47  2  0
 44 45  1  0
 48 46  2  0
 48 47  1  0
 47 49  1  0
  6 50  1  1
  7 51  1  0
  7 52  1  0
  8 53  1  0
  8 54  1  0
 10 55  1  0
 11 56  1  0
 12 57  1  0
 13 58  1  0
 16 59  1  6
 17 60  1  0
 17 61  1  0
 17 62  1  0
 19 63  1  0
 22 64  1  0
 28 65  1  0
 28 66  1  0
 32 67  1  0
 32 68  1  0
 33 69  1  0
 35 70  1  0
 36 71  1  0
 37 72  1  0
 38 73  1  0
 40 74  1  0
 42 75  1  0
 46 76  1  0
 49 77  1  0
 49 78  1  0
M  CHG  3   5  -1  23   1  26  -1
M  END
>  <EmbedRMS>  (370) 
0.0829437688607

$$$$

     RDKit          3D

 78 83  0  0  0  0  0  0  0  0999 V2000
   10.2835   43.7661   33.8255 C   0  0  0  0  0  0  0  0  0  0  0  0
   11.4102   43.5930   34.3753 O   0  0  0  0  0  0  0  0  0  0  0  0
    9.3639   42.7253   33.7346 O   0  0  0  0  0  0  0  0  0  0  0  0
    9.8906   41.2265   34.2938 P   0  0  0  0  0  0  0  0  0  0  0  0
   10.3733   41.4559   35.8835 O   0  0  0  0  0  0  0  0  0  0  0  0
    9.9548   45.0694   33.2034 C   0  0  1  0  0  0  0  0  0  0  0  0
   11.0273   46.0322   33.4758 N   0  0  0  0  0  0  0  0  0  0  0  0
    9.7472   44.8482   31.6873 C   0  0  0  0  0  0  0  0  0  0  0  0
    8.7927   45.8406   31.0839 C   0  0  0  0  0  0  0  0  0  0  0  0
    7.4060   45.6014   31.0999 C   0  0  0  0  0  0  0  0  0  0  0  0
    9.2817   46.9882   30.4427 C   0  0  0  0  0  0  0  0  0  0  0  0
    6.5245   46.5018   30.4861 C   0  0  0  0  0  0  0  0  0  0  0  0
    8.4002   47.8887   29.8337 C   0  0  0  0  0  0  0  0  0  0  0  0
    7.0186   47.6549   29.8432 C   0  0  0  0  0  0  0  0  0  0  0  0
    6.1844   48.5889   29.2072 O   0  0  0  0  0  0  0  0  0  0  0  0
    4.7798   48.4417   28.9950 C   0  0  1  0  0  0  0  0  0  0  0  0
    4.1903   49.7754   28.5347 C   0  0  0  0  0  0  0  0  0  0  0  0
    4.4797   47.3347   27.9929 C   0  0  0  0  0  0  0  0  0  0  0  0
    3.6090   46.2937   28.4004 C   0  0  0  0  0  0  0  0  0  0  0  0
    4.9862   47.3316   26.6470 C   0  0  0  0  0  0  0  0  0  0  0  0
    3.2781   45.3036   27.4851 C   0  0  0  0  0  0  0  0  0  0  0  0
    4.6000   46.3058   25.7561 C   0  0  0  0  0  0  0  0  0  0  0  0
    5.8565   48.3598   26.1558 N   0  0  0  0  0  0  0  0  0  0  0  0
    2.4586   44.2061   27.6661 O   0  0  0  0  0  0  0  0  0  0  0  0
    3.7514   45.3101   26.2186 C   0  0  0  0  0  0  0  0  0  0  0  0
    5.6156   48.9140   24.9201 O   0  0  0  0  0  0  0  0  0  0  0  0
    6.9647   48.5531   26.6941 O   0  0  0  0  0  0  0  0  0  0  0  0
    2.4176   43.4765   26.4321 C   0  0  0  0  0  0  0  0  0  0  0  0
    3.2564   44.2165   25.5346 O   0  0  0  0  0  0  0  0  0  0  0  0
    8.8126   40.1848   34.2122 O   0  0  0  0  0  0  0  0  0  0  0  0
   11.2418   40.7943   33.3694 O   0  0  0  0  0  0  0  0  0  0  0  0
   10.9179   40.6904   31.9970 C   0  0  0  0  0  0  0  0  0  0  0  0
   11.5181   39.3814   31.4408 C   0  0  0  0  0  0  0  0  0  0  0  0
   12.7497   39.0870   32.0746 O   0  0  0  0  0  0  0  0  0  0  0  0
   10.6045   38.1892   31.6655 C   0  0  0  0  0  0  0  0  0  0  0  0
   12.9344   37.6801   32.0290 C   0  0  0  0  0  0  0  0  0  0  0  0
    9.6418   38.0758   30.6440 O   0  0  0  0  0  0  0  0  0  0  0  0
   11.5741   37.0170   31.7045 C   0  0  0  0  0  0  0  0  0  0  0  0
   13.4851   37.2125   33.3241 N   0  0  0  0  0  0  0  0  0  0  0  0
   11.6078   36.3407   30.4680 O   0  0  0  0  0  0  0  0  0  0  0  0
   14.4801   36.3321   33.5727 C   0  0  0  0  0  0  0  0  0  0  0  0
   13.1140   37.6277   34.5692 C   0  0  0  0  0  0  0  0  0  0  0  0
   15.2073   35.6155   32.6739 N   0  0  0  0  0  0  0  0  0  0  0  0
   14.6758   36.2306   34.9182 C   0  0  0  0  0  0  0  0  0  0  0  0
   13.8217   37.0451   35.5784 N   0  0  0  0  0  0  0  0  0  0  0  0
   16.1639   34.7602   33.1546 C   0  0  0  0  0  0  0  0  0  0  0  0
   15.6526   35.3506   35.4130 C   0  0  0  0  0  0  0  0  0  0  0  0
   16.3794   34.6316   34.5041 N   0  0  0  0  0  0  0  0  0  0  0  0
   15.9000   35.1933   36.8089 N   0  0  0  0  0  0  0  0  0  0  0  0
    9.0120   45.4316   33.6710 H   0  0  0  0  0  0  0  0  0  0  0  0
   10.7260   46.9688   33.1214 H   0  0  0  0  0  0  0  0  0  0  0  0
   11.8908   45.7659   32.9475 H   0  0  0  0  0  0  0  0  0  0  0  0
   10.7237   44.8823   31.1556 H   0  0  0  0  0  0  0  0  0  0  0  0
    9.3427   43.8329   31.4755 H   0  0  0  0  0  0  0  0  0  0  0  0
    7.0100   44.7177   31.5852 H   0  0  0  0  0  0  0  0  0  0  0  0
   10.3459   47.1869   30.4112 H   0  0  0  0  0  0  0  0  0  0  0  0
    5.4668   46.2918   30.5278 H   0  0  0  0  0  0  0  0  0  0  0  0
    8.7936   48.7701   29.3432 H   0  0  0  0  0  0  0  0  0  0  0  0
    4.3001   48.2206   29.9744 H   0  0  0  0  0  0  0  0  0  0  0  0
    3.1020   49.6666   28.3386 H   0  0  0  0  0  0  0  0  0  0  0  0
    4.3281   50.5376   29.3308 H   0  0  0  0  0  0  0  0  0  0  0  0
    4.6892   50.1442   27.6158 H   0  0  0  0  0  0  0  0  0  0  0  0
    3.1908   46.2599   29.3984 H   0  0  0  0  0  0  0  0  0  0  0  0
    4.9620   46.2820   24.7362 H   0  0  0  0  0  0  0  0  0  0  0  0
    2.8215   42.4527   26.5777 H   0  0  0  0  0  0  0  0  0  0  0  0
    1.3787   43.4388   26.0425 H   0  0  0  0  0  0  0  0  0  0  0  0
    9.8290   40.7386   31.7617 H   0  0  0  0  0  0  0  0  0  0  0  0
   11.3946   41.5459   31.4722 H   0  0  0  0  0  0  0  0  0  0  0  0
   11.6994   39.5069   30.3484 H   0  0  0  0  0  0  0  0  0  0  0  0
   10.1090   38.2635   32.6632 H   0  0  0  0  0  0  0  0  0  0  0  0
   13.6662   37.4515   31.2224 H   0  0  0  0  0  0  0  0  0  0  0  0
    8.9009   38.6926   30.8792 H   0  0  0  0  0  0  0  0  0  0  0  0
   11.2650   36.3083   32.5087 H   0  0  0  0  0  0  0  0  0  0  0  0
   12.1372   35.5140   30.6163 H   0  0  0  0  0  0  0  0  0  0  0  0
   12.3297   38.3530   34.7450 H   0  0  0  0  0  0  0  0  0  0  0  0
   16.7558   34.1781   32.4619 H   0  0  0  0  0  0  0  0  0  0  0  0
   15.3533   35.7360   37.5138 H   0  0  0  0  0  0  0  0  0  0  0  0
   16.6346   34.5300   37.1415 H   0  0  0  0  0  0  0  0  0  0  0  0
  1  2  2  0
  1  3  1  0
  3  4  1  0
  4  5  1  0
  6  1  1  0
  7  6  1  0
  6  8  1  0
  8  9  1  0
  9 10  2  0
 11  9  1  0
 10 12  1  0
 13 11  2  0
 12 14  2  0
 14 13  1  0
 14 15  1  0
 15 16  1  0
 16 17  1  0
 16 18  1  0
 18 19  2  0
 20 18  1  0
 19 21  1  0
 22 20  2  0
 20 23  1  0
 21 24  1  0
 21 25  2  0
 25 22  1  0
 23 26  1  0
 23 27  2  0
 24 28  1  0
 25 29  1  0
 28 29  1  0
  4 30  2  0
  4 31  1  0
 32 31  1  0
 32 33  1  0
 33 34  1  0
 33 35  1  0
 34 36  1  0
 35 37  1  0
 35 38  1  0
 38 36  1  0
 36 39  1  0
 38 40  1  0
 41 39  1  0
 42 39  1  0
 43 41  2  0
 41 44  1  0
 45 42  2  0
 46 43  1  0
 44 47  2  0
 44 45  1  0
 48 46  2  0
 48 47  1  0
 47 49  1  0
  6 50  1  1
  7 51  1  0
  7 52  1  0
  8 53  1  0
  8 54  1  0
 10 55  1  0
 11 56  1  0
 12 57  1  0
 13 58  1  0
 16 59  1  1
 17 60  1  0
 17 61  1  0
 17 62  1  0
 19 63  1  0
 22 64  1  0
 28 65  1  0
 28 66  1  0
 32 67  1  0
 32 68  1  0
 33 69  1  0
 35 70  1  0
 36 71  1  0
 37 72  1  0
 38 73  1  0
 40 74  1  0
 42 75  1  0
 46 76  1  0
 49 77  1  0
 49 78  1  0
M  CHG  3   5  -1  23   1  26  -1
M  END
>  <EmbedRMS>  (371) 
0.0828333420408

$$$$

     RDKit          3D

 78 83  0  0  0  0  0  0  0  0999 V2000
   10.2834   43.7662   33.8257 C   0  0  0  0  0  0  0  0  0  0  0  0
   11.4102   43.5929   34.3752 O   0  0  0  0  0  0  0  0  0  0  0  0
    9.3635   42.7257   33.7352 O   0  0  0  0  0  0  0  0  0  0  0  0
    9.8899   41.2270   34.2947 P   0  0  0  0  0  0  0  0  0  0  0  0
   10.3732   41.4562   35.8841 O   0  0  0  0  0  0  0  0  0  0  0  0
    9.9548   45.0696   33.2036 C   0  0  1  0  0  0  0  0  0  0  0  0
   11.0275   46.0322   33.4760 N   0  0  0  0  0  0  0  0  0  0  0  0
    9.7471   44.8485   31.6877 C   0  0  0  0  0  0  0  0  0  0  0  0
    8.7926   45.8412   31.0848 C   0  0  0  0  0  0  0  0  0  0  0  0
    7.4061   45.6010   31.0990 C   0  0  0  0  0  0  0  0  0  0  0  0
    9.2817   46.9875   30.4418 C   0  0  0  0  0  0  0  0  0  0  0  0
    6.5243   46.5005   30.4839 C   0  0  0  0  0  0  0  0  0  0  0  0
    8.4005   47.8872   29.8315 C   0  0  0  0  0  0  0  0  0  0  0  0
    7.0181   47.6582   29.8473 C   0  0  0  0  0  0  0  0  0  0  0  0
    6.1877   48.5971   29.2129 O   0  0  0  0  0  0  0  0  0  0  0  0
    4.7599   48.6243   29.2545 C   0  0  1  0  0  0  0  0  0  0  0  0
    4.2516   49.0474   30.6398 C   0  0  0  0  0  0  0  0  0  0  0  0
    4.2338   49.5494   28.1675 C   0  0  0  0  0  0  0  0  0  0  0  0
    3.3937   48.9888   27.1723 C   0  0  0  0  0  0  0  0  0  0  0  0
    4.5105   50.9615   28.1291 C   0  0  0  0  0  0  0  0  0  0  0  0
    2.8516   49.8259   26.2064 C   0  0  0  0  0  0  0  0  0  0  0  0
    3.9151   51.7638   27.1300 C   0  0  0  0  0  0  0  0  0  0  0  0
    5.3633   51.6023   29.0889 N   0  0  0  0  0  0  0  0  0  0  0  0
    2.0128   49.4977   25.1586 O   0  0  0  0  0  0  0  0  0  0  0  0
    3.0985   51.1548   26.1881 C   0  0  0  0  0  0  0  0  0  0  0  0
    5.0019   52.8246   29.6065 O   0  0  0  0  0  0  0  0  0  0  0  0
    6.5308   51.1993   29.2618 O   0  0  0  0  0  0  0  0  0  0  0  0
    1.7158   50.7005   24.4363 C   0  0  0  0  0  0  0  0  0  0  0  0
    2.4292   51.7348   25.1276 O   0  0  0  0  0  0  0  0  0  0  0  0
    8.8120   40.1851   34.2133 O   0  0  0  0  0  0  0  0  0  0  0  0
   11.2403   40.7947   33.3700 O   0  0  0  0  0  0  0  0  0  0  0  0
   10.9144   40.6914   31.9982 C   0  0  0  0  0  0  0  0  0  0  0  0
   11.5270   39.3912   31.4385 C   0  0  0  0  0  0  0  0  0  0  0  0
   12.7520   39.0911   32.0836 O   0  0  0  0  0  0  0  0  0  0  0  0
   10.6113   38.1932   31.6451 C   0  0  0  0  0  0  0  0  0  0  0  0
   12.9413   37.6838   32.0297 C   0  0  0  0  0  0  0  0  0  0  0  0
    9.6064   38.0878   30.6599 O   0  0  0  0  0  0  0  0  0  0  0  0
   11.5822   37.0197   31.6877 C   0  0  0  0  0  0  0  0  0  0  0  0
   13.4840   37.2104   33.3254 N   0  0  0  0  0  0  0  0  0  0  0  0
   11.6179   36.3072   30.4690 O   0  0  0  0  0  0  0  0  0  0  0  0
   14.4797   36.3309   33.5738 C   0  0  0  0  0  0  0  0  0  0  0  0
   13.1136   37.6269   34.5702 C   0  0  0  0  0  0  0  0  0  0  0  0
   15.2074   35.6152   32.6747 N   0  0  0  0  0  0  0  0  0  0  0  0
   14.6756   36.2298   34.9190 C   0  0  0  0  0  0  0  0  0  0  0  0
   13.8217   37.0445   35.5793 N   0  0  0  0  0  0  0  0  0  0  0  0
   16.1643   34.7603   33.1551 C   0  0  0  0  0  0  0  0  0  0  0  0
   15.6528   35.3503   35.4136 C   0  0  0  0  0  0  0  0  0  0  0  0
   16.3798   34.6316   34.5046 N   0  0  0  0  0  0  0  0  0  0  0  0
   15.9004   35.1930   36.8094 N   0  0  0  0  0  0  0  0  0  0  0  0
    9.0122   45.4318   33.6714 H   0  0  0  0  0  0  0  0  0  0  0  0
   11.8909   45.7658   32.9476 H   0  0  0  0  0  0  0  0  0  0  0  0
   10.7262   46.9688   33.1215 H   0  0  0  0  0  0  0  0  0  0  0  0
    9.3425   43.8332   31.4759 H   0  0  0  0  0  0  0  0  0  0  0  0
   10.7236   44.8824   31.1559 H   0  0  0  0  0  0  0  0  0  0  0  0
    7.0109   44.7143   31.5794 H   0  0  0  0  0  0  0  0  0  0  0  0
   10.3460   47.1857   30.4095 H   0  0  0  0  0  0  0  0  0  0  0  0
    5.4684   46.2755   30.5072 H   0  0  0  0  0  0  0  0  0  0  0  0
    8.7943   48.7687   29.3414 H   0  0  0  0  0  0  0  0  0  0  0  0
    4.3805   47.5982   29.0584 H   0  0  0  0  0  0  0  0  0  0  0  0
    4.7232   49.9926   30.9743 H   0  0  0  0  0  0  0  0  0  0  0  0
    3.1488   49.1799   30.6183 H   0  0  0  0  0  0  0  0  0  0  0  0
    4.4872   48.2684   31.3930 H   0  0  0  0  0  0  0  0  0  0  0  0
    3.1559   47.9327   27.1558 H   0  0  0  0  0  0  0  0  0  0  0  0
    4.0992   52.8294   27.0809 H   0  0  0  0  0  0  0  0  0  0  0  0
    0.6249   50.9045   24.4620 H   0  0  0  0  0  0  0  0  0  0  0  0
    2.0773   50.6192   23.3898 H   0  0  0  0  0  0  0  0  0  0  0  0
   11.3777   41.5549   31.4744 H   0  0  0  0  0  0  0  0  0  0  0  0
    9.8234   40.7201   31.7654 H   0  0  0  0  0  0  0  0  0  0  0  0
   11.7312   39.5362   30.3532 H   0  0  0  0  0  0  0  0  0  0  0  0
   10.1203   38.2696   32.6410 H   0  0  0  0  0  0  0  0  0  0  0  0
   13.6850   37.4639   31.2321 H   0  0  0  0  0  0  0  0  0  0  0  0
   10.0251   38.1793   29.7654 H   0  0  0  0  0  0  0  0  0  0  0  0
   11.2757   36.3135   32.4907 H   0  0  0  0  0  0  0  0  0  0  0  0
   11.9838   36.9111   29.7708 H   0  0  0  0  0  0  0  0  0  0  0  0
   12.3307   38.3536   34.7457 H   0  0  0  0  0  0  0  0  0  0  0  0
   16.7566   34.1787   32.4623 H   0  0  0  0  0  0  0  0  0  0  0  0
   15.3535   35.7355   37.5144 H   0  0  0  0  0  0  0  0  0  0  0  0
   16.6353   34.5301   37.1419 H   0  0  0  0  0  0  0  0  0  0  0  0
  1  2  2  0
  1  3  1  0
  3  4  1  0
  4  5  1  0
  6  1  1  0
  7  6  1  0
  6  8  1  0
  8  9  1  0
  9 10  2  0
 11  9  1  0
 10 12  1  0
 13 11  2  0
 12 14  2  0
 14 13  1  0
 14 15  1  0
 15 16  1  0
 16 17  1  0
 16 18  1  0
 18 19  2  0
 20 18  1  0
 19 21  1  0
 22 20  2  0
 20 23  1  0
 21 24  1  0
 21 25  2  0
 25 22  1  0
 23 26  1  0
 23 27  2  0
 24 28  1  0
 25 29  1  0
 28 29  1  0
  4 30  2  0
  4 31  1  0
 32 31  1  0
 32 33  1  0
 33 34  1  0
 33 35  1  0
 34 36  1  0
 35 37  1  0
 35 38  1  0
 38 36  1  0
 36 39  1  0
 38 40  1  0
 41 39  1  0
 42 39  1  0
 43 41  2  0
 41 44  1  0
 45 42  2  0
 46 43  1  0
 44 47  2  0
 44 45  1  0
 48 46  2  0
 48 47  1  0
 47 49  1  0
  6 50  1  1
  7 51  1  0
  7 52  1  0
  8 53  1  0
  8 54  1  0
 10 55  1  0
 11 56  1  0
 12 57  1  0
 13 58  1  0
 16 59  1  6
 17 60  1  0
 17 61  1  0
 17 62  1  0
 19 63  1  0
 22 64  1  0
 28 65  1  0
 28 66  1  0
 32 67  1  0
 32 68  1  0
 33 69  1  0
 35 70  1  0
 36 71  1  0
 37 72  1  0
 38 73  1  0
 40 74  1  0
 42 75  1  0
 46 76  1  0
 49 77  1  0
 49 78  1  0
M  CHG  3   5  -1  23   1  26  -1
M  END
>  <EmbedRMS>  (372) 
0.0808016224642

$$$$

     RDKit          3D

 78 83  0  0  0  0  0  0  0  0999 V2000
   10.2805   43.7664   33.8250 C   0  0  0  0  0  0  0  0  0  0  0  0
   11.4111   43.5920   34.3668 O   0  0  0  0  0  0  0  0  0  0  0  0
    9.3622   42.7247   33.7343 O   0  0  0  0  0  0  0  0  0  0  0  0
    9.8904   41.2264   34.2937 P   0  0  0  0  0  0  0  0  0  0  0  0
   10.3732   41.4564   35.8832 O   0  0  0  0  0  0  0  0  0  0  0  0
    9.9458   45.0736   33.2113 C   0  0  1  0  0  0  0  0  0  0  0  0
   11.0265   46.0293   33.4706 N   0  0  0  0  0  0  0  0  0  0  0  0
    9.7534   44.8539   31.6951 C   0  0  0  0  0  0  0  0  0  0  0  0
    8.7955   45.8411   31.0850 C   0  0  0  0  0  0  0  0  0  0  0  0
    7.4087   45.6002   31.1001 C   0  0  0  0  0  0  0  0  0  0  0  0
    9.2830   46.9874   30.4395 C   0  0  0  0  0  0  0  0  0  0  0  0
    6.5282   46.5006   30.4846 C   0  0  0  0  0  0  0  0  0  0  0  0
    8.4027   47.8885   29.8296 C   0  0  0  0  0  0  0  0  0  0  0  0
    7.0134   47.6523   29.8500 C   0  0  0  0  0  0  0  0  0  0  0  0
    6.0859   48.5263   29.2596 O   0  0  0  0  0  0  0  0  0  0  0  0
    6.4019   49.7878   28.6640 C   0  0  1  0  0  0  0  0  0  0  0  0
    5.1597   50.3188   27.9506 C   0  0  0  0  0  0  0  0  0  0  0  0
    6.8570   50.7781   29.7226 C   0  0  0  0  0  0  0  0  0  0  0  0
    6.1347   50.8473   30.9393 C   0  0  0  0  0  0  0  0  0  0  0  0
    8.0218   51.5965   29.5509 C   0  0  0  0  0  0  0  0  0  0  0  0
    6.6045   51.6836   31.9431 C   0  0  0  0  0  0  0  0  0  0  0  0
    8.4611   52.4178   30.6147 C   0  0  0  0  0  0  0  0  0  0  0  0
    8.7499   51.6190   28.3132 N   0  0  0  0  0  0  0  0  0  0  0  0
    6.0750   51.8971   33.2012 O   0  0  0  0  0  0  0  0  0  0  0  0
    7.7213   52.4316   31.7897 C   0  0  0  0  0  0  0  0  0  0  0  0
    8.0805   51.7737   27.1215 O   0  0  0  0  0  0  0  0  0  0  0  0
    9.9938   51.7236   28.3233 O   0  0  0  0  0  0  0  0  0  0  0  0
    6.9144   52.8414   33.8799 C   0  0  0  0  0  0  0  0  0  0  0  0
    7.9531   53.1569   32.9426 O   0  0  0  0  0  0  0  0  0  0  0  0
    8.8129   40.1841   34.2125 O   0  0  0  0  0  0  0  0  0  0  0  0
   11.2419   40.7944   33.3695 O   0  0  0  0  0  0  0  0  0  0  0  0
   10.9185   40.6911   31.9970 C   0  0  0  0  0  0  0  0  0  0  0  0
   11.5172   39.3814   31.4407 C   0  0  0  0  0  0  0  0  0  0  0  0
   12.7492   39.0856   32.0729 O   0  0  0  0  0  0  0  0  0  0  0  0
   10.6023   38.1908   31.6665 C   0  0  0  0  0  0  0  0  0  0  0  0
   12.9319   37.6781   32.0281 C   0  0  0  0  0  0  0  0  0  0  0  0
    9.6392   38.0797   30.6452 O   0  0  0  0  0  0  0  0  0  0  0  0
   11.5715   37.0165   31.7056 C   0  0  0  0  0  0  0  0  0  0  0  0
   13.4847   37.2121   33.3236 N   0  0  0  0  0  0  0  0  0  0  0  0
   11.6187   36.3383   30.4695 O   0  0  0  0  0  0  0  0  0  0  0  0
   14.4801   36.3321   33.5724 C   0  0  0  0  0  0  0  0  0  0  0  0
   13.1137   37.6276   34.5688 C   0  0  0  0  0  0  0  0  0  0  0  0
   15.2073   35.6153   32.6738 N   0  0  0  0  0  0  0  0  0  0  0  0
   14.6759   36.2308   34.9179 C   0  0  0  0  0  0  0  0  0  0  0  0
   13.8217   37.0452   35.5781 N   0  0  0  0  0  0  0  0  0  0  0  0
   16.1640   34.7602   33.1546 C   0  0  0  0  0  0  0  0  0  0  0  0
   15.6526   35.3508   35.4129 C   0  0  0  0  0  0  0  0  0  0  0  0
   16.3794   34.6317   34.5041 N   0  0  0  0  0  0  0  0  0  0  0  0
   15.8999   35.1934   36.8088 N   0  0  0  0  0  0  0  0  0  0  0  0
    8.9995   45.4381   33.6724 H   0  0  0  0  0  0  0  0  0  0  0  0
   11.0503   46.2279   34.4980 H   0  0  0  0  0  0  0  0  0  0  0  0
   10.7761   46.9369   33.0157 H   0  0  0  0  0  0  0  0  0  0  0  0
   10.7406   44.9069   31.1836 H   0  0  0  0  0  0  0  0  0  0  0  0
    9.3634   43.8353   31.4716 H   0  0  0  0  0  0  0  0  0  0  0  0
    7.0131   44.7158   31.5841 H   0  0  0  0  0  0  0  0  0  0  0  0
   10.3474   47.1851   30.4049 H   0  0  0  0  0  0  0  0  0  0  0  0
    5.4637   46.3044   30.5054 H   0  0  0  0  0  0  0  0  0  0  0  0
    8.8161   48.7586   29.3409 H   0  0  0  0  0  0  0  0  0  0  0  0
    7.1828   49.6196   27.8943 H   0  0  0  0  0  0  0  0  0  0  0  0
    4.8526   49.6079   27.1544 H   0  0  0  0  0  0  0  0  0  0  0  0
    5.3734   51.3025   27.4813 H   0  0  0  0  0  0  0  0  0  0  0  0
    4.3169   50.4346   28.6652 H   0  0  0  0  0  0  0  0  0  0  0  0
    5.2477   50.2492   31.1057 H   0  0  0  0  0  0  0  0  0  0  0  0
    9.3390   53.0436   30.5184 H   0  0  0  0  0  0  0  0  0  0  0  0
    7.3485   52.3826   34.7929 H   0  0  0  0  0  0  0  0  0  0  0  0
    6.3372   53.7550   34.1341 H   0  0  0  0  0  0  0  0  0  0  0  0
    9.8298   40.7409   31.7611 H   0  0  0  0  0  0  0  0  0  0  0  0
   11.3967   41.5460   31.4726 H   0  0  0  0  0  0  0  0  0  0  0  0
   11.6975   39.5066   30.3481 H   0  0  0  0  0  0  0  0  0  0  0  0
   10.1076   38.2647   32.6645 H   0  0  0  0  0  0  0  0  0  0  0  0
   13.6622   37.4468   31.2209 H   0  0  0  0  0  0  0  0  0  0  0  0
    8.8974   38.6942   30.8831 H   0  0  0  0  0  0  0  0  0  0  0  0
   11.2806   36.3073   32.5170 H   0  0  0  0  0  0  0  0  0  0  0  0
   10.8492   35.7110   30.4586 H   0  0  0  0  0  0  0  0  0  0  0  0
   12.3291   38.3524   34.7444 H   0  0  0  0  0  0  0  0  0  0  0  0
   16.7559   34.1780   32.4619 H   0  0  0  0  0  0  0  0  0  0  0  0
   15.3532   35.7362   37.5137 H   0  0  0  0  0  0  0  0  0  0  0  0
   16.6344   34.5301   37.1414 H   0  0  0  0  0  0  0  0  0  0  0  0
  1  2  2  0
  1  3  1  0
  3  4  1  0
  4  5  1  0
  6  1  1  0
  7  6  1  0
  6  8  1  0
  8  9  1  0
  9 10  2  0
 11  9  1  0
 10 12  1  0
 13 11  2  0
 12 14  2  0
 14 13  1  0
 14 15  1  0
 15 16  1  0
 16 17  1  0
 16 18  1  0
 18 19  2  0
 20 18  1  0
 19 21  1  0
 22 20  2  0
 20 23  1  0
 21 24  1  0
 21 25  2  0
 25 22  1  0
 23 26  1  0
 23 27  2  0
 24 28  1  0
 25 29  1  0
 28 29  1  0
  4 30  2  0
  4 31  1  0
 32 31  1  0
 32 33  1  0
 33 34  1  0
 33 35  1  0
 34 36  1  0
 35 37  1  0
 35 38  1  0
 38 36  1  0
 36 39  1  0
 38 40  1  0
 41 39  1  0
 42 39  1  0
 43 41  2  0
 41 44  1  0
 45 42  2  0
 46 43  1  0
 44 47  2  0
 44 45  1  0
 48 46  2  0
 48 47  1  0
 47 49  1  0
  6 50  1  1
  7 51  1  0
  7 52  1  0
  8 53  1  0
  8 54  1  0
 10 55  1  0
 11 56  1  0
 12 57  1  0
 13 58  1  0
 16 59  1  6
 17 60  1  0
 17 61  1  0
 17 62  1  0
 19 63  1  0
 22 64  1  0
 28 65  1  0
 28 66  1  0
 32 67  1  0
 32 68  1  0
 33 69  1  0
 35 70  1  0
 36 71  1  0
 37 72  1  0
 38 73  1  0
 40 74  1  0
 42 75  1  0
 46 76  1  0
 49 77  1  0
 49 78  1  0
M  CHG  3   5  -1  23   1  26  -1
M  END
>  <EmbedRMS>  (373) 
0.082773693221

$$$$

     RDKit          3D

 78 83  0  0  0  0  0  0  0  0999 V2000
   10.2837   43.7628   33.8276 C   0  0  0  0  0  0  0  0  0  0  0  0
   11.4102   43.5866   34.3768 O   0  0  0  0  0  0  0  0  0  0  0  0
    9.3632   42.7235   33.7353 O   0  0  0  0  0  0  0  0  0  0  0  0
    9.8899   41.2248   34.2940 P   0  0  0  0  0  0  0  0  0  0  0  0
   10.3727   41.4547   35.8836 O   0  0  0  0  0  0  0  0  0  0  0  0
    9.9545   45.0703   33.2064 C   0  0  1  0  0  0  0  0  0  0  0  0
   11.0193   46.0486   33.4568 N   0  0  0  0  0  0  0  0  0  0  0  0
    9.7497   44.8514   31.6924 C   0  0  0  0  0  0  0  0  0  0  0  0
    8.7937   45.8425   31.0873 C   0  0  0  0  0  0  0  0  0  0  0  0
    7.4057   45.5998   31.0984 C   0  0  0  0  0  0  0  0  0  0  0  0
    9.2835   46.9896   30.4431 C   0  0  0  0  0  0  0  0  0  0  0  0
    6.5259   46.5003   30.4812 C   0  0  0  0  0  0  0  0  0  0  0  0
    8.4025   47.8878   29.8295 C   0  0  0  0  0  0  0  0  0  0  0  0
    7.0208   47.6531   29.8566 C   0  0  0  0  0  0  0  0  0  0  0  0
    6.1427   48.5550   29.2482 O   0  0  0  0  0  0  0  0  0  0  0  0
    5.6091   49.7058   29.9115 C   0  0  1  0  0  0  0  0  0  0  0  0
    4.5882   49.2990   30.9842 C   0  0  0  0  0  0  0  0  0  0  0  0
    6.7216   50.6115   30.4322 C   0  0  0  0  0  0  0  0  0  0  0  0
    7.2821   50.3790   31.7159 C   0  0  0  0  0  0  0  0  0  0  0  0
    7.2310   51.6949   29.6383 C   0  0  0  0  0  0  0  0  0  0  0  0
    8.2636   51.2437   32.1802 C   0  0  0  0  0  0  0  0  0  0  0  0
    8.2156   52.5551   30.1751 C   0  0  0  0  0  0  0  0  0  0  0  0
    6.7923   51.9154   28.2879 N   0  0  0  0  0  0  0  0  0  0  0  0
    8.9342   51.2113   33.3878 O   0  0  0  0  0  0  0  0  0  0  0  0
    8.7048   52.2901   31.4464 C   0  0  0  0  0  0  0  0  0  0  0  0
    6.7179   53.1976   27.7938 O   0  0  0  0  0  0  0  0  0  0  0  0
    6.7026   50.9581   27.4917 O   0  0  0  0  0  0  0  0  0  0  0  0
    9.8543   52.3111   33.4124 C   0  0  0  0  0  0  0  0  0  0  0  0
    9.6755   52.9737   32.1531 O   0  0  0  0  0  0  0  0  0  0  0  0
    8.8120   40.1830   34.2122 O   0  0  0  0  0  0  0  0  0  0  0  0
   11.2413   40.7934   33.3696 O   0  0  0  0  0  0  0  0  0  0  0  0
   10.9178   40.6902   31.9971 C   0  0  0  0  0  0  0  0  0  0  0  0
   11.5180   39.3813   31.4407 C   0  0  0  0  0  0  0  0  0  0  0  0
   12.7498   39.0870   32.0743 O   0  0  0  0  0  0  0  0  0  0  0  0
   10.6044   38.1890   31.6656 C   0  0  0  0  0  0  0  0  0  0  0  0
   12.9345   37.6801   32.0288 C   0  0  0  0  0  0  0  0  0  0  0  0
    9.6418   38.0756   30.6441 O   0  0  0  0  0  0  0  0  0  0  0  0
   11.5742   37.0169   31.7044 C   0  0  0  0  0  0  0  0  0  0  0  0
   13.4852   37.2125   33.3240 N   0  0  0  0  0  0  0  0  0  0  0  0
   11.6079   36.3408   30.4678 O   0  0  0  0  0  0  0  0  0  0  0  0
   14.4801   36.3320   33.5727 C   0  0  0  0  0  0  0  0  0  0  0  0
   13.1141   37.6278   34.5691 C   0  0  0  0  0  0  0  0  0  0  0  0
   15.2073   35.6153   32.6740 N   0  0  0  0  0  0  0  0  0  0  0  0
   14.6758   36.2305   34.9182 C   0  0  0  0  0  0  0  0  0  0  0  0
   13.8217   37.0452   35.5784 N   0  0  0  0  0  0  0  0  0  0  0  0
   16.1640   34.7601   33.1548 C   0  0  0  0  0  0  0  0  0  0  0  0
   15.6526   35.3506   35.4131 C   0  0  0  0  0  0  0  0  0  0  0  0
   16.3794   34.6316   34.5043 N   0  0  0  0  0  0  0  0  0  0  0  0
   15.8998   35.1932   36.8090 N   0  0  0  0  0  0  0  0  0  0  0  0
    9.0096   45.4353   33.6670 H   0  0  0  0  0  0  0  0  0  0  0  0
   11.1126   46.1997   34.4881 H   0  0  0  0  0  0  0  0  0  0  0  0
   11.9345   45.6938   33.0928 H   0  0  0  0  0  0  0  0  0  0  0  0
   10.7298   44.8929   31.1673 H   0  0  0  0  0  0  0  0  0  0  0  0
    9.3504   43.8350   31.4763 H   0  0  0  0  0  0  0  0  0  0  0  0
    7.0094   44.7135   31.5782 H   0  0  0  0  0  0  0  0  0  0  0  0
   10.3476   47.1887   30.4123 H   0  0  0  0  0  0  0  0  0  0  0  0
    5.4614   46.3045   30.4930 H   0  0  0  0  0  0  0  0  0  0  0  0
    8.7929   48.7686   29.3358 H   0  0  0  0  0  0  0  0  0  0  0  0
    5.0136   50.2709   29.1647 H   0  0  0  0  0  0  0  0  0  0  0  0
    3.7283   48.7871   30.5023 H   0  0  0  0  0  0  0  0  0  0  0  0
    4.2092   50.1996   31.5130 H   0  0  0  0  0  0  0  0  0  0  0  0
    5.0251   48.5991   31.7245 H   0  0  0  0  0  0  0  0  0  0  0  0
    6.9738   49.5513   32.3386 H   0  0  0  0  0  0  0  0  0  0  0  0
    8.6139   53.3834   29.6031 H   0  0  0  0  0  0  0  0  0  0  0  0
   10.8959   51.9383   33.5047 H   0  0  0  0  0  0  0  0  0  0  0  0
    9.6066   53.0004   34.2466 H   0  0  0  0  0  0  0  0  0  0  0  0
   11.3947   41.5458   31.4728 H   0  0  0  0  0  0  0  0  0  0  0  0
    9.8290   40.7388   31.7617 H   0  0  0  0  0  0  0  0  0  0  0  0
   11.6992   39.5069   30.3482 H   0  0  0  0  0  0  0  0  0  0  0  0
   10.1088   38.2630   32.6634 H   0  0  0  0  0  0  0  0  0  0  0  0
   13.6664   37.4514   31.2222 H   0  0  0  0  0  0  0  0  0  0  0  0
    8.9008   38.6923   30.8791 H   0  0  0  0  0  0  0  0  0  0  0  0
   11.2652   36.3081   32.5085 H   0  0  0  0  0  0  0  0  0  0  0  0
   12.1370   35.5140   30.6159 H   0  0  0  0  0  0  0  0  0  0  0  0
   12.3297   38.3530   34.7447 H   0  0  0  0  0  0  0  0  0  0  0  0
   16.7557   34.1778   32.4621 H   0  0  0  0  0  0  0  0  0  0  0  0
   15.3530   35.7361   37.5137 H   0  0  0  0  0  0  0  0  0  0  0  0
   16.6344   34.5300   37.1416 H   0  0  0  0  0  0  0  0  0  0  0  0
  1  2  2  0
  1  3  1  0
  3  4  1  0
  4  5  1  0
  6  1  1  0
  7  6  1  0
  6  8  1  0
  8  9  1  0
  9 10  2  0
 11  9  1  0
 10 12  1  0
 13 11  2  0
 12 14  2  0
 14 13  1  0
 14 15  1  0
 15 16  1  0
 16 17  1  0
 16 18  1  0
 18 19  2  0
 20 18  1  0
 19 21  1  0
 22 20  2  0
 20 23  1  0
 21 24  1  0
 21 25  2  0
 25 22  1  0
 23 26  1  0
 23 27  2  0
 24 28  1  0
 25 29  1  0
 28 29  1  0
  4 30  2  0
  4 31  1  0
 32 31  1  0
 32 33  1  0
 33 34  1  0
 33 35  1  0
 34 36  1  0
 35 37  1  0
 35 38  1  0
 38 36  1  0
 36 39  1  0
 38 40  1  0
 41 39  1  0
 42 39  1  0
 43 41  2  0
 41 44  1  0
 45 42  2  0
 46 43  1  0
 44 47  2  0
 44 45  1  0
 48 46  2  0
 48 47  1  0
 47 49  1  0
  6 50  1  1
  7 51  1  0
  7 52  1  0
  8 53  1  0
  8 54  1  0
 10 55  1  0
 11 56  1  0
 12 57  1  0
 13 58  1  0
 16 59  1  6
 17 60  1  0
 17 61  1  0
 17 62  1  0
 19 63  1  0
 22 64  1  0
 28 65  1  0
 28 66  1  0
 32 67  1  0
 32 68  1  0
 33 69  1  0
 35 70  1  0
 36 71  1  0
 37 72  1  0
 38 73  1  0
 40 74  1  0
 42 75  1  0
 46 76  1  0
 49 77  1  0
 49 78  1  0
M  CHG  3   5  -1  23   1  26  -1
M  END
>  <EmbedRMS>  (374) 
0.0838123739802

$$$$

     RDKit          3D

 78 83  0  0  0  0  0  0  0  0999 V2000
   10.2835   43.7661   33.8257 C   0  0  0  0  0  0  0  0  0  0  0  0
   11.4102   43.5929   34.3753 O   0  0  0  0  0  0  0  0  0  0  0  0
    9.3637   42.7255   33.7350 O   0  0  0  0  0  0  0  0  0  0  0  0
    9.8902   41.2267   34.2942 P   0  0  0  0  0  0  0  0  0  0  0  0
   10.3736   41.4560   35.8836 O   0  0  0  0  0  0  0  0  0  0  0  0
    9.9547   45.0694   33.2036 C   0  0  1  0  0  0  0  0  0  0  0  0
   11.0274   46.0321   33.4756 N   0  0  0  0  0  0  0  0  0  0  0  0
    9.7466   44.8479   31.6878 C   0  0  0  0  0  0  0  0  0  0  0  0
    8.7923   45.8406   31.0848 C   0  0  0  0  0  0  0  0  0  0  0  0
    7.4061   45.6016   31.0992 C   0  0  0  0  0  0  0  0  0  0  0  0
    9.2816   46.9871   30.4427 C   0  0  0  0  0  0  0  0  0  0  0  0
    6.5280   46.5033   30.4836 C   0  0  0  0  0  0  0  0  0  0  0  0
    8.4030   47.8895   29.8319 C   0  0  0  0  0  0  0  0  0  0  0  0
    7.0128   47.6543   29.8463 C   0  0  0  0  0  0  0  0  0  0  0  0
    6.0735   48.5106   29.2425 O   0  0  0  0  0  0  0  0  0  0  0  0
    6.3247   49.7466   28.5601 C   0  0  1  0  0  0  0  0  0  0  0  0
    6.7231   50.8347   29.5700 C   0  0  0  0  0  0  0  0  0  0  0  0
    7.2565   49.5510   27.3625 C   0  0  0  0  0  0  0  0  0  0  0  0
    8.3907   50.3883   27.1766 C   0  0  0  0  0  0  0  0  0  0  0  0
    7.0149   48.4959   26.4147 C   0  0  0  0  0  0  0  0  0  0  0  0
    9.2451   50.1284   26.1138 C   0  0  0  0  0  0  0  0  0  0  0  0
    7.9313   48.2729   25.3626 C   0  0  0  0  0  0  0  0  0  0  0  0
    5.8641   47.6387   26.5080 N   0  0  0  0  0  0  0  0  0  0  0  0
   10.4007   50.7978   25.7592 O   0  0  0  0  0  0  0  0  0  0  0  0
    9.0283   49.1132   25.2489 C   0  0  0  0  0  0  0  0  0  0  0  0
    5.9609   46.3198   26.1285 O   0  0  0  0  0  0  0  0  0  0  0  0
    4.7344   48.1159   26.7384 O   0  0  0  0  0  0  0  0  0  0  0  0
   10.9427   50.1591   24.5953 C   0  0  0  0  0  0  0  0  0  0  0  0
   10.0348   49.0884   24.3027 O   0  0  0  0  0  0  0  0  0  0  0  0
    8.8121   40.1850   34.2131 O   0  0  0  0  0  0  0  0  0  0  0  0
   11.2404   40.7941   33.3690 O   0  0  0  0  0  0  0  0  0  0  0  0
   10.9143   40.6898   31.9972 C   0  0  0  0  0  0  0  0  0  0  0  0
   11.5261   39.3885   31.4376 C   0  0  0  0  0  0  0  0  0  0  0  0
   12.7504   39.0888   32.0815 O   0  0  0  0  0  0  0  0  0  0  0  0
   10.6115   38.1910   31.6460 C   0  0  0  0  0  0  0  0  0  0  0  0
   12.9357   37.6812   32.0303 C   0  0  0  0  0  0  0  0  0  0  0  0
    9.6146   38.0859   30.6533 O   0  0  0  0  0  0  0  0  0  0  0  0
   11.5769   37.0148   31.7012 C   0  0  0  0  0  0  0  0  0  0  0  0
   13.4849   37.2112   33.3247 N   0  0  0  0  0  0  0  0  0  0  0  0
   11.6193   36.3261   30.4724 O   0  0  0  0  0  0  0  0  0  0  0  0
   14.4802   36.3313   33.5730 C   0  0  0  0  0  0  0  0  0  0  0  0
   13.1141   37.6268   34.5698 C   0  0  0  0  0  0  0  0  0  0  0  0
   15.2074   35.6151   32.6740 N   0  0  0  0  0  0  0  0  0  0  0  0
   14.6761   36.2301   34.9184 C   0  0  0  0  0  0  0  0  0  0  0  0
   13.8220   37.0445   35.5789 N   0  0  0  0  0  0  0  0  0  0  0  0
   16.1642   34.7600   33.1547 C   0  0  0  0  0  0  0  0  0  0  0  0
   15.6529   35.3503   35.4131 C   0  0  0  0  0  0  0  0  0  0  0  0
   16.3797   34.6314   34.5042 N   0  0  0  0  0  0  0  0  0  0  0  0
   15.9004   35.1930   36.8090 N   0  0  0  0  0  0  0  0  0  0  0  0
    9.0122   45.4317   33.6715 H   0  0  0  0  0  0  0  0  0  0  0  0
   10.7260   46.9687   33.1211 H   0  0  0  0  0  0  0  0  0  0  0  0
   11.8907   45.7658   32.9469 H   0  0  0  0  0  0  0  0  0  0  0  0
   10.7229   44.8813   31.1557 H   0  0  0  0  0  0  0  0  0  0  0  0
    9.3415   43.8328   31.4763 H   0  0  0  0  0  0  0  0  0  0  0  0
    7.0086   44.7167   31.5807 H   0  0  0  0  0  0  0  0  0  0  0  0
   10.3464   47.1834   30.4108 H   0  0  0  0  0  0  0  0  0  0  0  0
    5.4638   46.3048   30.5000 H   0  0  0  0  0  0  0  0  0  0  0  0
    8.8258   48.7547   29.3498 H   0  0  0  0  0  0  0  0  0  0  0  0
    5.3528   50.0865   28.1445 H   0  0  0  0  0  0  0  0  0  0  0  0
    5.9790   50.8641   30.3941 H   0  0  0  0  0  0  0  0  0  0  0  0
    7.7197   50.6426   30.0145 H   0  0  0  0  0  0  0  0  0  0  0  0
    6.7244   51.8321   29.0810 H   0  0  0  0  0  0  0  0  0  0  0  0
    8.6278   51.2068   27.8401 H   0  0  0  0  0  0  0  0  0  0  0  0
    7.7802   47.4800   24.6415 H   0  0  0  0  0  0  0  0  0  0  0  0
   10.9786   50.8738   23.7465 H   0  0  0  0  0  0  0  0  0  0  0  0
   11.9535   49.7554   24.8142 H   0  0  0  0  0  0  0  0  0  0  0  0
    9.8233   40.7192   31.7647 H   0  0  0  0  0  0  0  0  0  0  0  0
   11.3779   41.5526   31.4726 H   0  0  0  0  0  0  0  0  0  0  0  0
   11.7283   39.5312   30.3515 H   0  0  0  0  0  0  0  0  0  0  0  0
   10.1127   38.2734   32.6376 H   0  0  0  0  0  0  0  0  0  0  0  0
   13.6692   37.4566   31.2242 H   0  0  0  0  0  0  0  0  0  0  0  0
   10.0534   38.1117   29.7636 H   0  0  0  0  0  0  0  0  0  0  0  0
   11.2607   36.3148   32.5102 H   0  0  0  0  0  0  0  0  0  0  0  0
   12.1496   35.5023   30.6324 H   0  0  0  0  0  0  0  0  0  0  0  0
   12.3301   38.3524   34.7455 H   0  0  0  0  0  0  0  0  0  0  0  0
   16.7562   34.1781   32.4619 H   0  0  0  0  0  0  0  0  0  0  0  0
   15.3536   35.7357   37.5139 H   0  0  0  0  0  0  0  0  0  0  0  0
   16.6351   34.5298   37.1415 H   0  0  0  0  0  0  0  0  0  0  0  0
  1  2  2  0
  1  3  1  0
  3  4  1  0
  4  5  1  0
  6  1  1  0
  7  6  1  0
  6  8  1  0
  8  9  1  0
  9 10  2  0
 11  9  1  0
 10 12  1  0
 13 11  2  0
 12 14  2  0
 14 13  1  0
 14 15  1  0
 15 16  1  0
 16 17  1  0
 16 18  1  0
 18 19  2  0
 20 18  1  0
 19 21  1  0
 22 20  2  0
 20 23  1  0
 21 24  1  0
 21 25  2  0
 25 22  1  0
 23 26  1  0
 23 27  2  0
 24 28  1  0
 25 29  1  0
 28 29  1  0
  4 30  2  0
  4 31  1  0
 32 31  1  0
 32 33  1  0
 33 34  1  0
 33 35  1  0
 34 36  1  0
 35 37  1  0
 35 38  1  0
 38 36  1  0
 36 39  1  0
 38 40  1  0
 41 39  1  0
 42 39  1  0
 43 41  2  0
 41 44  1  0
 45 42  2  0
 46 43  1  0
 44 47  2  0
 44 45  1  0
 48 46  2  0
 48 47  1  0
 47 49  1  0
  6 50  1  1
  7 51  1  0
  7 52  1  0
  8 53  1  0
  8 54  1  0
 10 55  1  0
 11 56  1  0
 12 57  1  0
 13 58  1  0
 16 59  1  6
 17 60  1  0
 17 61  1  0
 17 62  1  0
 19 63  1  0
 22 64  1  0
 28 65  1  0
 28 66  1  0
 32 67  1  0
 32 68  1  0
 33 69  1  0
 35 70  1  0
 36 71  1  0
 37 72  1  0
 38 73  1  0
 40 74  1  0
 42 75  1  0
 46 76  1  0
 49 77  1  0
 49 78  1  0
M  CHG  3   5  -1  23   1  26  -1
M  END
>  <EmbedRMS>  (375) 
0.0816112653375

$$$$

     RDKit          3D

 78 83  0  0  0  0  0  0  0  0999 V2000
   10.2834   43.7662   33.8257 C   0  0  0  0  0  0  0  0  0  0  0  0
   11.4102   43.5930   34.3752 O   0  0  0  0  0  0  0  0  0  0  0  0
    9.3637   42.7255   33.7350 O   0  0  0  0  0  0  0  0  0  0  0  0
    9.8902   41.2267   34.2942 P   0  0  0  0  0  0  0  0  0  0  0  0
   10.3736   41.4560   35.8836 O   0  0  0  0  0  0  0  0  0  0  0  0
    9.9546   45.0695   33.2037 C   0  0  1  0  0  0  0  0  0  0  0  0
   11.0273   46.0323   33.4757 N   0  0  0  0  0  0  0  0  0  0  0  0
    9.7465   44.8481   31.6878 C   0  0  0  0  0  0  0  0  0  0  0  0
    8.7923   45.8409   31.0848 C   0  0  0  0  0  0  0  0  0  0  0  0
    7.4057   45.6011   31.0983 C   0  0  0  0  0  0  0  0  0  0  0  0
    9.2821   46.9873   30.4418 C   0  0  0  0  0  0  0  0  0  0  0  0
    6.5271   46.5025   30.4826 C   0  0  0  0  0  0  0  0  0  0  0  0
    8.4032   47.8891   29.8306 C   0  0  0  0  0  0  0  0  0  0  0  0
    7.0138   47.6549   29.8500 C   0  0  0  0  0  0  0  0  0  0  0  0
    6.0857   48.5278   29.2588 O   0  0  0  0  0  0  0  0  0  0  0  0
    6.3842   49.8112   28.7079 C   0  0  1  0  0  0  0  0  0  0  0  0
    5.1773   50.3225   27.9205 C   0  0  0  0  0  0  0  0  0  0  0  0
    6.7926   50.8018   29.7902 C   0  0  0  0  0  0  0  0  0  0  0  0
    8.0427   51.4542   29.6503 C   0  0  0  0  0  0  0  0  0  0  0  0
    5.9492   51.1452   30.9032 C   0  0  0  0  0  0  0  0  0  0  0  0
    8.4112   52.4009   30.5966 C   0  0  0  0  0  0  0  0  0  0  0  0
    6.3716   52.1291   31.8244 C   0  0  0  0  0  0  0  0  0  0  0  0
    4.6636   50.5420   31.1022 N   0  0  0  0  0  0  0  0  0  0  0  0
    9.5719   53.1480   30.6570 O   0  0  0  0  0  0  0  0  0  0  0  0
    7.6106   52.7251   31.6367 C   0  0  0  0  0  0  0  0  0  0  0  0
    3.5886   51.3368   31.4263 O   0  0  0  0  0  0  0  0  0  0  0  0
    4.5675   49.3089   31.2616 O   0  0  0  0  0  0  0  0  0  0  0  0
    9.4935   53.9943   31.8122 C   0  0  0  0  0  0  0  0  0  0  0  0
    8.2246   53.6926   32.4086 O   0  0  0  0  0  0  0  0  0  0  0  0
    8.8121   40.1850   34.2131 O   0  0  0  0  0  0  0  0  0  0  0  0
   11.2404   40.7941   33.3690 O   0  0  0  0  0  0  0  0  0  0  0  0
   10.9143   40.6898   31.9972 C   0  0  0  0  0  0  0  0  0  0  0  0
   11.5261   39.3885   31.4376 C   0  0  0  0  0  0  0  0  0  0  0  0
   12.7504   39.0888   32.0816 O   0  0  0  0  0  0  0  0  0  0  0  0
   10.6114   38.1910   31.6460 C   0  0  0  0  0  0  0  0  0  0  0  0
   12.9357   37.6812   32.0303 C   0  0  0  0  0  0  0  0  0  0  0  0
    9.6145   38.0859   30.6534 O   0  0  0  0  0  0  0  0  0  0  0  0
   11.5769   37.0148   31.7012 C   0  0  0  0  0  0  0  0  0  0  0  0
   13.4849   37.2112   33.3247 N   0  0  0  0  0  0  0  0  0  0  0  0
   11.6193   36.3261   30.4724 O   0  0  0  0  0  0  0  0  0  0  0  0
   14.4802   36.3313   33.5730 C   0  0  0  0  0  0  0  0  0  0  0  0
   13.1141   37.6268   34.5698 C   0  0  0  0  0  0  0  0  0  0  0  0
   15.2075   35.6151   32.6741 N   0  0  0  0  0  0  0  0  0  0  0  0
   14.6761   36.2301   34.9184 C   0  0  0  0  0  0  0  0  0  0  0  0
   13.8220   37.0445   35.5789 N   0  0  0  0  0  0  0  0  0  0  0  0
   16.1642   34.7600   33.1547 C   0  0  0  0  0  0  0  0  0  0  0  0
   15.6529   35.3503   35.4132 C   0  0  0  0  0  0  0  0  0  0  0  0
   16.3797   34.6314   34.5042 N   0  0  0  0  0  0  0  0  0  0  0  0
   15.9004   35.1930   36.8090 N   0  0  0  0  0  0  0  0  0  0  0  0
    9.0120   45.4318   33.6716 H   0  0  0  0  0  0  0  0  0  0  0  0
   11.8905   45.7660   32.9470 H   0  0  0  0  0  0  0  0  0  0  0  0
   10.7258   46.9688   33.1213 H   0  0  0  0  0  0  0  0  0  0  0  0
   10.7229   44.8814   31.1558 H   0  0  0  0  0  0  0  0  0  0  0  0
    9.3413   43.8330   31.4765 H   0  0  0  0  0  0  0  0  0  0  0  0
    7.0084   44.7161   31.5799 H   0  0  0  0  0  0  0  0  0  0  0  0
   10.3470   47.1827   30.4084 H   0  0  0  0  0  0  0  0  0  0  0  0
    5.4624   46.3069   30.5017 H   0  0  0  0  0  0  0  0  0  0  0  0
    8.8190   48.7546   29.3381 H   0  0  0  0  0  0  0  0  0  0  0  0
    7.2021   49.6895   27.9631 H   0  0  0  0  0  0  0  0  0  0  0  0
    4.2691   50.3693   28.5547 H   0  0  0  0  0  0  0  0  0  0  0  0
    5.3870   51.3338   27.5107 H   0  0  0  0  0  0  0  0  0  0  0  0
    4.9694   49.6369   27.0717 H   0  0  0  0  0  0  0  0  0  0  0  0
    8.7065   51.2401   28.8223 H   0  0  0  0  0  0  0  0  0  0  0  0
    5.7545   52.4105   32.6681 H   0  0  0  0  0  0  0  0  0  0  0  0
    9.5306   55.0617   31.5095 H   0  0  0  0  0  0  0  0  0  0  0  0
   10.3155   53.7561   32.5193 H   0  0  0  0  0  0  0  0  0  0  0  0
    9.8233   40.7191   31.7647 H   0  0  0  0  0  0  0  0  0  0  0  0
   11.3779   41.5526   31.4726 H   0  0  0  0  0  0  0  0  0  0  0  0
   11.7283   39.5312   30.3515 H   0  0  0  0  0  0  0  0  0  0  0  0
   10.1127   38.2734   32.6377 H   0  0  0  0  0  0  0  0  0  0  0  0
   13.6692   37.4566   31.2242 H   0  0  0  0  0  0  0  0  0  0  0  0
   10.0533   38.1118   29.7636 H   0  0  0  0  0  0  0  0  0  0  0  0
   11.2606   36.3148   32.5102 H   0  0  0  0  0  0  0  0  0  0  0  0
   12.1496   35.5023   30.6324 H   0  0  0  0  0  0  0  0  0  0  0  0
   12.3301   38.3524   34.7455 H   0  0  0  0  0  0  0  0  0  0  0  0
   16.7562   34.1781   32.4619 H   0  0  0  0  0  0  0  0  0  0  0  0
   15.3536   35.7357   37.5140 H   0  0  0  0  0  0  0  0  0  0  0  0
   16.6351   34.5298   37.1415 H   0  0  0  0  0  0  0  0  0  0  0  0
  1  2  2  0
  1  3  1  0
  3  4  1  0
  4  5  1  0
  6  1  1  0
  7  6  1  0
  6  8  1  0
  8  9  1  0
  9 10  2  0
 11  9  1  0
 10 12  1  0
 13 11  2  0
 12 14  2  0
 14 13  1  0
 14 15  1  0
 15 16  1  0
 16 17  1  0
 16 18  1  0
 18 19  2  0
 20 18  1  0
 19 21  1  0
 22 20  2  0
 20 23  1  0
 21 24  1  0
 21 25  2  0
 25 22  1  0
 23 26  1  0
 23 27  2  0
 24 28  1  0
 25 29  1  0
 28 29  1  0
  4 30  2  0
  4 31  1  0
 32 31  1  0
 32 33  1  0
 33 34  1  0
 33 35  1  0
 34 36  1  0
 35 37  1  0
 35 38  1  0
 38 36  1  0
 36 39  1  0
 38 40  1  0
 41 39  1  0
 42 39  1  0
 43 41  2  0
 41 44  1  0
 45 42  2  0
 46 43  1  0
 44 47  2  0
 44 45  1  0
 48 46  2  0
 48 47  1  0
 47 49  1  0
  6 50  1  1
  7 51  1  0
  7 52  1  0
  8 53  1  0
  8 54  1  0
 10 55  1  0
 11 56  1  0
 12 57  1  0
 13 58  1  0
 16 59  1  6
 17 60  1  0
 17 61  1  0
 17 62  1  0
 19 63  1  0
 22 64  1  0
 28 65  1  0
 28 66  1  0
 32 67  1  0
 32 68  1  0
 33 69  1  0
 35 70  1  0
 36 71  1  0
 37 72  1  0
 38 73  1  0
 40 74  1  0
 42 75  1  0
 46 76  1  0
 49 77  1  0
 49 78  1  0
M  CHG  3   5  -1  23   1  26  -1
M  END
>  <EmbedRMS>  (376) 
0.0816216279009

$$$$

     RDKit          3D

 78 83  0  0  0  0  0  0  0  0999 V2000
   10.2835   43.7658   33.8267 C   0  0  0  0  0  0  0  0  0  0  0  0
   11.4112   43.5912   34.3742 O   0  0  0  0  0  0  0  0  0  0  0  0
    9.3632   42.7262   33.7356 O   0  0  0  0  0  0  0  0  0  0  0  0
    9.8897   41.2274   34.2937 P   0  0  0  0  0  0  0  0  0  0  0  0
   10.3726   41.4554   35.8831 O   0  0  0  0  0  0  0  0  0  0  0  0
    9.9547   45.0694   33.2060 C   0  0  1  0  0  0  0  0  0  0  0  0
   11.0289   46.0300   33.4791 N   0  0  0  0  0  0  0  0  0  0  0  0
    9.7457   44.8488   31.6898 C   0  0  0  0  0  0  0  0  0  0  0  0
    8.7913   45.8415   31.0862 C   0  0  0  0  0  0  0  0  0  0  0  0
    7.4042   45.5995   31.0963 C   0  0  0  0  0  0  0  0  0  0  0  0
    9.2816   46.9885   30.4429 C   0  0  0  0  0  0  0  0  0  0  0  0
    6.5267   46.4987   30.4750 C   0  0  0  0  0  0  0  0  0  0  0  0
    8.4023   47.8890   29.8304 C   0  0  0  0  0  0  0  0  0  0  0  0
    7.0173   47.6536   29.8501 C   0  0  0  0  0  0  0  0  0  0  0  0
    6.1113   48.5322   29.2397 O   0  0  0  0  0  0  0  0  0  0  0  0
    5.9235   49.9002   29.6283 C   0  0  1  0  0  0  0  0  0  0  0  0
    5.5301   49.9712   31.1139 C   0  0  0  0  0  0  0  0  0  0  0  0
    7.1176   50.7627   29.2168 C   0  0  0  0  0  0  0  0  0  0  0  0
    7.8796   51.4688   30.1908 C   0  0  0  0  0  0  0  0  0  0  0  0
    7.5346   50.8191   27.8388 C   0  0  0  0  0  0  0  0  0  0  0  0
    9.0054   52.1707   29.7781 C   0  0  0  0  0  0  0  0  0  0  0  0
    8.6982   51.5406   27.4856 C   0  0  0  0  0  0  0  0  0  0  0  0
    6.8160   50.1347   26.7976 N   0  0  0  0  0  0  0  0  0  0  0  0
    9.8884   52.9067   30.5490 O   0  0  0  0  0  0  0  0  0  0  0  0
    9.3979   52.2051   28.4841 C   0  0  0  0  0  0  0  0  0  0  0  0
    7.5018   49.5695   25.7469 O   0  0  0  0  0  0  0  0  0  0  0  0
    5.5740   50.2144   26.7229 O   0  0  0  0  0  0  0  0  0  0  0  0
   10.8962   53.4437   29.6786 C   0  0  0  0  0  0  0  0  0  0  0  0
   10.5453   52.9710   28.3685 O   0  0  0  0  0  0  0  0  0  0  0  0
    8.8114   40.1859   34.2114 O   0  0  0  0  0  0  0  0  0  0  0  0
   11.2419   40.7986   33.3694 O   0  0  0  0  0  0  0  0  0  0  0  0
   10.9185   40.6943   31.9972 C   0  0  0  0  0  0  0  0  0  0  0  0
   11.5181   39.3845   31.4439 C   0  0  0  0  0  0  0  0  0  0  0  0
   12.7512   39.0895   32.0769 O   0  0  0  0  0  0  0  0  0  0  0  0
   10.6028   38.1926   31.6675 C   0  0  0  0  0  0  0  0  0  0  0  0
   12.9391   37.6826   32.0278 C   0  0  0  0  0  0  0  0  0  0  0  0
    9.6361   38.0813   30.6498 O   0  0  0  0  0  0  0  0  0  0  0  0
   11.5779   37.0224   31.6944 C   0  0  0  0  0  0  0  0  0  0  0  0
   13.4841   37.2118   33.3245 N   0  0  0  0  0  0  0  0  0  0  0  0
   11.6090   36.3203   30.4692 O   0  0  0  0  0  0  0  0  0  0  0  0
   14.4785   36.3304   33.5726 C   0  0  0  0  0  0  0  0  0  0  0  0
   13.1144   37.6277   34.5703 C   0  0  0  0  0  0  0  0  0  0  0  0
   15.2059   35.6145   32.6732 N   0  0  0  0  0  0  0  0  0  0  0  0
   14.6755   36.2294   34.9178 C   0  0  0  0  0  0  0  0  0  0  0  0
   13.8230   37.0451   35.5787 N   0  0  0  0  0  0  0  0  0  0  0  0
   16.1639   34.7602   33.1531 C   0  0  0  0  0  0  0  0  0  0  0  0
   15.6525   35.3499   35.4124 C   0  0  0  0  0  0  0  0  0  0  0  0
   16.3798   34.6316   34.5029 N   0  0  0  0  0  0  0  0  0  0  0  0
   15.9007   35.1944   36.8090 N   0  0  0  0  0  0  0  0  0  0  0  0
    9.0122   45.4320   33.6751 H   0  0  0  0  0  0  0  0  0  0  0  0
   11.8933   45.7637   32.9522 H   0  0  0  0  0  0  0  0  0  0  0  0
   10.7291   46.9672   33.1269 H   0  0  0  0  0  0  0  0  0  0  0  0
   10.7215   44.8805   31.1587 H   0  0  0  0  0  0  0  0  0  0  0  0
    9.3440   43.8329   31.4760 H   0  0  0  0  0  0  0  0  0  0  0  0
    7.0057   44.7136   31.5765 H   0  0  0  0  0  0  0  0  0  0  0  0
   10.3460   47.1864   30.4112 H   0  0  0  0  0  0  0  0  0  0  0  0
    5.4626   46.3013   30.4878 H   0  0  0  0  0  0  0  0  0  0  0  0
    8.8117   48.7464   29.3190 H   0  0  0  0  0  0  0  0  0  0  0  0
    5.0364   50.2835   29.0832 H   0  0  0  0  0  0  0  0  0  0  0  0
    6.3459   49.5832   31.7609 H   0  0  0  0  0  0  0  0  0  0  0  0
    4.6246   49.3482   31.2874 H   0  0  0  0  0  0  0  0  0  0  0  0
    5.2889   51.0168   31.4025 H   0  0  0  0  0  0  0  0  0  0  0  0
    7.6363   51.4643   31.2449 H   0  0  0  0  0  0  0  0  0  0  0  0
    9.0385   51.5939   26.4585 H   0  0  0  0  0  0  0  0  0  0  0  0
   10.8747   54.5569   29.7060 H   0  0  0  0  0  0  0  0  0  0  0  0
   11.8977   53.0626   29.9695 H   0  0  0  0  0  0  0  0  0  0  0  0
    9.8298   40.7444   31.7617 H   0  0  0  0  0  0  0  0  0  0  0  0
   11.3951   41.5490   31.4701 H   0  0  0  0  0  0  0  0  0  0  0  0
   11.7002   39.5109   30.3527 H   0  0  0  0  0  0  0  0  0  0  0  0
   10.1117   38.2633   32.6676 H   0  0  0  0  0  0  0  0  0  0  0  0
   13.6777   37.4576   31.2250 H   0  0  0  0  0  0  0  0  0  0  0  0
    8.8962   38.6971   30.8904 H   0  0  0  0  0  0  0  0  0  0  0  0
   11.2766   36.3096   32.4937 H   0  0  0  0  0  0  0  0  0  0  0  0
   11.8827   36.9601   29.7605 H   0  0  0  0  0  0  0  0  0  0  0  0
   12.3319   38.3544   34.7493 H   0  0  0  0  0  0  0  0  0  0  0  0
   16.7566   34.1791   32.4591 H   0  0  0  0  0  0  0  0  0  0  0  0
   16.6360   34.5332   37.1437 H   0  0  0  0  0  0  0  0  0  0  0  0
   15.3556   35.7387   37.5141 H   0  0  0  0  0  0  0  0  0  0  0  0
  1  2  2  0
  1  3  1  0
  3  4  1  0
  4  5  1  0
  6  1  1  0
  7  6  1  0
  6  8  1  0
  8  9  1  0
  9 10  2  0
 11  9  1  0
 10 12  1  0
 13 11  2  0
 12 14  2  0
 14 13  1  0
 14 15  1  0
 15 16  1  0
 16 17  1  0
 16 18  1  0
 18 19  2  0
 20 18  1  0
 19 21  1  0
 22 20  2  0
 20 23  1  0
 21 24  1  0
 21 25  2  0
 25 22  1  0
 23 26  1  0
 23 27  2  0
 24 28  1  0
 25 29  1  0
 28 29  1  0
  4 30  2  0
  4 31  1  0
 32 31  1  0
 32 33  1  0
 33 34  1  0
 33 35  1  0
 34 36  1  0
 35 37  1  0
 35 38  1  0
 38 36  1  0
 36 39  1  0
 38 40  1  0
 41 39  1  0
 42 39  1  0
 43 41  2  0
 41 44  1  0
 45 42  2  0
 46 43  1  0
 44 47  2  0
 44 45  1  0
 48 46  2  0
 48 47  1  0
 47 49  1  0
  6 50  1  1
  7 51  1  0
  7 52  1  0
  8 53  1  0
  8 54  1  0
 10 55  1  0
 11 56  1  0
 12 57  1  0
 13 58  1  0
 16 59  1  6
 17 60  1  0
 17 61  1  0
 17 62  1  0
 19 63  1  0
 22 64  1  0
 28 65  1  0
 28 66  1  0
 32 67  1  0
 32 68  1  0
 33 69  1  0
 35 70  1  0
 36 71  1  0
 37 72  1  0
 38 73  1  0
 40 74  1  0
 42 75  1  0
 46 76  1  0
 49 77  1  0
 49 78  1  0
M  CHG  3   5  -1  23   1  26  -1
M  END
>  <EmbedRMS>  (377) 
0.0815082039057

$$$$

     RDKit          3D

 78 83  0  0  0  0  0  0  0  0999 V2000
   10.2840   43.7625   33.8274 C   0  0  0  0  0  0  0  0  0  0  0  0
   11.4104   43.5863   34.3767 O   0  0  0  0  0  0  0  0  0  0  0  0
    9.3634   42.7234   33.7350 O   0  0  0  0  0  0  0  0  0  0  0  0
    9.8899   41.2247   34.2940 P   0  0  0  0  0  0  0  0  0  0  0  0
   10.3723   41.4545   35.8837 O   0  0  0  0  0  0  0  0  0  0  0  0
    9.9549   45.0699   33.2063 C   0  0  1  0  0  0  0  0  0  0  0  0
   11.0198   46.0481   33.4571 N   0  0  0  0  0  0  0  0  0  0  0  0
    9.7506   44.8511   31.6921 C   0  0  0  0  0  0  0  0  0  0  0  0
    8.7944   45.8419   31.0869 C   0  0  0  0  0  0  0  0  0  0  0  0
    7.4076   45.6007   31.1009 C   0  0  0  0  0  0  0  0  0  0  0  0
    9.2826   46.9895   30.4449 C   0  0  0  0  0  0  0  0  0  0  0  0
    6.5256   46.5000   30.4861 C   0  0  0  0  0  0  0  0  0  0  0  0
    8.4009   47.8884   29.8336 C   0  0  0  0  0  0  0  0  0  0  0  0
    7.0197   47.6543   29.8444 C   0  0  0  0  0  0  0  0  0  0  0  0
    6.1835   48.5835   29.2033 O   0  0  0  0  0  0  0  0  0  0  0  0
    4.7668   48.4586   29.0601 C   0  0  1  0  0  0  0  0  0  0  0  0
    4.1787   49.7727   28.5476 C   0  0  0  0  0  0  0  0  0  0  0  0
    4.3782   47.3056   28.1456 C   0  0  0  0  0  0  0  0  0  0  0  0
    3.1768   46.6193   28.4465 C   0  0  0  0  0  0  0  0  0  0  0  0
    5.1825   46.8560   27.0401 C   0  0  0  0  0  0  0  0  0  0  0  0
    2.8293   45.5154   27.6801 C   0  0  0  0  0  0  0  0  0  0  0  0
    4.7837   45.7151   26.3075 C   0  0  0  0  0  0  0  0  0  0  0  0
    6.3973   47.5173   26.6545 N   0  0  0  0  0  0  0  0  0  0  0  0
    1.7200   44.7007   27.8009 O   0  0  0  0  0  0  0  0  0  0  0  0
    3.6007   45.0799   26.6587 C   0  0  0  0  0  0  0  0  0  0  0  0
    7.4755   46.7722   26.2360 O   0  0  0  0  0  0  0  0  0  0  0  0
    6.4171   48.7524   26.4813 O   0  0  0  0  0  0  0  0  0  0  0  0
    1.8021   43.6888   26.7880 C   0  0  0  0  0  0  0  0  0  0  0  0
    3.0182   43.9681   26.0811 O   0  0  0  0  0  0  0  0  0  0  0  0
    8.8119   40.1831   34.2120 O   0  0  0  0  0  0  0  0  0  0  0  0
   11.2416   40.7932   33.3699 O   0  0  0  0  0  0  0  0  0  0  0  0
   10.9187   40.6909   31.9972 C   0  0  0  0  0  0  0  0  0  0  0  0
   11.5172   39.3814   31.4407 C   0  0  0  0  0  0  0  0  0  0  0  0
   12.7493   39.0855   32.0727 O   0  0  0  0  0  0  0  0  0  0  0  0
   10.6023   38.1907   31.6665 C   0  0  0  0  0  0  0  0  0  0  0  0
   12.9319   37.6781   32.0281 C   0  0  0  0  0  0  0  0  0  0  0  0
    9.6392   38.0797   30.6451 O   0  0  0  0  0  0  0  0  0  0  0  0
   11.5715   37.0165   31.7056 C   0  0  0  0  0  0  0  0  0  0  0  0
   13.4846   37.2121   33.3235 N   0  0  0  0  0  0  0  0  0  0  0  0
   11.6187   36.3383   30.4694 O   0  0  0  0  0  0  0  0  0  0  0  0
   14.4801   36.3321   33.5724 C   0  0  0  0  0  0  0  0  0  0  0  0
   13.1137   37.6275   34.5687 C   0  0  0  0  0  0  0  0  0  0  0  0
   15.2073   35.6153   32.6738 N   0  0  0  0  0  0  0  0  0  0  0  0
   14.6759   36.2308   34.9179 C   0  0  0  0  0  0  0  0  0  0  0  0
   13.8216   37.0452   35.5781 N   0  0  0  0  0  0  0  0  0  0  0  0
   16.1640   34.7602   33.1546 C   0  0  0  0  0  0  0  0  0  0  0  0
   15.6526   35.3508   35.4129 C   0  0  0  0  0  0  0  0  0  0  0  0
   16.3794   34.6317   34.5041 N   0  0  0  0  0  0  0  0  0  0  0  0
   15.8999   35.1935   36.8088 N   0  0  0  0  0  0  0  0  0  0  0  0
    9.0099   45.4347   33.6669 H   0  0  0  0  0  0  0  0  0  0  0  0
   11.9349   45.6934   33.0928 H   0  0  0  0  0  0  0  0  0  0  0  0
   11.1132   46.1991   34.4884 H   0  0  0  0  0  0  0  0  0  0  0  0
    9.3518   43.8345   31.4756 H   0  0  0  0  0  0  0  0  0  0  0  0
   10.7309   44.8932   31.1674 H   0  0  0  0  0  0  0  0  0  0  0  0
    7.0126   44.7153   31.5837 H   0  0  0  0  0  0  0  0  0  0  0  0
   10.3466   47.1895   30.4147 H   0  0  0  0  0  0  0  0  0  0  0  0
    5.4672   46.2845   30.5167 H   0  0  0  0  0  0  0  0  0  0  0  0
    8.7937   48.7688   29.3409 H   0  0  0  0  0  0  0  0  0  0  0  0
    4.3352   48.2967   30.0735 H   0  0  0  0  0  0  0  0  0  0  0  0
    4.4794   50.6048   29.2189 H   0  0  0  0  0  0  0  0  0  0  0  0
    4.5287   50.0017   27.5214 H   0  0  0  0  0  0  0  0  0  0  0  0
    3.0691   49.7149   28.5382 H   0  0  0  0  0  0  0  0  0  0  0  0
    2.5392   46.9281   29.2655 H   0  0  0  0  0  0  0  0  0  0  0  0
    5.3706   45.3466   25.4760 H   0  0  0  0  0  0  0  0  0  0  0  0
    1.8522   42.6823   27.2538 H   0  0  0  0  0  0  0  0  0  0  0  0
    0.9337   43.7623   26.1003 H   0  0  0  0  0  0  0  0  0  0  0  0
   11.3972   41.5459   31.4735 H   0  0  0  0  0  0  0  0  0  0  0  0
    9.8300   40.7411   31.7610 H   0  0  0  0  0  0  0  0  0  0  0  0
   11.6974   39.5067   30.3480 H   0  0  0  0  0  0  0  0  0  0  0  0
   10.1077   38.2647   32.6645 H   0  0  0  0  0  0  0  0  0  0  0  0
   13.6621   37.4467   31.2208 H   0  0  0  0  0  0  0  0  0  0  0  0
    8.8975   38.6944   30.8830 H   0  0  0  0  0  0  0  0  0  0  0  0
   11.2806   36.3073   32.5170 H   0  0  0  0  0  0  0  0  0  0  0  0
   10.8492   35.7110   30.4585 H   0  0  0  0  0  0  0  0  0  0  0  0
   12.3290   38.3523   34.7444 H   0  0  0  0  0  0  0  0  0  0  0  0
   16.7559   34.1780   32.4619 H   0  0  0  0  0  0  0  0  0  0  0  0
   15.3531   35.7363   37.5137 H   0  0  0  0  0  0  0  0  0  0  0  0
   16.6344   34.5301   37.1414 H   0  0  0  0  0  0  0  0  0  0  0  0
  1  2  2  0
  1  3  1  0
  3  4  1  0
  4  5  1  0
  6  1  1  0
  7  6  1  0
  6  8  1  0
  8  9  1  0
  9 10  2  0
 11  9  1  0
 10 12  1  0
 13 11  2  0
 12 14  2  0
 14 13  1  0
 14 15  1  0
 15 16  1  0
 16 17  1  0
 16 18  1  0
 18 19  2  0
 20 18  1  0
 19 21  1  0
 22 20  2  0
 20 23  1  0
 21 24  1  0
 21 25  2  0
 25 22  1  0
 23 26  1  0
 23 27  2  0
 24 28  1  0
 25 29  1  0
 28 29  1  0
  4 30  2  0
  4 31  1  0
 32 31  1  0
 32 33  1  0
 33 34  1  0
 33 35  1  0
 34 36  1  0
 35 37  1  0
 35 38  1  0
 38 36  1  0
 36 39  1  0
 38 40  1  0
 41 39  1  0
 42 39  1  0
 43 41  2  0
 41 44  1  0
 45 42  2  0
 46 43  1  0
 44 47  2  0
 44 45  1  0
 48 46  2  0
 48 47  1  0
 47 49  1  0
  6 50  1  1
  7 51  1  0
  7 52  1  0
  8 53  1  0
  8 54  1  0
 10 55  1  0
 11 56  1  0
 12 57  1  0
 13 58  1  0
 16 59  1  1
 17 60  1  0
 17 61  1  0
 17 62  1  0
 19 63  1  0
 22 64  1  0
 28 65  1  0
 28 66  1  0
 32 67  1  0
 32 68  1  0
 33 69  1  0
 35 70  1  0
 36 71  1  0
 37 72  1  0
 38 73  1  0
 40 74  1  0
 42 75  1  0
 46 76  1  0
 49 77  1  0
 49 78  1  0
M  CHG  3   5  -1  23   1  26  -1
M  END
>  <EmbedRMS>  (378) 
0.0838293646438

$$$$

     RDKit          3D

 78 83  0  0  0  0  0  0  0  0999 V2000
   10.2834   43.7665   33.8256 C   0  0  0  0  0  0  0  0  0  0  0  0
   11.4102   43.5934   34.3751 O   0  0  0  0  0  0  0  0  0  0  0  0
    9.3638   42.7256   33.7349 O   0  0  0  0  0  0  0  0  0  0  0  0
    9.8904   41.2268   34.2942 P   0  0  0  0  0  0  0  0  0  0  0  0
   10.3735   41.4562   35.8836 O   0  0  0  0  0  0  0  0  0  0  0  0
    9.9542   45.0699   33.2037 C   0  0  1  0  0  0  0  0  0  0  0  0
   11.0266   46.0330   33.4759 N   0  0  0  0  0  0  0  0  0  0  0  0
    9.7463   44.8487   31.6878 C   0  0  0  0  0  0  0  0  0  0  0  0
    8.7920   45.8414   31.0848 C   0  0  0  0  0  0  0  0  0  0  0  0
    7.4043   45.5997   31.0965 C   0  0  0  0  0  0  0  0  0  0  0  0
    9.2827   46.9876   30.4398 C   0  0  0  0  0  0  0  0  0  0  0  0
    6.5246   46.5006   30.4804 C   0  0  0  0  0  0  0  0  0  0  0  0
    8.4019   47.8867   29.8278 C   0  0  0  0  0  0  0  0  0  0  0  0
    7.0202   47.6567   29.8590 C   0  0  0  0  0  0  0  0  0  0  0  0
    6.1554   48.5745   29.2543 O   0  0  0  0  0  0  0  0  0  0  0  0
    5.3722   49.5479   29.9592 C   0  0  1  0  0  0  0  0  0  0  0  0
    4.2887   48.8991   30.8285 C   0  0  0  0  0  0  0  0  0  0  0  0
    6.2522   50.5100   30.7536 C   0  0  0  0  0  0  0  0  0  0  0  0
    6.9699   50.0265   31.8788 C   0  0  0  0  0  0  0  0  0  0  0  0
    6.4325   51.8778   30.3547 C   0  0  0  0  0  0  0  0  0  0  0  0
    7.8535   50.8801   32.5246 C   0  0  0  0  0  0  0  0  0  0  0  0
    7.3566   52.6954   31.0422 C   0  0  0  0  0  0  0  0  0  0  0  0
    5.6840   52.4566   29.2774 N   0  0  0  0  0  0  0  0  0  0  0  0
    8.6592   50.6160   33.6154 O   0  0  0  0  0  0  0  0  0  0  0  0
    8.0433   52.1562   32.1208 C   0  0  0  0  0  0  0  0  0  0  0  0
    6.3201   53.2743   28.3724 O   0  0  0  0  0  0  0  0  0  0  0  0
    4.4367   52.4655   29.3242 O   0  0  0  0  0  0  0  0  0  0  0  0
    9.4020   51.8056   33.9146 C   0  0  0  0  0  0  0  0  0  0  0  0
    8.9776   52.7648   32.9365 O   0  0  0  0  0  0  0  0  0  0  0  0
    8.8122   40.1851   34.2131 O   0  0  0  0  0  0  0  0  0  0  0  0
   11.2407   40.7940   33.3693 O   0  0  0  0  0  0  0  0  0  0  0  0
   10.9151   40.6905   31.9974 C   0  0  0  0  0  0  0  0  0  0  0  0
   11.5252   39.3886   31.4375 C   0  0  0  0  0  0  0  0  0  0  0  0
   12.7500   39.0874   32.0799 O   0  0  0  0  0  0  0  0  0  0  0  0
   10.6092   38.1926   31.6470 C   0  0  0  0  0  0  0  0  0  0  0  0
   12.9332   37.6793   32.0294 C   0  0  0  0  0  0  0  0  0  0  0  0
    9.6122   38.0895   30.6543 O   0  0  0  0  0  0  0  0  0  0  0  0
   11.5743   37.0145   31.7024 C   0  0  0  0  0  0  0  0  0  0  0  0
   13.4844   37.2108   33.3241 N   0  0  0  0  0  0  0  0  0  0  0  0
   11.6297   36.3239   30.4740 O   0  0  0  0  0  0  0  0  0  0  0  0
   14.4802   36.3313   33.5727 C   0  0  0  0  0  0  0  0  0  0  0  0
   13.1138   37.6267   34.5692 C   0  0  0  0  0  0  0  0  0  0  0  0
   15.2075   35.6149   32.6739 N   0  0  0  0  0  0  0  0  0  0  0  0
   14.6761   36.2303   34.9182 C   0  0  0  0  0  0  0  0  0  0  0  0
   13.8220   37.0447   35.5785 N   0  0  0  0  0  0  0  0  0  0  0  0
   16.1643   34.7600   33.1547 C   0  0  0  0  0  0  0  0  0  0  0  0
   15.6529   35.3505   35.4130 C   0  0  0  0  0  0  0  0  0  0  0  0
   16.3798   34.6315   34.5042 N   0  0  0  0  0  0  0  0  0  0  0  0
   15.9003   35.1932   36.8090 N   0  0  0  0  0  0  0  0  0  0  0  0
    9.0115   45.4319   33.6715 H   0  0  0  0  0  0  0  0  0  0  0  0
   11.8896   45.7678   32.9463 H   0  0  0  0  0  0  0  0  0  0  0  0
   10.7241   46.9698   33.1230 H   0  0  0  0  0  0  0  0  0  0  0  0
    9.3414   43.8335   31.4763 H   0  0  0  0  0  0  0  0  0  0  0  0
   10.7227   44.8823   31.1559 H   0  0  0  0  0  0  0  0  0  0  0  0
    7.0080   44.7112   31.5725 H   0  0  0  0  0  0  0  0  0  0  0  0
   10.3470   47.1854   30.4077 H   0  0  0  0  0  0  0  0  0  0  0  0
    5.4631   46.2927   30.4810 H   0  0  0  0  0  0  0  0  0  0  0  0
    8.7912   48.7714   29.3402 H   0  0  0  0  0  0  0  0  0  0  0  0
    4.8247   50.0981   29.1723 H   0  0  0  0  0  0  0  0  0  0  0  0
    3.6289   49.6848   31.2547 H   0  0  0  0  0  0  0  0  0  0  0  0
    3.6677   48.2191   30.2078 H   0  0  0  0  0  0  0  0  0  0  0  0
    4.7240   48.3164   31.6649 H   0  0  0  0  0  0  0  0  0  0  0  0
    6.8671   49.0097   32.2315 H   0  0  0  0  0  0  0  0  0  0  0  0
    7.5158   53.7273   30.7565 H   0  0  0  0  0  0  0  0  0  0  0  0
    9.1563   52.1651   34.9358 H   0  0  0  0  0  0  0  0  0  0  0  0
   10.4910   51.6134   33.8155 H   0  0  0  0  0  0  0  0  0  0  0  0
    9.8242   40.7215   31.7643 H   0  0  0  0  0  0  0  0  0  0  0  0
   11.3801   41.5529   31.4733 H   0  0  0  0  0  0  0  0  0  0  0  0
   11.7266   39.5311   30.3513 H   0  0  0  0  0  0  0  0  0  0  0  0
   10.1110   38.2747   32.6387 H   0  0  0  0  0  0  0  0  0  0  0  0
   13.6652   37.4519   31.2226 H   0  0  0  0  0  0  0  0  0  0  0  0
   10.0511   38.1144   29.7645 H   0  0  0  0  0  0  0  0  0  0  0  0
   11.2762   36.3141   32.5189 H   0  0  0  0  0  0  0  0  0  0  0  0
   10.8593   35.6978   30.4640 H   0  0  0  0  0  0  0  0  0  0  0  0
   12.3295   38.3518   34.7449 H   0  0  0  0  0  0  0  0  0  0  0  0
   16.7564   34.1780   32.4620 H   0  0  0  0  0  0  0  0  0  0  0  0
   16.6349   34.5300   37.1415 H   0  0  0  0  0  0  0  0  0  0  0  0
   15.3534   35.7359   37.5138 H   0  0  0  0  0  0  0  0  0  0  0  0
  1  2  2  0
  1  3  1  0
  3  4  1  0
  4  5  1  0
  6  1  1  0
  7  6  1  0
  6  8  1  0
  8  9  1  0
  9 10  2  0
 11  9  1  0
 10 12  1  0
 13 11  2  0
 12 14  2  0
 14 13  1  0
 14 15  1  0
 15 16  1  0
 16 17  1  0
 16 18  1  0
 18 19  2  0
 20 18  1  0
 19 21  1  0
 22 20  2  0
 20 23  1  0
 21 24  1  0
 21 25  2  0
 25 22  1  0
 23 26  1  0
 23 27  2  0
 24 28  1  0
 25 29  1  0
 28 29  1  0
  4 30  2  0
  4 31  1  0
 32 31  1  0
 32 33  1  0
 33 34  1  0
 33 35  1  0
 34 36  1  0
 35 37  1  0
 35 38  1  0
 38 36  1  0
 36 39  1  0
 38 40  1  0
 41 39  1  0
 42 39  1  0
 43 41  2  0
 41 44  1  0
 45 42  2  0
 46 43  1  0
 44 47  2  0
 44 45  1  0
 48 46  2  0
 48 47  1  0
 47 49  1  0
  6 50  1  1
  7 51  1  0
  7 52  1  0
  8 53  1  0
  8 54  1  0
 10 55  1  0
 11 56  1  0
 12 57  1  0
 13 58  1  0
 16 59  1  6
 17 60  1  0
 17 61  1  0
 17 62  1  0
 19 63  1  0
 22 64  1  0
 28 65  1  0
 28 66  1  0
 32 67  1  0
 32 68  1  0
 33 69  1  0
 35 70  1  0
 36 71  1  0
 37 72  1  0
 38 73  1  0
 40 74  1  0
 42 75  1  0
 46 76  1  0
 49 77  1  0
 49 78  1  0
M  CHG  3   5  -1  23   1  26  -1
M  END
>  <EmbedRMS>  (379) 
0.0819251035868

$$$$

     RDKit          3D

 78 83  0  0  0  0  0  0  0  0999 V2000
   10.2834   43.7662   33.8258 C   0  0  0  0  0  0  0  0  0  0  0  0
   11.4102   43.5929   34.3752 O   0  0  0  0  0  0  0  0  0  0  0  0
    9.3635   42.7257   33.7352 O   0  0  0  0  0  0  0  0  0  0  0  0
    9.8899   41.2270   34.2948 P   0  0  0  0  0  0  0  0  0  0  0  0
   10.3732   41.4562   35.8841 O   0  0  0  0  0  0  0  0  0  0  0  0
    9.9547   45.0696   33.2037 C   0  0  1  0  0  0  0  0  0  0  0  0
   11.0274   46.0322   33.4761 N   0  0  0  0  0  0  0  0  0  0  0  0
    9.7470   44.8485   31.6878 C   0  0  0  0  0  0  0  0  0  0  0  0
    8.7925   45.8412   31.0849 C   0  0  0  0  0  0  0  0  0  0  0  0
    7.4060   45.6011   31.0991 C   0  0  0  0  0  0  0  0  0  0  0  0
    9.2817   46.9875   30.4419 C   0  0  0  0  0  0  0  0  0  0  0  0
    6.5242   46.5006   30.4839 C   0  0  0  0  0  0  0  0  0  0  0  0
    8.4006   47.8871   29.8313 C   0  0  0  0  0  0  0  0  0  0  0  0
    7.0182   47.6581   29.8469 C   0  0  0  0  0  0  0  0  0  0  0  0
    6.1879   48.5968   29.2120 O   0  0  0  0  0  0  0  0  0  0  0  0
    4.7605   48.6246   29.2544 C   0  0  1  0  0  0  0  0  0  0  0  0
    4.2555   49.0505   30.6399 C   0  0  0  0  0  0  0  0  0  0  0  0
    4.2354   49.5505   28.1683 C   0  0  0  0  0  0  0  0  0  0  0  0
    3.3862   48.9967   27.1773 C   0  0  0  0  0  0  0  0  0  0  0  0
    4.5245   50.9584   28.1284 C   0  0  0  0  0  0  0  0  0  0  0  0
    2.8493   49.8383   26.2120 C   0  0  0  0  0  0  0  0  0  0  0  0
    3.9366   51.7664   27.1291 C   0  0  0  0  0  0  0  0  0  0  0  0
    5.3885   51.5846   29.0866 N   0  0  0  0  0  0  0  0  0  0  0  0
    2.0035   49.5175   25.1676 O   0  0  0  0  0  0  0  0  0  0  0  0
    3.1104   51.1647   26.1907 C   0  0  0  0  0  0  0  0  0  0  0  0
    6.6994   51.1857   29.1965 O   0  0  0  0  0  0  0  0  0  0  0  0
    5.0386   52.6542   29.6265 O   0  0  0  0  0  0  0  0  0  0  0  0
    1.7168   50.7224   24.4445 C   0  0  0  0  0  0  0  0  0  0  0  0
    2.4437   51.7501   25.1315 O   0  0  0  0  0  0  0  0  0  0  0  0
    8.8121   40.1850   34.2133 O   0  0  0  0  0  0  0  0  0  0  0  0
   11.2403   40.7947   33.3700 O   0  0  0  0  0  0  0  0  0  0  0  0
   10.9145   40.6914   31.9983 C   0  0  0  0  0  0  0  0  0  0  0  0
   11.5270   39.3912   31.4386 C   0  0  0  0  0  0  0  0  0  0  0  0
   12.7520   39.0911   32.0836 O   0  0  0  0  0  0  0  0  0  0  0  0
   10.6113   38.1932   31.6451 C   0  0  0  0  0  0  0  0  0  0  0  0
   12.9412   37.6838   32.0297 C   0  0  0  0  0  0  0  0  0  0  0  0
    9.6065   38.0878   30.6599 O   0  0  0  0  0  0  0  0  0  0  0  0
   11.5821   37.0198   31.6876 C   0  0  0  0  0  0  0  0  0  0  0  0
   13.4840   37.2104   33.3254 N   0  0  0  0  0  0  0  0  0  0  0  0
   11.6178   36.3072   30.4690 O   0  0  0  0  0  0  0  0  0  0  0  0
   14.4797   36.3309   33.5738 C   0  0  0  0  0  0  0  0  0  0  0  0
   13.1136   37.6269   34.5702 C   0  0  0  0  0  0  0  0  0  0  0  0
   15.2074   35.6152   32.6747 N   0  0  0  0  0  0  0  0  0  0  0  0
   14.6756   36.2298   34.9190 C   0  0  0  0  0  0  0  0  0  0  0  0
   13.8217   37.0446   35.5793 N   0  0  0  0  0  0  0  0  0  0  0  0
   16.1644   34.7603   33.1551 C   0  0  0  0  0  0  0  0  0  0  0  0
   15.6529   35.3503   35.4136 C   0  0  0  0  0  0  0  0  0  0  0  0
   16.3798   34.6316   34.5046 N   0  0  0  0  0  0  0  0  0  0  0  0
   15.9005   35.1931   36.8094 N   0  0  0  0  0  0  0  0  0  0  0  0
    9.0121   45.4318   33.6716 H   0  0  0  0  0  0  0  0  0  0  0  0
   10.7263   46.9688   33.1216 H   0  0  0  0  0  0  0  0  0  0  0  0
   11.8908   45.7658   32.9477 H   0  0  0  0  0  0  0  0  0  0  0  0
    9.3424   43.8333   31.4760 H   0  0  0  0  0  0  0  0  0  0  0  0
   10.7234   44.8824   31.1560 H   0  0  0  0  0  0  0  0  0  0  0  0
    7.0107   44.7145   31.5795 H   0  0  0  0  0  0  0  0  0  0  0  0
   10.3460   47.1857   30.4096 H   0  0  0  0  0  0  0  0  0  0  0  0
    5.4683   46.2757   30.5071 H   0  0  0  0  0  0  0  0  0  0  0  0
    8.7947   48.7683   29.3409 H   0  0  0  0  0  0  0  0  0  0  0  0
    4.3792   47.5990   29.0585 H   0  0  0  0  0  0  0  0  0  0  0  0
    4.4825   48.2676   31.3918 H   0  0  0  0  0  0  0  0  0  0  0  0
    3.1542   49.1951   30.6184 H   0  0  0  0  0  0  0  0  0  0  0  0
    4.7384   49.9897   30.9755 H   0  0  0  0  0  0  0  0  0  0  0  0
    3.1383   47.9429   27.1633 H   0  0  0  0  0  0  0  0  0  0  0  0
    4.1321   52.8300   27.0795 H   0  0  0  0  0  0  0  0  0  0  0  0
    2.0735   50.6356   23.3968 H   0  0  0  0  0  0  0  0  0  0  0  0
    0.6281   50.9381   24.4739 H   0  0  0  0  0  0  0  0  0  0  0  0
   11.3776   41.5549   31.4744 H   0  0  0  0  0  0  0  0  0  0  0  0
    9.8234   40.7201   31.7654 H   0  0  0  0  0  0  0  0  0  0  0  0
   11.7312   39.5364   30.3532 H   0  0  0  0  0  0  0  0  0  0  0  0
   10.1202   38.2697   32.6410 H   0  0  0  0  0  0  0  0  0  0  0  0
   13.6850   37.4639   31.2321 H   0  0  0  0  0  0  0  0  0  0  0  0
   10.0251   38.1793   29.7654 H   0  0  0  0  0  0  0  0  0  0  0  0
   11.2756   36.3135   32.4907 H   0  0  0  0  0  0  0  0  0  0  0  0
   11.9840   36.9111   29.7708 H   0  0  0  0  0  0  0  0  0  0  0  0
   12.3307   38.3537   34.7457 H   0  0  0  0  0  0  0  0  0  0  0  0
   16.7566   34.1786   32.4623 H   0  0  0  0  0  0  0  0  0  0  0  0
   16.6353   34.5300   37.1418 H   0  0  0  0  0  0  0  0  0  0  0  0
   15.3535   35.7355   37.5144 H   0  0  0  0  0  0  0  0  0  0  0  0
  1  2  2  0
  1  3  1  0
  3  4  1  0
  4  5  1  0
  6  1  1  0
  7  6  1  0
  6  8  1  0
  8  9  1  0
  9 10  2  0
 11  9  1  0
 10 12  1  0
 13 11  2  0
 12 14  2  0
 14 13  1  0
 14 15  1  0
 15 16  1  0
 16 17  1  0
 16 18  1  0
 18 19  2  0
 20 18  1  0
 19 21  1  0
 22 20  2  0
 20 23  1  0
 21 24  1  0
 21 25  2  0
 25 22  1  0
 23 26  1  0
 23 27  2  0
 24 28  1  0
 25 29  1  0
 28 29  1  0
  4 30  2  0
  4 31  1  0
 32 31  1  0
 32 33  1  0
 33 34  1  0
 33 35  1  0
 34 36  1  0
 35 37  1  0
 35 38  1  0
 38 36  1  0
 36 39  1  0
 38 40  1  0
 41 39  1  0
 42 39  1  0
 43 41  2  0
 41 44  1  0
 45 42  2  0
 46 43  1  0
 44 47  2  0
 44 45  1  0
 48 46  2  0
 48 47  1  0
 47 49  1  0
  6 50  1  1
  7 51  1  0
  7 52  1  0
  8 53  1  0
  8 54  1  0
 10 55  1  0
 11 56  1  0
 12 57  1  0
 13 58  1  0
 16 59  1  6
 17 60  1  0
 17 61  1  0
 17 62  1  0
 19 63  1  0
 22 64  1  0
 28 65  1  0
 28 66  1  0
 32 67  1  0
 32 68  1  0
 33 69  1  0
 35 70  1  0
 36 71  1  0
 37 72  1  0
 38 73  1  0
 40 74  1  0
 42 75  1  0
 46 76  1  0
 49 77  1  0
 49 78  1  0
M  CHG  3   5  -1  23   1  26  -1
M  END
>  <EmbedRMS>  (380) 
0.0807932001781

$$$$

     RDKit          3D

 78 83  0  0  0  0  0  0  0  0999 V2000
   10.2802   43.7664   33.8246 C   0  0  0  0  0  0  0  0  0  0  0  0
   11.4108   43.5920   34.3665 O   0  0  0  0  0  0  0  0  0  0  0  0
    9.3617   42.7250   33.7343 O   0  0  0  0  0  0  0  0  0  0  0  0
    9.8901   41.2266   34.2931 P   0  0  0  0  0  0  0  0  0  0  0  0
   10.3742   41.4564   35.8823 O   0  0  0  0  0  0  0  0  0  0  0  0
    9.9457   45.0736   33.2106 C   0  0  1  0  0  0  0  0  0  0  0  0
   11.0265   46.0292   33.4703 N   0  0  0  0  0  0  0  0  0  0  0  0
    9.7536   44.8540   31.6942 C   0  0  0  0  0  0  0  0  0  0  0  0
    8.7954   45.8408   31.0836 C   0  0  0  0  0  0  0  0  0  0  0  0
    7.4074   45.6008   31.1024 C   0  0  0  0  0  0  0  0  0  0  0  0
    9.2828   46.9901   30.4408 C   0  0  0  0  0  0  0  0  0  0  0  0
    6.5264   46.5030   30.4900 C   0  0  0  0  0  0  0  0  0  0  0  0
    8.4004   47.8914   29.8333 C   0  0  0  0  0  0  0  0  0  0  0  0
    7.0200   47.6437   29.8419 C   0  0  0  0  0  0  0  0  0  0  0  0
    6.1270   48.5320   29.2340 O   0  0  0  0  0  0  0  0  0  0  0  0
    5.8803   48.6097   27.8231 C   0  0  1  0  0  0  0  0  0  0  0  0
    7.1170   49.0702   27.0425 C   0  0  0  0  0  0  0  0  0  0  0  0
    5.3076   47.3031   27.2802 C   0  0  0  0  0  0  0  0  0  0  0  0
    6.1289   46.1462   27.2461 C   0  0  0  0  0  0  0  0  0  0  0  0
    3.9375   47.1906   26.8643 C   0  0  0  0  0  0  0  0  0  0  0  0
    5.5665   44.9392   26.8541 C   0  0  0  0  0  0  0  0  0  0  0  0
    3.4169   45.9322   26.4895 C   0  0  0  0  0  0  0  0  0  0  0  0
    3.0708   48.3309   26.7982 N   0  0  0  0  0  0  0  0  0  0  0  0
    6.1703   43.6997   26.7657 O   0  0  0  0  0  0  0  0  0  0  0  0
    4.2667   44.8352   26.4975 C   0  0  0  0  0  0  0  0  0  0  0  0
    1.7772   48.2267   27.2545 O   0  0  0  0  0  0  0  0  0  0  0  0
    3.3786   49.3021   26.0770 O   0  0  0  0  0  0  0  0  0  0  0  0
    5.1833   42.7577   26.3240 C   0  0  0  0  0  0  0  0  0  0  0  0
    3.9823   43.5250   26.1640 O   0  0  0  0  0  0  0  0  0  0  0  0
    8.8123   40.1844   34.2130 O   0  0  0  0  0  0  0  0  0  0  0  0
   11.2401   40.7949   33.3666 O   0  0  0  0  0  0  0  0  0  0  0  0
   10.9124   40.6859   31.9951 C   0  0  0  0  0  0  0  0  0  0  0  0
   11.5174   39.3787   31.4405 C   0  0  0  0  0  0  0  0  0  0  0  0
   12.7489   39.0864   32.0753 O   0  0  0  0  0  0  0  0  0  0  0  0
   10.6060   38.1868   31.6656 C   0  0  0  0  0  0  0  0  0  0  0  0
   12.9355   37.6796   32.0292 C   0  0  0  0  0  0  0  0  0  0  0  0
    9.6399   38.0903   30.6471 O   0  0  0  0  0  0  0  0  0  0  0  0
   11.5765   37.0146   31.7044 C   0  0  0  0  0  0  0  0  0  0  0  0
   13.4858   37.2125   33.3244 N   0  0  0  0  0  0  0  0  0  0  0  0
   11.6101   36.3397   30.4673 O   0  0  0  0  0  0  0  0  0  0  0  0
   14.4805   36.3319   33.5729 C   0  0  0  0  0  0  0  0  0  0  0  0
   13.1144   37.6277   34.5694 C   0  0  0  0  0  0  0  0  0  0  0  0
   15.2076   35.6153   32.6741 N   0  0  0  0  0  0  0  0  0  0  0  0
   14.6760   36.2304   34.9184 C   0  0  0  0  0  0  0  0  0  0  0  0
   13.8219   37.0449   35.5786 N   0  0  0  0  0  0  0  0  0  0  0  0
   16.1641   34.7600   33.1548 C   0  0  0  0  0  0  0  0  0  0  0  0
   15.6528   35.3505   35.4132 C   0  0  0  0  0  0  0  0  0  0  0  0
   16.3795   34.6314   34.5043 N   0  0  0  0  0  0  0  0  0  0  0  0
   15.9002   35.1931   36.8091 N   0  0  0  0  0  0  0  0  0  0  0  0
    8.9993   45.4382   33.6715 H   0  0  0  0  0  0  0  0  0  0  0  0
   11.0501   46.2275   34.4978 H   0  0  0  0  0  0  0  0  0  0  0  0
   10.7762   46.9369   33.0156 H   0  0  0  0  0  0  0  0  0  0  0  0
    9.3639   43.8353   31.4705 H   0  0  0  0  0  0  0  0  0  0  0  0
   10.7406   44.9077   31.1827 H   0  0  0  0  0  0  0  0  0  0  0  0
    7.0119   44.7169   31.5874 H   0  0  0  0  0  0  0  0  0  0  0  0
   10.3462   47.1930   30.4126 H   0  0  0  0  0  0  0  0  0  0  0  0
    5.4615   46.3089   30.5067 H   0  0  0  0  0  0  0  0  0  0  0  0
    8.7918   48.7834   29.3630 H   0  0  0  0  0  0  0  0  0  0  0  0
    5.1414   49.4235   27.7069 H   0  0  0  0  0  0  0  0  0  0  0  0
    7.4879   50.0300   27.4603 H   0  0  0  0  0  0  0  0  0  0  0  0
    7.9354   48.3239   27.0882 H   0  0  0  0  0  0  0  0  0  0  0  0
    6.8493   49.2326   25.9765 H   0  0  0  0  0  0  0  0  0  0  0  0
    7.1698   46.1730   27.5371 H   0  0  0  0  0  0  0  0  0  0  0  0
    2.3860   45.8199   26.1788 H   0  0  0  0  0  0  0  0  0  0  0  0
    5.4854   42.3117   25.3532 H   0  0  0  0  0  0  0  0  0  0  0  0
    5.0348   41.9690   27.0911 H   0  0  0  0  0  0  0  0  0  0  0  0
    9.8213   40.7199   31.7633 H   0  0  0  0  0  0  0  0  0  0  0  0
   11.3802   41.5436   31.4660 H   0  0  0  0  0  0  0  0  0  0  0  0
   11.6999   39.5041   30.3481 H   0  0  0  0  0  0  0  0  0  0  0  0
   10.1085   38.2766   32.6603 H   0  0  0  0  0  0  0  0  0  0  0  0
   13.6679   37.4521   31.2229 H   0  0  0  0  0  0  0  0  0  0  0  0
    9.0015   37.3869   30.9349 H   0  0  0  0  0  0  0  0  0  0  0  0
   11.2666   36.3062   32.5083 H   0  0  0  0  0  0  0  0  0  0  0  0
   12.1389   35.5126   30.6150 H   0  0  0  0  0  0  0  0  0  0  0  0
   12.3301   38.3530   34.7449 H   0  0  0  0  0  0  0  0  0  0  0  0
   16.7560   34.1779   32.4620 H   0  0  0  0  0  0  0  0  0  0  0  0
   15.3534   35.7359   37.5140 H   0  0  0  0  0  0  0  0  0  0  0  0
   16.6347   34.5298   37.1416 H   0  0  0  0  0  0  0  0  0  0  0  0
  1  2  2  0
  1  3  1  0
  3  4  1  0
  4  5  1  0
  6  1  1  0
  7  6  1  0
  6  8  1  0
  8  9  1  0
  9 10  2  0
 11  9  1  0
 10 12  1  0
 13 11  2  0
 12 14  2  0
 14 13  1  0
 14 15  1  0
 15 16  1  0
 16 17  1  0
 16 18  1  0
 18 19  2  0
 20 18  1  0
 19 21  1  0
 22 20  2  0
 20 23  1  0
 21 24  1  0
 21 25  2  0
 25 22  1  0
 23 26  1  0
 23 27  2  0
 24 28  1  0
 25 29  1  0
 28 29  1  0
  4 30  2  0
  4 31  1  0
 32 31  1  0
 32 33  1  0
 33 34  1  0
 33 35  1  0
 34 36  1  0
 35 37  1  0
 35 38  1  0
 38 36  1  0
 36 39  1  0
 38 40  1  0
 41 39  1  0
 42 39  1  0
 43 41  2  0
 41 44  1  0
 45 42  2  0
 46 43  1  0
 44 47  2  0
 44 45  1  0
 48 46  2  0
 48 47  1  0
 47 49  1  0
  6 50  1  1
  7 51  1  0
  7 52  1  0
  8 53  1  0
  8 54  1  0
 10 55  1  0
 11 56  1  0
 12 57  1  0
 13 58  1  0
 16 59  1  1
 17 60  1  0
 17 61  1  0
 17 62  1  0
 19 63  1  0
 22 64  1  0
 28 65  1  0
 28 66  1  0
 32 67  1  0
 32 68  1  0
 33 69  1  0
 35 70  1  0
 36 71  1  0
 37 72  1  0
 38 73  1  0
 40 74  1  0
 42 75  1  0
 46 76  1  0
 49 77  1  0
 49 78  1  0
M  CHG  3   5  -1  23   1  26  -1
M  END
>  <EmbedRMS>  (381) 
0.0823477944635

$$$$

     RDKit          3D

 78 83  0  0  0  0  0  0  0  0999 V2000
   10.2803   43.7665   33.8251 C   0  0  0  0  0  0  0  0  0  0  0  0
   11.4110   43.5918   34.3667 O   0  0  0  0  0  0  0  0  0  0  0  0
    9.3616   42.7251   33.7349 O   0  0  0  0  0  0  0  0  0  0  0  0
    9.8896   41.2269   34.2945 P   0  0  0  0  0  0  0  0  0  0  0  0
   10.3731   41.4568   35.8838 O   0  0  0  0  0  0  0  0  0  0  0  0
    9.9459   45.0736   33.2112 C   0  0  1  0  0  0  0  0  0  0  0  0
   11.0268   46.0291   33.4705 N   0  0  0  0  0  0  0  0  0  0  0  0
    9.7536   44.8537   31.6950 C   0  0  0  0  0  0  0  0  0  0  0  0
    8.7955   45.8409   31.0851 C   0  0  0  0  0  0  0  0  0  0  0  0
    7.4093   45.6006   31.1008 C   0  0  0  0  0  0  0  0  0  0  0  0
    9.2823   46.9871   30.4401 C   0  0  0  0  0  0  0  0  0  0  0  0
    6.5295   46.5010   30.4851 C   0  0  0  0  0  0  0  0  0  0  0  0
    8.4021   47.8887   29.8306 C   0  0  0  0  0  0  0  0  0  0  0  0
    7.0123   47.6526   29.8472 C   0  0  0  0  0  0  0  0  0  0  0  0
    6.0712   48.5086   29.2456 O   0  0  0  0  0  0  0  0  0  0  0  0
    6.3200   49.7469   28.5665 C   0  0  1  0  0  0  0  0  0  0  0  0
    6.7198   50.8323   29.5787 C   0  0  0  0  0  0  0  0  0  0  0  0
    7.2490   49.5556   27.3661 C   0  0  0  0  0  0  0  0  0  0  0  0
    8.3821   50.3945   27.1799 C   0  0  0  0  0  0  0  0  0  0  0  0
    7.0058   48.5033   26.4155 C   0  0  0  0  0  0  0  0  0  0  0  0
    9.2338   50.1389   26.1139 C   0  0  0  0  0  0  0  0  0  0  0  0
    7.9196   48.2847   25.3602 C   0  0  0  0  0  0  0  0  0  0  0  0
    5.8560   47.6450   26.5090 N   0  0  0  0  0  0  0  0  0  0  0  0
   10.3877   50.8106   25.7582 O   0  0  0  0  0  0  0  0  0  0  0  0
    9.0155   49.1264   25.2462 C   0  0  0  0  0  0  0  0  0  0  0  0
    5.9529   46.3273   26.1250 O   0  0  0  0  0  0  0  0  0  0  0  0
    4.7265   48.1205   26.7438 O   0  0  0  0  0  0  0  0  0  0  0  0
   10.9269   50.1764   24.5905 C   0  0  0  0  0  0  0  0  0  0  0  0
   10.0192   49.1058   24.2970 O   0  0  0  0  0  0  0  0  0  0  0  0
    8.8122   40.1844   34.2135 O   0  0  0  0  0  0  0  0  0  0  0  0
   11.2401   40.7950   33.3698 O   0  0  0  0  0  0  0  0  0  0  0  0
   10.9143   40.6914   31.9981 C   0  0  0  0  0  0  0  0  0  0  0  0
   11.5269   39.3911   31.4385 C   0  0  0  0  0  0  0  0  0  0  0  0
   12.7519   39.0911   32.0837 O   0  0  0  0  0  0  0  0  0  0  0  0
   10.6113   38.1932   31.6451 C   0  0  0  0  0  0  0  0  0  0  0  0
   12.9413   37.6838   32.0297 C   0  0  0  0  0  0  0  0  0  0  0  0
    9.6064   38.0878   30.6599 O   0  0  0  0  0  0  0  0  0  0  0  0
   11.5822   37.0197   31.6877 C   0  0  0  0  0  0  0  0  0  0  0  0
   13.4840   37.2104   33.3254 N   0  0  0  0  0  0  0  0  0  0  0  0
   11.6179   36.3072   30.4690 O   0  0  0  0  0  0  0  0  0  0  0  0
   14.4797   36.3309   33.5738 C   0  0  0  0  0  0  0  0  0  0  0  0
   13.1136   37.6269   34.5702 C   0  0  0  0  0  0  0  0  0  0  0  0
   15.2074   35.6152   32.6747 N   0  0  0  0  0  0  0  0  0  0  0  0
   14.6756   36.2298   34.9190 C   0  0  0  0  0  0  0  0  0  0  0  0
   13.8217   37.0445   35.5793 N   0  0  0  0  0  0  0  0  0  0  0  0
   16.1643   34.7603   33.1551 C   0  0  0  0  0  0  0  0  0  0  0  0
   15.6528   35.3503   35.4136 C   0  0  0  0  0  0  0  0  0  0  0  0
   16.3798   34.6316   34.5046 N   0  0  0  0  0  0  0  0  0  0  0  0
   15.9004   35.1930   36.8094 N   0  0  0  0  0  0  0  0  0  0  0  0
    8.9997   45.4383   33.6723 H   0  0  0  0  0  0  0  0  0  0  0  0
   10.7766   46.9367   33.0154 H   0  0  0  0  0  0  0  0  0  0  0  0
   11.0505   46.2279   34.4979 H   0  0  0  0  0  0  0  0  0  0  0  0
    9.3637   43.8351   31.4716 H   0  0  0  0  0  0  0  0  0  0  0  0
   10.7407   44.9069   31.1835 H   0  0  0  0  0  0  0  0  0  0  0  0
    7.0134   44.7160   31.5844 H   0  0  0  0  0  0  0  0  0  0  0  0
   10.3467   47.1848   30.4055 H   0  0  0  0  0  0  0  0  0  0  0  0
    5.4655   46.3016   30.5031 H   0  0  0  0  0  0  0  0  0  0  0  0
    8.8236   48.7539   29.3472 H   0  0  0  0  0  0  0  0  0  0  0  0
    5.3468   50.0873   28.1541 H   0  0  0  0  0  0  0  0  0  0  0  0
    6.7190   51.8312   29.0928 H   0  0  0  0  0  0  0  0  0  0  0  0
    5.9777   50.8584   30.4047 H   0  0  0  0  0  0  0  0  0  0  0  0
    7.7177   50.6397   30.0201 H   0  0  0  0  0  0  0  0  0  0  0  0
    8.6202   51.2110   27.8454 H   0  0  0  0  0  0  0  0  0  0  0  0
    7.7671   47.4941   24.6368 H   0  0  0  0  0  0  0  0  0  0  0  0
   11.9387   49.7730   24.8051 H   0  0  0  0  0  0  0  0  0  0  0  0
   10.9596   50.8940   23.7441 H   0  0  0  0  0  0  0  0  0  0  0  0
   11.3775   41.5548   31.4741 H   0  0  0  0  0  0  0  0  0  0  0  0
    9.8233   40.7200   31.7652 H   0  0  0  0  0  0  0  0  0  0  0  0
   11.7312   39.5361   30.3532 H   0  0  0  0  0  0  0  0  0  0  0  0
   10.1202   38.2696   32.6410 H   0  0  0  0  0  0  0  0  0  0  0  0
   13.6850   37.4639   31.2321 H   0  0  0  0  0  0  0  0  0  0  0  0
   10.0251   38.1792   29.7654 H   0  0  0  0  0  0  0  0  0  0  0  0
   11.2757   36.3135   32.4908 H   0  0  0  0  0  0  0  0  0  0  0  0
   11.9838   36.9111   29.7708 H   0  0  0  0  0  0  0  0  0  0  0  0
   12.3307   38.3536   34.7457 H   0  0  0  0  0  0  0  0  0  0  0  0
   16.7566   34.1787   32.4623 H   0  0  0  0  0  0  0  0  0  0  0  0
   15.3535   35.7355   37.5144 H   0  0  0  0  0  0  0  0  0  0  0  0
   16.6353   34.5301   37.1419 H   0  0  0  0  0  0  0  0  0  0  0  0
  1  2  2  0
  1  3  1  0
  3  4  1  0
  4  5  1  0
  6  1  1  0
  7  6  1  0
  6  8  1  0
  8  9  1  0
  9 10  2  0
 11  9  1  0
 10 12  1  0
 13 11  2  0
 12 14  2  0
 14 13  1  0
 14 15  1  0
 15 16  1  0
 16 17  1  0
 16 18  1  0
 18 19  2  0
 20 18  1  0
 19 21  1  0
 22 20  2  0
 20 23  1  0
 21 24  1  0
 21 25  2  0
 25 22  1  0
 23 26  1  0
 23 27  2  0
 24 28  1  0
 25 29  1  0
 28 29  1  0
  4 30  2  0
  4 31  1  0
 32 31  1  0
 32 33  1  0
 33 34  1  0
 33 35  1  0
 34 36  1  0
 35 37  1  0
 35 38  1  0
 38 36  1  0
 36 39  1  0
 38 40  1  0
 41 39  1  0
 42 39  1  0
 43 41  2  0
 41 44  1  0
 45 42  2  0
 46 43  1  0
 44 47  2  0
 44 45  1  0
 48 46  2  0
 48 47  1  0
 47 49  1  0
  6 50  1  1
  7 51  1  0
  7 52  1  0
  8 53  1  0
  8 54  1  0
 10 55  1  0
 11 56  1  0
 12 57  1  0
 13 58  1  0
 16 59  1  6
 17 60  1  0
 17 61  1  0
 17 62  1  0
 19 63  1  0
 22 64  1  0
 28 65  1  0
 28 66  1  0
 32 67  1  0
 32 68  1  0
 33 69  1  0
 35 70  1  0
 36 71  1  0
 37 72  1  0
 38 73  1  0
 40 74  1  0
 42 75  1  0
 46 76  1  0
 49 77  1  0
 49 78  1  0
M  CHG  3   5  -1  23   1  26  -1
M  END
>  <EmbedRMS>  (382) 
0.0806402555458

$$$$

     RDKit          3D

 78 83  0  0  0  0  0  0  0  0999 V2000
   10.2803   43.7665   33.8251 C   0  0  0  0  0  0  0  0  0  0  0  0
   11.4110   43.5920   34.3666 O   0  0  0  0  0  0  0  0  0  0  0  0
    9.3618   42.7250   33.7345 O   0  0  0  0  0  0  0  0  0  0  0  0
    9.8902   41.2265   34.2931 P   0  0  0  0  0  0  0  0  0  0  0  0
   10.3743   41.4562   35.8824 O   0  0  0  0  0  0  0  0  0  0  0  0
    9.9457   45.0737   33.2113 C   0  0  1  0  0  0  0  0  0  0  0  0
   11.0264   46.0294   33.4706 N   0  0  0  0  0  0  0  0  0  0  0  0
    9.7534   44.8539   31.6950 C   0  0  0  0  0  0  0  0  0  0  0  0
    8.7955   45.8410   31.0847 C   0  0  0  0  0  0  0  0  0  0  0  0
    7.4087   45.6002   31.1002 C   0  0  0  0  0  0  0  0  0  0  0  0
    9.2831   46.9874   30.4394 C   0  0  0  0  0  0  0  0  0  0  0  0
    6.5282   46.5006   30.4848 C   0  0  0  0  0  0  0  0  0  0  0  0
    8.4028   47.8886   29.8297 C   0  0  0  0  0  0  0  0  0  0  0  0
    7.0135   47.6521   29.8500 C   0  0  0  0  0  0  0  0  0  0  0  0
    6.0851   48.5289   29.2647 O   0  0  0  0  0  0  0  0  0  0  0  0
    6.4037   49.7804   28.6520 C   0  0  1  0  0  0  0  0  0  0  0  0
    5.1815   50.3222   27.9115 C   0  0  0  0  0  0  0  0  0  0  0  0
    6.9164   50.8017   29.6575 C   0  0  0  0  0  0  0  0  0  0  0  0
    7.8883   51.7252   29.2016 C   0  0  0  0  0  0  0  0  0  0  0  0
    6.5062   50.8418   31.0363 C   0  0  0  0  0  0  0  0  0  0  0  0
    8.4344   52.6216   30.1099 C   0  0  0  0  0  0  0  0  0  0  0  0
    7.1115   51.7672   31.9163 C   0  0  0  0  0  0  0  0  0  0  0  0
    5.5054   49.9589   31.5663 N   0  0  0  0  0  0  0  0  0  0  0  0
    9.3921   53.5925   29.8884 O   0  0  0  0  0  0  0  0  0  0  0  0
    8.0656   52.6390   31.4105 C   0  0  0  0  0  0  0  0  0  0  0  0
    5.6544   49.4418   32.8325 O   0  0  0  0  0  0  0  0  0  0  0  0
    4.4062   49.8315   30.9908 O   0  0  0  0  0  0  0  0  0  0  0  0
    9.6388   54.2621   31.1323 C   0  0  0  0  0  0  0  0  0  0  0  0
    8.7708   53.6221   32.0776 O   0  0  0  0  0  0  0  0  0  0  0  0
    8.8124   40.1845   34.2130 O   0  0  0  0  0  0  0  0  0  0  0  0
   11.2402   40.7949   33.3666 O   0  0  0  0  0  0  0  0  0  0  0  0
   10.9124   40.6859   31.9952 C   0  0  0  0  0  0  0  0  0  0  0  0
   11.5175   39.3786   31.4405 C   0  0  0  0  0  0  0  0  0  0  0  0
   12.7490   39.0864   32.0753 O   0  0  0  0  0  0  0  0  0  0  0  0
   10.6060   38.1867   31.6656 C   0  0  0  0  0  0  0  0  0  0  0  0
   12.9355   37.6796   32.0292 C   0  0  0  0  0  0  0  0  0  0  0  0
    9.6399   38.0903   30.6471 O   0  0  0  0  0  0  0  0  0  0  0  0
   11.5765   37.0145   31.7044 C   0  0  0  0  0  0  0  0  0  0  0  0
   13.4858   37.2125   33.3244 N   0  0  0  0  0  0  0  0  0  0  0  0
   11.6101   36.3397   30.4673 O   0  0  0  0  0  0  0  0  0  0  0  0
   14.4805   36.3319   33.5729 C   0  0  0  0  0  0  0  0  0  0  0  0
   13.1143   37.6276   34.5694 C   0  0  0  0  0  0  0  0  0  0  0  0
   15.2076   35.6153   32.6741 N   0  0  0  0  0  0  0  0  0  0  0  0
   14.6760   36.2304   34.9184 C   0  0  0  0  0  0  0  0  0  0  0  0
   13.8219   37.0449   35.5786 N   0  0  0  0  0  0  0  0  0  0  0  0
   16.1641   34.7600   33.1548 C   0  0  0  0  0  0  0  0  0  0  0  0
   15.6527   35.3505   35.4132 C   0  0  0  0  0  0  0  0  0  0  0  0
   16.3795   34.6314   34.5043 N   0  0  0  0  0  0  0  0  0  0  0  0
   15.9002   35.1931   36.8091 N   0  0  0  0  0  0  0  0  0  0  0  0
    8.9993   45.4383   33.6723 H   0  0  0  0  0  0  0  0  0  0  0  0
   10.7760   46.9370   33.0157 H   0  0  0  0  0  0  0  0  0  0  0  0
   11.0502   46.2279   34.4980 H   0  0  0  0  0  0  0  0  0  0  0  0
    9.3635   43.8352   31.4716 H   0  0  0  0  0  0  0  0  0  0  0  0
   10.7406   44.9070   31.1836 H   0  0  0  0  0  0  0  0  0  0  0  0
    7.0130   44.7162   31.5848 H   0  0  0  0  0  0  0  0  0  0  0  0
   10.3473   47.1856   30.4058 H   0  0  0  0  0  0  0  0  0  0  0  0
    5.4635   46.3058   30.5074 H   0  0  0  0  0  0  0  0  0  0  0  0
    8.8156   48.7617   29.3448 H   0  0  0  0  0  0  0  0  0  0  0  0
    7.1809   49.5922   27.8775 H   0  0  0  0  0  0  0  0  0  0  0  0
    4.8135   49.5624   27.1898 H   0  0  0  0  0  0  0  0  0  0  0  0
    4.3600   50.5724   28.6118 H   0  0  0  0  0  0  0  0  0  0  0  0
    5.4550   51.2383   27.3453 H   0  0  0  0  0  0  0  0  0  0  0  0
    8.2208   51.7334   28.1710 H   0  0  0  0  0  0  0  0  0  0  0  0
    6.8312   51.8170   32.9607 H   0  0  0  0  0  0  0  0  0  0  0  0
   10.6987   54.1310   31.4355 H   0  0  0  0  0  0  0  0  0  0  0  0
    9.3837   55.3391   31.0460 H   0  0  0  0  0  0  0  0  0  0  0  0
    9.8214   40.7198   31.7635 H   0  0  0  0  0  0  0  0  0  0  0  0
   11.3801   41.5436   31.4660 H   0  0  0  0  0  0  0  0  0  0  0  0
   11.6998   39.5040   30.3482 H   0  0  0  0  0  0  0  0  0  0  0  0
   10.1085   38.2766   32.6603 H   0  0  0  0  0  0  0  0  0  0  0  0
   13.6680   37.4521   31.2229 H   0  0  0  0  0  0  0  0  0  0  0  0
    9.0016   37.3867   30.9349 H   0  0  0  0  0  0  0  0  0  0  0  0
   11.2667   36.3062   32.5083 H   0  0  0  0  0  0  0  0  0  0  0  0
   12.1390   35.5126   30.6150 H   0  0  0  0  0  0  0  0  0  0  0  0
   12.3300   38.3529   34.7449 H   0  0  0  0  0  0  0  0  0  0  0  0
   16.7560   34.1779   32.4621 H   0  0  0  0  0  0  0  0  0  0  0  0
   16.6347   34.5299   37.1416 H   0  0  0  0  0  0  0  0  0  0  0  0
   15.3534   35.7359   37.5140 H   0  0  0  0  0  0  0  0  0  0  0  0
  1  2  2  0
  1  3  1  0
  3  4  1  0
  4  5  1  0
  6  1  1  0
  7  6  1  0
  6  8  1  0
  8  9  1  0
  9 10  2  0
 11  9  1  0
 10 12  1  0
 13 11  2  0
 12 14  2  0
 14 13  1  0
 14 15  1  0
 15 16  1  0
 16 17  1  0
 16 18  1  0
 18 19  2  0
 20 18  1  0
 19 21  1  0
 22 20  2  0
 20 23  1  0
 21 24  1  0
 21 25  2  0
 25 22  1  0
 23 26  1  0
 23 27  2  0
 24 28  1  0
 25 29  1  0
 28 29  1  0
  4 30  2  0
  4 31  1  0
 32 31  1  0
 32 33  1  0
 33 34  1  0
 33 35  1  0
 34 36  1  0
 35 37  1  0
 35 38  1  0
 38 36  1  0
 36 39  1  0
 38 40  1  0
 41 39  1  0
 42 39  1  0
 43 41  2  0
 41 44  1  0
 45 42  2  0
 46 43  1  0
 44 47  2  0
 44 45  1  0
 48 46  2  0
 48 47  1  0
 47 49  1  0
  6 50  1  1
  7 51  1  0
  7 52  1  0
  8 53  1  0
  8 54  1  0
 10 55  1  0
 11 56  1  0
 12 57  1  0
 13 58  1  0
 16 59  1  6
 17 60  1  0
 17 61  1  0
 17 62  1  0
 19 63  1  0
 22 64  1  0
 28 65  1  0
 28 66  1  0
 32 67  1  0
 32 68  1  0
 33 69  1  0
 35 70  1  0
 36 71  1  0
 37 72  1  0
 38 73  1  0
 40 74  1  0
 42 75  1  0
 46 76  1  0
 49 77  1  0
 49 78  1  0
M  CHG  3   5  -1  23   1  26  -1
M  END
>  <EmbedRMS>  (383) 
0.0822384705368

$$$$

     RDKit          3D

 78 83  0  0  0  0  0  0  0  0999 V2000
   10.2834   43.7663   33.8258 C   0  0  0  0  0  0  0  0  0  0  0  0
   11.4102   43.5930   34.3753 O   0  0  0  0  0  0  0  0  0  0  0  0
    9.3635   42.7257   33.7353 O   0  0  0  0  0  0  0  0  0  0  0  0
    9.8899   41.2270   34.2948 P   0  0  0  0  0  0  0  0  0  0  0  0
   10.3732   41.4563   35.8842 O   0  0  0  0  0  0  0  0  0  0  0  0
    9.9547   45.0695   33.2036 C   0  0  1  0  0  0  0  0  0  0  0  0
   11.0274   46.0322   33.4758 N   0  0  0  0  0  0  0  0  0  0  0  0
    9.7467   44.8480   31.6877 C   0  0  0  0  0  0  0  0  0  0  0  0
    8.7924   45.8406   31.0843 C   0  0  0  0  0  0  0  0  0  0  0  0
    7.4058   45.6017   31.0996 C   0  0  0  0  0  0  0  0  0  0  0  0
    9.2819   46.9879   30.4431 C   0  0  0  0  0  0  0  0  0  0  0  0
    6.5271   46.5035   30.4847 C   0  0  0  0  0  0  0  0  0  0  0  0
    8.4031   47.8907   29.8325 C   0  0  0  0  0  0  0  0  0  0  0  0
    7.0134   47.6517   29.8442 C   0  0  0  0  0  0  0  0  0  0  0  0
    6.0820   48.5174   29.2466 O   0  0  0  0  0  0  0  0  0  0  0  0
    6.3885   49.6584   28.4408 C   0  0  1  0  0  0  0  0  0  0  0  0
    6.8959   49.2184   27.0607 C   0  0  0  0  0  0  0  0  0  0  0  0
    5.1348   50.5033   28.2969 C   0  0  0  0  0  0  0  0  0  0  0  0
    3.9789   49.9071   27.7332 C   0  0  0  0  0  0  0  0  0  0  0  0
    5.0931   51.8885   28.6707 C   0  0  0  0  0  0  0  0  0  0  0  0
    2.8581   50.6992   27.5212 C   0  0  0  0  0  0  0  0  0  0  0  0
    3.9304   52.6488   28.4139 C   0  0  0  0  0  0  0  0  0  0  0  0
    6.1969   52.5298   29.3245 N   0  0  0  0  0  0  0  0  0  0  0  0
    1.6400   50.3365   26.9793 O   0  0  0  0  0  0  0  0  0  0  0  0
    2.8371   52.0133   27.8411 C   0  0  0  0  0  0  0  0  0  0  0  0
    6.5492   53.8095   28.9634 O   0  0  0  0  0  0  0  0  0  0  0  0
    6.6450   52.0601   30.3907 O   0  0  0  0  0  0  0  0  0  0  0  0
    0.8012   51.4996   26.9586 C   0  0  0  0  0  0  0  0  0  0  0  0
    1.6045   52.5476   27.5181 O   0  0  0  0  0  0  0  0  0  0  0  0
    8.8120   40.1851   34.2133 O   0  0  0  0  0  0  0  0  0  0  0  0
   11.2403   40.7947   33.3700 O   0  0  0  0  0  0  0  0  0  0  0  0
   10.9144   40.6914   31.9983 C   0  0  0  0  0  0  0  0  0  0  0  0
   11.5269   39.3912   31.4386 C   0  0  0  0  0  0  0  0  0  0  0  0
   12.7520   39.0911   32.0836 O   0  0  0  0  0  0  0  0  0  0  0  0
   10.6113   38.1932   31.6452 C   0  0  0  0  0  0  0  0  0  0  0  0
   12.9413   37.6838   32.0297 C   0  0  0  0  0  0  0  0  0  0  0  0
    9.6064   38.0878   30.6600 O   0  0  0  0  0  0  0  0  0  0  0  0
   11.5821   37.0198   31.6877 C   0  0  0  0  0  0  0  0  0  0  0  0
   13.4840   37.2104   33.3254 N   0  0  0  0  0  0  0  0  0  0  0  0
   11.6178   36.3072   30.4690 O   0  0  0  0  0  0  0  0  0  0  0  0
   14.4797   36.3309   33.5737 C   0  0  0  0  0  0  0  0  0  0  0  0
   13.1137   37.6269   34.5702 C   0  0  0  0  0  0  0  0  0  0  0  0
   15.2073   35.6152   32.6746 N   0  0  0  0  0  0  0  0  0  0  0  0
   14.6756   36.2297   34.9190 C   0  0  0  0  0  0  0  0  0  0  0  0
   13.8217   37.0445   35.5793 N   0  0  0  0  0  0  0  0  0  0  0  0
   16.1643   34.7602   33.1551 C   0  0  0  0  0  0  0  0  0  0  0  0
   15.6528   35.3503   35.4135 C   0  0  0  0  0  0  0  0  0  0  0  0
   16.3798   34.6315   34.5045 N   0  0  0  0  0  0  0  0  0  0  0  0
   15.9004   35.1930   36.8094 N   0  0  0  0  0  0  0  0  0  0  0  0
    9.0121   45.4319   33.6713 H   0  0  0  0  0  0  0  0  0  0  0  0
   11.8907   45.7659   32.9471 H   0  0  0  0  0  0  0  0  0  0  0  0
   10.7261   46.9688   33.1215 H   0  0  0  0  0  0  0  0  0  0  0  0
   10.7231   44.8815   31.1557 H   0  0  0  0  0  0  0  0  0  0  0  0
    9.3418   43.8328   31.4763 H   0  0  0  0  0  0  0  0  0  0  0  0
    7.0086   44.7173   31.5823 H   0  0  0  0  0  0  0  0  0  0  0  0
   10.3465   47.1860   30.4146 H   0  0  0  0  0  0  0  0  0  0  0  0
    5.4626   46.3069   30.5033 H   0  0  0  0  0  0  0  0  0  0  0  0
    8.8212   48.7663   29.3584 H   0  0  0  0  0  0  0  0  0  0  0  0
    7.1949   50.2437   28.9185 H   0  0  0  0  0  0  0  0  0  0  0  0
    6.1728   48.5329   26.5711 H   0  0  0  0  0  0  0  0  0  0  0  0
    7.8643   48.6859   27.1534 H   0  0  0  0  0  0  0  0  0  0  0  0
    7.0516   50.1060   26.4106 H   0  0  0  0  0  0  0  0  0  0  0  0
    3.9586   48.8610   27.4557 H   0  0  0  0  0  0  0  0  0  0  0  0
    3.8733   53.6966   28.6794 H   0  0  0  0  0  0  0  0  0  0  0  0
   -0.1013   51.3335   27.5834 H   0  0  0  0  0  0  0  0  0  0  0  0
    0.5176   51.7500   25.9148 H   0  0  0  0  0  0  0  0  0  0  0  0
    9.8234   40.7201   31.7655 H   0  0  0  0  0  0  0  0  0  0  0  0
   11.3776   41.5549   31.4745 H   0  0  0  0  0  0  0  0  0  0  0  0
   11.7310   39.5363   30.3532 H   0  0  0  0  0  0  0  0  0  0  0  0
   10.1203   38.2696   32.6411 H   0  0  0  0  0  0  0  0  0  0  0  0
   13.6850   37.4639   31.2321 H   0  0  0  0  0  0  0  0  0  0  0  0
   10.0250   38.1793   29.7655 H   0  0  0  0  0  0  0  0  0  0  0  0
   11.2757   36.3135   32.4907 H   0  0  0  0  0  0  0  0  0  0  0  0
   11.9839   36.9111   29.7708 H   0  0  0  0  0  0  0  0  0  0  0  0
   12.3307   38.3536   34.7457 H   0  0  0  0  0  0  0  0  0  0  0  0
   16.7565   34.1786   32.4622 H   0  0  0  0  0  0  0  0  0  0  0  0
   15.3535   35.7354   37.5143 H   0  0  0  0  0  0  0  0  0  0  0  0
   16.6353   34.5300   37.1417 H   0  0  0  0  0  0  0  0  0  0  0  0
  1  2  2  0
  1  3  1  0
  3  4  1  0
  4  5  1  0
  6  1  1  0
  7  6  1  0
  6  8  1  0
  8  9  1  0
  9 10  2  0
 11  9  1  0
 10 12  1  0
 13 11  2  0
 12 14  2  0
 14 13  1  0
 14 15  1  0
 15 16  1  0
 16 17  1  0
 16 18  1  0
 18 19  2  0
 20 18  1  0
 19 21  1  0
 22 20  2  0
 20 23  1  0
 21 24  1  0
 21 25  2  0
 25 22  1  0
 23 26  1  0
 23 27  2  0
 24 28  1  0
 25 29  1  0
 28 29  1  0
  4 30  2  0
  4 31  1  0
 32 31  1  0
 32 33  1  0
 33 34  1  0
 33 35  1  0
 34 36  1  0
 35 37  1  0
 35 38  1  0
 38 36  1  0
 36 39  1  0
 38 40  1  0
 41 39  1  0
 42 39  1  0
 43 41  2  0
 41 44  1  0
 45 42  2  0
 46 43  1  0
 44 47  2  0
 44 45  1  0
 48 46  2  0
 48 47  1  0
 47 49  1  0
  6 50  1  1
  7 51  1  0
  7 52  1  0
  8 53  1  0
  8 54  1  0
 10 55  1  0
 11 56  1  0
 12 57  1  0
 13 58  1  0
 16 59  1  1
 17 60  1  0
 17 61  1  0
 17 62  1  0
 19 63  1  0
 22 64  1  0
 28 65  1  0
 28 66  1  0
 32 67  1  0
 32 68  1  0
 33 69  1  0
 35 70  1  0
 36 71  1  0
 37 72  1  0
 38 73  1  0
 40 74  1  0
 42 75  1  0
 46 76  1  0
 49 77  1  0
 49 78  1  0
M  CHG  3   5  -1  23   1  26  -1
M  END
>  <EmbedRMS>  (384) 
0.0808289904059

$$$$

     RDKit          3D

 78 83  0  0  0  0  0  0  0  0999 V2000
   10.2803   43.7664   33.8247 C   0  0  0  0  0  0  0  0  0  0  0  0
   11.4109   43.5920   34.3665 O   0  0  0  0  0  0  0  0  0  0  0  0
    9.3618   42.7249   33.7345 O   0  0  0  0  0  0  0  0  0  0  0  0
    9.8900   41.2267   34.2943 P   0  0  0  0  0  0  0  0  0  0  0  0
   10.3727   41.4568   35.8838 O   0  0  0  0  0  0  0  0  0  0  0  0
    9.9458   45.0736   33.2106 C   0  0  1  0  0  0  0  0  0  0  0  0
   11.0265   46.0292   33.4703 N   0  0  0  0  0  0  0  0  0  0  0  0
    9.7535   44.8540   31.6942 C   0  0  0  0  0  0  0  0  0  0  0  0
    8.7953   45.8408   31.0836 C   0  0  0  0  0  0  0  0  0  0  0  0
    7.4074   45.6007   31.1023 C   0  0  0  0  0  0  0  0  0  0  0  0
    9.2828   46.9901   30.4409 C   0  0  0  0  0  0  0  0  0  0  0  0
    6.5264   46.5029   30.4899 C   0  0  0  0  0  0  0  0  0  0  0  0
    8.4004   47.8914   29.8335 C   0  0  0  0  0  0  0  0  0  0  0  0
    7.0200   47.6438   29.8420 C   0  0  0  0  0  0  0  0  0  0  0  0
    6.1267   48.5321   29.2344 O   0  0  0  0  0  0  0  0  0  0  0  0
    5.8835   48.6141   27.8231 C   0  0  1  0  0  0  0  0  0  0  0  0
    7.1206   49.0809   27.0470 C   0  0  0  0  0  0  0  0  0  0  0  0
    5.3159   47.3083   27.2739 C   0  0  0  0  0  0  0  0  0  0  0  0
    6.1385   46.1524   27.2395 C   0  0  0  0  0  0  0  0  0  0  0  0
    3.9486   47.1969   26.8514 C   0  0  0  0  0  0  0  0  0  0  0  0
    5.5794   44.9467   26.8388 C   0  0  0  0  0  0  0  0  0  0  0  0
    3.4311   45.9396   26.4659 C   0  0  0  0  0  0  0  0  0  0  0  0
    3.0873   48.3414   26.7824 N   0  0  0  0  0  0  0  0  0  0  0  0
    6.1848   43.7082   26.7477 O   0  0  0  0  0  0  0  0  0  0  0  0
    4.2818   44.8433   26.4739 C   0  0  0  0  0  0  0  0  0  0  0  0
    3.4377   49.4096   25.9894 O   0  0  0  0  0  0  0  0  0  0  0  0
    1.9155   48.2624   27.2051 O   0  0  0  0  0  0  0  0  0  0  0  0
    5.2015   42.7675   26.2953 C   0  0  0  0  0  0  0  0  0  0  0  0
    4.0007   43.5346   26.1319 O   0  0  0  0  0  0  0  0  0  0  0  0
    8.8127   40.1842   34.2128 O   0  0  0  0  0  0  0  0  0  0  0  0
   11.2414   40.7951   33.3705 O   0  0  0  0  0  0  0  0  0  0  0  0
   10.9178   40.6922   31.9982 C   0  0  0  0  0  0  0  0  0  0  0  0
   11.5175   39.3838   31.4423 C   0  0  0  0  0  0  0  0  0  0  0  0
   12.7507   39.0887   32.0753 O   0  0  0  0  0  0  0  0  0  0  0  0
   10.6027   38.1916   31.6658 C   0  0  0  0  0  0  0  0  0  0  0  0
   12.9384   37.6819   32.0278 C   0  0  0  0  0  0  0  0  0  0  0  0
    9.6371   38.0806   30.6470 O   0  0  0  0  0  0  0  0  0  0  0  0
   11.5780   37.0215   31.6935 C   0  0  0  0  0  0  0  0  0  0  0  0
   13.4844   37.2120   33.3242 N   0  0  0  0  0  0  0  0  0  0  0  0
   11.6095   36.3201   30.4679 O   0  0  0  0  0  0  0  0  0  0  0  0
   14.4797   36.3318   33.5730 C   0  0  0  0  0  0  0  0  0  0  0  0
   13.1135   37.6278   34.5691 C   0  0  0  0  0  0  0  0  0  0  0  0
   15.2073   35.6155   32.6742 N   0  0  0  0  0  0  0  0  0  0  0  0
   14.6754   36.2305   34.9184 C   0  0  0  0  0  0  0  0  0  0  0  0
   13.8213   37.0452   35.5785 N   0  0  0  0  0  0  0  0  0  0  0  0
   16.1640   34.7604   33.1549 C   0  0  0  0  0  0  0  0  0  0  0  0
   15.6524   35.3507   35.4132 C   0  0  0  0  0  0  0  0  0  0  0  0
   16.3794   34.6318   34.5044 N   0  0  0  0  0  0  0  0  0  0  0  0
   15.9000   35.1934   36.8091 N   0  0  0  0  0  0  0  0  0  0  0  0
    8.9993   45.4381   33.6716 H   0  0  0  0  0  0  0  0  0  0  0  0
   11.0501   46.2276   34.4977 H   0  0  0  0  0  0  0  0  0  0  0  0
   10.7762   46.9369   33.0155 H   0  0  0  0  0  0  0  0  0  0  0  0
   10.7406   44.9076   31.1827 H   0  0  0  0  0  0  0  0  0  0  0  0
    9.3638   43.8353   31.4706 H   0  0  0  0  0  0  0  0  0  0  0  0
    7.0119   44.7169   31.5872 H   0  0  0  0  0  0  0  0  0  0  0  0
   10.3462   47.1930   30.4128 H   0  0  0  0  0  0  0  0  0  0  0  0
    5.4615   46.3088   30.5064 H   0  0  0  0  0  0  0  0  0  0  0  0
    8.7919   48.7837   29.3637 H   0  0  0  0  0  0  0  0  0  0  0  0
    5.1415   49.4253   27.7078 H   0  0  0  0  0  0  0  0  0  0  0  0
    7.4893   50.0390   27.4706 H   0  0  0  0  0  0  0  0  0  0  0  0
    7.9399   48.3354   27.0897 H   0  0  0  0  0  0  0  0  0  0  0  0
    6.8543   49.2487   25.9816 H   0  0  0  0  0  0  0  0  0  0  0  0
    7.1780   46.1792   27.5358 H   0  0  0  0  0  0  0  0  0  0  0  0
    2.4025   45.8283   26.1477 H   0  0  0  0  0  0  0  0  0  0  0  0
    5.5098   42.3268   25.3241 H   0  0  0  0  0  0  0  0  0  0  0  0
    5.0491   41.9748   27.0575 H   0  0  0  0  0  0  0  0  0  0  0  0
   11.3950   41.5477   31.4741 H   0  0  0  0  0  0  0  0  0  0  0  0
    9.8290   40.7409   31.7624 H   0  0  0  0  0  0  0  0  0  0  0  0
   11.6982   39.5115   30.3500 H   0  0  0  0  0  0  0  0  0  0  0  0
   10.1117   38.2604   32.6660 H   0  0  0  0  0  0  0  0  0  0  0  0
   13.6767   37.4556   31.2267 H   0  0  0  0  0  0  0  0  0  0  0  0
    8.8962   38.6953   30.8870 H   0  0  0  0  0  0  0  0  0  0  0  0
   11.2791   36.3073   32.4922 H   0  0  0  0  0  0  0  0  0  0  0  0
   11.8828   36.9598   29.7589 H   0  0  0  0  0  0  0  0  0  0  0  0
   12.3300   38.3539   34.7446 H   0  0  0  0  0  0  0  0  0  0  0  0
   16.7561   34.1785   32.4621 H   0  0  0  0  0  0  0  0  0  0  0  0
   16.6347   34.5303   37.1416 H   0  0  0  0  0  0  0  0  0  0  0  0
   15.3531   35.7360   37.5140 H   0  0  0  0  0  0  0  0  0  0  0  0
  1  2  2  0
  1  3  1  0
  3  4  1  0
  4  5  1  0
  6  1  1  0
  7  6  1  0
  6  8  1  0
  8  9  1  0
  9 10  2  0
 11  9  1  0
 10 12  1  0
 13 11  2  0
 12 14  2  0
 14 13  1  0
 14 15  1  0
 15 16  1  0
 16 17  1  0
 16 18  1  0
 18 19  2  0
 20 18  1  0
 19 21  1  0
 22 20  2  0
 20 23  1  0
 21 24  1  0
 21 25  2  0
 25 22  1  0
 23 26  1  0
 23 27  2  0
 24 28  1  0
 25 29  1  0
 28 29  1  0
  4 30  2  0
  4 31  1  0
 32 31  1  0
 32 33  1  0
 33 34  1  0
 33 35  1  0
 34 36  1  0
 35 37  1  0
 35 38  1  0
 38 36  1  0
 36 39  1  0
 38 40  1  0
 41 39  1  0
 42 39  1  0
 43 41  2  0
 41 44  1  0
 45 42  2  0
 46 43  1  0
 44 47  2  0
 44 45  1  0
 48 46  2  0
 48 47  1  0
 47 49  1  0
  6 50  1  1
  7 51  1  0
  7 52  1  0
  8 53  1  0
  8 54  1  0
 10 55  1  0
 11 56  1  0
 12 57  1  0
 13 58  1  0
 16 59  1  1
 17 60  1  0
 17 61  1  0
 17 62  1  0
 19 63  1  0
 22 64  1  0
 28 65  1  0
 28 66  1  0
 32 67  1  0
 32 68  1  0
 33 69  1  0
 35 70  1  0
 36 71  1  0
 37 72  1  0
 38 73  1  0
 40 74  1  0
 42 75  1  0
 46 76  1  0
 49 77  1  0
 49 78  1  0
M  CHG  3   5  -1  23   1  26  -1
M  END
>  <EmbedRMS>  (385) 
0.0819252100649

$$$$

     RDKit          3D

 78 83  0  0  0  0  0  0  0  0999 V2000
   10.2840   43.7626   33.8277 C   0  0  0  0  0  0  0  0  0  0  0  0
   11.4104   43.5864   34.3768 O   0  0  0  0  0  0  0  0  0  0  0  0
    9.3634   42.7234   33.7352 O   0  0  0  0  0  0  0  0  0  0  0  0
    9.8899   41.2246   34.2940 P   0  0  0  0  0  0  0  0  0  0  0  0
   10.3724   41.4544   35.8837 O   0  0  0  0  0  0  0  0  0  0  0  0
    9.9548   45.0699   33.2065 C   0  0  1  0  0  0  0  0  0  0  0  0
   11.0197   46.0481   33.4569 N   0  0  0  0  0  0  0  0  0  0  0  0
    9.7500   44.8508   31.6926 C   0  0  0  0  0  0  0  0  0  0  0  0
    8.7942   45.8419   31.0874 C   0  0  0  0  0  0  0  0  0  0  0  0
    7.4075   45.6006   31.0994 C   0  0  0  0  0  0  0  0  0  0  0  0
    9.2831   46.9886   30.4444 C   0  0  0  0  0  0  0  0  0  0  0  0
    6.5284   46.5013   30.4830 C   0  0  0  0  0  0  0  0  0  0  0  0
    8.4037   47.8891   29.8315 C   0  0  0  0  0  0  0  0  0  0  0  0
    7.0143   47.6536   29.8497 C   0  0  0  0  0  0  0  0  0  0  0  0
    6.0858   48.5255   29.2571 O   0  0  0  0  0  0  0  0  0  0  0  0
    6.3909   49.7924   28.6730 C   0  0  1  0  0  0  0  0  0  0  0  0
    5.1831   50.2909   27.8789 C   0  0  0  0  0  0  0  0  0  0  0  0
    6.8056   50.8060   29.7299 C   0  0  0  0  0  0  0  0  0  0  0  0
    8.0459   51.4702   29.5639 C   0  0  0  0  0  0  0  0  0  0  0  0
    5.9735   51.1542   30.8470 C   0  0  0  0  0  0  0  0  0  0  0  0
    8.4152   52.4339   30.4931 C   0  0  0  0  0  0  0  0  0  0  0  0
    6.3953   52.1530   31.7523 C   0  0  0  0  0  0  0  0  0  0  0  0
    4.7038   50.5286   31.0673 N   0  0  0  0  0  0  0  0  0  0  0  0
    9.5675   53.1954   30.5288 O   0  0  0  0  0  0  0  0  0  0  0  0
    7.6244   52.7618   31.5402 C   0  0  0  0  0  0  0  0  0  0  0  0
    4.6479   49.1986   31.4099 O   0  0  0  0  0  0  0  0  0  0  0  0
    3.6919   51.2379   31.2427 O   0  0  0  0  0  0  0  0  0  0  0  0
    9.4942   54.0552   31.6743 C   0  0  0  0  0  0  0  0  0  0  0  0
    8.2371   53.7461   32.2916 O   0  0  0  0  0  0  0  0  0  0  0  0
    8.8119   40.1831   34.2121 O   0  0  0  0  0  0  0  0  0  0  0  0
   11.2416   40.7932   33.3699 O   0  0  0  0  0  0  0  0  0  0  0  0
   10.9186   40.6909   31.9972 C   0  0  0  0  0  0  0  0  0  0  0  0
   11.5172   39.3814   31.4407 C   0  0  0  0  0  0  0  0  0  0  0  0
   12.7493   39.0855   32.0727 O   0  0  0  0  0  0  0  0  0  0  0  0
   10.6023   38.1907   31.6665 C   0  0  0  0  0  0  0  0  0  0  0  0
   12.9319   37.6781   32.0281 C   0  0  0  0  0  0  0  0  0  0  0  0
    9.6392   38.0797   30.6452 O   0  0  0  0  0  0  0  0  0  0  0  0
   11.5715   37.0165   31.7056 C   0  0  0  0  0  0  0  0  0  0  0  0
   13.4847   37.2121   33.3235 N   0  0  0  0  0  0  0  0  0  0  0  0
   11.6187   36.3383   30.4694 O   0  0  0  0  0  0  0  0  0  0  0  0
   14.4801   36.3321   33.5724 C   0  0  0  0  0  0  0  0  0  0  0  0
   13.1137   37.6276   34.5687 C   0  0  0  0  0  0  0  0  0  0  0  0
   15.2073   35.6153   32.6738 N   0  0  0  0  0  0  0  0  0  0  0  0
   14.6759   36.2308   34.9179 C   0  0  0  0  0  0  0  0  0  0  0  0
   13.8217   37.0452   35.5781 N   0  0  0  0  0  0  0  0  0  0  0  0
   16.1640   34.7601   33.1546 C   0  0  0  0  0  0  0  0  0  0  0  0
   15.6526   35.3508   35.4129 C   0  0  0  0  0  0  0  0  0  0  0  0
   16.3794   34.6317   34.5041 N   0  0  0  0  0  0  0  0  0  0  0  0
   15.8999   35.1935   36.8088 N   0  0  0  0  0  0  0  0  0  0  0  0
    9.0099   45.4348   33.6673 H   0  0  0  0  0  0  0  0  0  0  0  0
   11.9348   45.6933   33.0925 H   0  0  0  0  0  0  0  0  0  0  0  0
   11.1134   46.1993   34.4882 H   0  0  0  0  0  0  0  0  0  0  0  0
   10.7303   44.8922   31.1677 H   0  0  0  0  0  0  0  0  0  0  0  0
    9.3507   43.8344   31.4765 H   0  0  0  0  0  0  0  0  0  0  0  0
    7.0108   44.7154   31.5810 H   0  0  0  0  0  0  0  0  0  0  0  0
   10.3476   47.1861   30.4134 H   0  0  0  0  0  0  0  0  0  0  0  0
    5.4639   46.3044   30.5013 H   0  0  0  0  0  0  0  0  0  0  0  0
    8.8192   48.7559   29.3408 H   0  0  0  0  0  0  0  0  0  0  0  0
    7.2062   49.6492   27.9293 H   0  0  0  0  0  0  0  0  0  0  0  0
    4.9677   49.5862   27.0479 H   0  0  0  0  0  0  0  0  0  0  0  0
    5.3959   51.2910   27.4440 H   0  0  0  0  0  0  0  0  0  0  0  0
    4.2786   50.3574   28.5167 H   0  0  0  0  0  0  0  0  0  0  0  0
    8.7011   51.2508   28.7305 H   0  0  0  0  0  0  0  0  0  0  0  0
    5.7847   52.4360   32.6002 H   0  0  0  0  0  0  0  0  0  0  0  0
    9.5143   55.1191   31.3578 H   0  0  0  0  0  0  0  0  0  0  0  0
   10.3284   53.8358   32.3732 H   0  0  0  0  0  0  0  0  0  0  0  0
   11.3971   41.5459   31.4735 H   0  0  0  0  0  0  0  0  0  0  0  0
    9.8300   40.7410   31.7611 H   0  0  0  0  0  0  0  0  0  0  0  0
   11.6974   39.5067   30.3480 H   0  0  0  0  0  0  0  0  0  0  0  0
   10.1077   38.2647   32.6645 H   0  0  0  0  0  0  0  0  0  0  0  0
   13.6621   37.4467   31.2208 H   0  0  0  0  0  0  0  0  0  0  0  0
    8.8975   38.6943   30.8831 H   0  0  0  0  0  0  0  0  0  0  0  0
   11.2806   36.3073   32.5170 H   0  0  0  0  0  0  0  0  0  0  0  0
   10.8492   35.7110   30.4586 H   0  0  0  0  0  0  0  0  0  0  0  0
   12.3290   38.3524   34.7444 H   0  0  0  0  0  0  0  0  0  0  0  0
   16.7559   34.1780   32.4619 H   0  0  0  0  0  0  0  0  0  0  0  0
   15.3531   35.7363   37.5137 H   0  0  0  0  0  0  0  0  0  0  0  0
   16.6344   34.5301   37.1414 H   0  0  0  0  0  0  0  0  0  0  0  0
  1  2  2  0
  1  3  1  0
  3  4  1  0
  4  5  1  0
  6  1  1  0
  7  6  1  0
  6  8  1  0
  8  9  1  0
  9 10  2  0
 11  9  1  0
 10 12  1  0
 13 11  2  0
 12 14  2  0
 14 13  1  0
 14 15  1  0
 15 16  1  0
 16 17  1  0
 16 18  1  0
 18 19  2  0
 20 18  1  0
 19 21  1  0
 22 20  2  0
 20 23  1  0
 21 24  1  0
 21 25  2  0
 25 22  1  0
 23 26  1  0
 23 27  2  0
 24 28  1  0
 25 29  1  0
 28 29  1  0
  4 30  2  0
  4 31  1  0
 32 31  1  0
 32 33  1  0
 33 34  1  0
 33 35  1  0
 34 36  1  0
 35 37  1  0
 35 38  1  0
 38 36  1  0
 36 39  1  0
 38 40  1  0
 41 39  1  0
 42 39  1  0
 43 41  2  0
 41 44  1  0
 45 42  2  0
 46 43  1  0
 44 47  2  0
 44 45  1  0
 48 46  2  0
 48 47  1  0
 47 49  1  0
  6 50  1  1
  7 51  1  0
  7 52  1  0
  8 53  1  0
  8 54  1  0
 10 55  1  0
 11 56  1  0
 12 57  1  0
 13 58  1  0
 16 59  1  6
 17 60  1  0
 17 61  1  0
 17 62  1  0
 19 63  1  0
 22 64  1  0
 28 65  1  0
 28 66  1  0
 32 67  1  0
 32 68  1  0
 33 69  1  0
 35 70  1  0
 36 71  1  0
 37 72  1  0
 38 73  1  0
 40 74  1  0
 42 75  1  0
 46 76  1  0
 49 77  1  0
 49 78  1  0
M  CHG  3   5  -1  23   1  26  -1
M  END
>  <EmbedRMS>  (386) 
0.0838258703096

$$$$

     RDKit          3D

 78 83  0  0  0  0  0  0  0  0999 V2000
   10.2801   43.7669   33.8250 C   0  0  0  0  0  0  0  0  0  0  0  0
   11.4109   43.5925   34.3665 O   0  0  0  0  0  0  0  0  0  0  0  0
    9.3618   42.7251   33.7347 O   0  0  0  0  0  0  0  0  0  0  0  0
    9.8900   41.2269   34.2944 P   0  0  0  0  0  0  0  0  0  0  0  0
   10.3728   41.4569   35.8838 O   0  0  0  0  0  0  0  0  0  0  0  0
    9.9451   45.0741   33.2111 C   0  0  1  0  0  0  0  0  0  0  0  0
   11.0252   46.0303   33.4706 N   0  0  0  0  0  0  0  0  0  0  0  0
    9.7534   44.8542   31.6949 C   0  0  0  0  0  0  0  0  0  0  0  0
    8.7954   45.8410   31.0842 C   0  0  0  0  0  0  0  0  0  0  0  0
    7.4074   45.5986   31.0985 C   0  0  0  0  0  0  0  0  0  0  0  0
    9.2839   46.9875   30.4369 C   0  0  0  0  0  0  0  0  0  0  0  0
    6.5262   46.4989   30.4827 C   0  0  0  0  0  0  0  0  0  0  0  0
    8.4015   47.8871   29.8278 C   0  0  0  0  0  0  0  0  0  0  0  0
    7.0198   47.6531   29.8595 C   0  0  0  0  0  0  0  0  0  0  0  0
    6.1421   48.5515   29.2481 O   0  0  0  0  0  0  0  0  0  0  0  0
    5.6048   49.7092   29.8961 C   0  0  1  0  0  0  0  0  0  0  0  0
    4.5082   49.3311   30.8974 C   0  0  0  0  0  0  0  0  0  0  0  0
    6.7071   50.6182   30.4392 C   0  0  0  0  0  0  0  0  0  0  0  0
    7.1961   51.6246   29.5685 C   0  0  0  0  0  0  0  0  0  0  0  0
    7.3354   50.4539   31.7225 C   0  0  0  0  0  0  0  0  0  0  0  0
    8.2557   52.4179   29.9883 C   0  0  0  0  0  0  0  0  0  0  0  0
    8.4119   51.2872   32.0938 C   0  0  0  0  0  0  0  0  0  0  0  0
    6.8963   49.4742   32.6645 N   0  0  0  0  0  0  0  0  0  0  0  0
    8.8828   53.4438   29.3076 O   0  0  0  0  0  0  0  0  0  0  0  0
    8.8387   52.2557   31.1971 C   0  0  0  0  0  0  0  0  0  0  0  0
    5.9313   49.8259   33.5790 O   0  0  0  0  0  0  0  0  0  0  0  0
    7.6330   48.4993   32.9161 O   0  0  0  0  0  0  0  0  0  0  0  0
    9.9255   53.9589   30.1467 C   0  0  0  0  0  0  0  0  0  0  0  0
    9.8624   53.1717   31.3438 O   0  0  0  0  0  0  0  0  0  0  0  0
    8.8128   40.1843   34.2129 O   0  0  0  0  0  0  0  0  0  0  0  0
   11.2415   40.7952   33.3705 O   0  0  0  0  0  0  0  0  0  0  0  0
   10.9178   40.6922   31.9982 C   0  0  0  0  0  0  0  0  0  0  0  0
   11.5175   39.3837   31.4423 C   0  0  0  0  0  0  0  0  0  0  0  0
   12.7507   39.0887   32.0753 O   0  0  0  0  0  0  0  0  0  0  0  0
   10.6027   38.1916   31.6659 C   0  0  0  0  0  0  0  0  0  0  0  0
   12.9384   37.6819   32.0278 C   0  0  0  0  0  0  0  0  0  0  0  0
    9.6371   38.0805   30.6470 O   0  0  0  0  0  0  0  0  0  0  0  0
   11.5780   37.0215   31.6935 C   0  0  0  0  0  0  0  0  0  0  0  0
   13.4844   37.2119   33.3242 N   0  0  0  0  0  0  0  0  0  0  0  0
   11.6095   36.3201   30.4679 O   0  0  0  0  0  0  0  0  0  0  0  0
   14.4797   36.3318   33.5730 C   0  0  0  0  0  0  0  0  0  0  0  0
   13.1136   37.6278   34.5691 C   0  0  0  0  0  0  0  0  0  0  0  0
   15.2073   35.6155   32.6742 N   0  0  0  0  0  0  0  0  0  0  0  0
   14.6754   36.2305   34.9184 C   0  0  0  0  0  0  0  0  0  0  0  0
   13.8213   37.0452   35.5785 N   0  0  0  0  0  0  0  0  0  0  0  0
   16.1640   34.7604   33.1549 C   0  0  0  0  0  0  0  0  0  0  0  0
   15.6524   35.3507   35.4132 C   0  0  0  0  0  0  0  0  0  0  0  0
   16.3794   34.6318   34.5044 N   0  0  0  0  0  0  0  0  0  0  0  0
   15.8999   35.1934   36.8091 N   0  0  0  0  0  0  0  0  0  0  0  0
    8.9984   45.4385   33.6717 H   0  0  0  0  0  0  0  0  0  0  0  0
   10.7735   46.9381   33.0165 H   0  0  0  0  0  0  0  0  0  0  0  0
   11.0489   46.2284   34.4981 H   0  0  0  0  0  0  0  0  0  0  0  0
    9.3638   43.8355   31.4714 H   0  0  0  0  0  0  0  0  0  0  0  0
   10.7407   44.9077   31.1838 H   0  0  0  0  0  0  0  0  0  0  0  0
    7.0122   44.7126   31.5800 H   0  0  0  0  0  0  0  0  0  0  0  0
   10.3478   47.1861   30.4013 H   0  0  0  0  0  0  0  0  0  0  0  0
    5.4621   46.3015   30.4945 H   0  0  0  0  0  0  0  0  0  0  0  0
    8.7909   48.7679   29.3333 H   0  0  0  0  0  0  0  0  0  0  0  0
    5.0681   50.2794   29.1056 H   0  0  0  0  0  0  0  0  0  0  0  0
    4.8375   48.5258   31.5821 H   0  0  0  0  0  0  0  0  0  0  0  0
    4.1930   50.2219   31.4811 H   0  0  0  0  0  0  0  0  0  0  0  0
    3.6229   48.9469   30.3473 H   0  0  0  0  0  0  0  0  0  0  0  0
    6.7749   51.7751   28.5823 H   0  0  0  0  0  0  0  0  0  0  0  0
    8.8961   51.1808   33.0562 H   0  0  0  0  0  0  0  0  0  0  0  0
    9.7375   55.0278   30.3806 H   0  0  0  0  0  0  0  0  0  0  0  0
   10.9127   53.8305   29.6553 H   0  0  0  0  0  0  0  0  0  0  0  0
   11.3950   41.5477   31.4740 H   0  0  0  0  0  0  0  0  0  0  0  0
    9.8290   40.7409   31.7625 H   0  0  0  0  0  0  0  0  0  0  0  0
   11.6982   39.5114   30.3500 H   0  0  0  0  0  0  0  0  0  0  0  0
   10.1117   38.2604   32.6661 H   0  0  0  0  0  0  0  0  0  0  0  0
   13.6767   37.4557   31.2267 H   0  0  0  0  0  0  0  0  0  0  0  0
    8.8960   38.6950   30.8872 H   0  0  0  0  0  0  0  0  0  0  0  0
   11.2791   36.3072   32.4922 H   0  0  0  0  0  0  0  0  0  0  0  0
   11.8828   36.9598   29.7589 H   0  0  0  0  0  0  0  0  0  0  0  0
   12.3300   38.3539   34.7446 H   0  0  0  0  0  0  0  0  0  0  0  0
   16.7561   34.1784   32.4622 H   0  0  0  0  0  0  0  0  0  0  0  0
   15.3531   35.7360   37.5140 H   0  0  0  0  0  0  0  0  0  0  0  0
   16.6347   34.5303   37.1416 H   0  0  0  0  0  0  0  0  0  0  0  0
  1  2  2  0
  1  3  1  0
  3  4  1  0
  4  5  1  0
  6  1  1  0
  7  6  1  0
  6  8  1  0
  8  9  1  0
  9 10  2  0
 11  9  1  0
 10 12  1  0
 13 11  2  0
 12 14  2  0
 14 13  1  0
 14 15  1  0
 15 16  1  0
 16 17  1  0
 16 18  1  0
 18 19  2  0
 20 18  1  0
 19 21  1  0
 22 20  2  0
 20 23  1  0
 21 24  1  0
 21 25  2  0
 25 22  1  0
 23 26  1  0
 23 27  2  0
 24 28  1  0
 25 29  1  0
 28 29  1  0
  4 30  2  0
  4 31  1  0
 32 31  1  0
 32 33  1  0
 33 34  1  0
 33 35  1  0
 34 36  1  0
 35 37  1  0
 35 38  1  0
 38 36  1  0
 36 39  1  0
 38 40  1  0
 41 39  1  0
 42 39  1  0
 43 41  2  0
 41 44  1  0
 45 42  2  0
 46 43  1  0
 44 47  2  0
 44 45  1  0
 48 46  2  0
 48 47  1  0
 47 49  1  0
  6 50  1  1
  7 51  1  0
  7 52  1  0
  8 53  1  0
  8 54  1  0
 10 55  1  0
 11 56  1  0
 12 57  1  0
 13 58  1  0
 16 59  1  6
 17 60  1  0
 17 61  1  0
 17 62  1  0
 19 63  1  0
 22 64  1  0
 28 65  1  0
 28 66  1  0
 32 67  1  0
 32 68  1  0
 33 69  1  0
 35 70  1  0
 36 71  1  0
 37 72  1  0
 38 73  1  0
 40 74  1  0
 42 75  1  0
 46 76  1  0
 49 77  1  0
 49 78  1  0
M  CHG  3   5  -1  23   1  26  -1
M  END
>  <EmbedRMS>  (387) 
0.0819553555113

$$$$

     RDKit          3D

 78 83  0  0  0  0  0  0  0  0999 V2000
   10.2832   43.7657   33.8252 C   0  0  0  0  0  0  0  0  0  0  0  0
   11.4100   43.5931   34.3746 O   0  0  0  0  0  0  0  0  0  0  0  0
    9.3635   42.7250   33.7353 O   0  0  0  0  0  0  0  0  0  0  0  0
    9.8905   41.2265   34.2946 P   0  0  0  0  0  0  0  0  0  0  0  0
   10.3742   41.4556   35.8842 O   0  0  0  0  0  0  0  0  0  0  0  0
    9.9543   45.0688   33.2034 C   0  0  1  0  0  0  0  0  0  0  0  0
   11.0266   46.0318   33.4760 N   0  0  0  0  0  0  0  0  0  0  0  0
    9.7467   44.8476   31.6875 C   0  0  0  0  0  0  0  0  0  0  0  0
    8.7924   45.8403   31.0850 C   0  0  0  0  0  0  0  0  0  0  0  0
    7.4054   45.6027   31.1016 C   0  0  0  0  0  0  0  0  0  0  0  0
    9.2823   46.9889   30.4463 C   0  0  0  0  0  0  0  0  0  0  0  0
    6.5255   46.5023   30.4849 C   0  0  0  0  0  0  0  0  0  0  0  0
    8.4020   47.8895   29.8365 C   0  0  0  0  0  0  0  0  0  0  0  0
    7.0215   47.6509   29.8362 C   0  0  0  0  0  0  0  0  0  0  0  0
    6.1895   48.5683   29.1743 O   0  0  0  0  0  0  0  0  0  0  0  0
    4.8308   48.3313   28.8000 C   0  0  1  0  0  0  0  0  0  0  0  0
    4.2139   49.6190   28.2515 C   0  0  0  0  0  0  0  0  0  0  0  0
    4.7236   47.1891   27.7962 C   0  0  0  0  0  0  0  0  0  0  0  0
    3.9304   46.0725   28.1596 C   0  0  0  0  0  0  0  0  0  0  0  0
    5.3576   47.2011   26.5032 C   0  0  0  0  0  0  0  0  0  0  0  0
    3.8034   45.0206   27.2629 C   0  0  0  0  0  0  0  0  0  0  0  0
    5.1743   46.1064   25.6268 C   0  0  0  0  0  0  0  0  0  0  0  0
    6.1538   48.3043   26.0439 N   0  0  0  0  0  0  0  0  0  0  0  0
    3.1009   43.8408   27.4174 O   0  0  0  0  0  0  0  0  0  0  0  0
    4.3992   45.0363   26.0504 C   0  0  0  0  0  0  0  0  0  0  0  0
    6.0626   48.7017   24.7302 O   0  0  0  0  0  0  0  0  0  0  0  0
    7.0987   48.7355   26.7337 O   0  0  0  0  0  0  0  0  0  0  0  0
    3.2754   43.0626   26.2254 C   0  0  0  0  0  0  0  0  0  0  0  0
    4.1069   43.8658   25.3763 O   0  0  0  0  0  0  0  0  0  0  0  0
    8.8129   40.1843   34.2126 O   0  0  0  0  0  0  0  0  0  0  0  0
   11.2401   40.7950   33.3683 O   0  0  0  0  0  0  0  0  0  0  0  0
   10.9116   40.6878   31.9970 C   0  0  0  0  0  0  0  0  0  0  0  0
   11.5159   39.3813   31.4420 C   0  0  0  0  0  0  0  0  0  0  0  0
   12.7490   39.0882   32.0759 O   0  0  0  0  0  0  0  0  0  0  0  0
   10.6032   38.1893   31.6660 C   0  0  0  0  0  0  0  0  0  0  0  0
   12.9385   37.6815   32.0281 C   0  0  0  0  0  0  0  0  0  0  0  0
    9.6346   38.0945   30.6497 O   0  0  0  0  0  0  0  0  0  0  0  0
   11.5793   37.0194   31.6934 C   0  0  0  0  0  0  0  0  0  0  0  0
   13.4849   37.2120   33.3244 N   0  0  0  0  0  0  0  0  0  0  0  0
   11.6106   36.3197   30.4670 O   0  0  0  0  0  0  0  0  0  0  0  0
   14.4805   36.3323   33.5731 C   0  0  0  0  0  0  0  0  0  0  0  0
   13.1141   37.6281   34.5693 C   0  0  0  0  0  0  0  0  0  0  0  0
   15.2075   35.6157   32.6742 N   0  0  0  0  0  0  0  0  0  0  0  0
   14.6759   36.2308   34.9186 C   0  0  0  0  0  0  0  0  0  0  0  0
   13.8217   37.0454   35.5788 N   0  0  0  0  0  0  0  0  0  0  0  0
   16.1639   34.7603   33.1547 C   0  0  0  0  0  0  0  0  0  0  0  0
   15.6534   35.3515   35.4133 C   0  0  0  0  0  0  0  0  0  0  0  0
   16.3801   34.6326   34.5041 N   0  0  0  0  0  0  0  0  0  0  0  0
   15.9012   35.1935   36.8090 N   0  0  0  0  0  0  0  0  0  0  0  0
    9.0118   45.4297   33.6722 H   0  0  0  0  0  0  0  0  0  0  0  0
   10.7249   46.9686   33.1226 H   0  0  0  0  0  0  0  0  0  0  0  0
   11.8904   45.7657   32.9479 H   0  0  0  0  0  0  0  0  0  0  0  0
   10.7235   44.8835   31.1561 H   0  0  0  0  0  0  0  0  0  0  0  0
    9.3431   43.8321   31.4747 H   0  0  0  0  0  0  0  0  0  0  0  0
    7.0076   44.7212   31.5887 H   0  0  0  0  0  0  0  0  0  0  0  0
   10.3464   47.1890   30.4191 H   0  0  0  0  0  0  0  0  0  0  0  0
    5.4672   46.2963   30.5271 H   0  0  0  0  0  0  0  0  0  0  0  0
    8.7973   48.7682   29.3432 H   0  0  0  0  0  0  0  0  0  0  0  0
    4.2551   48.0908   29.7223 H   0  0  0  0  0  0  0  0  0  0  0  0
    4.8159   50.0399   27.4215 H   0  0  0  0  0  0  0  0  0  0  0  0
    4.1681   50.3807   29.0605 H   0  0  0  0  0  0  0  0  0  0  0  0
    3.1793   49.4282   27.8903 H   0  0  0  0  0  0  0  0  0  0  0  0
    3.4238   46.0211   29.1153 H   0  0  0  0  0  0  0  0  0  0  0  0
    5.6380   46.0841   24.6488 H   0  0  0  0  0  0  0  0  0  0  0  0
    2.2940   42.8779   25.7399 H   0  0  0  0  0  0  0  0  0  0  0  0
    3.7833   42.1036   26.4626 H   0  0  0  0  0  0  0  0  0  0  0  0
    9.8207   40.7239   31.7647 H   0  0  0  0  0  0  0  0  0  0  0  0
   11.3788   41.5461   31.4685 H   0  0  0  0  0  0  0  0  0  0  0  0
   11.6986   39.5093   30.3501 H   0  0  0  0  0  0  0  0  0  0  0  0
   10.1103   38.2737   32.6635 H   0  0  0  0  0  0  0  0  0  0  0  0
   13.6766   37.4571   31.2268 H   0  0  0  0  0  0  0  0  0  0  0  0
    9.0014   37.3854   30.9348 H   0  0  0  0  0  0  0  0  0  0  0  0
   11.2792   36.3054   32.4917 H   0  0  0  0  0  0  0  0  0  0  0  0
   11.8848   36.9599   29.7588 H   0  0  0  0  0  0  0  0  0  0  0  0
   12.3312   38.3554   34.7437 H   0  0  0  0  0  0  0  0  0  0  0  0
   16.7575   34.1802   32.4620 H   0  0  0  0  0  0  0  0  0  0  0  0
   15.3551   35.7352   37.5151 H   0  0  0  0  0  0  0  0  0  0  0  0
   16.6358   34.5298   37.1405 H   0  0  0  0  0  0  0  0  0  0  0  0
  1  2  2  0
  1  3  1  0
  3  4  1  0
  4  5  1  0
  6  1  1  0
  7  6  1  0
  6  8  1  0
  8  9  1  0
  9 10  2  0
 11  9  1  0
 10 12  1  0
 13 11  2  0
 12 14  2  0
 14 13  1  0
 14 15  1  0
 15 16  1  0
 16 17  1  0
 16 18  1  0
 18 19  2  0
 20 18  1  0
 19 21  1  0
 22 20  2  0
 20 23  1  0
 21 24  1  0
 21 25  2  0
 25 22  1  0
 23 26  1  0
 23 27  2  0
 24 28  1  0
 25 29  1  0
 28 29  1  0
  4 30  2  0
  4 31  1  0
 32 31  1  0
 32 33  1  0
 33 34  1  0
 33 35  1  0
 34 36  1  0
 35 37  1  0
 35 38  1  0
 38 36  1  0
 36 39  1  0
 38 40  1  0
 41 39  1  0
 42 39  1  0
 43 41  2  0
 41 44  1  0
 45 42  2  0
 46 43  1  0
 44 47  2  0
 44 45  1  0
 48 46  2  0
 48 47  1  0
 47 49  1  0
  6 50  1  1
  7 51  1  0
  7 52  1  0
  8 53  1  0
  8 54  1  0
 10 55  1  0
 11 56  1  0
 12 57  1  0
 13 58  1  0
 16 59  1  1
 17 60  1  0
 17 61  1  0
 17 62  1  0
 19 63  1  0
 22 64  1  0
 28 65  1  0
 28 66  1  0
 32 67  1  0
 32 68  1  0
 33 69  1  0
 35 70  1  0
 36 71  1  0
 37 72  1  0
 38 73  1  0
 40 74  1  0
 42 75  1  0
 46 76  1  0
 49 77  1  0
 49 78  1  0
M  CHG  3   5  -1  23   1  26  -1
M  END
>  <EmbedRMS>  (388) 
0.0815685433149

$$$$

     RDKit          3D

 78 83  0  0  0  0  0  0  0  0999 V2000
   10.2802   43.7665   33.8249 C   0  0  0  0  0  0  0  0  0  0  0  0
   11.4109   43.5917   34.3664 O   0  0  0  0  0  0  0  0  0  0  0  0
    9.3614   42.7252   33.7347 O   0  0  0  0  0  0  0  0  0  0  0  0
    9.8894   41.2270   34.2945 P   0  0  0  0  0  0  0  0  0  0  0  0
   10.3731   41.4570   35.8837 O   0  0  0  0  0  0  0  0  0  0  0  0
    9.9459   45.0737   33.2110 C   0  0  1  0  0  0  0  0  0  0  0  0
   11.0265   46.0293   33.4707 N   0  0  0  0  0  0  0  0  0  0  0  0
    9.7542   44.8540   31.6947 C   0  0  0  0  0  0  0  0  0  0  0  0
    8.7961   45.8410   31.0844 C   0  0  0  0  0  0  0  0  0  0  0  0
    7.4098   45.6008   31.1013 C   0  0  0  0  0  0  0  0  0  0  0  0
    9.2823   46.9874   30.4396 C   0  0  0  0  0  0  0  0  0  0  0  0
    6.5264   46.4996   30.4874 C   0  0  0  0  0  0  0  0  0  0  0  0
    8.3992   47.8865   29.8317 C   0  0  0  0  0  0  0  0  0  0  0  0
    7.0169   47.6557   29.8450 C   0  0  0  0  0  0  0  0  0  0  0  0
    6.1900   48.6056   29.2171 O   0  0  0  0  0  0  0  0  0  0  0  0
    4.7635   48.5679   29.0749 C   0  0  1  0  0  0  0  0  0  0  0  0
    4.3621   47.4838   28.0617 C   0  0  0  0  0  0  0  0  0  0  0  0
    4.0621   48.5277   30.4336 C   0  0  0  0  0  0  0  0  0  0  0  0
    3.0453   47.5703   30.7014 C   0  0  0  0  0  0  0  0  0  0  0  0
    4.4386   49.4446   31.4757 C   0  0  0  0  0  0  0  0  0  0  0  0
    2.4832   47.5308   31.9701 C   0  0  0  0  0  0  0  0  0  0  0  0
    3.8364   49.3448   32.7511 C   0  0  0  0  0  0  0  0  0  0  0  0
    5.4280   50.4663   31.2630 N   0  0  0  0  0  0  0  0  0  0  0  0
    1.5039   46.6812   32.4477 O   0  0  0  0  0  0  0  0  0  0  0  0
    2.8641   48.3772   32.9520 C   0  0  0  0  0  0  0  0  0  0  0  0
    5.3972   51.2422   30.1278 O   0  0  0  0  0  0  0  0  0  0  0  0
    6.2016   50.7877   32.1890 O   0  0  0  0  0  0  0  0  0  0  0  0
    1.2552   47.0193   33.8190 C   0  0  0  0  0  0  0  0  0  0  0  0
    2.1447   48.1083   34.1004 O   0  0  0  0  0  0  0  0  0  0  0  0
    8.8121   40.1844   34.2136 O   0  0  0  0  0  0  0  0  0  0  0  0
   11.2399   40.7950   33.3698 O   0  0  0  0  0  0  0  0  0  0  0  0
   10.9143   40.6913   31.9981 C   0  0  0  0  0  0  0  0  0  0  0  0
   11.5270   39.3911   31.4386 C   0  0  0  0  0  0  0  0  0  0  0  0
   12.7520   39.0911   32.0837 O   0  0  0  0  0  0  0  0  0  0  0  0
   10.6114   38.1932   31.6451 C   0  0  0  0  0  0  0  0  0  0  0  0
   12.9415   37.6838   32.0298 C   0  0  0  0  0  0  0  0  0  0  0  0
    9.6065   38.0879   30.6598 O   0  0  0  0  0  0  0  0  0  0  0  0
   11.5823   37.0198   31.6877 C   0  0  0  0  0  0  0  0  0  0  0  0
   13.4840   37.2104   33.3256 N   0  0  0  0  0  0  0  0  0  0  0  0
   11.6183   36.3072   30.4691 O   0  0  0  0  0  0  0  0  0  0  0  0
   14.4796   36.3308   33.5739 C   0  0  0  0  0  0  0  0  0  0  0  0
   13.1137   37.6267   34.5704 C   0  0  0  0  0  0  0  0  0  0  0  0
   15.2070   35.6150   32.6747 N   0  0  0  0  0  0  0  0  0  0  0  0
   14.6757   36.2296   34.9191 C   0  0  0  0  0  0  0  0  0  0  0  0
   13.8217   37.0442   35.5795 N   0  0  0  0  0  0  0  0  0  0  0  0
   16.1643   34.7603   33.1550 C   0  0  0  0  0  0  0  0  0  0  0  0
   15.6530   35.3502   35.4136 C   0  0  0  0  0  0  0  0  0  0  0  0
   16.3801   34.6317   34.5045 N   0  0  0  0  0  0  0  0  0  0  0  0
   15.9005   35.1926   36.8095 N   0  0  0  0  0  0  0  0  0  0  0  0
    8.9994   45.4384   33.6717 H   0  0  0  0  0  0  0  0  0  0  0  0
   10.7758   46.9369   33.0160 H   0  0  0  0  0  0  0  0  0  0  0  0
   11.0499   46.2281   34.4981 H   0  0  0  0  0  0  0  0  0  0  0  0
   10.7416   44.9079   31.1838 H   0  0  0  0  0  0  0  0  0  0  0  0
    9.3642   43.8354   31.4710 H   0  0  0  0  0  0  0  0  0  0  0  0
    7.0157   44.7169   31.5878 H   0  0  0  0  0  0  0  0  0  0  0  0
   10.3461   47.1880   30.4062 H   0  0  0  0  0  0  0  0  0  0  0  0
    5.4732   46.2785   30.5300 H   0  0  0  0  0  0  0  0  0  0  0  0
    8.7921   48.7693   29.3435 H   0  0  0  0  0  0  0  0  0  0  0  0
    4.4626   49.5248   28.5992 H   0  0  0  0  0  0  0  0  0  0  0  0
    3.2873   47.5818   27.7985 H   0  0  0  0  0  0  0  0  0  0  0  0
    4.9510   47.6137   27.1291 H   0  0  0  0  0  0  0  0  0  0  0  0
    4.5532   46.4633   28.4483 H   0  0  0  0  0  0  0  0  0  0  0  0
    2.7052   46.8574   29.9648 H   0  0  0  0  0  0  0  0  0  0  0  0
    4.1058   50.0159   33.5564 H   0  0  0  0  0  0  0  0  0  0  0  0
    1.4882   46.1553   34.4760 H   0  0  0  0  0  0  0  0  0  0  0  0
    0.2009   47.3416   33.9500 H   0  0  0  0  0  0  0  0  0  0  0  0
    9.8233   40.7199   31.7652 H   0  0  0  0  0  0  0  0  0  0  0  0
   11.3773   41.5547   31.4740 H   0  0  0  0  0  0  0  0  0  0  0  0
   11.7314   39.5360   30.3533 H   0  0  0  0  0  0  0  0  0  0  0  0
   10.1200   38.2696   32.6409 H   0  0  0  0  0  0  0  0  0  0  0  0
   13.6855   37.4641   31.2322 H   0  0  0  0  0  0  0  0  0  0  0  0
   10.0250   38.1795   29.7652 H   0  0  0  0  0  0  0  0  0  0  0  0
   11.2754   36.3135   32.4904 H   0  0  0  0  0  0  0  0  0  0  0  0
   11.9843   36.9111   29.7710 H   0  0  0  0  0  0  0  0  0  0  0  0
   12.3314   38.3539   34.7463 H   0  0  0  0  0  0  0  0  0  0  0  0
   16.7574   34.1796   32.4621 H   0  0  0  0  0  0  0  0  0  0  0  0
   15.3538   35.7352   37.5146 H   0  0  0  0  0  0  0  0  0  0  0  0
   16.6355   34.5297   37.1419 H   0  0  0  0  0  0  0  0  0  0  0  0
  1  2  2  0
  1  3  1  0
  3  4  1  0
  4  5  1  0
  6  1  1  0
  7  6  1  0
  6  8  1  0
  8  9  1  0
  9 10  2  0
 11  9  1  0
 10 12  1  0
 13 11  2  0
 12 14  2  0
 14 13  1  0
 14 15  1  0
 15 16  1  0
 16 17  1  0
 16 18  1  0
 18 19  2  0
 20 18  1  0
 19 21  1  0
 22 20  2  0
 20 23  1  0
 21 24  1  0
 21 25  2  0
 25 22  1  0
 23 26  1  0
 23 27  2  0
 24 28  1  0
 25 29  1  0
 28 29  1  0
  4 30  2  0
  4 31  1  0
 32 31  1  0
 32 33  1  0
 33 34  1  0
 33 35  1  0
 34 36  1  0
 35 37  1  0
 35 38  1  0
 38 36  1  0
 36 39  1  0
 38 40  1  0
 41 39  1  0
 42 39  1  0
 43 41  2  0
 41 44  1  0
 45 42  2  0
 46 43  1  0
 44 47  2  0
 44 45  1  0
 48 46  2  0
 48 47  1  0
 47 49  1  0
  6 50  1  1
  7 51  1  0
  7 52  1  0
  8 53  1  0
  8 54  1  0
 10 55  1  0
 11 56  1  0
 12 57  1  0
 13 58  1  0
 16 59  1  6
 17 60  1  0
 17 61  1  0
 17 62  1  0
 19 63  1  0
 22 64  1  0
 28 65  1  0
 28 66  1  0
 32 67  1  0
 32 68  1  0
 33 69  1  0
 35 70  1  0
 36 71  1  0
 37 72  1  0
 38 73  1  0
 40 74  1  0
 42 75  1  0
 46 76  1  0
 49 77  1  0
 49 78  1  0
M  CHG  3   5  -1  23   1  26  -1
M  END
>  <EmbedRMS>  (389) 
0.0806378635591

$$$$

     RDKit          3D

 78 83  0  0  0  0  0  0  0  0999 V2000
   10.2805   43.7663   33.8248 C   0  0  0  0  0  0  0  0  0  0  0  0
   11.4111   43.5919   34.3667 O   0  0  0  0  0  0  0  0  0  0  0  0
    9.3622   42.7247   33.7342 O   0  0  0  0  0  0  0  0  0  0  0  0
    9.8904   41.2264   34.2936 P   0  0  0  0  0  0  0  0  0  0  0  0
   10.3731   41.4565   35.8831 O   0  0  0  0  0  0  0  0  0  0  0  0
    9.9460   45.0735   33.2110 C   0  0  1  0  0  0  0  0  0  0  0  0
   11.0266   46.0292   33.4708 N   0  0  0  0  0  0  0  0  0  0  0  0
    9.7541   44.8542   31.6947 C   0  0  0  0  0  0  0  0  0  0  0  0
    8.7957   45.8412   31.0847 C   0  0  0  0  0  0  0  0  0  0  0  0
    7.4089   45.6002   31.1016 C   0  0  0  0  0  0  0  0  0  0  0  0
    9.2823   46.9882   30.4398 C   0  0  0  0  0  0  0  0  0  0  0  0
    6.5258   46.4992   30.4875 C   0  0  0  0  0  0  0  0  0  0  0  0
    8.3996   47.8876   29.8313 C   0  0  0  0  0  0  0  0  0  0  0  0
    7.0185   47.6537   29.8450 C   0  0  0  0  0  0  0  0  0  0  0  0
    6.1811   48.5833   29.2063 O   0  0  0  0  0  0  0  0  0  0  0  0
    4.7636   48.4607   29.0698 C   0  0  1  0  0  0  0  0  0  0  0  0
    4.1753   49.7758   28.5598 C   0  0  0  0  0  0  0  0  0  0  0  0
    4.3685   47.3084   28.1574 C   0  0  0  0  0  0  0  0  0  0  0  0
    3.1669   46.6247   28.4638 C   0  0  0  0  0  0  0  0  0  0  0  0
    5.1668   46.8568   27.0483 C   0  0  0  0  0  0  0  0  0  0  0  0
    2.8136   45.5214   27.6991 C   0  0  0  0  0  0  0  0  0  0  0  0
    4.7623   45.7167   26.3178 C   0  0  0  0  0  0  0  0  0  0  0  0
    6.3812   47.5156   26.6571 N   0  0  0  0  0  0  0  0  0  0  0  0
    1.7031   44.7092   27.8251 O   0  0  0  0  0  0  0  0  0  0  0  0
    3.5795   45.0841   26.6744 C   0  0  0  0  0  0  0  0  0  0  0  0
    7.4560   46.7682   26.2340 O   0  0  0  0  0  0  0  0  0  0  0  0
    6.4026   48.7506   26.4834 O   0  0  0  0  0  0  0  0  0  0  0  0
    1.7784   43.6970   26.8119 C   0  0  0  0  0  0  0  0  0  0  0  0
    2.9920   43.9736   26.0996 O   0  0  0  0  0  0  0  0  0  0  0  0
    8.8128   40.1841   34.2124 O   0  0  0  0  0  0  0  0  0  0  0  0
   11.2418   40.7944   33.3695 O   0  0  0  0  0  0  0  0  0  0  0  0
   10.9186   40.6911   31.9969 C   0  0  0  0  0  0  0  0  0  0  0  0
   11.5172   39.3814   31.4407 C   0  0  0  0  0  0  0  0  0  0  0  0
   12.7492   39.0856   32.0729 O   0  0  0  0  0  0  0  0  0  0  0  0
   10.6023   38.1908   31.6665 C   0  0  0  0  0  0  0  0  0  0  0  0
   12.9319   37.6781   32.0282 C   0  0  0  0  0  0  0  0  0  0  0  0
    9.6392   38.0797   30.6451 O   0  0  0  0  0  0  0  0  0  0  0  0
   11.5715   37.0166   31.7056 C   0  0  0  0  0  0  0  0  0  0  0  0
   13.4846   37.2121   33.3236 N   0  0  0  0  0  0  0  0  0  0  0  0
   11.6187   36.3384   30.4695 O   0  0  0  0  0  0  0  0  0  0  0  0
   14.4801   36.3321   33.5724 C   0  0  0  0  0  0  0  0  0  0  0  0
   13.1137   37.6275   34.5688 C   0  0  0  0  0  0  0  0  0  0  0  0
   15.2073   35.6153   32.6738 N   0  0  0  0  0  0  0  0  0  0  0  0
   14.6759   36.2308   34.9179 C   0  0  0  0  0  0  0  0  0  0  0  0
   13.8216   37.0452   35.5781 N   0  0  0  0  0  0  0  0  0  0  0  0
   16.1640   34.7602   33.1546 C   0  0  0  0  0  0  0  0  0  0  0  0
   15.6526   35.3508   35.4129 C   0  0  0  0  0  0  0  0  0  0  0  0
   16.3794   34.6317   34.5041 N   0  0  0  0  0  0  0  0  0  0  0  0
   15.8999   35.1934   36.8088 N   0  0  0  0  0  0  0  0  0  0  0  0
    8.9995   45.4380   33.6720 H   0  0  0  0  0  0  0  0  0  0  0  0
   11.0501   46.2277   34.4982 H   0  0  0  0  0  0  0  0  0  0  0  0
   10.7764   46.9368   33.0158 H   0  0  0  0  0  0  0  0  0  0  0  0
   10.7412   44.9080   31.1834 H   0  0  0  0  0  0  0  0  0  0  0  0
    9.3647   43.8354   31.4708 H   0  0  0  0  0  0  0  0  0  0  0  0
    7.0149   44.7155   31.5866 H   0  0  0  0  0  0  0  0  0  0  0  0
   10.3462   47.1877   30.4049 H   0  0  0  0  0  0  0  0  0  0  0  0
    5.4674   46.2838   30.5204 H   0  0  0  0  0  0  0  0  0  0  0  0
    8.7915   48.7678   29.3376 H   0  0  0  0  0  0  0  0  0  0  0  0
    4.3365   48.2998   30.0853 H   0  0  0  0  0  0  0  0  0  0  0  0
    3.0656   49.7201   28.5559 H   0  0  0  0  0  0  0  0  0  0  0  0
    4.5206   50.0038   27.5318 H   0  0  0  0  0  0  0  0  0  0  0  0
    4.4809   50.6076   29.2293 H   0  0  0  0  0  0  0  0  0  0  0  0
    2.5337   46.9350   29.2857 H   0  0  0  0  0  0  0  0  0  0  0  0
    5.3446   45.3468   25.4837 H   0  0  0  0  0  0  0  0  0  0  0  0
    1.8283   42.6904   27.2776 H   0  0  0  0  0  0  0  0  0  0  0  0
    0.9070   43.7725   26.1281 H   0  0  0  0  0  0  0  0  0  0  0  0
    9.8298   40.7409   31.7610 H   0  0  0  0  0  0  0  0  0  0  0  0
   11.3967   41.5459   31.4725 H   0  0  0  0  0  0  0  0  0  0  0  0
   11.6975   39.5066   30.3481 H   0  0  0  0  0  0  0  0  0  0  0  0
   10.1076   38.2648   32.6645 H   0  0  0  0  0  0  0  0  0  0  0  0
   13.6621   37.4468   31.2209 H   0  0  0  0  0  0  0  0  0  0  0  0
    8.8974   38.6943   30.8831 H   0  0  0  0  0  0  0  0  0  0  0  0
   11.2806   36.3073   32.5170 H   0  0  0  0  0  0  0  0  0  0  0  0
   10.8493   35.7110   30.4585 H   0  0  0  0  0  0  0  0  0  0  0  0
   12.3290   38.3523   34.7445 H   0  0  0  0  0  0  0  0  0  0  0  0
   16.7559   34.1780   32.4619 H   0  0  0  0  0  0  0  0  0  0  0  0
   16.6344   34.5301   37.1414 H   0  0  0  0  0  0  0  0  0  0  0  0
   15.3532   35.7362   37.5137 H   0  0  0  0  0  0  0  0  0  0  0  0
  1  2  2  0
  1  3  1  0
  3  4  1  0
  4  5  1  0
  6  1  1  0
  7  6  1  0
  6  8  1  0
  8  9  1  0
  9 10  2  0
 11  9  1  0
 10 12  1  0
 13 11  2  0
 12 14  2  0
 14 13  1  0
 14 15  1  0
 15 16  1  0
 16 17  1  0
 16 18  1  0
 18 19  2  0
 20 18  1  0
 19 21  1  0
 22 20  2  0
 20 23  1  0
 21 24  1  0
 21 25  2  0
 25 22  1  0
 23 26  1  0
 23 27  2  0
 24 28  1  0
 25 29  1  0
 28 29  1  0
  4 30  2  0
  4 31  1  0
 32 31  1  0
 32 33  1  0
 33 34  1  0
 33 35  1  0
 34 36  1  0
 35 37  1  0
 35 38  1  0
 38 36  1  0
 36 39  1  0
 38 40  1  0
 41 39  1  0
 42 39  1  0
 43 41  2  0
 41 44  1  0
 45 42  2  0
 46 43  1  0
 44 47  2  0
 44 45  1  0
 48 46  2  0
 48 47  1  0
 47 49  1  0
  6 50  1  1
  7 51  1  0
  7 52  1  0
  8 53  1  0
  8 54  1  0
 10 55  1  0
 11 56  1  0
 12 57  1  0
 13 58  1  0
 16 59  1  1
 17 60  1  0
 17 61  1  0
 17 62  1  0
 19 63  1  0
 22 64  1  0
 28 65  1  0
 28 66  1  0
 32 67  1  0
 32 68  1  0
 33 69  1  0
 35 70  1  0
 36 71  1  0
 37 72  1  0
 38 73  1  0
 40 74  1  0
 42 75  1  0
 46 76  1  0
 49 77  1  0
 49 78  1  0
M  CHG  3   5  -1  23   1  26  -1
M  END
>  <EmbedRMS>  (390) 
0.0827704285247

$$$$

     RDKit          3D

 78 83  0  0  0  0  0  0  0  0999 V2000
   10.2832   43.7629   33.8271 C   0  0  0  0  0  0  0  0  0  0  0  0
   11.4098   43.5869   34.3762 O   0  0  0  0  0  0  0  0  0  0  0  0
    9.3627   42.7236   33.7352 O   0  0  0  0  0  0  0  0  0  0  0  0
    9.8894   41.2250   34.2944 P   0  0  0  0  0  0  0  0  0  0  0  0
   10.3727   41.4548   35.8838 O   0  0  0  0  0  0  0  0  0  0  0  0
    9.9535   45.0703   33.2057 C   0  0  1  0  0  0  0  0  0  0  0  0
   11.0190   46.0482   33.4551 N   0  0  0  0  0  0  0  0  0  0  0  0
    9.7465   44.8510   31.6915 C   0  0  0  0  0  0  0  0  0  0  0  0
    8.7898   45.8435   31.0832 C   0  0  0  0  0  0  0  0  0  0  0  0
    7.4042   45.5841   31.1111 C   0  0  0  0  0  0  0  0  0  0  0  0
    9.3051   46.9888   30.4486 C   0  0  0  0  0  0  0  0  0  0  0  0
    6.4780   46.4429   30.5172 C   0  0  0  0  0  0  0  0  0  0  0  0
    8.5013   47.9385   29.8155 C   0  0  0  0  0  0  0  0  0  0  0  0
    6.9601   47.6757   29.8248 C   0  0  0  0  0  0  0  0  0  0  0  0
    5.9090   48.5736   29.2082 O   0  0  0  0  0  0  0  0  0  0  0  0
    4.5417   48.2520   28.9114 C   0  0  1  0  0  0  0  0  0  0  0  0
    4.4608   46.9553   28.0805 C   0  0  0  0  0  0  0  0  0  0  0  0
    3.6426   48.2475   30.1494 C   0  0  0  0  0  0  0  0  0  0  0  0
    4.1876   48.5503   31.4261 C   0  0  0  0  0  0  0  0  0  0  0  0
    2.2376   47.9558   30.0548 C   0  0  0  0  0  0  0  0  0  0  0  0
    3.3663   48.4626   32.5419 C   0  0  0  0  0  0  0  0  0  0  0  0
    1.4566   47.8627   31.2283 C   0  0  0  0  0  0  0  0  0  0  0  0
    1.5828   47.7873   28.7892 N   0  0  0  0  0  0  0  0  0  0  0  0
    3.6916   48.6857   33.8662 O   0  0  0  0  0  0  0  0  0  0  0  0
    2.0616   48.1235   32.4486 C   0  0  0  0  0  0  0  0  0  0  0  0
    0.5892   46.8453   28.6551 O   0  0  0  0  0  0  0  0  0  0  0  0
    1.7248   48.6445   27.8934 O   0  0  0  0  0  0  0  0  0  0  0  0
    2.5129   48.4690   34.6537 C   0  0  0  0  0  0  0  0  0  0  0  0
    1.4949   48.1130   33.7086 O   0  0  0  0  0  0  0  0  0  0  0  0
    8.8115   40.1833   34.2130 O   0  0  0  0  0  0  0  0  0  0  0  0
   11.2402   40.7932   33.3695 O   0  0  0  0  0  0  0  0  0  0  0  0
   10.9151   40.6903   31.9975 C   0  0  0  0  0  0  0  0  0  0  0  0
   11.5252   39.3885   31.4375 C   0  0  0  0  0  0  0  0  0  0  0  0
   12.7500   39.0873   32.0798 O   0  0  0  0  0  0  0  0  0  0  0  0
   10.6092   38.1925   31.6469 C   0  0  0  0  0  0  0  0  0  0  0  0
   12.9332   37.6792   32.0294 C   0  0  0  0  0  0  0  0  0  0  0  0
    9.6122   38.0894   30.6542 O   0  0  0  0  0  0  0  0  0  0  0  0
   11.5743   37.0144   31.7024 C   0  0  0  0  0  0  0  0  0  0  0  0
   13.4844   37.2107   33.3241 N   0  0  0  0  0  0  0  0  0  0  0  0
   11.6298   36.3238   30.4740 O   0  0  0  0  0  0  0  0  0  0  0  0
   14.4802   36.3313   33.5727 C   0  0  0  0  0  0  0  0  0  0  0  0
   13.1138   37.6266   34.5692 C   0  0  0  0  0  0  0  0  0  0  0  0
   15.2075   35.6149   32.6739 N   0  0  0  0  0  0  0  0  0  0  0  0
   14.6761   36.2303   34.9181 C   0  0  0  0  0  0  0  0  0  0  0  0
   13.8220   37.0447   35.5785 N   0  0  0  0  0  0  0  0  0  0  0  0
   16.1643   34.7600   33.1547 C   0  0  0  0  0  0  0  0  0  0  0  0
   15.6529   35.3505   35.4130 C   0  0  0  0  0  0  0  0  0  0  0  0
   16.3798   34.6315   34.5042 N   0  0  0  0  0  0  0  0  0  0  0  0
   15.9003   35.1932   36.8090 N   0  0  0  0  0  0  0  0  0  0  0  0
    9.0091   45.4356   33.6671 H   0  0  0  0  0  0  0  0  0  0  0  0
   11.1138   46.1993   34.4863 H   0  0  0  0  0  0  0  0  0  0  0  0
   11.9335   45.6931   33.0895 H   0  0  0  0  0  0  0  0  0  0  0  0
   10.7272   44.8871   31.1668 H   0  0  0  0  0  0  0  0  0  0  0  0
    9.3479   43.8338   31.4769 H   0  0  0  0  0  0  0  0  0  0  0  0
    7.0372   44.6955   31.6105 H   0  0  0  0  0  0  0  0  0  0  0  0
   10.3744   47.1578   30.4434 H   0  0  0  0  0  0  0  0  0  0  0  0
    5.4305   46.2070   30.6049 H   0  0  0  0  0  0  0  0  0  0  0  0
    7.6611   47.9625   29.7205 H   0  0  0  0  0  0  0  0  0  0  0  0
    4.1809   49.0768   28.2620 H   0  0  0  0  0  0  0  0  0  0  0  0
    4.2529   46.0682   28.7121 H   0  0  0  0  0  0  0  0  0  0  0  0
    3.6556   47.0248   27.3213 H   0  0  0  0  0  0  0  0  0  0  0  0
    5.4102   46.7889   27.5287 H   0  0  0  0  0  0  0  0  0  0  0  0
    5.2199   48.8380   31.5629 H   0  0  0  0  0  0  0  0  0  0  0  0
    0.4000   47.6313   31.1852 H   0  0  0  0  0  0  0  0  0  0  0  0
    2.2311   49.4007   35.1877 H   0  0  0  0  0  0  0  0  0  0  0  0
    2.6776   47.6378   35.3710 H   0  0  0  0  0  0  0  0  0  0  0  0
   11.3805   41.5528   31.4739 H   0  0  0  0  0  0  0  0  0  0  0  0
    9.8243   40.7216   31.7640 H   0  0  0  0  0  0  0  0  0  0  0  0
   11.7265   39.5311   30.3512 H   0  0  0  0  0  0  0  0  0  0  0  0
   10.1110   38.2746   32.6387 H   0  0  0  0  0  0  0  0  0  0  0  0
   13.6652   37.4519   31.2226 H   0  0  0  0  0  0  0  0  0  0  0  0
   10.0512   38.1143   29.7644 H   0  0  0  0  0  0  0  0  0  0  0  0
   11.2762   36.3141   32.5189 H   0  0  0  0  0  0  0  0  0  0  0  0
   10.8593   35.6977   30.4640 H   0  0  0  0  0  0  0  0  0  0  0  0
   12.3294   38.3518   34.7449 H   0  0  0  0  0  0  0  0  0  0  0  0
   16.7564   34.1780   32.4620 H   0  0  0  0  0  0  0  0  0  0  0  0
   15.3534   35.7359   37.5138 H   0  0  0  0  0  0  0  0  0  0  0  0
   16.6349   34.5300   37.1415 H   0  0  0  0  0  0  0  0  0  0  0  0
  1  2  2  0
  1  3  1  0
  3  4  1  0
  4  5  1  0
  6  1  1  0
  7  6  1  0
  6  8  1  0
  8  9  1  0
  9 10  2  0
 11  9  1  0
 10 12  1  0
 13 11  2  0
 12 14  2  0
 14 13  1  0
 14 15  1  0
 15 16  1  0
 16 17  1  0
 16 18  1  0
 18 19  2  0
 20 18  1  0
 19 21  1  0
 22 20  2  0
 20 23  1  0
 21 24  1  0
 21 25  2  0
 25 22  1  0
 23 26  1  0
 23 27  2  0
 24 28  1  0
 25 29  1  0
 28 29  1  0
  4 30  2  0
  4 31  1  0
 32 31  1  0
 32 33  1  0
 33 34  1  0
 33 35  1  0
 34 36  1  0
 35 37  1  0
 35 38  1  0
 38 36  1  0
 36 39  1  0
 38 40  1  0
 41 39  1  0
 42 39  1  0
 43 41  2  0
 41 44  1  0
 45 42  2  0
 46 43  1  0
 44 47  2  0
 44 45  1  0
 48 46  2  0
 48 47  1  0
 47 49  1  0
  6 50  1  1
  7 51  1  0
  7 52  1  0
  8 53  1  0
  8 54  1  0
 10 55  1  0
 11 56  1  0
 12 57  1  0
 13 58  1  0
 16 59  1  6
 17 60  1  0
 17 61  1  0
 17 62  1  0
 19 63  1  0
 22 64  1  0
 28 65  1  0
 28 66  1  0
 32 67  1  0
 32 68  1  0
 33 69  1  0
 35 70  1  0
 36 71  1  0
 37 72  1  0
 38 73  1  0
 40 74  1  0
 42 75  1  0
 46 76  1  0
 49 77  1  0
 49 78  1  0
M  CHG  3   5  -1  23   1  26  -1
M  END
>  <EmbedRMS>  (391) 
0.0856889067464

$$$$

     RDKit          3D

 78 83  0  0  0  0  0  0  0  0999 V2000
   10.2835   43.7662   33.8257 C   0  0  0  0  0  0  0  0  0  0  0  0
   11.4102   43.5931   34.3753 O   0  0  0  0  0  0  0  0  0  0  0  0
    9.3638   42.7255   33.7352 O   0  0  0  0  0  0  0  0  0  0  0  0
    9.8904   41.2268   34.2946 P   0  0  0  0  0  0  0  0  0  0  0  0
   10.3729   41.4561   35.8842 O   0  0  0  0  0  0  0  0  0  0  0  0
    9.9546   45.0695   33.2036 C   0  0  1  0  0  0  0  0  0  0  0  0
   11.0272   46.0323   33.4756 N   0  0  0  0  0  0  0  0  0  0  0  0
    9.7465   44.8480   31.6877 C   0  0  0  0  0  0  0  0  0  0  0  0
    8.7923   45.8407   31.0844 C   0  0  0  0  0  0  0  0  0  0  0  0
    7.4055   45.6013   31.0986 C   0  0  0  0  0  0  0  0  0  0  0  0
    9.2823   46.9874   30.4421 C   0  0  0  0  0  0  0  0  0  0  0  0
    6.5268   46.5031   30.4834 C   0  0  0  0  0  0  0  0  0  0  0  0
    8.4033   47.8894   29.8314 C   0  0  0  0  0  0  0  0  0  0  0  0
    7.0141   47.6538   29.8488 C   0  0  0  0  0  0  0  0  0  0  0  0
    6.0883   48.5285   29.2568 O   0  0  0  0  0  0  0  0  0  0  0  0
    6.4092   49.7680   28.6182 C   0  0  1  0  0  0  0  0  0  0  0  0
    5.1583   50.2991   27.9223 C   0  0  0  0  0  0  0  0  0  0  0  0
    6.9053   50.7923   29.6258 C   0  0  0  0  0  0  0  0  0  0  0  0
    6.3116   50.8289   30.9121 C   0  0  0  0  0  0  0  0  0  0  0  0
    7.8814   51.7827   29.2786 C   0  0  0  0  0  0  0  0  0  0  0  0
    6.7154   51.8157   31.8019 C   0  0  0  0  0  0  0  0  0  0  0  0
    8.2425   52.7722   30.2201 C   0  0  0  0  0  0  0  0  0  0  0  0
    8.4923   51.8121   27.9818 N   0  0  0  0  0  0  0  0  0  0  0  0
    6.2829   52.0349   33.0957 O   0  0  0  0  0  0  0  0  0  0  0  0
    7.6398   52.7464   31.4706 C   0  0  0  0  0  0  0  0  0  0  0  0
    9.2547   50.7480   27.5600 O   0  0  0  0  0  0  0  0  0  0  0  0
    8.5679   52.8914   27.3595 O   0  0  0  0  0  0  0  0  0  0  0  0
    6.9843   53.1756   33.6092 C   0  0  0  0  0  0  0  0  0  0  0  0
    7.8397   53.5994   32.5389 O   0  0  0  0  0  0  0  0  0  0  0  0
    8.8125   40.1848   34.2126 O   0  0  0  0  0  0  0  0  0  0  0  0
   11.2416   40.7948   33.3707 O   0  0  0  0  0  0  0  0  0  0  0  0
   10.9179   40.6922   31.9984 C   0  0  0  0  0  0  0  0  0  0  0  0
   11.5175   39.3838   31.4423 C   0  0  0  0  0  0  0  0  0  0  0  0
   12.7508   39.0887   32.0752 O   0  0  0  0  0  0  0  0  0  0  0  0
   10.6028   38.1916   31.6659 C   0  0  0  0  0  0  0  0  0  0  0  0
   12.9384   37.6818   32.0278 C   0  0  0  0  0  0  0  0  0  0  0  0
    9.6371   38.0806   30.6470 O   0  0  0  0  0  0  0  0  0  0  0  0
   11.5780   37.0215   31.6935 C   0  0  0  0  0  0  0  0  0  0  0  0
   13.4844   37.2119   33.3242 N   0  0  0  0  0  0  0  0  0  0  0  0
   11.6095   36.3201   30.4679 O   0  0  0  0  0  0  0  0  0  0  0  0
   14.4797   36.3318   33.5730 C   0  0  0  0  0  0  0  0  0  0  0  0
   13.1135   37.6278   34.5691 C   0  0  0  0  0  0  0  0  0  0  0  0
   15.2073   35.6155   32.6742 N   0  0  0  0  0  0  0  0  0  0  0  0
   14.6754   36.2305   34.9184 C   0  0  0  0  0  0  0  0  0  0  0  0
   13.8213   37.0452   35.5785 N   0  0  0  0  0  0  0  0  0  0  0  0
   16.1640   34.7604   33.1549 C   0  0  0  0  0  0  0  0  0  0  0  0
   15.6525   35.3507   35.4132 C   0  0  0  0  0  0  0  0  0  0  0  0
   16.3794   34.6318   34.5044 N   0  0  0  0  0  0  0  0  0  0  0  0
   15.9000   35.1934   36.8091 N   0  0  0  0  0  0  0  0  0  0  0  0
    9.0120   45.4317   33.6714 H   0  0  0  0  0  0  0  0  0  0  0  0
   10.7256   46.9689   33.1214 H   0  0  0  0  0  0  0  0  0  0  0  0
   11.8904   45.7661   32.9468 H   0  0  0  0  0  0  0  0  0  0  0  0
    9.3413   43.8328   31.4764 H   0  0  0  0  0  0  0  0  0  0  0  0
   10.7229   44.8812   31.1557 H   0  0  0  0  0  0  0  0  0  0  0  0
    7.0082   44.7166   31.5806 H   0  0  0  0  0  0  0  0  0  0  0  0
   10.3469   47.1845   30.4112 H   0  0  0  0  0  0  0  0  0  0  0  0
    5.4621   46.3080   30.5029 H   0  0  0  0  0  0  0  0  0  0  0  0
    8.8162   48.7622   29.3486 H   0  0  0  0  0  0  0  0  0  0  0  0
    7.1603   49.5676   27.8297 H   0  0  0  0  0  0  0  0  0  0  0  0
    5.3866   51.2494   27.3935 H   0  0  0  0  0  0  0  0  0  0  0  0
    4.3479   50.4794   28.6609 H   0  0  0  0  0  0  0  0  0  0  0  0
    4.8003   49.5583   27.1762 H   0  0  0  0  0  0  0  0  0  0  0  0
    5.5500   50.1183   31.2068 H   0  0  0  0  0  0  0  0  0  0  0  0
    8.9767   53.5318   29.9835 H   0  0  0  0  0  0  0  0  0  0  0  0
    6.2673   53.9823   33.8690 H   0  0  0  0  0  0  0  0  0  0  0  0
    7.5909   52.8874   34.4933 H   0  0  0  0  0  0  0  0  0  0  0  0
   11.3952   41.5478   31.4744 H   0  0  0  0  0  0  0  0  0  0  0  0
    9.8291   40.7409   31.7627 H   0  0  0  0  0  0  0  0  0  0  0  0
   11.6981   39.5115   30.3500 H   0  0  0  0  0  0  0  0  0  0  0  0
   10.1117   38.2604   32.6661 H   0  0  0  0  0  0  0  0  0  0  0  0
   13.6767   37.4556   31.2267 H   0  0  0  0  0  0  0  0  0  0  0  0
    8.8961   38.6951   30.8872 H   0  0  0  0  0  0  0  0  0  0  0  0
   11.2791   36.3072   32.4922 H   0  0  0  0  0  0  0  0  0  0  0  0
   11.8828   36.9598   29.7589 H   0  0  0  0  0  0  0  0  0  0  0  0
   12.3300   38.3539   34.7446 H   0  0  0  0  0  0  0  0  0  0  0  0
   16.7562   34.1785   32.4622 H   0  0  0  0  0  0  0  0  0  0  0  0
   15.3531   35.7360   37.5140 H   0  0  0  0  0  0  0  0  0  0  0  0
   16.6347   34.5303   37.1416 H   0  0  0  0  0  0  0  0  0  0  0  0
  1  2  2  0
  1  3  1  0
  3  4  1  0
  4  5  1  0
  6  1  1  0
  7  6  1  0
  6  8  1  0
  8  9  1  0
  9 10  2  0
 11  9  1  0
 10 12  1  0
 13 11  2  0
 12 14  2  0
 14 13  1  0
 14 15  1  0
 15 16  1  0
 16 17  1  0
 16 18  1  0
 18 19  2  0
 20 18  1  0
 19 21  1  0
 22 20  2  0
 20 23  1  0
 21 24  1  0
 21 25  2  0
 25 22  1  0
 23 26  1  0
 23 27  2  0
 24 28  1  0
 25 29  1  0
 28 29  1  0
  4 30  2  0
  4 31  1  0
 32 31  1  0
 32 33  1  0
 33 34  1  0
 33 35  1  0
 34 36  1  0
 35 37  1  0
 35 38  1  0
 38 36  1  0
 36 39  1  0
 38 40  1  0
 41 39  1  0
 42 39  1  0
 43 41  2  0
 41 44  1  0
 45 42  2  0
 46 43  1  0
 44 47  2  0
 44 45  1  0
 48 46  2  0
 48 47  1  0
 47 49  1  0
  6 50  1  1
  7 51  1  0
  7 52  1  0
  8 53  1  0
  8 54  1  0
 10 55  1  0
 11 56  1  0
 12 57  1  0
 13 58  1  0
 16 59  1  6
 17 60  1  0
 17 61  1  0
 17 62  1  0
 19 63  1  0
 22 64  1  0
 28 65  1  0
 28 66  1  0
 32 67  1  0
 32 68  1  0
 33 69  1  0
 35 70  1  0
 36 71  1  0
 37 72  1  0
 38 73  1  0
 40 74  1  0
 42 75  1  0
 46 76  1  0
 49 77  1  0
 49 78  1  0
M  CHG  3   5  -1  23   1  26  -1
M  END
>  <EmbedRMS>  (392) 
0.0819828376297

$$$$

     RDKit          3D

 78 83  0  0  0  0  0  0  0  0999 V2000
   10.2805   43.7664   33.8250 C   0  0  0  0  0  0  0  0  0  0  0  0
   11.4111   43.5918   34.3667 O   0  0  0  0  0  0  0  0  0  0  0  0
    9.3619   42.7249   33.7347 O   0  0  0  0  0  0  0  0  0  0  0  0
    9.8900   41.2267   34.2944 P   0  0  0  0  0  0  0  0  0  0  0  0
   10.3728   41.4567   35.8839 O   0  0  0  0  0  0  0  0  0  0  0  0
    9.9460   45.0736   33.2113 C   0  0  1  0  0  0  0  0  0  0  0  0
   11.0267   46.0292   33.4709 N   0  0  0  0  0  0  0  0  0  0  0  0
    9.7540   44.8542   31.6950 C   0  0  0  0  0  0  0  0  0  0  0  0
    8.7957   45.8414   31.0851 C   0  0  0  0  0  0  0  0  0  0  0  0
    7.4091   45.6001   31.1010 C   0  0  0  0  0  0  0  0  0  0  0  0
    9.2824   46.9877   30.4395 C   0  0  0  0  0  0  0  0  0  0  0  0
    6.5257   46.4984   30.4856 C   0  0  0  0  0  0  0  0  0  0  0  0
    8.3997   47.8866   29.8305 C   0  0  0  0  0  0  0  0  0  0  0  0
    7.0179   47.6558   29.8471 C   0  0  0  0  0  0  0  0  0  0  0  0
    6.1858   48.5926   29.2124 O   0  0  0  0  0  0  0  0  0  0  0  0
    4.7558   48.5953   29.2239 C   0  0  1  0  0  0  0  0  0  0  0  0
    4.2119   49.0185   30.5937 C   0  0  0  0  0  0  0  0  0  0  0  0
    4.2114   49.5091   28.1386 C   0  0  0  0  0  0  0  0  0  0  0  0
    2.9812   49.1433   27.5385 C   0  0  0  0  0  0  0  0  0  0  0  0
    4.8888   50.6924   27.6766 C   0  0  0  0  0  0  0  0  0  0  0  0
    2.4859   49.9231   26.5023 C   0  0  0  0  0  0  0  0  0  0  0  0
    4.3421   51.4353   26.6057 C   0  0  0  0  0  0  0  0  0  0  0  0
    6.1159   51.1538   28.2629 N   0  0  0  0  0  0  0  0  0  0  0  0
    1.3230   49.7492   25.7766 O   0  0  0  0  0  0  0  0  0  0  0  0
    3.1396   51.0178   26.0527 C   0  0  0  0  0  0  0  0  0  0  0  0
    7.0970   51.6857   27.4583 O   0  0  0  0  0  0  0  0  0  0  0  0
    6.2088   51.2989   29.4985 O   0  0  0  0  0  0  0  0  0  0  0  0
    1.2435   50.8048   24.8092 C   0  0  0  0  0  0  0  0  0  0  0  0
    2.4234   51.5922   25.0202 O   0  0  0  0  0  0  0  0  0  0  0  0
    8.8127   40.1842   34.2128 O   0  0  0  0  0  0  0  0  0  0  0  0
   11.2414   40.7950   33.3705 O   0  0  0  0  0  0  0  0  0  0  0  0
   10.9178   40.6921   31.9983 C   0  0  0  0  0  0  0  0  0  0  0  0
   11.5175   39.3837   31.4423 C   0  0  0  0  0  0  0  0  0  0  0  0
   12.7507   39.0887   32.0753 O   0  0  0  0  0  0  0  0  0  0  0  0
   10.6027   38.1916   31.6659 C   0  0  0  0  0  0  0  0  0  0  0  0
   12.9384   37.6819   32.0278 C   0  0  0  0  0  0  0  0  0  0  0  0
    9.6371   38.0805   30.6470 O   0  0  0  0  0  0  0  0  0  0  0  0
   11.5780   37.0215   31.6935 C   0  0  0  0  0  0  0  0  0  0  0  0
   13.4844   37.2120   33.3242 N   0  0  0  0  0  0  0  0  0  0  0  0
   11.6095   36.3201   30.4679 O   0  0  0  0  0  0  0  0  0  0  0  0
   14.4797   36.3318   33.5730 C   0  0  0  0  0  0  0  0  0  0  0  0
   13.1135   37.6278   34.5691 C   0  0  0  0  0  0  0  0  0  0  0  0
   15.2073   35.6155   32.6742 N   0  0  0  0  0  0  0  0  0  0  0  0
   14.6754   36.2305   34.9184 C   0  0  0  0  0  0  0  0  0  0  0  0
   13.8213   37.0452   35.5785 N   0  0  0  0  0  0  0  0  0  0  0  0
   16.1640   34.7604   33.1549 C   0  0  0  0  0  0  0  0  0  0  0  0
   15.6524   35.3507   35.4132 C   0  0  0  0  0  0  0  0  0  0  0  0
   16.3794   34.6318   34.5043 N   0  0  0  0  0  0  0  0  0  0  0  0
   15.8999   35.1934   36.8091 N   0  0  0  0  0  0  0  0  0  0  0  0
    8.9996   45.4381   33.6723 H   0  0  0  0  0  0  0  0  0  0  0  0
   10.7765   46.9369   33.0160 H   0  0  0  0  0  0  0  0  0  0  0  0
   11.0503   46.2277   34.4984 H   0  0  0  0  0  0  0  0  0  0  0  0
   10.7412   44.9080   31.1837 H   0  0  0  0  0  0  0  0  0  0  0  0
    9.3646   43.8355   31.4712 H   0  0  0  0  0  0  0  0  0  0  0  0
    7.0154   44.7144   31.5845 H   0  0  0  0  0  0  0  0  0  0  0  0
   10.3463   47.1874   30.4048 H   0  0  0  0  0  0  0  0  0  0  0  0
    5.4691   46.2758   30.5140 H   0  0  0  0  0  0  0  0  0  0  0  0
    8.7919   48.7682   29.3391 H   0  0  0  0  0  0  0  0  0  0  0  0
    4.4033   47.5632   29.0067 H   0  0  0  0  0  0  0  0  0  0  0  0
    3.1046   48.9286   30.6046 H   0  0  0  0  0  0  0  0  0  0  0  0
    4.6174   48.3683   31.3951 H   0  0  0  0  0  0  0  0  0  0  0  0
    4.4812   50.0679   30.8269 H   0  0  0  0  0  0  0  0  0  0  0  0
    2.4319   48.2681   27.8626 H   0  0  0  0  0  0  0  0  0  0  0  0
    4.8307   52.3256   26.2311 H   0  0  0  0  0  0  0  0  0  0  0  0
    0.3360   51.4196   24.9853 H   0  0  0  0  0  0  0  0  0  0  0  0
    1.2418   50.3847   23.7816 H   0  0  0  0  0  0  0  0  0  0  0  0
    9.8290   40.7408   31.7625 H   0  0  0  0  0  0  0  0  0  0  0  0
   11.3950   41.5477   31.4741 H   0  0  0  0  0  0  0  0  0  0  0  0
   11.6982   39.5114   30.3500 H   0  0  0  0  0  0  0  0  0  0  0  0
   10.1117   38.2604   32.6660 H   0  0  0  0  0  0  0  0  0  0  0  0
   13.6767   37.4557   31.2267 H   0  0  0  0  0  0  0  0  0  0  0  0
    8.8960   38.6950   30.8873 H   0  0  0  0  0  0  0  0  0  0  0  0
   11.2791   36.3072   32.4922 H   0  0  0  0  0  0  0  0  0  0  0  0
   11.8828   36.9598   29.7589 H   0  0  0  0  0  0  0  0  0  0  0  0
   12.3300   38.3539   34.7446 H   0  0  0  0  0  0  0  0  0  0  0  0
   16.7561   34.1785   32.4621 H   0  0  0  0  0  0  0  0  0  0  0  0
   16.6347   34.5303   37.1416 H   0  0  0  0  0  0  0  0  0  0  0  0
   15.3531   35.7360   37.5140 H   0  0  0  0  0  0  0  0  0  0  0  0
  1  2  2  0
  1  3  1  0
  3  4  1  0
  4  5  1  0
  6  1  1  0
  7  6  1  0
  6  8  1  0
  8  9  1  0
  9 10  2  0
 11  9  1  0
 10 12  1  0
 13 11  2  0
 12 14  2  0
 14 13  1  0
 14 15  1  0
 15 16  1  0
 16 17  1  0
 16 18  1  0
 18 19  2  0
 20 18  1  0
 19 21  1  0
 22 20  2  0
 20 23  1  0
 21 24  1  0
 21 25  2  0
 25 22  1  0
 23 26  1  0
 23 27  2  0
 24 28  1  0
 25 29  1  0
 28 29  1  0
  4 30  2  0
  4 31  1  0
 32 31  1  0
 32 33  1  0
 33 34  1  0
 33 35  1  0
 34 36  1  0
 35 37  1  0
 35 38  1  0
 38 36  1  0
 36 39  1  0
 38 40  1  0
 41 39  1  0
 42 39  1  0
 43 41  2  0
 41 44  1  0
 45 42  2  0
 46 43  1  0
 44 47  2  0
 44 45  1  0
 48 46  2  0
 48 47  1  0
 47 49  1  0
  6 50  1  1
  7 51  1  0
  7 52  1  0
  8 53  1  0
  8 54  1  0
 10 55  1  0
 11 56  1  0
 12 57  1  0
 13 58  1  0
 16 59  1  6
 17 60  1  0
 17 61  1  0
 17 62  1  0
 19 63  1  0
 22 64  1  0
 28 65  1  0
 28 66  1  0
 32 67  1  0
 32 68  1  0
 33 69  1  0
 35 70  1  0
 36 71  1  0
 37 72  1  0
 38 73  1  0
 40 74  1  0
 42 75  1  0
 46 76  1  0
 49 77  1  0
 49 78  1  0
M  CHG  3   5  -1  23   1  26  -1
M  END
>  <EmbedRMS>  (393) 
0.081775991542

$$$$

     RDKit          3D

 78 83  0  0  0  0  0  0  0  0999 V2000
   10.2801   43.7668   33.8250 C   0  0  0  0  0  0  0  0  0  0  0  0
   11.4109   43.5923   34.3665 O   0  0  0  0  0  0  0  0  0  0  0  0
    9.3618   42.7251   33.7344 O   0  0  0  0  0  0  0  0  0  0  0  0
    9.8903   41.2266   34.2931 P   0  0  0  0  0  0  0  0  0  0  0  0
   10.3742   41.4564   35.8823 O   0  0  0  0  0  0  0  0  0  0  0  0
    9.9453   45.0740   33.2112 C   0  0  1  0  0  0  0  0  0  0  0  0
   11.0257   46.0300   33.4706 N   0  0  0  0  0  0  0  0  0  0  0  0
    9.7532   44.8544   31.6950 C   0  0  0  0  0  0  0  0  0  0  0  0
    8.7952   45.8415   31.0848 C   0  0  0  0  0  0  0  0  0  0  0  0
    7.4073   45.5990   31.0989 C   0  0  0  0  0  0  0  0  0  0  0  0
    9.2837   46.9876   30.4372 C   0  0  0  0  0  0  0  0  0  0  0  0
    6.5264   46.4990   30.4824 C   0  0  0  0  0  0  0  0  0  0  0  0
    8.4017   47.8869   29.8271 C   0  0  0  0  0  0  0  0  0  0  0  0
    7.0193   47.6531   29.8589 C   0  0  0  0  0  0  0  0  0  0  0  0
    6.1353   48.5487   29.2520 O   0  0  0  0  0  0  0  0  0  0  0  0
    5.6823   49.7599   29.8654 C   0  0  1  0  0  0  0  0  0  0  0  0
    4.6673   49.4737   30.9796 C   0  0  0  0  0  0  0  0  0  0  0  0
    6.8467   50.6764   30.2389 C   0  0  0  0  0  0  0  0  0  0  0  0
    7.3736   51.4846   29.2005 C   0  0  0  0  0  0  0  0  0  0  0  0
    7.4436   50.7581   31.5457 C   0  0  0  0  0  0  0  0  0  0  0  0
    8.4237   52.3463   29.4880 C   0  0  0  0  0  0  0  0  0  0  0  0
    8.5002   51.6632   31.7823 C   0  0  0  0  0  0  0  0  0  0  0  0
    7.0114   49.9424   32.6361 N   0  0  0  0  0  0  0  0  0  0  0  0
    9.0779   53.2169   28.6377 O   0  0  0  0  0  0  0  0  0  0  0  0
    8.9607   52.4347   30.7254 C   0  0  0  0  0  0  0  0  0  0  0  0
    6.5150   50.5461   33.7675 O   0  0  0  0  0  0  0  0  0  0  0  0
    7.3870   48.7547   32.7013 O   0  0  0  0  0  0  0  0  0  0  0  0
   10.0909   53.8953   29.3930 C   0  0  0  0  0  0  0  0  0  0  0  0
    9.9813   53.3658   30.7213 O   0  0  0  0  0  0  0  0  0  0  0  0
    8.8125   40.1845   34.2129 O   0  0  0  0  0  0  0  0  0  0  0  0
   11.2405   40.7949   33.3668 O   0  0  0  0  0  0  0  0  0  0  0  0
   10.9133   40.6867   31.9952 C   0  0  0  0  0  0  0  0  0  0  0  0
   11.5166   39.3787   31.4404 C   0  0  0  0  0  0  0  0  0  0  0  0
   12.7485   39.0849   32.0735 O   0  0  0  0  0  0  0  0  0  0  0  0
   10.6039   38.1884   31.6669 C   0  0  0  0  0  0  0  0  0  0  0  0
   12.9329   37.6776   32.0284 C   0  0  0  0  0  0  0  0  0  0  0  0
    9.6373   38.0938   30.6484 O   0  0  0  0  0  0  0  0  0  0  0  0
   11.5737   37.0141   31.7055 C   0  0  0  0  0  0  0  0  0  0  0  0
   13.4853   37.2120   33.3238 N   0  0  0  0  0  0  0  0  0  0  0  0
   11.6210   36.3379   30.4683 O   0  0  0  0  0  0  0  0  0  0  0  0
   14.4804   36.3319   33.5726 C   0  0  0  0  0  0  0  0  0  0  0  0
   13.1141   37.6275   34.5689 C   0  0  0  0  0  0  0  0  0  0  0  0
   15.2076   35.6152   32.6740 N   0  0  0  0  0  0  0  0  0  0  0  0
   14.6761   36.2306   34.9181 C   0  0  0  0  0  0  0  0  0  0  0  0
   13.8218   37.0451   35.5783 N   0  0  0  0  0  0  0  0  0  0  0  0
   16.1642   34.7600   33.1548 C   0  0  0  0  0  0  0  0  0  0  0  0
   15.6527   35.3506   35.4131 C   0  0  0  0  0  0  0  0  0  0  0  0
   16.3795   34.6315   34.5043 N   0  0  0  0  0  0  0  0  0  0  0  0
   15.9001   35.1933   36.8090 N   0  0  0  0  0  0  0  0  0  0  0  0
    8.9987   45.4385   33.6721 H   0  0  0  0  0  0  0  0  0  0  0  0
   11.0495   46.2283   34.4981 H   0  0  0  0  0  0  0  0  0  0  0  0
   10.7743   46.9378   33.0163 H   0  0  0  0  0  0  0  0  0  0  0  0
   10.7404   44.9077   31.1837 H   0  0  0  0  0  0  0  0  0  0  0  0
    9.3634   43.8357   31.4715 H   0  0  0  0  0  0  0  0  0  0  0  0
    7.0120   44.7136   31.5813 H   0  0  0  0  0  0  0  0  0  0  0  0
   10.3478   47.1853   30.4002 H   0  0  0  0  0  0  0  0  0  0  0  0
    5.4616   46.3046   30.4979 H   0  0  0  0  0  0  0  0  0  0  0  0
    8.7938   48.7632   29.3274 H   0  0  0  0  0  0  0  0  0  0  0  0
    5.0899   50.2975   29.0918 H   0  0  0  0  0  0  0  0  0  0  0  0
    3.7254   49.0921   30.5309 H   0  0  0  0  0  0  0  0  0  0  0  0
    5.0298   48.6944   31.6772 H   0  0  0  0  0  0  0  0  0  0  0  0
    4.4313   50.4038   31.5393 H   0  0  0  0  0  0  0  0  0  0  0  0
    6.9737   51.4446   28.1949 H   0  0  0  0  0  0  0  0  0  0  0  0
    8.9590   51.7452   32.7595 H   0  0  0  0  0  0  0  0  0  0  0  0
    9.8979   54.9885   29.3992 H   0  0  0  0  0  0  0  0  0  0  0  0
   11.0949   53.6744   28.9741 H   0  0  0  0  0  0  0  0  0  0  0  0
    9.8224   40.7224   31.7629 H   0  0  0  0  0  0  0  0  0  0  0  0
   11.3826   41.5438   31.4665 H   0  0  0  0  0  0  0  0  0  0  0  0
   11.6979   39.5036   30.3478 H   0  0  0  0  0  0  0  0  0  0  0  0
   10.1084   38.2786   32.6627 H   0  0  0  0  0  0  0  0  0  0  0  0
   13.6638   37.4473   31.2214 H   0  0  0  0  0  0  0  0  0  0  0  0
    8.9763   37.4190   30.9532 H   0  0  0  0  0  0  0  0  0  0  0  0
   11.2821   36.3054   32.5172 H   0  0  0  0  0  0  0  0  0  0  0  0
   10.8658   35.6935   30.4653 H   0  0  0  0  0  0  0  0  0  0  0  0
   12.3293   38.3523   34.7445 H   0  0  0  0  0  0  0  0  0  0  0  0
   16.7561   34.1778   32.4621 H   0  0  0  0  0  0  0  0  0  0  0  0
   16.6346   34.5300   37.1416 H   0  0  0  0  0  0  0  0  0  0  0  0
   15.3533   35.7361   37.5138 H   0  0  0  0  0  0  0  0  0  0  0  0
  1  2  2  0
  1  3  1  0
  3  4  1  0
  4  5  1  0
  6  1  1  0
  7  6  1  0
  6  8  1  0
  8  9  1  0
  9 10  2  0
 11  9  1  0
 10 12  1  0
 13 11  2  0
 12 14  2  0
 14 13  1  0
 14 15  1  0
 15 16  1  0
 16 17  1  0
 16 18  1  0
 18 19  2  0
 20 18  1  0
 19 21  1  0
 22 20  2  0
 20 23  1  0
 21 24  1  0
 21 25  2  0
 25 22  1  0
 23 26  1  0
 23 27  2  0
 24 28  1  0
 25 29  1  0
 28 29  1  0
  4 30  2  0
  4 31  1  0
 32 31  1  0
 32 33  1  0
 33 34  1  0
 33 35  1  0
 34 36  1  0
 35 37  1  0
 35 38  1  0
 38 36  1  0
 36 39  1  0
 38 40  1  0
 41 39  1  0
 42 39  1  0
 43 41  2  0
 41 44  1  0
 45 42  2  0
 46 43  1  0
 44 47  2  0
 44 45  1  0
 48 46  2  0
 48 47  1  0
 47 49  1  0
  6 50  1  1
  7 51  1  0
  7 52  1  0
  8 53  1  0
  8 54  1  0
 10 55  1  0
 11 56  1  0
 12 57  1  0
 13 58  1  0
 16 59  1  6
 17 60  1  0
 17 61  1  0
 17 62  1  0
 19 63  1  0
 22 64  1  0
 28 65  1  0
 28 66  1  0
 32 67  1  0
 32 68  1  0
 33 69  1  0
 35 70  1  0
 36 71  1  0
 37 72  1  0
 38 73  1  0
 40 74  1  0
 42 75  1  0
 46 76  1  0
 49 77  1  0
 49 78  1  0
M  CHG  3   5  -1  23   1  26  -1
M  END
>  <EmbedRMS>  (394) 
0.0825094709474

$$$$

     RDKit          3D

 78 83  0  0  0  0  0  0  0  0999 V2000
   10.2803   43.7665   33.8250 C   0  0  0  0  0  0  0  0  0  0  0  0
   11.4110   43.5920   34.3666 O   0  0  0  0  0  0  0  0  0  0  0  0
    9.3618   42.7250   33.7346 O   0  0  0  0  0  0  0  0  0  0  0  0
    9.8899   41.2267   34.2940 P   0  0  0  0  0  0  0  0  0  0  0  0
   10.3735   41.4566   35.8832 O   0  0  0  0  0  0  0  0  0  0  0  0
    9.9458   45.0737   33.2112 C   0  0  1  0  0  0  0  0  0  0  0  0
   11.0265   46.0294   33.4706 N   0  0  0  0  0  0  0  0  0  0  0  0
    9.7535   44.8539   31.6950 C   0  0  0  0  0  0  0  0  0  0  0  0
    8.7955   45.8410   31.0847 C   0  0  0  0  0  0  0  0  0  0  0  0
    7.4087   45.6001   31.1001 C   0  0  0  0  0  0  0  0  0  0  0  0
    9.2831   46.9874   30.4394 C   0  0  0  0  0  0  0  0  0  0  0  0
    6.5283   46.5005   30.4847 C   0  0  0  0  0  0  0  0  0  0  0  0
    8.4027   47.8887   29.8299 C   0  0  0  0  0  0  0  0  0  0  0  0
    7.0135   47.6521   29.8502 C   0  0  0  0  0  0  0  0  0  0  0  0
    6.0850   48.5291   29.2653 O   0  0  0  0  0  0  0  0  0  0  0  0
    6.4031   49.7821   28.6554 C   0  0  1  0  0  0  0  0  0  0  0  0
    5.1812   50.3245   27.9149 C   0  0  0  0  0  0  0  0  0  0  0  0
    6.9143   50.8016   29.6634 C   0  0  0  0  0  0  0  0  0  0  0  0
    7.8859   51.7267   29.2103 C   0  0  0  0  0  0  0  0  0  0  0  0
    6.5026   50.8387   31.0419 C   0  0  0  0  0  0  0  0  0  0  0  0
    8.4304   52.6218   30.1209 C   0  0  0  0  0  0  0  0  0  0  0  0
    7.1063   51.7628   31.9244 C   0  0  0  0  0  0  0  0  0  0  0  0
    5.5020   49.9540   31.5692 N   0  0  0  0  0  0  0  0  0  0  0  0
    9.3876   53.5938   29.9023 O   0  0  0  0  0  0  0  0  0  0  0  0
    8.0603   52.6363   31.4212 C   0  0  0  0  0  0  0  0  0  0  0  0
    5.6502   49.4344   32.8345 O   0  0  0  0  0  0  0  0  0  0  0  0
    4.4034   49.8269   30.9924 O   0  0  0  0  0  0  0  0  0  0  0  0
    9.6325   54.2613   31.1478 C   0  0  0  0  0  0  0  0  0  0  0  0
    8.7640   53.6187   32.0910 O   0  0  0  0  0  0  0  0  0  0  0  0
    8.8123   40.1844   34.2134 O   0  0  0  0  0  0  0  0  0  0  0  0
   11.2402   40.7944   33.3688 O   0  0  0  0  0  0  0  0  0  0  0  0
   10.9142   40.6898   31.9971 C   0  0  0  0  0  0  0  0  0  0  0  0
   11.5260   39.3884   31.4376 C   0  0  0  0  0  0  0  0  0  0  0  0
   12.7504   39.0888   32.0816 O   0  0  0  0  0  0  0  0  0  0  0  0
   10.6114   38.1909   31.6461 C   0  0  0  0  0  0  0  0  0  0  0  0
   12.9357   37.6812   32.0303 C   0  0  0  0  0  0  0  0  0  0  0  0
    9.6145   38.0858   30.6534 O   0  0  0  0  0  0  0  0  0  0  0  0
   11.5769   37.0148   31.7012 C   0  0  0  0  0  0  0  0  0  0  0  0
   13.4849   37.2112   33.3247 N   0  0  0  0  0  0  0  0  0  0  0  0
   11.6193   36.3261   30.4724 O   0  0  0  0  0  0  0  0  0  0  0  0
   14.4802   36.3313   33.5730 C   0  0  0  0  0  0  0  0  0  0  0  0
   13.1141   37.6268   34.5698 C   0  0  0  0  0  0  0  0  0  0  0  0
   15.2075   35.6151   32.6741 N   0  0  0  0  0  0  0  0  0  0  0  0
   14.6761   36.2300   34.9184 C   0  0  0  0  0  0  0  0  0  0  0  0
   13.8220   37.0445   35.5789 N   0  0  0  0  0  0  0  0  0  0  0  0
   16.1642   34.7600   33.1547 C   0  0  0  0  0  0  0  0  0  0  0  0
   15.6529   35.3503   35.4131 C   0  0  0  0  0  0  0  0  0  0  0  0
   16.3798   34.6314   34.5042 N   0  0  0  0  0  0  0  0  0  0  0  0
   15.9004   35.1930   36.8090 N   0  0  0  0  0  0  0  0  0  0  0  0
    8.9994   45.4383   33.6722 H   0  0  0  0  0  0  0  0  0  0  0  0
   10.7760   46.9370   33.0157 H   0  0  0  0  0  0  0  0  0  0  0  0
   11.0502   46.2279   34.4979 H   0  0  0  0  0  0  0  0  0  0  0  0
    9.3635   43.8352   31.4716 H   0  0  0  0  0  0  0  0  0  0  0  0
   10.7406   44.9069   31.1836 H   0  0  0  0  0  0  0  0  0  0  0  0
    7.0130   44.7160   31.5846 H   0  0  0  0  0  0  0  0  0  0  0  0
   10.3473   47.1857   30.4058 H   0  0  0  0  0  0  0  0  0  0  0  0
    5.4636   46.3057   30.5073 H   0  0  0  0  0  0  0  0  0  0  0  0
    8.8155   48.7619   29.3451 H   0  0  0  0  0  0  0  0  0  0  0  0
    7.1811   49.5960   27.8811 H   0  0  0  0  0  0  0  0  0  0  0  0
    4.3589   50.5728   28.6151 H   0  0  0  0  0  0  0  0  0  0  0  0
    4.8142   49.5659   27.1915 H   0  0  0  0  0  0  0  0  0  0  0  0
    5.4545   51.2419   27.3508 H   0  0  0  0  0  0  0  0  0  0  0  0
    8.2194   51.7372   28.1801 H   0  0  0  0  0  0  0  0  0  0  0  0
    6.8250   51.8103   32.9685 H   0  0  0  0  0  0  0  0  0  0  0  0
    9.3766   55.3382   31.0633 H   0  0  0  0  0  0  0  0  0  0  0  0
   10.6922   54.1304   31.4518 H   0  0  0  0  0  0  0  0  0  0  0  0
    9.8232   40.7190   31.7645 H   0  0  0  0  0  0  0  0  0  0  0  0
   11.3777   41.5525   31.4723 H   0  0  0  0  0  0  0  0  0  0  0  0
   11.7283   39.5311   30.3515 H   0  0  0  0  0  0  0  0  0  0  0  0
   10.1127   38.2734   32.6377 H   0  0  0  0  0  0  0  0  0  0  0  0
   13.6692   37.4566   31.2242 H   0  0  0  0  0  0  0  0  0  0  0  0
   10.0533   38.1118   29.7636 H   0  0  0  0  0  0  0  0  0  0  0  0
   11.2607   36.3148   32.5102 H   0  0  0  0  0  0  0  0  0  0  0  0
   12.1496   35.5023   30.6324 H   0  0  0  0  0  0  0  0  0  0  0  0
   12.3301   38.3523   34.7455 H   0  0  0  0  0  0  0  0  0  0  0  0
   16.7563   34.1781   32.4619 H   0  0  0  0  0  0  0  0  0  0  0  0
   15.3536   35.7357   37.5139 H   0  0  0  0  0  0  0  0  0  0  0  0
   16.6351   34.5298   37.1416 H   0  0  0  0  0  0  0  0  0  0  0  0
  1  2  2  0
  1  3  1  0
  3  4  1  0
  4  5  1  0
  6  1  1  0
  7  6  1  0
  6  8  1  0
  8  9  1  0
  9 10  2  0
 11  9  1  0
 10 12  1  0
 13 11  2  0
 12 14  2  0
 14 13  1  0
 14 15  1  0
 15 16  1  0
 16 17  1  0
 16 18  1  0
 18 19  2  0
 20 18  1  0
 19 21  1  0
 22 20  2  0
 20 23  1  0
 21 24  1  0
 21 25  2  0
 25 22  1  0
 23 26  1  0
 23 27  2  0
 24 28  1  0
 25 29  1  0
 28 29  1  0
  4 30  2  0
  4 31  1  0
 32 31  1  0
 32 33  1  0
 33 34  1  0
 33 35  1  0
 34 36  1  0
 35 37  1  0
 35 38  1  0
 38 36  1  0
 36 39  1  0
 38 40  1  0
 41 39  1  0
 42 39  1  0
 43 41  2  0
 41 44  1  0
 45 42  2  0
 46 43  1  0
 44 47  2  0
 44 45  1  0
 48 46  2  0
 48 47  1  0
 47 49  1  0
  6 50  1  1
  7 51  1  0
  7 52  1  0
  8 53  1  0
  8 54  1  0
 10 55  1  0
 11 56  1  0
 12 57  1  0
 13 58  1  0
 16 59  1  6
 17 60  1  0
 17 61  1  0
 17 62  1  0
 19 63  1  0
 22 64  1  0
 28 65  1  0
 28 66  1  0
 32 67  1  0
 32 68  1  0
 33 69  1  0
 35 70  1  0
 36 71  1  0
 37 72  1  0
 38 73  1  0
 40 74  1  0
 42 75  1  0
 46 76  1  0
 49 77  1  0
 49 78  1  0
M  CHG  3   5  -1  23   1  26  -1
M  END
>  <EmbedRMS>  (395) 
0.0814603070568

$$$$

     RDKit          3D

 78 83  0  0  0  0  0  0  0  0999 V2000
   10.2837   43.7629   33.8276 C   0  0  0  0  0  0  0  0  0  0  0  0
   11.4102   43.5866   34.3766 O   0  0  0  0  0  0  0  0  0  0  0  0
    9.3631   42.7237   33.7352 O   0  0  0  0  0  0  0  0  0  0  0  0
    9.8898   41.2249   34.2934 P   0  0  0  0  0  0  0  0  0  0  0  0
   10.3734   41.4544   35.8829 O   0  0  0  0  0  0  0  0  0  0  0  0
    9.9545   45.0704   33.2066 C   0  0  1  0  0  0  0  0  0  0  0  0
   11.0194   46.0486   33.4571 N   0  0  0  0  0  0  0  0  0  0  0  0
    9.7498   44.8516   31.6926 C   0  0  0  0  0  0  0  0  0  0  0  0
    8.7938   45.8427   31.0876 C   0  0  0  0  0  0  0  0  0  0  0  0
    7.4062   45.5994   31.0978 C   0  0  0  0  0  0  0  0  0  0  0  0
    9.2835   46.9892   30.4426 C   0  0  0  0  0  0  0  0  0  0  0  0
    6.5259   46.4992   30.4806 C   0  0  0  0  0  0  0  0  0  0  0  0
    8.4022   47.8868   29.8286 C   0  0  0  0  0  0  0  0  0  0  0  0
    7.0206   47.6553   29.8582 C   0  0  0  0  0  0  0  0  0  0  0  0
    6.1560   48.5694   29.2476 O   0  0  0  0  0  0  0  0  0  0  0  0
    5.3613   49.5382   29.9459 C   0  0  1  0  0  0  0  0  0  0  0  0
    4.2820   48.8841   30.8164 C   0  0  0  0  0  0  0  0  0  0  0  0
    6.2294   50.5129   30.7370 C   0  0  0  0  0  0  0  0  0  0  0  0
    6.9540   50.0428   31.8631 C   0  0  0  0  0  0  0  0  0  0  0  0
    6.3887   51.8814   30.3344 C   0  0  0  0  0  0  0  0  0  0  0  0
    7.8234   50.9117   32.5081 C   0  0  0  0  0  0  0  0  0  0  0  0
    7.2984   52.7162   31.0220 C   0  0  0  0  0  0  0  0  0  0  0  0
    5.6246   52.4424   29.2584 N   0  0  0  0  0  0  0  0  0  0  0  0
    8.6316   50.6630   33.6007 O   0  0  0  0  0  0  0  0  0  0  0  0
    7.9928   52.1900   32.1021 C   0  0  0  0  0  0  0  0  0  0  0  0
    4.2502   52.4282   29.3204 O   0  0  0  0  0  0  0  0  0  0  0  0
    6.1831   53.1770   28.4179 O   0  0  0  0  0  0  0  0  0  0  0  0
    9.3542   51.8653   33.8988 C   0  0  0  0  0  0  0  0  0  0  0  0
    8.9156   52.8155   32.9182 O   0  0  0  0  0  0  0  0  0  0  0  0
    8.8115   40.1835   34.2126 O   0  0  0  0  0  0  0  0  0  0  0  0
   11.2402   40.7937   33.3673 O   0  0  0  0  0  0  0  0  0  0  0  0
   10.9134   40.6864   31.9955 C   0  0  0  0  0  0  0  0  0  0  0  0
   11.5166   39.3786   31.4404 C   0  0  0  0  0  0  0  0  0  0  0  0
   12.7486   39.0849   32.0734 O   0  0  0  0  0  0  0  0  0  0  0  0
   10.6039   38.1883   31.6669 C   0  0  0  0  0  0  0  0  0  0  0  0
   12.9329   37.6775   32.0284 C   0  0  0  0  0  0  0  0  0  0  0  0
    9.6373   38.0938   30.6484 O   0  0  0  0  0  0  0  0  0  0  0  0
   11.5737   37.0140   31.7055 C   0  0  0  0  0  0  0  0  0  0  0  0
   13.4853   37.2120   33.3238 N   0  0  0  0  0  0  0  0  0  0  0  0
   11.6210   36.3379   30.4683 O   0  0  0  0  0  0  0  0  0  0  0  0
   14.4804   36.3319   33.5726 C   0  0  0  0  0  0  0  0  0  0  0  0
   13.1141   37.6275   34.5689 C   0  0  0  0  0  0  0  0  0  0  0  0
   15.2076   35.6152   32.6740 N   0  0  0  0  0  0  0  0  0  0  0  0
   14.6761   36.2306   34.9181 C   0  0  0  0  0  0  0  0  0  0  0  0
   13.8218   37.0451   35.5783 N   0  0  0  0  0  0  0  0  0  0  0  0
   16.1642   34.7600   33.1548 C   0  0  0  0  0  0  0  0  0  0  0  0
   15.6527   35.3507   35.4131 C   0  0  0  0  0  0  0  0  0  0  0  0
   16.3795   34.6315   34.5043 N   0  0  0  0  0  0  0  0  0  0  0  0
   15.9001   35.1933   36.8090 N   0  0  0  0  0  0  0  0  0  0  0  0
    9.0095   45.4353   33.6673 H   0  0  0  0  0  0  0  0  0  0  0  0
   11.1126   46.2003   34.4883 H   0  0  0  0  0  0  0  0  0  0  0  0
   11.9346   45.6938   33.0931 H   0  0  0  0  0  0  0  0  0  0  0  0
    9.3508   43.8351   31.4763 H   0  0  0  0  0  0  0  0  0  0  0  0
   10.7301   44.8934   31.1678 H   0  0  0  0  0  0  0  0  0  0  0  0
    7.0106   44.7105   31.5736 H   0  0  0  0  0  0  0  0  0  0  0  0
   10.3475   47.1889   30.4125 H   0  0  0  0  0  0  0  0  0  0  0  0
    5.4648   46.2891   30.4792 H   0  0  0  0  0  0  0  0  0  0  0  0
    8.7910   48.7713   29.3402 H   0  0  0  0  0  0  0  0  0  0  0  0
    4.8112   50.0801   29.1548 H   0  0  0  0  0  0  0  0  0  0  0  0
    4.7212   48.3128   31.6587 H   0  0  0  0  0  0  0  0  0  0  0  0
    3.6703   48.1929   30.1988 H   0  0  0  0  0  0  0  0  0  0  0  0
    3.6124   49.6656   31.2347 H   0  0  0  0  0  0  0  0  0  0  0  0
    6.8657   49.0254   32.2183 H   0  0  0  0  0  0  0  0  0  0  0  0
    7.4403   53.7503   30.7351 H   0  0  0  0  0  0  0  0  0  0  0  0
    9.1008   52.2226   34.9189 H   0  0  0  0  0  0  0  0  0  0  0  0
   10.4463   51.6909   33.8019 H   0  0  0  0  0  0  0  0  0  0  0  0
    9.8226   40.7225   31.7629 H   0  0  0  0  0  0  0  0  0  0  0  0
   11.3831   41.5438   31.4675 H   0  0  0  0  0  0  0  0  0  0  0  0
   11.6978   39.5037   30.3478 H   0  0  0  0  0  0  0  0  0  0  0  0
   10.1084   38.2786   32.6626 H   0  0  0  0  0  0  0  0  0  0  0  0
   13.6638   37.4471   31.2214 H   0  0  0  0  0  0  0  0  0  0  0  0
    8.9763   37.4190   30.9532 H   0  0  0  0  0  0  0  0  0  0  0  0
   11.2821   36.3053   32.5171 H   0  0  0  0  0  0  0  0  0  0  0  0
   10.8658   35.6935   30.4652 H   0  0  0  0  0  0  0  0  0  0  0  0
   12.3293   38.3523   34.7444 H   0  0  0  0  0  0  0  0  0  0  0  0
   16.7561   34.1778   32.4621 H   0  0  0  0  0  0  0  0  0  0  0  0
   16.6345   34.5300   37.1416 H   0  0  0  0  0  0  0  0  0  0  0  0
   15.3533   35.7361   37.5138 H   0  0  0  0  0  0  0  0  0  0  0  0
  1  2  2  0
  1  3  1  0
  3  4  1  0
  4  5  1  0
  6  1  1  0
  7  6  1  0
  6  8  1  0
  8  9  1  0
  9 10  2  0
 11  9  1  0
 10 12  1  0
 13 11  2  0
 12 14  2  0
 14 13  1  0
 14 15  1  0
 15 16  1  0
 16 17  1  0
 16 18  1  0
 18 19  2  0
 20 18  1  0
 19 21  1  0
 22 20  2  0
 20 23  1  0
 21 24  1  0
 21 25  2  0
 25 22  1  0
 23 26  1  0
 23 27  2  0
 24 28  1  0
 25 29  1  0
 28 29  1  0
  4 30  2  0
  4 31  1  0
 32 31  1  0
 32 33  1  0
 33 34  1  0
 33 35  1  0
 34 36  1  0
 35 37  1  0
 35 38  1  0
 38 36  1  0
 36 39  1  0
 38 40  1  0
 41 39  1  0
 42 39  1  0
 43 41  2  0
 41 44  1  0
 45 42  2  0
 46 43  1  0
 44 47  2  0
 44 45  1  0
 48 46  2  0
 48 47  1  0
 47 49  1  0
  6 50  1  1
  7 51  1  0
  7 52  1  0
  8 53  1  0
  8 54  1  0
 10 55  1  0
 11 56  1  0
 12 57  1  0
 13 58  1  0
 16 59  1  6
 17 60  1  0
 17 61  1  0
 17 62  1  0
 19 63  1  0
 22 64  1  0
 28 65  1  0
 28 66  1  0
 32 67  1  0
 32 68  1  0
 33 69  1  0
 35 70  1  0
 36 71  1  0
 37 72  1  0
 38 73  1  0
 40 74  1  0
 42 75  1  0
 46 76  1  0
 49 77  1  0
 49 78  1  0
M  CHG  3   5  -1  23   1  26  -1
M  END
>  <EmbedRMS>  (396) 
0.0835320691055

$$$$

     RDKit          3D

 78 83  0  0  0  0  0  0  0  0999 V2000
   10.2834   43.7662   33.8257 C   0  0  0  0  0  0  0  0  0  0  0  0
   11.4102   43.5929   34.3752 O   0  0  0  0  0  0  0  0  0  0  0  0
    9.3635   42.7257   33.7352 O   0  0  0  0  0  0  0  0  0  0  0  0
    9.8899   41.2270   34.2947 P   0  0  0  0  0  0  0  0  0  0  0  0
   10.3732   41.4562   35.8841 O   0  0  0  0  0  0  0  0  0  0  0  0
    9.9548   45.0696   33.2036 C   0  0  1  0  0  0  0  0  0  0  0  0
   11.0275   46.0322   33.4760 N   0  0  0  0  0  0  0  0  0  0  0  0
    9.7472   44.8484   31.6876 C   0  0  0  0  0  0  0  0  0  0  0  0
    8.7926   45.8411   31.0847 C   0  0  0  0  0  0  0  0  0  0  0  0
    7.4061   45.6010   31.0991 C   0  0  0  0  0  0  0  0  0  0  0  0
    9.2817   46.9876   30.4419 C   0  0  0  0  0  0  0  0  0  0  0  0
    6.5243   46.5004   30.4841 C   0  0  0  0  0  0  0  0  0  0  0  0
    8.4004   47.8874   29.8318 C   0  0  0  0  0  0  0  0  0  0  0  0
    7.0180   47.6581   29.8469 C   0  0  0  0  0  0  0  0  0  0  0  0
    6.1873   48.5967   29.2123 O   0  0  0  0  0  0  0  0  0  0  0  0
    4.7572   48.6011   29.2257 C   0  0  1  0  0  0  0  0  0  0  0  0
    4.2365   49.0479   30.5986 C   0  0  0  0  0  0  0  0  0  0  0  0
    4.2632   49.5430   28.1419 C   0  0  0  0  0  0  0  0  0  0  0  0
    4.6757   50.8985   28.1847 C   0  0  0  0  0  0  0  0  0  0  0  0
    3.3649   49.1200   27.1053 C   0  0  0  0  0  0  0  0  0  0  0  0
    4.1597   51.7808   27.2446 C   0  0  0  0  0  0  0  0  0  0  0  0
    2.8584   50.0670   26.1876 C   0  0  0  0  0  0  0  0  0  0  0  0
    2.9763   47.7478   26.9538 N   0  0  0  0  0  0  0  0  0  0  0  0
    4.4105   53.1325   27.1067 O   0  0  0  0  0  0  0  0  0  0  0  0
    3.2847   51.3841   26.2924 C   0  0  0  0  0  0  0  0  0  0  0  0
    1.6707   47.4421   26.6468 O   0  0  0  0  0  0  0  0  0  0  0  0
    3.8497   46.8669   26.8143 O   0  0  0  0  0  0  0  0  0  0  0  0
    3.6425   53.6137   25.9952 C   0  0  0  0  0  0  0  0  0  0  0  0
    2.9386   52.4647   25.5041 O   0  0  0  0  0  0  0  0  0  0  0  0
    8.8120   40.1851   34.2132 O   0  0  0  0  0  0  0  0  0  0  0  0
   11.2403   40.7947   33.3700 O   0  0  0  0  0  0  0  0  0  0  0  0
   10.9144   40.6914   31.9982 C   0  0  0  0  0  0  0  0  0  0  0  0
   11.5270   39.3912   31.4385 C   0  0  0  0  0  0  0  0  0  0  0  0
   12.7520   39.0911   32.0836 O   0  0  0  0  0  0  0  0  0  0  0  0
   10.6113   38.1932   31.6451 C   0  0  0  0  0  0  0  0  0  0  0  0
   12.9413   37.6838   32.0297 C   0  0  0  0  0  0  0  0  0  0  0  0
    9.6064   38.0878   30.6599 O   0  0  0  0  0  0  0  0  0  0  0  0
   11.5822   37.0198   31.6877 C   0  0  0  0  0  0  0  0  0  0  0  0
   13.4840   37.2104   33.3254 N   0  0  0  0  0  0  0  0  0  0  0  0
   11.6179   36.3072   30.4690 O   0  0  0  0  0  0  0  0  0  0  0  0
   14.4797   36.3309   33.5738 C   0  0  0  0  0  0  0  0  0  0  0  0
   13.1136   37.6269   34.5702 C   0  0  0  0  0  0  0  0  0  0  0  0
   15.2074   35.6152   32.6747 N   0  0  0  0  0  0  0  0  0  0  0  0
   14.6756   36.2298   34.9190 C   0  0  0  0  0  0  0  0  0  0  0  0
   13.8217   37.0445   35.5793 N   0  0  0  0  0  0  0  0  0  0  0  0
   16.1643   34.7603   33.1551 C   0  0  0  0  0  0  0  0  0  0  0  0
   15.6528   35.3503   35.4136 C   0  0  0  0  0  0  0  0  0  0  0  0
   16.3798   34.6316   34.5046 N   0  0  0  0  0  0  0  0  0  0  0  0
   15.9004   35.1930   36.8094 N   0  0  0  0  0  0  0  0  0  0  0  0
    9.0122   45.4318   33.6713 H   0  0  0  0  0  0  0  0  0  0  0  0
   11.8909   45.7658   32.9477 H   0  0  0  0  0  0  0  0  0  0  0  0
   10.7262   46.9688   33.1215 H   0  0  0  0  0  0  0  0  0  0  0  0
   10.7236   44.8824   31.1558 H   0  0  0  0  0  0  0  0  0  0  0  0
    9.3426   43.8332   31.4759 H   0  0  0  0  0  0  0  0  0  0  0  0
    7.0109   44.7146   31.5801 H   0  0  0  0  0  0  0  0  0  0  0  0
   10.3460   47.1857   30.4096 H   0  0  0  0  0  0  0  0  0  0  0  0
    5.4682   46.2768   30.5103 H   0  0  0  0  0  0  0  0  0  0  0  0
    8.7944   48.7687   29.3415 H   0  0  0  0  0  0  0  0  0  0  0  0
    4.3816   47.5774   29.0466 H   0  0  0  0  0  0  0  0  0  0  0  0
    4.6663   50.0301   30.8865 H   0  0  0  0  0  0  0  0  0  0  0  0
    3.1285   49.1285   30.5785 H   0  0  0  0  0  0  0  0  0  0  0  0
    4.5137   48.3101   31.3789 H   0  0  0  0  0  0  0  0  0  0  0  0
    5.3675   51.2570   28.9361 H   0  0  0  0  0  0  0  0  0  0  0  0
    2.1750   49.7772   25.3998 H   0  0  0  0  0  0  0  0  0  0  0  0
    2.9227   54.3887   26.3326 H   0  0  0  0  0  0  0  0  0  0  0  0
    4.3152   54.0159   25.2090 H   0  0  0  0  0  0  0  0  0  0  0  0
   11.3777   41.5549   31.4744 H   0  0  0  0  0  0  0  0  0  0  0  0
    9.8235   40.7201   31.7654 H   0  0  0  0  0  0  0  0  0  0  0  0
   11.7312   39.5363   30.3532 H   0  0  0  0  0  0  0  0  0  0  0  0
   10.1203   38.2696   32.6410 H   0  0  0  0  0  0  0  0  0  0  0  0
   13.6850   37.4639   31.2321 H   0  0  0  0  0  0  0  0  0  0  0  0
   10.0251   38.1793   29.7654 H   0  0  0  0  0  0  0  0  0  0  0  0
   11.2757   36.3135   32.4907 H   0  0  0  0  0  0  0  0  0  0  0  0
   11.9838   36.9111   29.7708 H   0  0  0  0  0  0  0  0  0  0  0  0
   12.3307   38.3537   34.7458 H   0  0  0  0  0  0  0  0  0  0  0  0
   16.7566   34.1786   32.4623 H   0  0  0  0  0  0  0  0  0  0  0  0
   15.3535   35.7355   37.5144 H   0  0  0  0  0  0  0  0  0  0  0  0
   16.6353   34.5301   37.1419 H   0  0  0  0  0  0  0  0  0  0  0  0
  1  2  2  0
  1  3  1  0
  3  4  1  0
  4  5  1  0
  6  1  1  0
  7  6  1  0
  6  8  1  0
  8  9  1  0
  9 10  2  0
 11  9  1  0
 10 12  1  0
 13 11  2  0
 12 14  2  0
 14 13  1  0
 14 15  1  0
 15 16  1  0
 16 17  1  0
 16 18  1  0
 18 19  2  0
 20 18  1  0
 19 21  1  0
 22 20  2  0
 20 23  1  0
 21 24  1  0
 21 25  2  0
 25 22  1  0
 23 26  1  0
 23 27  2  0
 24 28  1  0
 25 29  1  0
 28 29  1  0
  4 30  2  0
  4 31  1  0
 32 31  1  0
 32 33  1  0
 33 34  1  0
 33 35  1  0
 34 36  1  0
 35 37  1  0
 35 38  1  0
 38 36  1  0
 36 39  1  0
 38 40  1  0
 41 39  1  0
 42 39  1  0
 43 41  2  0
 41 44  1  0
 45 42  2  0
 46 43  1  0
 44 47  2  0
 44 45  1  0
 48 46  2  0
 48 47  1  0
 47 49  1  0
  6 50  1  1
  7 51  1  0
  7 52  1  0
  8 53  1  0
  8 54  1  0
 10 55  1  0
 11 56  1  0
 12 57  1  0
 13 58  1  0
 16 59  1  6
 17 60  1  0
 17 61  1  0
 17 62  1  0
 19 63  1  0
 22 64  1  0
 28 65  1  0
 28 66  1  0
 32 67  1  0
 32 68  1  0
 33 69  1  0
 35 70  1  0
 36 71  1  0
 37 72  1  0
 38 73  1  0
 40 74  1  0
 42 75  1  0
 46 76  1  0
 49 77  1  0
 49 78  1  0
M  CHG  3   5  -1  23   1  26  -1
M  END
>  <EmbedRMS>  (397) 
0.0808018021452

$$$$

     RDKit          3D

 78 83  0  0  0  0  0  0  0  0999 V2000
   10.2835   43.7623   33.8273 C   0  0  0  0  0  0  0  0  0  0  0  0
   11.4102   43.5864   34.3759 O   0  0  0  0  0  0  0  0  0  0  0  0
    9.3627   42.7232   33.7358 O   0  0  0  0  0  0  0  0  0  0  0  0
    9.8897   41.2244   34.2938 P   0  0  0  0  0  0  0  0  0  0  0  0
   10.3719   41.4539   35.8834 O   0  0  0  0  0  0  0  0  0  0  0  0
    9.9547   45.0694   33.2058 C   0  0  1  0  0  0  0  0  0  0  0  0
   11.0198   46.0476   33.4557 N   0  0  0  0  0  0  0  0  0  0  0  0
    9.7501   44.8500   31.6919 C   0  0  0  0  0  0  0  0  0  0  0  0
    8.7944   45.8411   31.0861 C   0  0  0  0  0  0  0  0  0  0  0  0
    7.4075   45.6008   31.1000 C   0  0  0  0  0  0  0  0  0  0  0  0
    9.2835   46.9866   30.4411 C   0  0  0  0  0  0  0  0  0  0  0  0
    6.5253   46.5018   30.4871 C   0  0  0  0  0  0  0  0  0  0  0  0
    8.4021   47.8863   29.8310 C   0  0  0  0  0  0  0  0  0  0  0  0
    7.0194   47.6609   29.8532 C   0  0  0  0  0  0  0  0  0  0  0  0
    6.1875   48.6085   29.2345 O   0  0  0  0  0  0  0  0  0  0  0  0
    4.7643   48.6830   29.3520 C   0  0  1  0  0  0  0  0  0  0  0  0
    4.3688   49.1449   30.7609 C   0  0  0  0  0  0  0  0  0  0  0  0
    4.2401   49.6583   28.3133 C   0  0  0  0  0  0  0  0  0  0  0  0
    4.7411   50.9845   28.3148 C   0  0  0  0  0  0  0  0  0  0  0  0
    3.2249   49.2975   27.3669 C   0  0  0  0  0  0  0  0  0  0  0  0
    4.2039   51.8994   27.4181 C   0  0  0  0  0  0  0  0  0  0  0  0
    2.7044   50.2755   26.4897 C   0  0  0  0  0  0  0  0  0  0  0  0
    2.7339   47.9542   27.2672 N   0  0  0  0  0  0  0  0  0  0  0  0
    4.5294   53.2318   27.2511 O   0  0  0  0  0  0  0  0  0  0  0  0
    3.2250   51.5610   26.5476 C   0  0  0  0  0  0  0  0  0  0  0  0
    3.6107   46.9256   27.0114 O   0  0  0  0  0  0  0  0  0  0  0  0
    1.5084   47.7483   27.1413 O   0  0  0  0  0  0  0  0  0  0  0  0
    3.7009   53.7620   26.2070 C   0  0  0  0  0  0  0  0  0  0  0  0
    2.8830   52.6615   25.7856 O   0  0  0  0  0  0  0  0  0  0  0  0
    8.8117   40.1828   34.2114 O   0  0  0  0  0  0  0  0  0  0  0  0
   11.2415   40.7931   33.3698 O   0  0  0  0  0  0  0  0  0  0  0  0
   10.9181   40.6902   31.9973 C   0  0  0  0  0  0  0  0  0  0  0  0
   11.5169   39.3807   31.4411 C   0  0  0  0  0  0  0  0  0  0  0  0
   12.7491   39.0853   32.0730 O   0  0  0  0  0  0  0  0  0  0  0  0
   10.6026   38.1899   31.6667 C   0  0  0  0  0  0  0  0  0  0  0  0
   12.9326   37.6781   32.0278 C   0  0  0  0  0  0  0  0  0  0  0  0
    9.6396   38.0787   30.6453 O   0  0  0  0  0  0  0  0  0  0  0  0
   11.5724   37.0161   31.7058 C   0  0  0  0  0  0  0  0  0  0  0  0
   13.4854   37.2127   33.3232 N   0  0  0  0  0  0  0  0  0  0  0  0
   11.6196   36.3386   30.4694 O   0  0  0  0  0  0  0  0  0  0  0  0
   14.4807   36.3329   33.5723 C   0  0  0  0  0  0  0  0  0  0  0  0
   13.1137   37.6276   34.5682 C   0  0  0  0  0  0  0  0  0  0  0  0
   15.2077   35.6158   32.6739 N   0  0  0  0  0  0  0  0  0  0  0  0
   14.6756   36.2313   34.9179 C   0  0  0  0  0  0  0  0  0  0  0  0
   13.8211   37.0454   35.5778 N   0  0  0  0  0  0  0  0  0  0  0  0
   16.1638   34.7603   33.1551 C   0  0  0  0  0  0  0  0  0  0  0  0
   15.6521   35.3515   35.4131 C   0  0  0  0  0  0  0  0  0  0  0  0
   16.3790   34.6323   34.5046 N   0  0  0  0  0  0  0  0  0  0  0  0
   15.8993   35.1938   36.8089 N   0  0  0  0  0  0  0  0  0  0  0  0
    9.0103   45.4346   33.6666 H   0  0  0  0  0  0  0  0  0  0  0  0
   11.9343   45.6922   33.0907 H   0  0  0  0  0  0  0  0  0  0  0  0
   11.1129   46.2009   34.4867 H   0  0  0  0  0  0  0  0  0  0  0  0
    9.3517   43.8328   31.4760 H   0  0  0  0  0  0  0  0  0  0  0  0
   10.7305   44.8923   31.1674 H   0  0  0  0  0  0  0  0  0  0  0  0
    7.0125   44.7144   31.5813 H   0  0  0  0  0  0  0  0  0  0  0  0
   10.3479   47.1847   30.4077 H   0  0  0  0  0  0  0  0  0  0  0  0
    5.4685   46.2811   30.5150 H   0  0  0  0  0  0  0  0  0  0  0  0
    8.7956   48.7685   29.3419 H   0  0  0  0  0  0  0  0  0  0  0  0
    4.3262   47.6806   29.1957 H   0  0  0  0  0  0  0  0  0  0  0  0
    3.2703   49.2957   30.8207 H   0  0  0  0  0  0  0  0  0  0  0  0
    4.8806   50.0935   31.0245 H   0  0  0  0  0  0  0  0  0  0  0  0
    4.6520   48.3805   31.5128 H   0  0  0  0  0  0  0  0  0  0  0  0
    5.5173   51.2958   29.0032 H   0  0  0  0  0  0  0  0  0  0  0  0
    1.9365   50.0319   25.7671 H   0  0  0  0  0  0  0  0  0  0  0  0
    3.0653   54.5831   26.6007 H   0  0  0  0  0  0  0  0  0  0  0  0
    4.3277   54.1183   25.3627 H   0  0  0  0  0  0  0  0  0  0  0  0
   11.3957   41.5456   31.4732 H   0  0  0  0  0  0  0  0  0  0  0  0
    9.8293   40.7401   31.7618 H   0  0  0  0  0  0  0  0  0  0  0  0
   11.6968   39.5058   30.3487 H   0  0  0  0  0  0  0  0  0  0  0  0
   10.1082   38.2640   32.6645 H   0  0  0  0  0  0  0  0  0  0  0  0
   13.6632   37.4472   31.2206 H   0  0  0  0  0  0  0  0  0  0  0  0
    8.8980   38.6940   30.8819 H   0  0  0  0  0  0  0  0  0  0  0  0
   11.2821   36.3069   32.5177 H   0  0  0  0  0  0  0  0  0  0  0  0
   10.8500   35.7116   30.4584 H   0  0  0  0  0  0  0  0  0  0  0  0
   12.3280   38.3512   34.7436 H   0  0  0  0  0  0  0  0  0  0  0  0
   16.7551   34.1772   32.4628 H   0  0  0  0  0  0  0  0  0  0  0  0
   15.3527   35.7367   37.5135 H   0  0  0  0  0  0  0  0  0  0  0  0
   16.6342   34.5308   37.1411 H   0  0  0  0  0  0  0  0  0  0  0  0
  1  2  2  0
  1  3  1  0
  3  4  1  0
  4  5  1  0
  6  1  1  0
  7  6  1  0
  6  8  1  0
  8  9  1  0
  9 10  2  0
 11  9  1  0
 10 12  1  0
 13 11  2  0
 12 14  2  0
 14 13  1  0
 14 15  1  0
 15 16  1  0
 16 17  1  0
 16 18  1  0
 18 19  2  0
 20 18  1  0
 19 21  1  0
 22 20  2  0
 20 23  1  0
 21 24  1  0
 21 25  2  0
 25 22  1  0
 23 26  1  0
 23 27  2  0
 24 28  1  0
 25 29  1  0
 28 29  1  0
  4 30  2  0
  4 31  1  0
 32 31  1  0
 32 33  1  0
 33 34  1  0
 33 35  1  0
 34 36  1  0
 35 37  1  0
 35 38  1  0
 38 36  1  0
 36 39  1  0
 38 40  1  0
 41 39  1  0
 42 39  1  0
 43 41  2  0
 41 44  1  0
 45 42  2  0
 46 43  1  0
 44 47  2  0
 44 45  1  0
 48 46  2  0
 48 47  1  0
 47 49  1  0
  6 50  1  1
  7 51  1  0
  7 52  1  0
  8 53  1  0
  8 54  1  0
 10 55  1  0
 11 56  1  0
 12 57  1  0
 13 58  1  0
 16 59  1  6
 17 60  1  0
 17 61  1  0
 17 62  1  0
 19 63  1  0
 22 64  1  0
 28 65  1  0
 28 66  1  0
 32 67  1  0
 32 68  1  0
 33 69  1  0
 35 70  1  0
 36 71  1  0
 37 72  1  0
 38 73  1  0
 40 74  1  0
 42 75  1  0
 46 76  1  0
 49 77  1  0
 49 78  1  0
M  CHG  3   5  -1  23   1  26  -1
M  END
>  <EmbedRMS>  (398) 
0.0839461168066

$$$$

     RDKit          3D

 78 83  0  0  0  0  0  0  0  0999 V2000
   10.2805   43.7663   33.8250 C   0  0  0  0  0  0  0  0  0  0  0  0
   11.4111   43.5919   34.3668 O   0  0  0  0  0  0  0  0  0  0  0  0
    9.3622   42.7247   33.7343 O   0  0  0  0  0  0  0  0  0  0  0  0
    9.8904   41.2264   34.2937 P   0  0  0  0  0  0  0  0  0  0  0  0
   10.3732   41.4564   35.8832 O   0  0  0  0  0  0  0  0  0  0  0  0
    9.9459   45.0735   33.2112 C   0  0  1  0  0  0  0  0  0  0  0  0
   11.0266   46.0291   33.4706 N   0  0  0  0  0  0  0  0  0  0  0  0
    9.7536   44.8537   31.6949 C   0  0  0  0  0  0  0  0  0  0  0  0
    8.7955   45.8408   31.0847 C   0  0  0  0  0  0  0  0  0  0  0  0
    7.4090   45.6006   31.1009 C   0  0  0  0  0  0  0  0  0  0  0  0
    9.2827   46.9875   30.4400 C   0  0  0  0  0  0  0  0  0  0  0  0
    6.5286   46.5012   30.4860 C   0  0  0  0  0  0  0  0  0  0  0  0
    8.4025   47.8896   29.8308 C   0  0  0  0  0  0  0  0  0  0  0  0
    7.0129   47.6510   29.8468 C   0  0  0  0  0  0  0  0  0  0  0  0
    6.0789   48.5198   29.2575 O   0  0  0  0  0  0  0  0  0  0  0  0
    6.3798   49.7034   28.5120 C   0  0  1  0  0  0  0  0  0  0  0  0
    6.8570   49.3044   27.1067 C   0  0  0  0  0  0  0  0  0  0  0  0
    5.1525   50.6130   28.5390 C   0  0  0  0  0  0  0  0  0  0  0  0
    4.5340   51.0636   27.3388 C   0  0  0  0  0  0  0  0  0  0  0  0
    4.5734   50.9999   29.7980 C   0  0  0  0  0  0  0  0  0  0  0  0
    3.3883   51.8428   27.4288 C   0  0  0  0  0  0  0  0  0  0  0  0
    3.3967   51.7831   29.8218 C   0  0  0  0  0  0  0  0  0  0  0  0
    5.1497   50.5938   31.0517 N   0  0  0  0  0  0  0  0  0  0  0  0
    2.6329   52.3779   26.4030 O   0  0  0  0  0  0  0  0  0  0  0  0
    2.8424   52.1845   28.6163 C   0  0  0  0  0  0  0  0  0  0  0  0
    6.4981   50.7382   31.2804 O   0  0  0  0  0  0  0  0  0  0  0  0
    4.4076   50.2939   32.0098 O   0  0  0  0  0  0  0  0  0  0  0  0
    1.5426   53.1029   26.9877 C   0  0  0  0  0  0  0  0  0  0  0  0
    1.7144   52.9535   28.4034 O   0  0  0  0  0  0  0  0  0  0  0  0
    8.8129   40.1841   34.2124 O   0  0  0  0  0  0  0  0  0  0  0  0
   11.2419   40.7944   33.3695 O   0  0  0  0  0  0  0  0  0  0  0  0
   10.9186   40.6911   31.9970 C   0  0  0  0  0  0  0  0  0  0  0  0
   11.5172   39.3814   31.4407 C   0  0  0  0  0  0  0  0  0  0  0  0
   12.7492   39.0856   32.0729 O   0  0  0  0  0  0  0  0  0  0  0  0
   10.6023   38.1908   31.6665 C   0  0  0  0  0  0  0  0  0  0  0  0
   12.9319   37.6781   32.0281 C   0  0  0  0  0  0  0  0  0  0  0  0
    9.6392   38.0797   30.6452 O   0  0  0  0  0  0  0  0  0  0  0  0
   11.5715   37.0165   31.7056 C   0  0  0  0  0  0  0  0  0  0  0  0
   13.4847   37.2121   33.3235 N   0  0  0  0  0  0  0  0  0  0  0  0
   11.6187   36.3384   30.4695 O   0  0  0  0  0  0  0  0  0  0  0  0
   14.4801   36.3321   33.5724 C   0  0  0  0  0  0  0  0  0  0  0  0
   13.1137   37.6275   34.5687 C   0  0  0  0  0  0  0  0  0  0  0  0
   15.2073   35.6153   32.6738 N   0  0  0  0  0  0  0  0  0  0  0  0
   14.6759   36.2308   34.9179 C   0  0  0  0  0  0  0  0  0  0  0  0
   13.8216   37.0452   35.5781 N   0  0  0  0  0  0  0  0  0  0  0  0
   16.1640   34.7602   33.1546 C   0  0  0  0  0  0  0  0  0  0  0  0
   15.6526   35.3508   35.4129 C   0  0  0  0  0  0  0  0  0  0  0  0
   16.3794   34.6317   34.5041 N   0  0  0  0  0  0  0  0  0  0  0  0
   15.8999   35.1934   36.8088 N   0  0  0  0  0  0  0  0  0  0  0  0
    8.9995   45.4380   33.6723 H   0  0  0  0  0  0  0  0  0  0  0  0
   10.7762   46.9368   33.0157 H   0  0  0  0  0  0  0  0  0  0  0  0
   11.0503   46.2277   34.4980 H   0  0  0  0  0  0  0  0  0  0  0  0
   10.7407   44.9069   31.1835 H   0  0  0  0  0  0  0  0  0  0  0  0
    9.3637   43.8351   31.4715 H   0  0  0  0  0  0  0  0  0  0  0  0
    7.0132   44.7167   31.5859 H   0  0  0  0  0  0  0  0  0  0  0  0
   10.3470   47.1861   30.4074 H   0  0  0  0  0  0  0  0  0  0  0  0
    5.4642   46.3048   30.5076 H   0  0  0  0  0  0  0  0  0  0  0  0
    8.8198   48.7624   29.3509 H   0  0  0  0  0  0  0  0  0  0  0  0
    7.2052   50.2660   28.9930 H   0  0  0  0  0  0  0  0  0  0  0  0
    7.1548   50.2044   26.5279 H   0  0  0  0  0  0  0  0  0  0  0  0
    6.0595   48.7501   26.5674 H   0  0  0  0  0  0  0  0  0  0  0  0
    7.7447   48.6426   27.1729 H   0  0  0  0  0  0  0  0  0  0  0  0
    4.9093   50.8200   26.3561 H   0  0  0  0  0  0  0  0  0  0  0  0
    2.9379   52.0828   30.7554 H   0  0  0  0  0  0  0  0  0  0  0  0
    1.5992   54.1752   26.7058 H   0  0  0  0  0  0  0  0  0  0  0  0
    0.5742   52.6622   26.6706 H   0  0  0  0  0  0  0  0  0  0  0  0
   11.3967   41.5459   31.4726 H   0  0  0  0  0  0  0  0  0  0  0  0
    9.8298   40.7409   31.7611 H   0  0  0  0  0  0  0  0  0  0  0  0
   11.6975   39.5066   30.3481 H   0  0  0  0  0  0  0  0  0  0  0  0
   10.1076   38.2647   32.6645 H   0  0  0  0  0  0  0  0  0  0  0  0
   13.6621   37.4468   31.2209 H   0  0  0  0  0  0  0  0  0  0  0  0
    8.8974   38.6943   30.8831 H   0  0  0  0  0  0  0  0  0  0  0  0
   11.2806   36.3073   32.5170 H   0  0  0  0  0  0  0  0  0  0  0  0
   10.8493   35.7110   30.4586 H   0  0  0  0  0  0  0  0  0  0  0  0
   12.3290   38.3524   34.7444 H   0  0  0  0  0  0  0  0  0  0  0  0
   16.7559   34.1780   32.4619 H   0  0  0  0  0  0  0  0  0  0  0  0
   15.3531   35.7362   37.5137 H   0  0  0  0  0  0  0  0  0  0  0  0
   16.6344   34.5301   37.1414 H   0  0  0  0  0  0  0  0  0  0  0  0
  1  2  2  0
  1  3  1  0
  3  4  1  0
  4  5  1  0
  6  1  1  0
  7  6  1  0
  6  8  1  0
  8  9  1  0
  9 10  2  0
 11  9  1  0
 10 12  1  0
 13 11  2  0
 12 14  2  0
 14 13  1  0
 14 15  1  0
 15 16  1  0
 16 17  1  0
 16 18  1  0
 18 19  2  0
 20 18  1  0
 19 21  1  0
 22 20  2  0
 20 23  1  0
 21 24  1  0
 21 25  2  0
 25 22  1  0
 23 26  1  0
 23 27  2  0
 24 28  1  0
 25 29  1  0
 28 29  1  0
  4 30  2  0
  4 31  1  0
 32 31  1  0
 32 33  1  0
 33 34  1  0
 33 35  1  0
 34 36  1  0
 35 37  1  0
 35 38  1  0
 38 36  1  0
 36 39  1  0
 38 40  1  0
 41 39  1  0
 42 39  1  0
 43 41  2  0
 41 44  1  0
 45 42  2  0
 46 43  1  0
 44 47  2  0
 44 45  1  0
 48 46  2  0
 48 47  1  0
 47 49  1  0
  6 50  1  1
  7 51  1  0
  7 52  1  0
  8 53  1  0
  8 54  1  0
 10 55  1  0
 11 56  1  0
 12 57  1  0
 13 58  1  0
 16 59  1  1
 17 60  1  0
 17 61  1  0
 17 62  1  0
 19 63  1  0
 22 64  1  0
 28 65  1  0
 28 66  1  0
 32 67  1  0
 32 68  1  0
 33 69  1  0
 35 70  1  0
 36 71  1  0
 37 72  1  0
 38 73  1  0
 40 74  1  0
 42 75  1  0
 46 76  1  0
 49 77  1  0
 49 78  1  0
M  CHG  3   5  -1  23   1  26  -1
M  END
>  <EmbedRMS>  (399) 
0.0827703247783

$$$$

     RDKit          3D

 78 83  0  0  0  0  0  0  0  0999 V2000
   10.2804   43.7665   33.8252 C   0  0  0  0  0  0  0  0  0  0  0  0
   11.4111   43.5918   34.3667 O   0  0  0  0  0  0  0  0  0  0  0  0
    9.3617   42.7251   33.7349 O   0  0  0  0  0  0  0  0  0  0  0  0
    9.8899   41.2268   34.2940 P   0  0  0  0  0  0  0  0  0  0  0  0
   10.3739   41.4565   35.8831 O   0  0  0  0  0  0  0  0  0  0  0  0
    9.9460   45.0736   33.2115 C   0  0  1  0  0  0  0  0  0  0  0  0
   11.0269   46.0291   33.4706 N   0  0  0  0  0  0  0  0  0  0  0  0
    9.7533   44.8540   31.6954 C   0  0  0  0  0  0  0  0  0  0  0  0
    8.7954   45.8417   31.0862 C   0  0  0  0  0  0  0  0  0  0  0  0
    7.4090   45.6004   31.1002 C   0  0  0  0  0  0  0  0  0  0  0  0
    9.2826   46.9869   30.4392 C   0  0  0  0  0  0  0  0  0  0  0  0
    6.5291   46.5000   30.4831 C   0  0  0  0  0  0  0  0  0  0  0  0
    8.4023   47.8876   29.8290 C   0  0  0  0  0  0  0  0  0  0  0  0
    7.0124   47.6541   29.8505 C   0  0  0  0  0  0  0  0  0  0  0  0
    6.0750   48.5170   29.2490 O   0  0  0  0  0  0  0  0  0  0  0  0
    6.2857   49.8679   28.8046 C   0  0  1  0  0  0  0  0  0  0  0  0
    6.8915   50.7201   29.9388 C   0  0  0  0  0  0  0  0  0  0  0  0
    7.0644   49.9578   27.4892 C   0  0  0  0  0  0  0  0  0  0  0  0
    7.4883   48.7734   26.8282 C   0  0  0  0  0  0  0  0  0  0  0  0
    7.3702   51.2262   26.8850 C   0  0  0  0  0  0  0  0  0  0  0  0
    8.2585   48.8871   25.6788 C   0  0  0  0  0  0  0  0  0  0  0  0
    8.1734   51.2789   25.7231 C   0  0  0  0  0  0  0  0  0  0  0  0
    6.8437   52.4554   27.4058 N   0  0  0  0  0  0  0  0  0  0  0  0
    8.7921   47.8777   24.9005 O   0  0  0  0  0  0  0  0  0  0  0  0
    8.5954   50.0863   25.1556 C   0  0  0  0  0  0  0  0  0  0  0  0
    5.4937   52.5801   27.6382 O   0  0  0  0  0  0  0  0  0  0  0  0
    7.5556   53.4806   27.4229 O   0  0  0  0  0  0  0  0  0  0  0  0
    9.5133   48.4861   23.8206 C   0  0  0  0  0  0  0  0  0  0  0  0
    9.3609   49.8978   24.0209 O   0  0  0  0  0  0  0  0  0  0  0  0
    8.8123   40.1845   34.2134 O   0  0  0  0  0  0  0  0  0  0  0  0
   11.2400   40.7954   33.3680 O   0  0  0  0  0  0  0  0  0  0  0  0
   10.9124   40.6877   31.9967 C   0  0  0  0  0  0  0  0  0  0  0  0
   11.5169   39.3811   31.4420 C   0  0  0  0  0  0  0  0  0  0  0  0
   12.7500   39.0881   32.0760 O   0  0  0  0  0  0  0  0  0  0  0  0
   10.6043   38.1893   31.6659 C   0  0  0  0  0  0  0  0  0  0  0  0
   12.9395   37.6814   32.0280 C   0  0  0  0  0  0  0  0  0  0  0  0
    9.6353   38.0951   30.6499 O   0  0  0  0  0  0  0  0  0  0  0  0
   11.5804   37.0191   31.6934 C   0  0  0  0  0  0  0  0  0  0  0  0
   13.4851   37.2119   33.3244 N   0  0  0  0  0  0  0  0  0  0  0  0
   11.6118   36.3189   30.4673 O   0  0  0  0  0  0  0  0  0  0  0  0
   14.4801   36.3316   33.5732 C   0  0  0  0  0  0  0  0  0  0  0  0
   13.1139   37.6277   34.5692 C   0  0  0  0  0  0  0  0  0  0  0  0
   15.2076   35.6154   32.6744 N   0  0  0  0  0  0  0  0  0  0  0  0
   14.6756   36.2303   34.9186 C   0  0  0  0  0  0  0  0  0  0  0  0
   13.8215   37.0451   35.5786 N   0  0  0  0  0  0  0  0  0  0  0  0
   16.1642   34.7602   33.1551 C   0  0  0  0  0  0  0  0  0  0  0  0
   15.6526   35.3505   35.4134 C   0  0  0  0  0  0  0  0  0  0  0  0
   16.3796   34.6316   34.5045 N   0  0  0  0  0  0  0  0  0  0  0  0
   15.9001   35.1933   36.8093 N   0  0  0  0  0  0  0  0  0  0  0  0
    8.9998   45.4383   33.6729 H   0  0  0  0  0  0  0  0  0  0  0  0
   10.7768   46.9367   33.0153 H   0  0  0  0  0  0  0  0  0  0  0  0
   11.0505   46.2281   34.4980 H   0  0  0  0  0  0  0  0  0  0  0  0
    9.3630   43.8355   31.4719 H   0  0  0  0  0  0  0  0  0  0  0  0
   10.7403   44.9069   31.1836 H   0  0  0  0  0  0  0  0  0  0  0  0
    7.0133   44.7154   31.5831 H   0  0  0  0  0  0  0  0  0  0  0  0
   10.3475   47.1806   30.3977 H   0  0  0  0  0  0  0  0  0  0  0  0
    5.4651   46.3009   30.5006 H   0  0  0  0  0  0  0  0  0  0  0  0
    8.8209   48.7387   29.3153 H   0  0  0  0  0  0  0  0  0  0  0  0
    5.2723   50.2716   28.6016 H   0  0  0  0  0  0  0  0  0  0  0  0
    7.9986   50.7499   29.8874 H   0  0  0  0  0  0  0  0  0  0  0  0
    6.5887   50.3157   30.9280 H   0  0  0  0  0  0  0  0  0  0  0  0
    6.5202   51.7634   29.8914 H   0  0  0  0  0  0  0  0  0  0  0  0
    7.2377   47.7861   27.1868 H   0  0  0  0  0  0  0  0  0  0  0  0
    8.4276   52.2218   25.2561 H   0  0  0  0  0  0  0  0  0  0  0  0
    9.0713   48.1872   22.8470 H   0  0  0  0  0  0  0  0  0  0  0  0
   10.5864   48.2058   23.8693 H   0  0  0  0  0  0  0  0  0  0  0  0
   11.3807   41.5456   31.4683 H   0  0  0  0  0  0  0  0  0  0  0  0
    9.8215   40.7221   31.7645 H   0  0  0  0  0  0  0  0  0  0  0  0
   11.6986   39.5088   30.3499 H   0  0  0  0  0  0  0  0  0  0  0  0
   10.1109   38.2737   32.6630 H   0  0  0  0  0  0  0  0  0  0  0  0
   13.6783   37.4562   31.2271 H   0  0  0  0  0  0  0  0  0  0  0  0
    9.0020   37.3860   30.9348 H   0  0  0  0  0  0  0  0  0  0  0  0
   11.2807   36.3052   32.4921 H   0  0  0  0  0  0  0  0  0  0  0  0
   11.8819   36.9599   29.7584 H   0  0  0  0  0  0  0  0  0  0  0  0
   12.3303   38.3538   34.7446 H   0  0  0  0  0  0  0  0  0  0  0  0
   16.7563   34.1783   32.4623 H   0  0  0  0  0  0  0  0  0  0  0  0
   16.6348   34.5301   37.1418 H   0  0  0  0  0  0  0  0  0  0  0  0
   15.3532   35.7359   37.5142 H   0  0  0  0  0  0  0  0  0  0  0  0
  1  2  2  0
  1  3  1  0
  3  4  1  0
  4  5  1  0
  6  1  1  0
  7  6  1  0
  6  8  1  0
  8  9  1  0
  9 10  2  0
 11  9  1  0
 10 12  1  0
 13 11  2  0
 12 14  2  0
 14 13  1  0
 14 15  1  0
 15 16  1  0
 16 17  1  0
 16 18  1  0
 18 19  2  0
 20 18  1  0
 19 21  1  0
 22 20  2  0
 20 23  1  0
 21 24  1  0
 21 25  2  0
 25 22  1  0
 23 26  1  0
 23 27  2  0
 24 28  1  0
 25 29  1  0
 28 29  1  0
  4 30  2  0
  4 31  1  0
 32 31  1  0
 32 33  1  0
 33 34  1  0
 33 35  1  0
 34 36  1  0
 35 37  1  0
 35 38  1  0
 38 36  1  0
 36 39  1  0
 38 40  1  0
 41 39  1  0
 42 39  1  0
 43 41  2  0
 41 44  1  0
 45 42  2  0
 46 43  1  0
 44 47  2  0
 44 45  1  0
 48 46  2  0
 48 47  1  0
 47 49  1  0
  6 50  1  1
  7 51  1  0
  7 52  1  0
  8 53  1  0
  8 54  1  0
 10 55  1  0
 11 56  1  0
 12 57  1  0
 13 58  1  0
 16 59  1  6
 17 60  1  0
 17 61  1  0
 17 62  1  0
 19 63  1  0
 22 64  1  0
 28 65  1  0
 28 66  1  0
 32 67  1  0
 32 68  1  0
 33 69  1  0
 35 70  1  0
 36 71  1  0
 37 72  1  0
 38 73  1  0
 40 74  1  0
 42 75  1  0
 46 76  1  0
 49 77  1  0
 49 78  1  0
M  CHG  3   5  -1  23   1  26  -1
M  END
>  <EmbedRMS>  (400) 
0.0813696592979

$$$$

     RDKit          3D

 78 83  0  0  0  0  0  0  0  0999 V2000
   10.2845   43.7670   33.8238 C   0  0  0  0  0  0  0  0  0  0  0  0
   11.4117   43.5929   34.3720 O   0  0  0  0  0  0  0  0  0  0  0  0
    9.3640   42.7268   33.7344 O   0  0  0  0  0  0  0  0  0  0  0  0
    9.8903   41.2282   34.2946 P   0  0  0  0  0  0  0  0  0  0  0  0
   10.3746   41.4574   35.8835 O   0  0  0  0  0  0  0  0  0  0  0  0
    9.9568   45.0705   33.2010 C   0  0  1  0  0  0  0  0  0  0  0  0
   11.0298   46.0328   33.4731 N   0  0  0  0  0  0  0  0  0  0  0  0
    9.7515   44.8506   31.6844 C   0  0  0  0  0  0  0  0  0  0  0  0
    8.7950   45.8412   31.0825 C   0  0  0  0  0  0  0  0  0  0  0  0
    7.4095   45.5966   31.0976 C   0  0  0  0  0  0  0  0  0  0  0  0
    9.2796   46.9943   30.4468 C   0  0  0  0  0  0  0  0  0  0  0  0
    6.5259   46.4929   30.4832 C   0  0  0  0  0  0  0  0  0  0  0  0
    8.3932   47.8950   29.8432 C   0  0  0  0  0  0  0  0  0  0  0  0
    7.0138   47.6486   29.8454 C   0  0  0  0  0  0  0  0  0  0  0  0
    6.1613   48.5784   29.2282 O   0  0  0  0  0  0  0  0  0  0  0  0
    5.1849   48.2615   28.2273 C   0  0  1  0  0  0  0  0  0  0  0  0
    5.8771   47.5943   27.0266 C   0  0  0  0  0  0  0  0  0  0  0  0
    3.9965   47.4999   28.8188 C   0  0  0  0  0  0  0  0  0  0  0  0
    3.6262   46.2218   28.3102 C   0  0  0  0  0  0  0  0  0  0  0  0
    3.2683   48.0334   29.9438 C   0  0  0  0  0  0  0  0  0  0  0  0
    2.5965   45.5275   28.9319 C   0  0  0  0  0  0  0  0  0  0  0  0
    2.2337   47.2714   30.5353 C   0  0  0  0  0  0  0  0  0  0  0  0
    3.5797   49.3147   30.5210 N   0  0  0  0  0  0  0  0  0  0  0  0
    2.0978   44.2745   28.6220 O   0  0  0  0  0  0  0  0  0  0  0  0
    1.9303   46.0291   29.9959 C   0  0  0  0  0  0  0  0  0  0  0  0
    3.4238   49.5127   31.8745 O   0  0  0  0  0  0  0  0  0  0  0  0
    3.8343   50.2981   29.7962 O   0  0  0  0  0  0  0  0  0  0  0  0
    1.0517   43.9725   29.5558 C   0  0  0  0  0  0  0  0  0  0  0  0
    0.9718   45.1235   30.4107 O   0  0  0  0  0  0  0  0  0  0  0  0
    8.8120   40.1867   34.2144 O   0  0  0  0  0  0  0  0  0  0  0  0
   11.2398   40.7950   33.3691 O   0  0  0  0  0  0  0  0  0  0  0  0
   10.9126   40.6915   31.9979 C   0  0  0  0  0  0  0  0  0  0  0  0
   11.5274   39.3918   31.4380 C   0  0  0  0  0  0  0  0  0  0  0  0
   12.7521   39.0919   32.0841 O   0  0  0  0  0  0  0  0  0  0  0  0
   10.6125   38.1937   31.6450 C   0  0  0  0  0  0  0  0  0  0  0  0
   12.9414   37.6845   32.0301 C   0  0  0  0  0  0  0  0  0  0  0  0
    9.6074   38.0881   30.6603 O   0  0  0  0  0  0  0  0  0  0  0  0
   11.5831   37.0205   31.6874 C   0  0  0  0  0  0  0  0  0  0  0  0
   13.4833   37.2102   33.3260 N   0  0  0  0  0  0  0  0  0  0  0  0
   11.6192   36.3086   30.4684 O   0  0  0  0  0  0  0  0  0  0  0  0
   14.4781   36.3297   33.5744 C   0  0  0  0  0  0  0  0  0  0  0  0
   13.1131   37.6262   34.5711 C   0  0  0  0  0  0  0  0  0  0  0  0
   15.2057   35.6143   32.6753 N   0  0  0  0  0  0  0  0  0  0  0  0
   14.6737   36.2276   34.9195 C   0  0  0  0  0  0  0  0  0  0  0  0
   13.8207   37.0429   35.5799 N   0  0  0  0  0  0  0  0  0  0  0  0
   16.1642   34.7612   33.1555 C   0  0  0  0  0  0  0  0  0  0  0  0
   15.6509   35.3483   35.4141 C   0  0  0  0  0  0  0  0  0  0  0  0
   16.3799   34.6317   34.5049 N   0  0  0  0  0  0  0  0  0  0  0  0
   15.8999   35.1930   36.8098 N   0  0  0  0  0  0  0  0  0  0  0  0
    9.0140   45.4329   33.6683 H   0  0  0  0  0  0  0  0  0  0  0  0
   11.8924   45.7658   32.9432 H   0  0  0  0  0  0  0  0  0  0  0  0
   10.7281   46.9700   33.1197 H   0  0  0  0  0  0  0  0  0  0  0  0
   10.7284   44.8894   31.1529 H   0  0  0  0  0  0  0  0  0  0  0  0
    9.3488   43.8354   31.4692 H   0  0  0  0  0  0  0  0  0  0  0  0
    7.0155   44.7143   31.5876 H   0  0  0  0  0  0  0  0  0  0  0  0
   10.3427   47.1994   30.4191 H   0  0  0  0  0  0  0  0  0  0  0  0
    5.4703   46.2870   30.5436 H   0  0  0  0  0  0  0  0  0  0  0  0
    8.7793   48.7822   29.3584 H   0  0  0  0  0  0  0  0  0  0  0  0
    4.7881   49.2201   27.8307 H   0  0  0  0  0  0  0  0  0  0  0  0
    5.1599   47.4578   26.1923 H   0  0  0  0  0  0  0  0  0  0  0  0
    6.7014   48.2456   26.6618 H   0  0  0  0  0  0  0  0  0  0  0  0
    6.3103   46.6116   27.3138 H   0  0  0  0  0  0  0  0  0  0  0  0
    4.1302   45.7504   27.4783 H   0  0  0  0  0  0  0  0  0  0  0  0
    1.6748   47.6413   31.3868 H   0  0  0  0  0  0  0  0  0  0  0  0
    0.0905   43.8237   29.0237 H   0  0  0  0  0  0  0  0  0  0  0  0
    1.3158   43.0729   30.1495 H   0  0  0  0  0  0  0  0  0  0  0  0
   11.3746   41.5553   31.4742 H   0  0  0  0  0  0  0  0  0  0  0  0
    9.8203   40.7212   31.7662 H   0  0  0  0  0  0  0  0  0  0  0  0
   11.7332   39.5360   30.3525 H   0  0  0  0  0  0  0  0  0  0  0  0
   10.1223   38.2692   32.6413 H   0  0  0  0  0  0  0  0  0  0  0  0
   13.6845   37.4647   31.2320 H   0  0  0  0  0  0  0  0  0  0  0  0
   10.0257   38.1828   29.7660 H   0  0  0  0  0  0  0  0  0  0  0  0
   11.2767   36.3142   32.4904 H   0  0  0  0  0  0  0  0  0  0  0  0
   11.9880   36.9121   29.7712 H   0  0  0  0  0  0  0  0  0  0  0  0
   12.3328   38.3555   34.7480 H   0  0  0  0  0  0  0  0  0  0  0  0
   16.7559   34.1808   32.4619 H   0  0  0  0  0  0  0  0  0  0  0  0
   15.3542   35.7376   37.5143 H   0  0  0  0  0  0  0  0  0  0  0  0
   16.6364   34.5313   37.1415 H   0  0  0  0  0  0  0  0  0  0  0  0
  1  2  2  0
  1  3  1  0
  3  4  1  0
  4  5  1  0
  6  1  1  0
  7  6  1  0
  6  8  1  0
  8  9  1  0
  9 10  2  0
 11  9  1  0
 10 12  1  0
 13 11  2  0
 12 14  2  0
 14 13  1  0
 14 15  1  0
 15 16  1  0
 16 17  1  0
 16 18  1  0
 18 19  2  0
 20 18  1  0
 19 21  1  0
 22 20  2  0
 20 23  1  0
 21 24  1  0
 21 25  2  0
 25 22  1  0
 23 26  1  0
 23 27  2  0
 24 28  1  0
 25 29  1  0
 28 29  1  0
  4 30  2  0
  4 31  1  0
 32 31  1  0
 32 33  1  0
 33 34  1  0
 33 35  1  0
 34 36  1  0
 35 37  1  0
 35 38  1  0
 38 36  1  0
 36 39  1  0
 38 40  1  0
 41 39  1  0
 42 39  1  0
 43 41  2  0
 41 44  1  0
 45 42  2  0
 46 43  1  0
 44 47  2  0
 44 45  1  0
 48 46  2  0
 48 47  1  0
 47 49  1  0
  6 50  1  1
  7 51  1  0
  7 52  1  0
  8 53  1  0
  8 54  1  0
 10 55  1  0
 11 56  1  0
 12 57  1  0
 13 58  1  0
 16 59  1  6
 17 60  1  0
 17 61  1  0
 17 62  1  0
 19 63  1  0
 22 64  1  0
 28 65  1  0
 28 66  1  0
 32 67  1  0
 32 68  1  0
 33 69  1  0
 35 70  1  0
 36 71  1  0
 37 72  1  0
 38 73  1  0
 40 74  1  0
 42 75  1  0
 46 76  1  0
 49 77  1  0
 49 78  1  0
M  CHG  3   5  -1  23   1  26  -1
M  END
>  <EmbedRMS>  (401) 
0.0810576621359

$$$$

     RDKit          3D

 78 83  0  0  0  0  0  0  0  0999 V2000
   10.2836   43.7661   33.8256 C   0  0  0  0  0  0  0  0  0  0  0  0
   11.4103   43.5930   34.3753 O   0  0  0  0  0  0  0  0  0  0  0  0
    9.3641   42.7253   33.7346 O   0  0  0  0  0  0  0  0  0  0  0  0
    9.8908   41.2265   34.2939 P   0  0  0  0  0  0  0  0  0  0  0  0
   10.3732   41.4559   35.8835 O   0  0  0  0  0  0  0  0  0  0  0  0
    9.9548   45.0694   33.2036 C   0  0  1  0  0  0  0  0  0  0  0  0
   11.0274   46.0322   33.4760 N   0  0  0  0  0  0  0  0  0  0  0  0
    9.7471   44.8484   31.6876 C   0  0  0  0  0  0  0  0  0  0  0  0
    8.7926   45.8411   31.0847 C   0  0  0  0  0  0  0  0  0  0  0  0
    7.4061   45.6011   31.0991 C   0  0  0  0  0  0  0  0  0  0  0  0
    9.2817   46.9875   30.4419 C   0  0  0  0  0  0  0  0  0  0  0  0
    6.5243   46.5005   30.4842 C   0  0  0  0  0  0  0  0  0  0  0  0
    8.4005   47.8874   29.8317 C   0  0  0  0  0  0  0  0  0  0  0  0
    7.0181   47.6581   29.8468 C   0  0  0  0  0  0  0  0  0  0  0  0
    6.1874   48.5966   29.2120 O   0  0  0  0  0  0  0  0  0  0  0  0
    4.7574   48.6006   29.2250 C   0  0  1  0  0  0  0  0  0  0  0  0
    4.2360   49.0489   30.5971 C   0  0  0  0  0  0  0  0  0  0  0  0
    4.2635   49.5397   28.1391 C   0  0  0  0  0  0  0  0  0  0  0  0
    4.6687   50.8974   28.1815 C   0  0  0  0  0  0  0  0  0  0  0  0
    3.3728   49.1096   27.1002 C   0  0  0  0  0  0  0  0  0  0  0  0
    4.1528   51.7750   27.2369 C   0  0  0  0  0  0  0  0  0  0  0  0
    2.8668   50.0519   26.1761 C   0  0  0  0  0  0  0  0  0  0  0  0
    3.0009   47.7324   26.9506 N   0  0  0  0  0  0  0  0  0  0  0  0
    4.3974   53.1277   27.0973 O   0  0  0  0  0  0  0  0  0  0  0  0
    3.2853   51.3716   26.2807 C   0  0  0  0  0  0  0  0  0  0  0  0
    3.9776   46.7749   26.8017 O   0  0  0  0  0  0  0  0  0  0  0  0
    1.8182   47.4339   26.6857 O   0  0  0  0  0  0  0  0  0  0  0  0
    3.6331   53.6024   25.9805 C   0  0  0  0  0  0  0  0  0  0  0  0
    2.9380   52.4486   25.4880 O   0  0  0  0  0  0  0  0  0  0  0  0
    8.8127   40.1848   34.2122 O   0  0  0  0  0  0  0  0  0  0  0  0
   11.2420   40.7941   33.3697 O   0  0  0  0  0  0  0  0  0  0  0  0
   10.9187   40.6911   31.9971 C   0  0  0  0  0  0  0  0  0  0  0  0
   11.5172   39.3815   31.4408 C   0  0  0  0  0  0  0  0  0  0  0  0
   12.7493   39.0855   32.0728 O   0  0  0  0  0  0  0  0  0  0  0  0
   10.6023   38.1908   31.6665 C   0  0  0  0  0  0  0  0  0  0  0  0
   12.9319   37.6781   32.0281 C   0  0  0  0  0  0  0  0  0  0  0  0
    9.6392   38.0798   30.6452 O   0  0  0  0  0  0  0  0  0  0  0  0
   11.5715   37.0165   31.7056 C   0  0  0  0  0  0  0  0  0  0  0  0
   13.4847   37.2121   33.3235 N   0  0  0  0  0  0  0  0  0  0  0  0
   11.6187   36.3384   30.4695 O   0  0  0  0  0  0  0  0  0  0  0  0
   14.4801   36.3321   33.5724 C   0  0  0  0  0  0  0  0  0  0  0  0
   13.1137   37.6275   34.5687 C   0  0  0  0  0  0  0  0  0  0  0  0
   15.2073   35.6153   32.6738 N   0  0  0  0  0  0  0  0  0  0  0  0
   14.6759   36.2308   34.9179 C   0  0  0  0  0  0  0  0  0  0  0  0
   13.8216   37.0452   35.5781 N   0  0  0  0  0  0  0  0  0  0  0  0
   16.1640   34.7602   33.1546 C   0  0  0  0  0  0  0  0  0  0  0  0
   15.6526   35.3508   35.4129 C   0  0  0  0  0  0  0  0  0  0  0  0
   16.3794   34.6317   34.5041 N   0  0  0  0  0  0  0  0  0  0  0  0
   15.8999   35.1934   36.8088 N   0  0  0  0  0  0  0  0  0  0  0  0
    9.0121   45.4316   33.6713 H   0  0  0  0  0  0  0  0  0  0  0  0
   10.7260   46.9688   33.1215 H   0  0  0  0  0  0  0  0  0  0  0  0
   11.8908   45.7659   32.9477 H   0  0  0  0  0  0  0  0  0  0  0  0
    9.3425   43.8331   31.4758 H   0  0  0  0  0  0  0  0  0  0  0  0
   10.7236   44.8824   31.1558 H   0  0  0  0  0  0  0  0  0  0  0  0
    7.0108   44.7147   31.5801 H   0  0  0  0  0  0  0  0  0  0  0  0
   10.3461   47.1856   30.4096 H   0  0  0  0  0  0  0  0  0  0  0  0
    5.4681   46.2770   30.5105 H   0  0  0  0  0  0  0  0  0  0  0  0
    8.7945   48.7686   29.3414 H   0  0  0  0  0  0  0  0  0  0  0  0
    4.3814   47.5768   29.0465 H   0  0  0  0  0  0  0  0  0  0  0  0
    4.6662   50.0311   30.8845 H   0  0  0  0  0  0  0  0  0  0  0  0
    4.5124   48.3115   31.3781 H   0  0  0  0  0  0  0  0  0  0  0  0
    3.1281   49.1301   30.5762 H   0  0  0  0  0  0  0  0  0  0  0  0
    5.3553   51.2608   28.9353 H   0  0  0  0  0  0  0  0  0  0  0  0
    2.1901   49.7565   25.3846 H   0  0  0  0  0  0  0  0  0  0  0  0
    4.3081   54.0064   25.1971 H   0  0  0  0  0  0  0  0  0  0  0  0
    2.9074   54.3743   26.3121 H   0  0  0  0  0  0  0  0  0  0  0  0
   11.3968   41.5460   31.4729 H   0  0  0  0  0  0  0  0  0  0  0  0
    9.8299   40.7410   31.7613 H   0  0  0  0  0  0  0  0  0  0  0  0
   11.6975   39.5067   30.3481 H   0  0  0  0  0  0  0  0  0  0  0  0
   10.1076   38.2648   32.6645 H   0  0  0  0  0  0  0  0  0  0  0  0
   13.6621   37.4467   31.2209 H   0  0  0  0  0  0  0  0  0  0  0  0
    8.8975   38.6944   30.8831 H   0  0  0  0  0  0  0  0  0  0  0  0
   11.2806   36.3073   32.5171 H   0  0  0  0  0  0  0  0  0  0  0  0
   10.8492   35.7110   30.4586 H   0  0  0  0  0  0  0  0  0  0  0  0
   12.3289   38.3523   34.7444 H   0  0  0  0  0  0  0  0  0  0  0  0
   16.7559   34.1780   32.4619 H   0  0  0  0  0  0  0  0  0  0  0  0
   16.6344   34.5301   37.1414 H   0  0  0  0  0  0  0  0  0  0  0  0
   15.3532   35.7362   37.5137 H   0  0  0  0  0  0  0  0  0  0  0  0
  1  2  2  0
  1  3  1  0
  3  4  1  0
  4  5  1  0
  6  1  1  0
  7  6  1  0
  6  8  1  0
  8  9  1  0
  9 10  2  0
 11  9  1  0
 10 12  1  0
 13 11  2  0
 12 14  2  0
 14 13  1  0
 14 15  1  0
 15 16  1  0
 16 17  1  0
 16 18  1  0
 18 19  2  0
 20 18  1  0
 19 21  1  0
 22 20  2  0
 20 23  1  0
 21 24  1  0
 21 25  2  0
 25 22  1  0
 23 26  1  0
 23 27  2  0
 24 28  1  0
 25 29  1  0
 28 29  1  0
  4 30  2  0
  4 31  1  0
 32 31  1  0
 32 33  1  0
 33 34  1  0
 33 35  1  0
 34 36  1  0
 35 37  1  0
 35 38  1  0
 38 36  1  0
 36 39  1  0
 38 40  1  0
 41 39  1  0
 42 39  1  0
 43 41  2  0
 41 44  1  0
 45 42  2  0
 46 43  1  0
 44 47  2  0
 44 45  1  0
 48 46  2  0
 48 47  1  0
 47 49  1  0
  6 50  1  1
  7 51  1  0
  7 52  1  0
  8 53  1  0
  8 54  1  0
 10 55  1  0
 11 56  1  0
 12 57  1  0
 13 58  1  0
 16 59  1  6
 17 60  1  0
 17 61  1  0
 17 62  1  0
 19 63  1  0
 22 64  1  0
 28 65  1  0
 28 66  1  0
 32 67  1  0
 32 68  1  0
 33 69  1  0
 35 70  1  0
 36 71  1  0
 37 72  1  0
 38 73  1  0
 40 74  1  0
 42 75  1  0
 46 76  1  0
 49 77  1  0
 49 78  1  0
M  CHG  3   5  -1  23   1  26  -1
M  END
>  <EmbedRMS>  (402) 
0.0829177960515

$$$$

     RDKit          3D

 78 83  0  0  0  0  0  0  0  0999 V2000
   10.2803   43.7665   33.8250 C   0  0  0  0  0  0  0  0  0  0  0  0
   11.4110   43.5920   34.3667 O   0  0  0  0  0  0  0  0  0  0  0  0
    9.3619   42.7249   33.7344 O   0  0  0  0  0  0  0  0  0  0  0  0
    9.8903   41.2265   34.2931 P   0  0  0  0  0  0  0  0  0  0  0  0
   10.3742   41.4563   35.8824 O   0  0  0  0  0  0  0  0  0  0  0  0
    9.9457   45.0737   33.2112 C   0  0  1  0  0  0  0  0  0  0  0  0
   11.0264   46.0294   33.4706 N   0  0  0  0  0  0  0  0  0  0  0  0
    9.7535   44.8539   31.6950 C   0  0  0  0  0  0  0  0  0  0  0  0
    8.7955   45.8410   31.0847 C   0  0  0  0  0  0  0  0  0  0  0  0
    7.4087   45.6002   31.1002 C   0  0  0  0  0  0  0  0  0  0  0  0
    9.2831   46.9874   30.4394 C   0  0  0  0  0  0  0  0  0  0  0  0
    6.5282   46.5006   30.4848 C   0  0  0  0  0  0  0  0  0  0  0  0
    8.4028   47.8886   29.8297 C   0  0  0  0  0  0  0  0  0  0  0  0
    7.0135   47.6521   29.8501 C   0  0  0  0  0  0  0  0  0  0  0  0
    6.0851   48.5289   29.2648 O   0  0  0  0  0  0  0  0  0  0  0  0
    6.4036   49.7806   28.6525 C   0  0  1  0  0  0  0  0  0  0  0  0
    5.1815   50.3224   27.9118 C   0  0  0  0  0  0  0  0  0  0  0  0
    6.9161   50.8017   29.6582 C   0  0  0  0  0  0  0  0  0  0  0  0
    7.8879   51.7254   29.2027 C   0  0  0  0  0  0  0  0  0  0  0  0
    6.5055   50.8415   31.0370 C   0  0  0  0  0  0  0  0  0  0  0  0
    8.4338   52.6217   30.1112 C   0  0  0  0  0  0  0  0  0  0  0  0
    7.1106   51.7667   31.9173 C   0  0  0  0  0  0  0  0  0  0  0  0
    5.5048   49.9583   31.5666 N   0  0  0  0  0  0  0  0  0  0  0  0
    9.3915   53.5926   29.8902 O   0  0  0  0  0  0  0  0  0  0  0  0
    8.0648   52.6387   31.4118 C   0  0  0  0  0  0  0  0  0  0  0  0
    5.6537   49.4410   32.8327 O   0  0  0  0  0  0  0  0  0  0  0  0
    4.4057   49.8309   30.9909 O   0  0  0  0  0  0  0  0  0  0  0  0
    9.6379   54.2620   31.1343 C   0  0  0  0  0  0  0  0  0  0  0  0
    8.7698   53.6216   32.0793 O   0  0  0  0  0  0  0  0  0  0  0  0
    8.8125   40.1844   34.2129 O   0  0  0  0  0  0  0  0  0  0  0  0
   11.2405   40.7948   33.3668 O   0  0  0  0  0  0  0  0  0  0  0  0
   10.9133   40.6866   31.9952 C   0  0  0  0  0  0  0  0  0  0  0  0
   11.5166   39.3787   31.4404 C   0  0  0  0  0  0  0  0  0  0  0  0
   12.7485   39.0849   32.0735 O   0  0  0  0  0  0  0  0  0  0  0  0
   10.6039   38.1884   31.6669 C   0  0  0  0  0  0  0  0  0  0  0  0
   12.9329   37.6776   32.0284 C   0  0  0  0  0  0  0  0  0  0  0  0
    9.6373   38.0938   30.6485 O   0  0  0  0  0  0  0  0  0  0  0  0
   11.5737   37.0141   31.7055 C   0  0  0  0  0  0  0  0  0  0  0  0
   13.4853   37.2120   33.3238 N   0  0  0  0  0  0  0  0  0  0  0  0
   11.6210   36.3379   30.4683 O   0  0  0  0  0  0  0  0  0  0  0  0
   14.4804   36.3319   33.5726 C   0  0  0  0  0  0  0  0  0  0  0  0
   13.1141   37.6275   34.5689 C   0  0  0  0  0  0  0  0  0  0  0  0
   15.2075   35.6152   32.6740 N   0  0  0  0  0  0  0  0  0  0  0  0
   14.6761   36.2306   34.9181 C   0  0  0  0  0  0  0  0  0  0  0  0
   13.8218   37.0451   35.5783 N   0  0  0  0  0  0  0  0  0  0  0  0
   16.1642   34.7600   33.1548 C   0  0  0  0  0  0  0  0  0  0  0  0
   15.6527   35.3507   35.4131 C   0  0  0  0  0  0  0  0  0  0  0  0
   16.3795   34.6315   34.5043 N   0  0  0  0  0  0  0  0  0  0  0  0
   15.9001   35.1933   36.8090 N   0  0  0  0  0  0  0  0  0  0  0  0
    8.9994   45.4383   33.6723 H   0  0  0  0  0  0  0  0  0  0  0  0
   11.0502   46.2279   34.4980 H   0  0  0  0  0  0  0  0  0  0  0  0
   10.7760   46.9370   33.0157 H   0  0  0  0  0  0  0  0  0  0  0  0
   10.7406   44.9070   31.1836 H   0  0  0  0  0  0  0  0  0  0  0  0
    9.3635   43.8352   31.4716 H   0  0  0  0  0  0  0  0  0  0  0  0
    7.0130   44.7161   31.5848 H   0  0  0  0  0  0  0  0  0  0  0  0
   10.3473   47.1857   30.4058 H   0  0  0  0  0  0  0  0  0  0  0  0
    5.4636   46.3058   30.5074 H   0  0  0  0  0  0  0  0  0  0  0  0
    8.8156   48.7617   29.3449 H   0  0  0  0  0  0  0  0  0  0  0  0
    7.1809   49.5926   27.8780 H   0  0  0  0  0  0  0  0  0  0  0  0
    4.3598   50.5723   28.6121 H   0  0  0  0  0  0  0  0  0  0  0  0
    5.4549   51.2387   27.3460 H   0  0  0  0  0  0  0  0  0  0  0  0
    4.8137   49.5628   27.1899 H   0  0  0  0  0  0  0  0  0  0  0  0
    8.2205   51.7338   28.1722 H   0  0  0  0  0  0  0  0  0  0  0  0
    6.8302   51.8162   32.9616 H   0  0  0  0  0  0  0  0  0  0  0  0
    9.3827   55.3390   31.0482 H   0  0  0  0  0  0  0  0  0  0  0  0
   10.6978   54.1309   31.4376 H   0  0  0  0  0  0  0  0  0  0  0  0
   11.3826   41.5438   31.4666 H   0  0  0  0  0  0  0  0  0  0  0  0
    9.8224   40.7224   31.7629 H   0  0  0  0  0  0  0  0  0  0  0  0
   11.6979   39.5036   30.3478 H   0  0  0  0  0  0  0  0  0  0  0  0
   10.1084   38.2786   32.6627 H   0  0  0  0  0  0  0  0  0  0  0  0
   13.6638   37.4473   31.2214 H   0  0  0  0  0  0  0  0  0  0  0  0
    8.9763   37.4190   30.9532 H   0  0  0  0  0  0  0  0  0  0  0  0
   11.2821   36.3054   32.5172 H   0  0  0  0  0  0  0  0  0  0  0  0
   10.8658   35.6935   30.4652 H   0  0  0  0  0  0  0  0  0  0  0  0
   12.3293   38.3523   34.7445 H   0  0  0  0  0  0  0  0  0  0  0  0
   16.7561   34.1778   32.4621 H   0  0  0  0  0  0  0  0  0  0  0  0
   15.3533   35.7361   37.5138 H   0  0  0  0  0  0  0  0  0  0  0  0
   16.6345   34.5300   37.1416 H   0  0  0  0  0  0  0  0  0  0  0  0
  1  2  2  0
  1  3  1  0
  3  4  1  0
  4  5  1  0
  6  1  1  0
  7  6  1  0
  6  8  1  0
  8  9  1  0
  9 10  2  0
 11  9  1  0
 10 12  1  0
 13 11  2  0
 12 14  2  0
 14 13  1  0
 14 15  1  0
 15 16  1  0
 16 17  1  0
 16 18  1  0
 18 19  2  0
 20 18  1  0
 19 21  1  0
 22 20  2  0
 20 23  1  0
 21 24  1  0
 21 25  2  0
 25 22  1  0
 23 26  1  0
 23 27  2  0
 24 28  1  0
 25 29  1  0
 28 29  1  0
  4 30  2  0
  4 31  1  0
 32 31  1  0
 32 33  1  0
 33 34  1  0
 33 35  1  0
 34 36  1  0
 35 37  1  0
 35 38  1  0
 38 36  1  0
 36 39  1  0
 38 40  1  0
 41 39  1  0
 42 39  1  0
 43 41  2  0
 41 44  1  0
 45 42  2  0
 46 43  1  0
 44 47  2  0
 44 45  1  0
 48 46  2  0
 48 47  1  0
 47 49  1  0
  6 50  1  1
  7 51  1  0
  7 52  1  0
  8 53  1  0
  8 54  1  0
 10 55  1  0
 11 56  1  0
 12 57  1  0
 13 58  1  0
 16 59  1  6
 17 60  1  0
 17 61  1  0
 17 62  1  0
 19 63  1  0
 22 64  1  0
 28 65  1  0
 28 66  1  0
 32 67  1  0
 32 68  1  0
 33 69  1  0
 35 70  1  0
 36 71  1  0
 37 72  1  0
 38 73  1  0
 40 74  1  0
 42 75  1  0
 46 76  1  0
 49 77  1  0
 49 78  1  0
M  CHG  3   5  -1  23   1  26  -1
M  END
>  <EmbedRMS>  (403) 
0.0823956656182

$$$$

     RDKit          3D

 78 83  0  0  0  0  0  0  0  0999 V2000
   10.2834   43.7662   33.8257 C   0  0  0  0  0  0  0  0  0  0  0  0
   11.4102   43.5930   34.3753 O   0  0  0  0  0  0  0  0  0  0  0  0
    9.3637   42.7255   33.7349 O   0  0  0  0  0  0  0  0  0  0  0  0
    9.8907   41.2265   34.2933 P   0  0  0  0  0  0  0  0  0  0  0  0
   10.3743   41.4557   35.8828 O   0  0  0  0  0  0  0  0  0  0  0  0
    9.9546   45.0694   33.2035 C   0  0  1  0  0  0  0  0  0  0  0  0
   11.0273   46.0321   33.4756 N   0  0  0  0  0  0  0  0  0  0  0  0
    9.7467   44.8479   31.6876 C   0  0  0  0  0  0  0  0  0  0  0  0
    8.7924   45.8404   31.0840 C   0  0  0  0  0  0  0  0  0  0  0  0
    7.4058   45.6017   31.0994 C   0  0  0  0  0  0  0  0  0  0  0  0
    9.2820   46.9878   30.4428 C   0  0  0  0  0  0  0  0  0  0  0  0
    6.5271   46.5037   30.4850 C   0  0  0  0  0  0  0  0  0  0  0  0
    8.4032   47.8908   29.8326 C   0  0  0  0  0  0  0  0  0  0  0  0
    7.0135   47.6522   29.8450 C   0  0  0  0  0  0  0  0  0  0  0  0
    6.0816   48.5196   29.2510 O   0  0  0  0  0  0  0  0  0  0  0  0
    6.3842   49.6457   28.4256 C   0  0  1  0  0  0  0  0  0  0  0  0
    6.9098   49.2040   27.0526 C   0  0  0  0  0  0  0  0  0  0  0  0
    5.1504   50.5249   28.2871 C   0  0  0  0  0  0  0  0  0  0  0  0
    5.2350   51.8606   28.7550 C   0  0  0  0  0  0  0  0  0  0  0  0
    3.9289   50.0809   27.6686 C   0  0  0  0  0  0  0  0  0  0  0  0
    4.1424   52.6996   28.5822 C   0  0  0  0  0  0  0  0  0  0  0  0
    2.8573   50.9875   27.5067 C   0  0  0  0  0  0  0  0  0  0  0  0
    3.7573   48.7411   27.1843 N   0  0  0  0  0  0  0  0  0  0  0  0
    4.0099   54.0242   28.9524 O   0  0  0  0  0  0  0  0  0  0  0  0
    3.0054   52.2827   27.9817 C   0  0  0  0  0  0  0  0  0  0  0  0
    3.1297   48.5320   25.9781 O   0  0  0  0  0  0  0  0  0  0  0  0
    3.9310   47.7692   27.9464 O   0  0  0  0  0  0  0  0  0  0  0  0
    2.7034   54.4651   28.5583 C   0  0  0  0  0  0  0  0  0  0  0  0
    2.0956   53.3217   27.9420 O   0  0  0  0  0  0  0  0  0  0  0  0
    8.8123   40.1850   34.2127 O   0  0  0  0  0  0  0  0  0  0  0  0
   11.2407   40.7945   33.3670 O   0  0  0  0  0  0  0  0  0  0  0  0
   10.9134   40.6866   31.9954 C   0  0  0  0  0  0  0  0  0  0  0  0
   11.5167   39.3787   31.4404 C   0  0  0  0  0  0  0  0  0  0  0  0
   12.7486   39.0849   32.0735 O   0  0  0  0  0  0  0  0  0  0  0  0
   10.6039   38.1884   31.6669 C   0  0  0  0  0  0  0  0  0  0  0  0
   12.9329   37.6776   32.0284 C   0  0  0  0  0  0  0  0  0  0  0  0
    9.6373   38.0938   30.6485 O   0  0  0  0  0  0  0  0  0  0  0  0
   11.5737   37.0141   31.7055 C   0  0  0  0  0  0  0  0  0  0  0  0
   13.4853   37.2120   33.3238 N   0  0  0  0  0  0  0  0  0  0  0  0
   11.6210   36.3379   30.4683 O   0  0  0  0  0  0  0  0  0  0  0  0
   14.4804   36.3319   33.5726 C   0  0  0  0  0  0  0  0  0  0  0  0
   13.1141   37.6275   34.5689 C   0  0  0  0  0  0  0  0  0  0  0  0
   15.2076   35.6152   32.6740 N   0  0  0  0  0  0  0  0  0  0  0  0
   14.6761   36.2306   34.9181 C   0  0  0  0  0  0  0  0  0  0  0  0
   13.8218   37.0451   35.5783 N   0  0  0  0  0  0  0  0  0  0  0  0
   16.1642   34.7600   33.1548 C   0  0  0  0  0  0  0  0  0  0  0  0
   15.6527   35.3506   35.4131 C   0  0  0  0  0  0  0  0  0  0  0  0
   16.3795   34.6315   34.5043 N   0  0  0  0  0  0  0  0  0  0  0  0
   15.9000   35.1933   36.8090 N   0  0  0  0  0  0  0  0  0  0  0  0
    9.0120   45.4317   33.6713 H   0  0  0  0  0  0  0  0  0  0  0  0
   11.8906   45.7658   32.9469 H   0  0  0  0  0  0  0  0  0  0  0  0
   10.7259   46.9687   33.1214 H   0  0  0  0  0  0  0  0  0  0  0  0
    9.3417   43.8327   31.4762 H   0  0  0  0  0  0  0  0  0  0  0  0
   10.7231   44.8814   31.1556 H   0  0  0  0  0  0  0  0  0  0  0  0
    7.0085   44.7173   31.5821 H   0  0  0  0  0  0  0  0  0  0  0  0
   10.3465   47.1860   30.4146 H   0  0  0  0  0  0  0  0  0  0  0  0
    5.4625   46.3076   30.5040 H   0  0  0  0  0  0  0  0  0  0  0  0
    8.8209   48.7678   29.3610 H   0  0  0  0  0  0  0  0  0  0  0  0
    7.1865   50.2385   28.9158 H   0  0  0  0  0  0  0  0  0  0  0  0
    6.2291   48.4733   26.5729 H   0  0  0  0  0  0  0  0  0  0  0  0
    7.0246   50.0851   26.3857 H   0  0  0  0  0  0  0  0  0  0  0  0
    7.9032   48.7220   27.1553 H   0  0  0  0  0  0  0  0  0  0  0  0
    6.1304   52.2432   29.2286 H   0  0  0  0  0  0  0  0  0  0  0  0
    1.9296   50.6837   27.0387 H   0  0  0  0  0  0  0  0  0  0  0  0
    2.1183   54.7768   29.4488 H   0  0  0  0  0  0  0  0  0  0  0  0
    2.7830   55.2972   27.8277 H   0  0  0  0  0  0  0  0  0  0  0  0
   11.3827   41.5438   31.4669 H   0  0  0  0  0  0  0  0  0  0  0  0
    9.8225   40.7224   31.7631 H   0  0  0  0  0  0  0  0  0  0  0  0
   11.6978   39.5037   30.3478 H   0  0  0  0  0  0  0  0  0  0  0  0
   10.1084   38.2786   32.6627 H   0  0  0  0  0  0  0  0  0  0  0  0
   13.6638   37.4472   31.2214 H   0  0  0  0  0  0  0  0  0  0  0  0
    8.9763   37.4191   30.9532 H   0  0  0  0  0  0  0  0  0  0  0  0
   11.2821   36.3054   32.5172 H   0  0  0  0  0  0  0  0  0  0  0  0
   10.8658   35.6935   30.4652 H   0  0  0  0  0  0  0  0  0  0  0  0
   12.3293   38.3523   34.7444 H   0  0  0  0  0  0  0  0  0  0  0  0
   16.7561   34.1778   32.4621 H   0  0  0  0  0  0  0  0  0  0  0  0
   16.6345   34.5300   37.1416 H   0  0  0  0  0  0  0  0  0  0  0  0
   15.3533   35.7361   37.5138 H   0  0  0  0  0  0  0  0  0  0  0  0
  1  2  2  0
  1  3  1  0
  3  4  1  0
  4  5  1  0
  6  1  1  0
  7  6  1  0
  6  8  1  0
  8  9  1  0
  9 10  2  0
 11  9  1  0
 10 12  1  0
 13 11  2  0
 12 14  2  0
 14 13  1  0
 14 15  1  0
 15 16  1  0
 16 17  1  0
 16 18  1  0
 18 19  2  0
 20 18  1  0
 19 21  1  0
 22 20  2  0
 20 23  1  0
 21 24  1  0
 21 25  2  0
 25 22  1  0
 23 26  1  0
 23 27  2  0
 24 28  1  0
 25 29  1  0
 28 29  1  0
  4 30  2  0
  4 31  1  0
 32 31  1  0
 32 33  1  0
 33 34  1  0
 33 35  1  0
 34 36  1  0
 35 37  1  0
 35 38  1  0
 38 36  1  0
 36 39  1  0
 38 40  1  0
 41 39  1  0
 42 39  1  0
 43 41  2  0
 41 44  1  0
 45 42  2  0
 46 43  1  0
 44 47  2  0
 44 45  1  0
 48 46  2  0
 48 47  1  0
 47 49  1  0
  6 50  1  1
  7 51  1  0
  7 52  1  0
  8 53  1  0
  8 54  1  0
 10 55  1  0
 11 56  1  0
 12 57  1  0
 13 58  1  0
 16 59  1  1
 17 60  1  0
 17 61  1  0
 17 62  1  0
 19 63  1  0
 22 64  1  0
 28 65  1  0
 28 66  1  0
 32 67  1  0
 32 68  1  0
 33 69  1  0
 35 70  1  0
 36 71  1  0
 37 72  1  0
 38 73  1  0
 40 74  1  0
 42 75  1  0
 46 76  1  0
 49 77  1  0
 49 78  1  0
M  CHG  3   5  -1  23   1  26  -1
M  END
>  <EmbedRMS>  (404) 
0.0825608673972

$$$$

     RDKit          3D

 78 83  0  0  0  0  0  0  0  0999 V2000
   10.2804   43.7664   33.8250 C   0  0  0  0  0  0  0  0  0  0  0  0
   11.4111   43.5919   34.3667 O   0  0  0  0  0  0  0  0  0  0  0  0
    9.3619   42.7249   33.7345 O   0  0  0  0  0  0  0  0  0  0  0  0
    9.8900   41.2266   34.2940 P   0  0  0  0  0  0  0  0  0  0  0  0
   10.3734   41.4566   35.8833 O   0  0  0  0  0  0  0  0  0  0  0  0
    9.9459   45.0735   33.2111 C   0  0  1  0  0  0  0  0  0  0  0  0
   11.0266   46.0291   33.4705 N   0  0  0  0  0  0  0  0  0  0  0  0
    9.7536   44.8537   31.6949 C   0  0  0  0  0  0  0  0  0  0  0  0
    8.7956   45.8408   31.0845 C   0  0  0  0  0  0  0  0  0  0  0  0
    7.4090   45.6004   31.1008 C   0  0  0  0  0  0  0  0  0  0  0  0
    9.2827   46.9874   30.4398 C   0  0  0  0  0  0  0  0  0  0  0  0
    6.5287   46.5012   30.4859 C   0  0  0  0  0  0  0  0  0  0  0  0
    8.4025   47.8896   29.8308 C   0  0  0  0  0  0  0  0  0  0  0  0
    7.0129   47.6513   29.8473 C   0  0  0  0  0  0  0  0  0  0  0  0
    6.0787   48.5211   29.2598 O   0  0  0  0  0  0  0  0  0  0  0  0
    6.3792   49.7072   28.5183 C   0  0  1  0  0  0  0  0  0  0  0  0
    6.8545   49.3133   27.1109 C   0  0  0  0  0  0  0  0  0  0  0  0
    5.1518   50.6170   28.5511 C   0  0  0  0  0  0  0  0  0  0  0  0
    4.5213   51.0573   27.3533 C   0  0  0  0  0  0  0  0  0  0  0  0
    4.5830   51.0133   29.8132 C   0  0  0  0  0  0  0  0  0  0  0  0
    3.3751   51.8349   27.4478 C   0  0  0  0  0  0  0  0  0  0  0  0
    3.4050   51.7932   29.8409 C   0  0  0  0  0  0  0  0  0  0  0  0
    5.1651   50.6190   31.0681 N   0  0  0  0  0  0  0  0  0  0  0  0
    2.6092   52.3607   26.4248 O   0  0  0  0  0  0  0  0  0  0  0  0
    2.8393   52.1845   28.6375 C   0  0  0  0  0  0  0  0  0  0  0  0
    4.3504   50.3478   32.1433 O   0  0  0  0  0  0  0  0  0  0  0  0
    6.3945   50.7160   31.2573 O   0  0  0  0  0  0  0  0  0  0  0  0
    1.5227   53.0878   27.0139 C   0  0  0  0  0  0  0  0  0  0  0  0
    1.7077   52.9494   28.4291 O   0  0  0  0  0  0  0  0  0  0  0  0
    8.8124   40.1844   34.2133 O   0  0  0  0  0  0  0  0  0  0  0  0
   11.2405   40.7942   33.3692 O   0  0  0  0  0  0  0  0  0  0  0  0
   10.9150   40.6905   31.9972 C   0  0  0  0  0  0  0  0  0  0  0  0
   11.5252   39.3886   31.4375 C   0  0  0  0  0  0  0  0  0  0  0  0
   12.7499   39.0874   32.0799 O   0  0  0  0  0  0  0  0  0  0  0  0
   10.6092   38.1926   31.6470 C   0  0  0  0  0  0  0  0  0  0  0  0
   12.9332   37.6793   32.0294 C   0  0  0  0  0  0  0  0  0  0  0  0
    9.6122   38.0894   30.6542 O   0  0  0  0  0  0  0  0  0  0  0  0
   11.5743   37.0145   31.7024 C   0  0  0  0  0  0  0  0  0  0  0  0
   13.4844   37.2108   33.3241 N   0  0  0  0  0  0  0  0  0  0  0  0
   11.6298   36.3239   30.4740 O   0  0  0  0  0  0  0  0  0  0  0  0
   14.4802   36.3313   33.5727 C   0  0  0  0  0  0  0  0  0  0  0  0
   13.1138   37.6267   34.5693 C   0  0  0  0  0  0  0  0  0  0  0  0
   15.2075   35.6149   32.6739 N   0  0  0  0  0  0  0  0  0  0  0  0
   14.6761   36.2303   34.9182 C   0  0  0  0  0  0  0  0  0  0  0  0
   13.8220   37.0447   35.5785 N   0  0  0  0  0  0  0  0  0  0  0  0
   16.1643   34.7600   33.1547 C   0  0  0  0  0  0  0  0  0  0  0  0
   15.6529   35.3505   35.4130 C   0  0  0  0  0  0  0  0  0  0  0  0
   16.3798   34.6315   34.5042 N   0  0  0  0  0  0  0  0  0  0  0  0
   15.9003   35.1932   36.8090 N   0  0  0  0  0  0  0  0  0  0  0  0
    8.9995   45.4381   33.6722 H   0  0  0  0  0  0  0  0  0  0  0  0
   10.7763   46.9368   33.0156 H   0  0  0  0  0  0  0  0  0  0  0  0
   11.0503   46.2277   34.4979 H   0  0  0  0  0  0  0  0  0  0  0  0
   10.7407   44.9068   31.1835 H   0  0  0  0  0  0  0  0  0  0  0  0
    9.3637   43.8350   31.4715 H   0  0  0  0  0  0  0  0  0  0  0  0
    7.0132   44.7165   31.5856 H   0  0  0  0  0  0  0  0  0  0  0  0
   10.3470   47.1859   30.4071 H   0  0  0  0  0  0  0  0  0  0  0  0
    5.4642   46.3049   30.5078 H   0  0  0  0  0  0  0  0  0  0  0  0
    8.8198   48.7625   29.3512 H   0  0  0  0  0  0  0  0  0  0  0  0
    7.2060   50.2679   28.9998 H   0  0  0  0  0  0  0  0  0  0  0  0
    7.7466   48.6572   27.1736 H   0  0  0  0  0  0  0  0  0  0  0  0
    7.1445   50.2161   26.5324 H   0  0  0  0  0  0  0  0  0  0  0  0
    6.0590   48.7544   26.5733 H   0  0  0  0  0  0  0  0  0  0  0  0
    4.8874   50.8063   26.3690 H   0  0  0  0  0  0  0  0  0  0  0  0
    2.9535   52.0994   30.7758 H   0  0  0  0  0  0  0  0  0  0  0  0
    0.5524   52.6427   26.7089 H   0  0  0  0  0  0  0  0  0  0  0  0
    1.5744   54.1580   26.7235 H   0  0  0  0  0  0  0  0  0  0  0  0
    9.8241   40.7215   31.7641 H   0  0  0  0  0  0  0  0  0  0  0  0
   11.3800   41.5528   31.4730 H   0  0  0  0  0  0  0  0  0  0  0  0
   11.7266   39.5310   30.3513 H   0  0  0  0  0  0  0  0  0  0  0  0
   10.1110   38.2747   32.6387 H   0  0  0  0  0  0  0  0  0  0  0  0
   13.6652   37.4520   31.2226 H   0  0  0  0  0  0  0  0  0  0  0  0
   10.0511   38.1143   29.7645 H   0  0  0  0  0  0  0  0  0  0  0  0
   11.2762   36.3141   32.5189 H   0  0  0  0  0  0  0  0  0  0  0  0
   10.8593   35.6978   30.4640 H   0  0  0  0  0  0  0  0  0  0  0  0
   12.3295   38.3518   34.7450 H   0  0  0  0  0  0  0  0  0  0  0  0
   16.7564   34.1780   32.4620 H   0  0  0  0  0  0  0  0  0  0  0  0
   15.3534   35.7359   37.5138 H   0  0  0  0  0  0  0  0  0  0  0  0
   16.6349   34.5300   37.1416 H   0  0  0  0  0  0  0  0  0  0  0  0
  1  2  2  0
  1  3  1  0
  3  4  1  0
  4  5  1  0
  6  1  1  0
  7  6  1  0
  6  8  1  0
  8  9  1  0
  9 10  2  0
 11  9  1  0
 10 12  1  0
 13 11  2  0
 12 14  2  0
 14 13  1  0
 14 15  1  0
 15 16  1  0
 16 17  1  0
 16 18  1  0
 18 19  2  0
 20 18  1  0
 19 21  1  0
 22 20  2  0
 20 23  1  0
 21 24  1  0
 21 25  2  0
 25 22  1  0
 23 26  1  0
 23 27  2  0
 24 28  1  0
 25 29  1  0
 28 29  1  0
  4 30  2  0
  4 31  1  0
 32 31  1  0
 32 33  1  0
 33 34  1  0
 33 35  1  0
 34 36  1  0
 35 37  1  0
 35 38  1  0
 38 36  1  0
 36 39  1  0
 38 40  1  0
 41 39  1  0
 42 39  1  0
 43 41  2  0
 41 44  1  0
 45 42  2  0
 46 43  1  0
 44 47  2  0
 44 45  1  0
 48 46  2  0
 48 47  1  0
 47 49  1  0
  6 50  1  1
  7 51  1  0
  7 52  1  0
  8 53  1  0
  8 54  1  0
 10 55  1  0
 11 56  1  0
 12 57  1  0
 13 58  1  0
 16 59  1  1
 17 60  1  0
 17 61  1  0
 17 62  1  0
 19 63  1  0
 22 64  1  0
 28 65  1  0
 28 66  1  0
 32 67  1  0
 32 68  1  0
 33 69  1  0
 35 70  1  0
 36 71  1  0
 37 72  1  0
 38 73  1  0
 40 74  1  0
 42 75  1  0
 46 76  1  0
 49 77  1  0
 49 78  1  0
M  CHG  3   5  -1  23   1  26  -1
M  END
>  <EmbedRMS>  (405) 
0.0816419681641

$$$$

     RDKit          3D

 78 83  0  0  0  0  0  0  0  0999 V2000
   10.2845   43.7635   33.8273 C   0  0  0  0  0  0  0  0  0  0  0  0
   11.4109   43.5872   34.3755 O   0  0  0  0  0  0  0  0  0  0  0  0
    9.3627   42.7251   33.7401 O   0  0  0  0  0  0  0  0  0  0  0  0
    9.8922   41.2253   34.2945 P   0  0  0  0  0  0  0  0  0  0  0  0
   10.3752   41.4470   35.8855 O   0  0  0  0  0  0  0  0  0  0  0  0
    9.9555   45.0712   33.2064 C   0  0  1  0  0  0  0  0  0  0  0  0
   11.0204   46.0498   33.4553 N   0  0  0  0  0  0  0  0  0  0  0  0
    9.7506   44.8526   31.6917 C   0  0  0  0  0  0  0  0  0  0  0  0
    8.7944   45.8434   31.0869 C   0  0  0  0  0  0  0  0  0  0  0  0
    7.4084   45.5973   31.0946 C   0  0  0  0  0  0  0  0  0  0  0  0
    9.2814   46.9968   30.4528 C   0  0  0  0  0  0  0  0  0  0  0  0
    6.5280   46.4941   30.4756 C   0  0  0  0  0  0  0  0  0  0  0  0
    8.3993   47.8965   29.8415 C   0  0  0  0  0  0  0  0  0  0  0  0
    7.0112   47.6499   29.8461 C   0  0  0  0  0  0  0  0  0  0  0  0
    6.0714   48.5019   29.2414 O   0  0  0  0  0  0  0  0  0  0  0  0
    6.2689   49.8553   28.8150 C   0  0  1  0  0  0  0  0  0  0  0  0
    6.5499   50.7510   30.0317 C   0  0  0  0  0  0  0  0  0  0  0  0
    7.2633   49.9519   27.6546 C   0  0  0  0  0  0  0  0  0  0  0  0
    8.3209   50.9002   27.6902 C   0  0  0  0  0  0  0  0  0  0  0  0
    7.1493   49.0901   26.5044 C   0  0  0  0  0  0  0  0  0  0  0  0
    9.2134   50.9476   26.6299 C   0  0  0  0  0  0  0  0  0  0  0  0
    8.1050   49.1758   25.4627 C   0  0  0  0  0  0  0  0  0  0  0  0
    6.0945   48.1201   26.3785 N   0  0  0  0  0  0  0  0  0  0  0  0
   10.2949   51.7874   26.4621 O   0  0  0  0  0  0  0  0  0  0  0  0
    9.1115   50.1232   25.5640 C   0  0  0  0  0  0  0  0  0  0  0  0
    6.3282   46.9456   25.6943 O   0  0  0  0  0  0  0  0  0  0  0  0
    4.9189   48.4114   26.6869 O   0  0  0  0  0  0  0  0  0  0  0  0
   10.9067   51.4747   25.2038 C   0  0  0  0  0  0  0  0  0  0  0  0
   10.1221   50.4020   24.6652 O   0  0  0  0  0  0  0  0  0  0  0  0
    8.8141   40.1844   34.2100 O   0  0  0  0  0  0  0  0  0  0  0  0
   11.2443   40.7983   33.3677 O   0  0  0  0  0  0  0  0  0  0  0  0
   10.9202   40.6924   31.9952 C   0  0  0  0  0  0  0  0  0  0  0  0
   11.5178   39.3816   31.4406 C   0  0  0  0  0  0  0  0  0  0  0  0
   12.7510   39.0866   32.0738 O   0  0  0  0  0  0  0  0  0  0  0  0
   10.6028   38.1904   31.6657 C   0  0  0  0  0  0  0  0  0  0  0  0
   12.9383   37.6800   32.0289 C   0  0  0  0  0  0  0  0  0  0  0  0
    9.6368   38.0763   30.6482 O   0  0  0  0  0  0  0  0  0  0  0  0
   11.5775   37.0202   31.6930 C   0  0  0  0  0  0  0  0  0  0  0  0
   13.4839   37.2116   33.3263 N   0  0  0  0  0  0  0  0  0  0  0  0
   11.6093   36.3225   30.4647 O   0  0  0  0  0  0  0  0  0  0  0  0
   14.4781   36.3310   33.5749 C   0  0  0  0  0  0  0  0  0  0  0  0
   13.1165   37.6303   34.5713 C   0  0  0  0  0  0  0  0  0  0  0  0
   15.2043   35.6152   32.6753 N   0  0  0  0  0  0  0  0  0  0  0  0
   14.6751   36.2301   34.9199 C   0  0  0  0  0  0  0  0  0  0  0  0
   13.8248   37.0479   35.5807 N   0  0  0  0  0  0  0  0  0  0  0  0
   16.1602   34.7592   33.1545 C   0  0  0  0  0  0  0  0  0  0  0  0
   15.6514   35.3501   35.4134 C   0  0  0  0  0  0  0  0  0  0  0  0
   16.3760   34.6290   34.5040 N   0  0  0  0  0  0  0  0  0  0  0  0
   15.9002   35.1952   36.8090 N   0  0  0  0  0  0  0  0  0  0  0  0
    9.0121   45.4335   33.6752 H   0  0  0  0  0  0  0  0  0  0  0  0
   11.9381   45.6953   33.0978 H   0  0  0  0  0  0  0  0  0  0  0  0
   11.1118   46.1975   34.4863 H   0  0  0  0  0  0  0  0  0  0  0  0
    9.3527   43.8361   31.4755 H   0  0  0  0  0  0  0  0  0  0  0  0
   10.7295   44.8904   31.1635 H   0  0  0  0  0  0  0  0  0  0  0  0
    7.0124   44.7080   31.5700 H   0  0  0  0  0  0  0  0  0  0  0  0
   10.3450   47.2049   30.4331 H   0  0  0  0  0  0  0  0  0  0  0  0
    5.4625   46.2921   30.4926 H   0  0  0  0  0  0  0  0  0  0  0  0
    8.8135   48.7707   29.3677 H   0  0  0  0  0  0  0  0  0  0  0  0
    5.2937   50.2100   28.4206 H   0  0  0  0  0  0  0  0  0  0  0  0
    7.5454   50.5341   30.4717 H   0  0  0  0  0  0  0  0  0  0  0  0
    6.4986   51.8240   29.7440 H   0  0  0  0  0  0  0  0  0  0  0  0
    5.7819   50.5640   30.8134 H   0  0  0  0  0  0  0  0  0  0  0  0
    8.4634   51.5854   28.5114 H   0  0  0  0  0  0  0  0  0  0  0  0
    8.0537   48.5367   24.5874 H   0  0  0  0  0  0  0  0  0  0  0  0
   11.9522   51.1364   25.3609 H   0  0  0  0  0  0  0  0  0  0  0  0
   10.8702   52.3598   24.5281 H   0  0  0  0  0  0  0  0  0  0  0  0
   11.3977   41.5454   31.4670 H   0  0  0  0  0  0  0  0  0  0  0  0
    9.8325   40.7467   31.7592 H   0  0  0  0  0  0  0  0  0  0  0  0
   11.6990   39.5065   30.3482 H   0  0  0  0  0  0  0  0  0  0  0  0
   10.1115   38.2650   32.6650 H   0  0  0  0  0  0  0  0  0  0  0  0
   13.6785   37.4543   31.2293 H   0  0  0  0  0  0  0  0  0  0  0  0
    8.8977   38.6925   30.8880 H   0  0  0  0  0  0  0  0  0  0  0  0
   11.2755   36.3063   32.4909 H   0  0  0  0  0  0  0  0  0  0  0  0
   11.8890   36.9633   29.7584 H   0  0  0  0  0  0  0  0  0  0  0  0
   12.3356   38.3586   34.7461 H   0  0  0  0  0  0  0  0  0  0  0  0
   16.7501   34.1787   32.4597 H   0  0  0  0  0  0  0  0  0  0  0  0
   15.3528   35.7370   37.5151 H   0  0  0  0  0  0  0  0  0  0  0  0
   16.6340   34.5302   37.1380 H   0  0  0  0  0  0  0  0  0  0  0  0
  1  2  2  0
  1  3  1  0
  3  4  1  0
  4  5  1  0
  6  1  1  0
  7  6  1  0
  6  8  1  0
  8  9  1  0
  9 10  2  0
 11  9  1  0
 10 12  1  0
 13 11  2  0
 12 14  2  0
 14 13  1  0
 14 15  1  0
 15 16  1  0
 16 17  1  0
 16 18  1  0
 18 19  2  0
 20 18  1  0
 19 21  1  0
 22 20  2  0
 20 23  1  0
 21 24  1  0
 21 25  2  0
 25 22  1  0
 23 26  1  0
 23 27  2  0
 24 28  1  0
 25 29  1  0
 28 29  1  0
  4 30  2  0
  4 31  1  0
 32 31  1  0
 32 33  1  0
 33 34  1  0
 33 35  1  0
 34 36  1  0
 35 37  1  0
 35 38  1  0
 38 36  1  0
 36 39  1  0
 38 40  1  0
 41 39  1  0
 42 39  1  0
 43 41  2  0
 41 44  1  0
 45 42  2  0
 46 43  1  0
 44 47  2  0
 44 45  1  0
 48 46  2  0
 48 47  1  0
 47 49  1  0
  6 50  1  1
  7 51  1  0
  7 52  1  0
  8 53  1  0
  8 54  1  0
 10 55  1  0
 11 56  1  0
 12 57  1  0
 13 58  1  0
 16 59  1  6
 17 60  1  0
 17 61  1  0
 17 62  1  0
 19 63  1  0
 22 64  1  0
 28 65  1  0
 28 66  1  0
 32 67  1  0
 32 68  1  0
 33 69  1  0
 35 70  1  0
 36 71  1  0
 37 72  1  0
 38 73  1  0
 40 74  1  0
 42 75  1  0
 46 76  1  0
 49 77  1  0
 49 78  1  0
M  CHG  3   5  -1  23   1  26  -1
M  END
>  <EmbedRMS>  (406) 
0.0835332448443

$$$$

     RDKit          3D

 78 83  0  0  0  0  0  0  0  0999 V2000
   10.2838   43.7626   33.8272 C   0  0  0  0  0  0  0  0  0  0  0  0
   11.4102   43.5865   34.3765 O   0  0  0  0  0  0  0  0  0  0  0  0
    9.3633   42.7234   33.7350 O   0  0  0  0  0  0  0  0  0  0  0  0
    9.8899   41.2247   34.2939 P   0  0  0  0  0  0  0  0  0  0  0  0
   10.3723   41.4545   35.8836 O   0  0  0  0  0  0  0  0  0  0  0  0
    9.9547   45.0699   33.2058 C   0  0  1  0  0  0  0  0  0  0  0  0
   11.0196   46.0481   33.4565 N   0  0  0  0  0  0  0  0  0  0  0  0
    9.7501   44.8509   31.6916 C   0  0  0  0  0  0  0  0  0  0  0  0
    8.7940   45.8415   31.0857 C   0  0  0  0  0  0  0  0  0  0  0  0
    7.4061   45.6012   31.1015 C   0  0  0  0  0  0  0  0  0  0  0  0
    9.2831   46.9914   30.4458 C   0  0  0  0  0  0  0  0  0  0  0  0
    6.5262   46.5039   30.4887 C   0  0  0  0  0  0  0  0  0  0  0  0
    8.4017   47.8921   29.8356 C   0  0  0  0  0  0  0  0  0  0  0  0
    7.0211   47.6446   29.8416 C   0  0  0  0  0  0  0  0  0  0  0  0
    6.1292   48.5334   29.2328 O   0  0  0  0  0  0  0  0  0  0  0  0
    5.8858   48.6133   27.8214 C   0  0  1  0  0  0  0  0  0  0  0  0
    7.1246   49.0737   27.0441 C   0  0  0  0  0  0  0  0  0  0  0  0
    5.3132   47.3080   27.2755 C   0  0  0  0  0  0  0  0  0  0  0  0
    6.1333   46.1502   27.2424 C   0  0  0  0  0  0  0  0  0  0  0  0
    3.9441   47.1975   26.8556 C   0  0  0  0  0  0  0  0  0  0  0  0
    5.5707   44.9443   26.8473 C   0  0  0  0  0  0  0  0  0  0  0  0
    3.4232   45.9401   26.4778 C   0  0  0  0  0  0  0  0  0  0  0  0
    3.0789   48.3388   26.7884 N   0  0  0  0  0  0  0  0  0  0  0  0
    6.1734   43.7042   26.7590 O   0  0  0  0  0  0  0  0  0  0  0  0
    4.2718   44.8422   26.4869 C   0  0  0  0  0  0  0  0  0  0  0  0
    1.7839   48.2355   27.2408 O   0  0  0  0  0  0  0  0  0  0  0  0
    3.3899   49.3106   26.0694 O   0  0  0  0  0  0  0  0  0  0  0  0
    5.1867   42.7639   26.3133 C   0  0  0  0  0  0  0  0  0  0  0  0
    3.9870   43.5327   26.1509 O   0  0  0  0  0  0  0  0  0  0  0  0
    8.8119   40.1831   34.2120 O   0  0  0  0  0  0  0  0  0  0  0  0
   11.2415   40.7932   33.3699 O   0  0  0  0  0  0  0  0  0  0  0  0
   10.9186   40.6909   31.9972 C   0  0  0  0  0  0  0  0  0  0  0  0
   11.5172   39.3814   31.4406 C   0  0  0  0  0  0  0  0  0  0  0  0
   12.7493   39.0855   32.0727 O   0  0  0  0  0  0  0  0  0  0  0  0
   10.6023   38.1908   31.6664 C   0  0  0  0  0  0  0  0  0  0  0  0
   12.9319   37.6781   32.0281 C   0  0  0  0  0  0  0  0  0  0  0  0
    9.6392   38.0797   30.6451 O   0  0  0  0  0  0  0  0  0  0  0  0
   11.5715   37.0165   31.7056 C   0  0  0  0  0  0  0  0  0  0  0  0
   13.4846   37.2121   33.3235 N   0  0  0  0  0  0  0  0  0  0  0  0
   11.6187   36.3383   30.4694 O   0  0  0  0  0  0  0  0  0  0  0  0
   14.4801   36.3321   33.5724 C   0  0  0  0  0  0  0  0  0  0  0  0
   13.1137   37.6276   34.5687 C   0  0  0  0  0  0  0  0  0  0  0  0
   15.2073   35.6153   32.6738 N   0  0  0  0  0  0  0  0  0  0  0  0
   14.6759   36.2308   34.9179 C   0  0  0  0  0  0  0  0  0  0  0  0
   13.8216   37.0452   35.5781 N   0  0  0  0  0  0  0  0  0  0  0  0
   16.1640   34.7602   33.1546 C   0  0  0  0  0  0  0  0  0  0  0  0
   15.6526   35.3508   35.4129 C   0  0  0  0  0  0  0  0  0  0  0  0
   16.3794   34.6317   34.5041 N   0  0  0  0  0  0  0  0  0  0  0  0
   15.8999   35.1935   36.8088 N   0  0  0  0  0  0  0  0  0  0  0  0
    9.0096   45.4347   33.6664 H   0  0  0  0  0  0  0  0  0  0  0  0
   11.9346   45.6934   33.0921 H   0  0  0  0  0  0  0  0  0  0  0  0
   11.1131   46.1991   34.4878 H   0  0  0  0  0  0  0  0  0  0  0  0
   10.7303   44.8927   31.1667 H   0  0  0  0  0  0  0  0  0  0  0  0
    9.3510   43.8343   31.4754 H   0  0  0  0  0  0  0  0  0  0  0  0
    7.0096   44.7165   31.5842 H   0  0  0  0  0  0  0  0  0  0  0  0
   10.3466   47.1946   30.4225 H   0  0  0  0  0  0  0  0  0  0  0  0
    5.4613   46.3098   30.5033 H   0  0  0  0  0  0  0  0  0  0  0  0
    8.7940   48.7846   29.3667 H   0  0  0  0  0  0  0  0  0  0  0  0
    5.1479   49.4279   27.7047 H   0  0  0  0  0  0  0  0  0  0  0  0
    7.9421   48.3264   27.0902 H   0  0  0  0  0  0  0  0  0  0  0  0
    6.8593   49.2381   25.9779 H   0  0  0  0  0  0  0  0  0  0  0  0
    7.4957   50.0325   27.4642 H   0  0  0  0  0  0  0  0  0  0  0  0
    7.1735   46.1755   27.5363 H   0  0  0  0  0  0  0  0  0  0  0  0
    2.3932   45.8293   26.1640 H   0  0  0  0  0  0  0  0  0  0  0  0
    5.4910   42.3189   25.3428 H   0  0  0  0  0  0  0  0  0  0  0  0
    5.0352   41.9744   27.0789 H   0  0  0  0  0  0  0  0  0  0  0  0
   11.3971   41.5460   31.4734 H   0  0  0  0  0  0  0  0  0  0  0  0
    9.8300   40.7411   31.7610 H   0  0  0  0  0  0  0  0  0  0  0  0
   11.6974   39.5067   30.3480 H   0  0  0  0  0  0  0  0  0  0  0  0
   10.1076   38.2647   32.6644 H   0  0  0  0  0  0  0  0  0  0  0  0
   13.6621   37.4467   31.2208 H   0  0  0  0  0  0  0  0  0  0  0  0
    8.8976   38.6946   30.8828 H   0  0  0  0  0  0  0  0  0  0  0  0
   11.2806   36.3073   32.5170 H   0  0  0  0  0  0  0  0  0  0  0  0
   10.8492   35.7110   30.4585 H   0  0  0  0  0  0  0  0  0  0  0  0
   12.3290   38.3524   34.7444 H   0  0  0  0  0  0  0  0  0  0  0  0
   16.7559   34.1780   32.4619 H   0  0  0  0  0  0  0  0  0  0  0  0
   16.6344   34.5301   37.1414 H   0  0  0  0  0  0  0  0  0  0  0  0
   15.3531   35.7363   37.5137 H   0  0  0  0  0  0  0  0  0  0  0  0
  1  2  2  0
  1  3  1  0
  3  4  1  0
  4  5  1  0
  6  1  1  0
  7  6  1  0
  6  8  1  0
  8  9  1  0
  9 10  2  0
 11  9  1  0
 10 12  1  0
 13 11  2  0
 12 14  2  0
 14 13  1  0
 14 15  1  0
 15 16  1  0
 16 17  1  0
 16 18  1  0
 18 19  2  0
 20 18  1  0
 19 21  1  0
 22 20  2  0
 20 23  1  0
 21 24  1  0
 21 25  2  0
 25 22  1  0
 23 26  1  0
 23 27  2  0
 24 28  1  0
 25 29  1  0
 28 29  1  0
  4 30  2  0
  4 31  1  0
 32 31  1  0
 32 33  1  0
 33 34  1  0
 33 35  1  0
 34 36  1  0
 35 37  1  0
 35 38  1  0
 38 36  1  0
 36 39  1  0
 38 40  1  0
 41 39  1  0
 42 39  1  0
 43 41  2  0
 41 44  1  0
 45 42  2  0
 46 43  1  0
 44 47  2  0
 44 45  1  0
 48 46  2  0
 48 47  1  0
 47 49  1  0
  6 50  1  1
  7 51  1  0
  7 52  1  0
  8 53  1  0
  8 54  1  0
 10 55  1  0
 11 56  1  0
 12 57  1  0
 13 58  1  0
 16 59  1  1
 17 60  1  0
 17 61  1  0
 17 62  1  0
 19 63  1  0
 22 64  1  0
 28 65  1  0
 28 66  1  0
 32 67  1  0
 32 68  1  0
 33 69  1  0
 35 70  1  0
 36 71  1  0
 37 72  1  0
 38 73  1  0
 40 74  1  0
 42 75  1  0
 46 76  1  0
 49 77  1  0
 49 78  1  0
M  CHG  3   5  -1  23   1  26  -1
M  END
>  <EmbedRMS>  (407) 
0.0839619038889

$$$$

     RDKit          3D

 78 83  0  0  0  0  0  0  0  0999 V2000
   10.2804   43.7665   33.8250 C   0  0  0  0  0  0  0  0  0  0  0  0
   11.4110   43.5920   34.3667 O   0  0  0  0  0  0  0  0  0  0  0  0
    9.3619   42.7249   33.7345 O   0  0  0  0  0  0  0  0  0  0  0  0
    9.8900   41.2267   34.2940 P   0  0  0  0  0  0  0  0  0  0  0  0
   10.3735   41.4567   35.8833 O   0  0  0  0  0  0  0  0  0  0  0  0
    9.9457   45.0737   33.2112 C   0  0  1  0  0  0  0  0  0  0  0  0
   11.0264   46.0294   33.4706 N   0  0  0  0  0  0  0  0  0  0  0  0
    9.7535   44.8539   31.6950 C   0  0  0  0  0  0  0  0  0  0  0  0
    8.7955   45.8410   31.0847 C   0  0  0  0  0  0  0  0  0  0  0  0
    7.4087   45.6002   31.1002 C   0  0  0  0  0  0  0  0  0  0  0  0
    9.2831   46.9874   30.4394 C   0  0  0  0  0  0  0  0  0  0  0  0
    6.5283   46.5006   30.4848 C   0  0  0  0  0  0  0  0  0  0  0  0
    8.4027   47.8887   29.8297 C   0  0  0  0  0  0  0  0  0  0  0  0
    7.0135   47.6520   29.8500 C   0  0  0  0  0  0  0  0  0  0  0  0
    6.0851   48.5286   29.2644 O   0  0  0  0  0  0  0  0  0  0  0  0
    6.4036   49.7797   28.6508 C   0  0  1  0  0  0  0  0  0  0  0  0
    5.1814   50.3208   27.9097 C   0  0  0  0  0  0  0  0  0  0  0  0
    6.9160   50.8019   29.6555 C   0  0  0  0  0  0  0  0  0  0  0  0
    7.8875   51.7254   29.1989 C   0  0  0  0  0  0  0  0  0  0  0  0
    6.5056   50.8430   31.0343 C   0  0  0  0  0  0  0  0  0  0  0  0
    8.4331   52.6229   30.1064 C   0  0  0  0  0  0  0  0  0  0  0  0
    7.1104   51.7694   31.9135 C   0  0  0  0  0  0  0  0  0  0  0  0
    5.5051   49.9602   31.5649 N   0  0  0  0  0  0  0  0  0  0  0  0
    9.3903   53.5941   29.8842 O   0  0  0  0  0  0  0  0  0  0  0  0
    8.0641   52.6412   31.4070 C   0  0  0  0  0  0  0  0  0  0  0  0
    5.6543   49.4440   32.8315 O   0  0  0  0  0  0  0  0  0  0  0  0
    4.4059   49.8320   30.9895 O   0  0  0  0  0  0  0  0  0  0  0  0
    9.6365   54.2650   31.1275 C   0  0  0  0  0  0  0  0  0  0  0  0
    8.7688   53.6253   32.0733 O   0  0  0  0  0  0  0  0  0  0  0  0
    8.8124   40.1844   34.2133 O   0  0  0  0  0  0  0  0  0  0  0  0
   11.2405   40.7942   33.3692 O   0  0  0  0  0  0  0  0  0  0  0  0
   10.9150   40.6905   31.9972 C   0  0  0  0  0  0  0  0  0  0  0  0
   11.5252   39.3886   31.4375 C   0  0  0  0  0  0  0  0  0  0  0  0
   12.7499   39.0874   32.0799 O   0  0  0  0  0  0  0  0  0  0  0  0
   10.6092   38.1926   31.6470 C   0  0  0  0  0  0  0  0  0  0  0  0
   12.9332   37.6793   32.0294 C   0  0  0  0  0  0  0  0  0  0  0  0
    9.6122   38.0894   30.6542 O   0  0  0  0  0  0  0  0  0  0  0  0
   11.5743   37.0145   31.7024 C   0  0  0  0  0  0  0  0  0  0  0  0
   13.4844   37.2108   33.3241 N   0  0  0  0  0  0  0  0  0  0  0  0
   11.6297   36.3239   30.4740 O   0  0  0  0  0  0  0  0  0  0  0  0
   14.4802   36.3313   33.5727 C   0  0  0  0  0  0  0  0  0  0  0  0
   13.1139   37.6267   34.5692 C   0  0  0  0  0  0  0  0  0  0  0  0
   15.2075   35.6149   32.6739 N   0  0  0  0  0  0  0  0  0  0  0  0
   14.6761   36.2303   34.9181 C   0  0  0  0  0  0  0  0  0  0  0  0
   13.8220   37.0447   35.5785 N   0  0  0  0  0  0  0  0  0  0  0  0
   16.1643   34.7600   33.1547 C   0  0  0  0  0  0  0  0  0  0  0  0
   15.6529   35.3505   35.4130 C   0  0  0  0  0  0  0  0  0  0  0  0
   16.3798   34.6315   34.5042 N   0  0  0  0  0  0  0  0  0  0  0  0
   15.9003   35.1932   36.8090 N   0  0  0  0  0  0  0  0  0  0  0  0
    8.9994   45.4382   33.6723 H   0  0  0  0  0  0  0  0  0  0  0  0
   10.7759   46.9370   33.0157 H   0  0  0  0  0  0  0  0  0  0  0  0
   11.0502   46.2279   34.4980 H   0  0  0  0  0  0  0  0  0  0  0  0
   10.7406   44.9070   31.1836 H   0  0  0  0  0  0  0  0  0  0  0  0
    9.3635   43.8352   31.4716 H   0  0  0  0  0  0  0  0  0  0  0  0
    7.0130   44.7162   31.5848 H   0  0  0  0  0  0  0  0  0  0  0  0
   10.3473   47.1857   30.4058 H   0  0  0  0  0  0  0  0  0  0  0  0
    5.4636   46.3057   30.5074 H   0  0  0  0  0  0  0  0  0  0  0  0
    8.8155   48.7617   29.3448 H   0  0  0  0  0  0  0  0  0  0  0  0
    7.1809   49.5910   27.8765 H   0  0  0  0  0  0  0  0  0  0  0  0
    4.8136   49.5604   27.1886 H   0  0  0  0  0  0  0  0  0  0  0  0
    5.4548   51.2365   27.3429 H   0  0  0  0  0  0  0  0  0  0  0  0
    4.3598   50.5713   28.6098 H   0  0  0  0  0  0  0  0  0  0  0  0
    8.2200   51.7329   28.1684 H   0  0  0  0  0  0  0  0  0  0  0  0
    6.8301   51.8200   32.9578 H   0  0  0  0  0  0  0  0  0  0  0  0
   10.6964   54.1348   31.4309 H   0  0  0  0  0  0  0  0  0  0  0  0
    9.3807   55.3418   31.0401 H   0  0  0  0  0  0  0  0  0  0  0  0
    9.8241   40.7215   31.7641 H   0  0  0  0  0  0  0  0  0  0  0  0
   11.3800   41.5528   31.4730 H   0  0  0  0  0  0  0  0  0  0  0  0
   11.7266   39.5310   30.3513 H   0  0  0  0  0  0  0  0  0  0  0  0
   10.1110   38.2747   32.6387 H   0  0  0  0  0  0  0  0  0  0  0  0
   13.6652   37.4520   31.2226 H   0  0  0  0  0  0  0  0  0  0  0  0
   10.0511   38.1143   29.7645 H   0  0  0  0  0  0  0  0  0  0  0  0
   11.2762   36.3141   32.5189 H   0  0  0  0  0  0  0  0  0  0  0  0
   10.8593   35.6978   30.4640 H   0  0  0  0  0  0  0  0  0  0  0  0
   12.3295   38.3518   34.7449 H   0  0  0  0  0  0  0  0  0  0  0  0
   16.7564   34.1780   32.4620 H   0  0  0  0  0  0  0  0  0  0  0  0
   15.3534   35.7359   37.5138 H   0  0  0  0  0  0  0  0  0  0  0  0
   16.6349   34.5300   37.1415 H   0  0  0  0  0  0  0  0  0  0  0  0
  1  2  2  0
  1  3  1  0
  3  4  1  0
  4  5  1  0
  6  1  1  0
  7  6  1  0
  6  8  1  0
  8  9  1  0
  9 10  2  0
 11  9  1  0
 10 12  1  0
 13 11  2  0
 12 14  2  0
 14 13  1  0
 14 15  1  0
 15 16  1  0
 16 17  1  0
 16 18  1  0
 18 19  2  0
 20 18  1  0
 19 21  1  0
 22 20  2  0
 20 23  1  0
 21 24  1  0
 21 25  2  0
 25 22  1  0
 23 26  1  0
 23 27  2  0
 24 28  1  0
 25 29  1  0
 28 29  1  0
  4 30  2  0
  4 31  1  0
 32 31  1  0
 32 33  1  0
 33 34  1  0
 33 35  1  0
 34 36  1  0
 35 37  1  0
 35 38  1  0
 38 36  1  0
 36 39  1  0
 38 40  1  0
 41 39  1  0
 42 39  1  0
 43 41  2  0
 41 44  1  0
 45 42  2  0
 46 43  1  0
 44 47  2  0
 44 45  1  0
 48 46  2  0
 48 47  1  0
 47 49  1  0
  6 50  1  1
  7 51  1  0
  7 52  1  0
  8 53  1  0
  8 54  1  0
 10 55  1  0
 11 56  1  0
 12 57  1  0
 13 58  1  0
 16 59  1  6
 17 60  1  0
 17 61  1  0
 17 62  1  0
 19 63  1  0
 22 64  1  0
 28 65  1  0
 28 66  1  0
 32 67  1  0
 32 68  1  0
 33 69  1  0
 35 70  1  0
 36 71  1  0
 37 72  1  0
 38 73  1  0
 40 74  1  0
 42 75  1  0
 46 76  1  0
 49 77  1  0
 49 78  1  0
M  CHG  3   5  -1  23   1  26  -1
M  END
>  <EmbedRMS>  (408) 
0.0816565548337

$$$$

     RDKit          3D

 78 83  0  0  0  0  0  0  0  0999 V2000
   10.2836   43.7661   33.8256 C   0  0  0  0  0  0  0  0  0  0  0  0
   11.4103   43.5930   34.3753 O   0  0  0  0  0  0  0  0  0  0  0  0
    9.3640   42.7252   33.7347 O   0  0  0  0  0  0  0  0  0  0  0  0
    9.8908   41.2264   34.2939 P   0  0  0  0  0  0  0  0  0  0  0  0
   10.3732   41.4558   35.8836 O   0  0  0  0  0  0  0  0  0  0  0  0
    9.9547   45.0693   33.2035 C   0  0  1  0  0  0  0  0  0  0  0  0
   11.0273   46.0321   33.4756 N   0  0  0  0  0  0  0  0  0  0  0  0
    9.7467   44.8478   31.6876 C   0  0  0  0  0  0  0  0  0  0  0  0
    8.7924   45.8404   31.0841 C   0  0  0  0  0  0  0  0  0  0  0  0
    7.4058   45.6016   31.0993 C   0  0  0  0  0  0  0  0  0  0  0  0
    9.2820   46.9876   30.4426 C   0  0  0  0  0  0  0  0  0  0  0  0
    6.5271   46.5036   30.4848 C   0  0  0  0  0  0  0  0  0  0  0  0
    8.4033   47.8906   29.8324 C   0  0  0  0  0  0  0  0  0  0  0  0
    7.0134   47.6526   29.8456 C   0  0  0  0  0  0  0  0  0  0  0  0
    6.0815   48.5211   29.2528 O   0  0  0  0  0  0  0  0  0  0  0  0
    6.3875   49.6711   28.4598 C   0  0  1  0  0  0  0  0  0  0  0  0
    6.8874   49.2468   27.0723 C   0  0  0  0  0  0  0  0  0  0  0  0
    5.1366   50.5222   28.3338 C   0  0  0  0  0  0  0  0  0  0  0  0
    3.9758   49.9407   27.7647 C   0  0  0  0  0  0  0  0  0  0  0  0
    5.1027   51.8996   28.7330 C   0  0  0  0  0  0  0  0  0  0  0  0
    2.8567   50.7406   27.5738 C   0  0  0  0  0  0  0  0  0  0  0  0
    3.9405   52.6690   28.4984 C   0  0  0  0  0  0  0  0  0  0  0  0
    6.2132   52.5174   29.3982 N   0  0  0  0  0  0  0  0  0  0  0  0
    1.6342   50.3924   27.0323 O   0  0  0  0  0  0  0  0  0  0  0  0
    2.8419   52.0484   27.9193 C   0  0  0  0  0  0  0  0  0  0  0  0
    6.6997   51.9711   30.5635 O   0  0  0  0  0  0  0  0  0  0  0  0
    6.5594   53.6749   29.0843 O   0  0  0  0  0  0  0  0  0  0  0  0
    0.7991   51.5583   27.0392 C   0  0  0  0  0  0  0  0  0  0  0  0
    1.6092   52.5928   27.6141 O   0  0  0  0  0  0  0  0  0  0  0  0
    8.8127   40.1847   34.2122 O   0  0  0  0  0  0  0  0  0  0  0  0
   11.2421   40.7941   33.3697 O   0  0  0  0  0  0  0  0  0  0  0  0
   10.9187   40.6911   31.9971 C   0  0  0  0  0  0  0  0  0  0  0  0
   11.5172   39.3815   31.4407 C   0  0  0  0  0  0  0  0  0  0  0  0
   12.7493   39.0855   32.0728 O   0  0  0  0  0  0  0  0  0  0  0  0
   10.6023   38.1908   31.6665 C   0  0  0  0  0  0  0  0  0  0  0  0
   12.9319   37.6781   32.0281 C   0  0  0  0  0  0  0  0  0  0  0  0
    9.6392   38.0798   30.6452 O   0  0  0  0  0  0  0  0  0  0  0  0
   11.5715   37.0165   31.7056 C   0  0  0  0  0  0  0  0  0  0  0  0
   13.4847   37.2121   33.3235 N   0  0  0  0  0  0  0  0  0  0  0  0
   11.6187   36.3383   30.4695 O   0  0  0  0  0  0  0  0  0  0  0  0
   14.4801   36.3321   33.5724 C   0  0  0  0  0  0  0  0  0  0  0  0
   13.1137   37.6275   34.5688 C   0  0  0  0  0  0  0  0  0  0  0  0
   15.2073   35.6153   32.6738 N   0  0  0  0  0  0  0  0  0  0  0  0
   14.6759   36.2308   34.9179 C   0  0  0  0  0  0  0  0  0  0  0  0
   13.8216   37.0452   35.5781 N   0  0  0  0  0  0  0  0  0  0  0  0
   16.1640   34.7602   33.1546 C   0  0  0  0  0  0  0  0  0  0  0  0
   15.6526   35.3508   35.4129 C   0  0  0  0  0  0  0  0  0  0  0  0
   16.3794   34.6317   34.5041 N   0  0  0  0  0  0  0  0  0  0  0  0
   15.8999   35.1935   36.8088 N   0  0  0  0  0  0  0  0  0  0  0  0
    9.0120   45.4316   33.6713 H   0  0  0  0  0  0  0  0  0  0  0  0
   10.7258   46.9687   33.1213 H   0  0  0  0  0  0  0  0  0  0  0  0
   11.8906   45.7659   32.9469 H   0  0  0  0  0  0  0  0  0  0  0  0
    9.3416   43.8327   31.4762 H   0  0  0  0  0  0  0  0  0  0  0  0
   10.7231   44.8812   31.1556 H   0  0  0  0  0  0  0  0  0  0  0  0
    7.0085   44.7172   31.5820 H   0  0  0  0  0  0  0  0  0  0  0  0
   10.3466   47.1853   30.4137 H   0  0  0  0  0  0  0  0  0  0  0  0
    5.4625   46.3075   30.5042 H   0  0  0  0  0  0  0  0  0  0  0  0
    8.8216   48.7658   29.3579 H   0  0  0  0  0  0  0  0  0  0  0  0
    7.1974   50.2493   28.9408 H   0  0  0  0  0  0  0  0  0  0  0  0
    7.0446   50.1420   26.4332 H   0  0  0  0  0  0  0  0  0  0  0  0
    6.1594   48.5709   26.5768 H   0  0  0  0  0  0  0  0  0  0  0  0
    7.8538   48.7088   27.1548 H   0  0  0  0  0  0  0  0  0  0  0  0
    3.9502   48.8999   27.4684 H   0  0  0  0  0  0  0  0  0  0  0  0
    3.8883   53.7114   28.7854 H   0  0  0  0  0  0  0  0  0  0  0  0
    0.5100   51.8298   26.0023 H   0  0  0  0  0  0  0  0  0  0  0  0
   -0.1001   51.3829   27.6662 H   0  0  0  0  0  0  0  0  0  0  0  0
   11.3968   41.5460   31.4729 H   0  0  0  0  0  0  0  0  0  0  0  0
    9.8299   40.7410   31.7613 H   0  0  0  0  0  0  0  0  0  0  0  0
   11.6975   39.5067   30.3481 H   0  0  0  0  0  0  0  0  0  0  0  0
   10.1077   38.2648   32.6645 H   0  0  0  0  0  0  0  0  0  0  0  0
   13.6621   37.4467   31.2209 H   0  0  0  0  0  0  0  0  0  0  0  0
    8.8974   38.6944   30.8831 H   0  0  0  0  0  0  0  0  0  0  0  0
   11.2806   36.3073   32.5170 H   0  0  0  0  0  0  0  0  0  0  0  0
   10.8492   35.7110   30.4586 H   0  0  0  0  0  0  0  0  0  0  0  0
   12.3290   38.3524   34.7444 H   0  0  0  0  0  0  0  0  0  0  0  0
   16.7559   34.1780   32.4619 H   0  0  0  0  0  0  0  0  0  0  0  0
   16.6344   34.5301   37.1414 H   0  0  0  0  0  0  0  0  0  0  0  0
   15.3532   35.7363   37.5137 H   0  0  0  0  0  0  0  0  0  0  0  0
  1  2  2  0
  1  3  1  0
  3  4  1  0
  4  5  1  0
  6  1  1  0
  7  6  1  0
  6  8  1  0
  8  9  1  0
  9 10  2  0
 11  9  1  0
 10 12  1  0
 13 11  2  0
 12 14  2  0
 14 13  1  0
 14 15  1  0
 15 16  1  0
 16 17  1  0
 16 18  1  0
 18 19  2  0
 20 18  1  0
 19 21  1  0
 22 20  2  0
 20 23  1  0
 21 24  1  0
 21 25  2  0
 25 22  1  0
 23 26  1  0
 23 27  2  0
 24 28  1  0
 25 29  1  0
 28 29  1  0
  4 30  2  0
  4 31  1  0
 32 31  1  0
 32 33  1  0
 33 34  1  0
 33 35  1  0
 34 36  1  0
 35 37  1  0
 35 38  1  0
 38 36  1  0
 36 39  1  0
 38 40  1  0
 41 39  1  0
 42 39  1  0
 43 41  2  0
 41 44  1  0
 45 42  2  0
 46 43  1  0
 44 47  2  0
 44 45  1  0
 48 46  2  0
 48 47  1  0
 47 49  1  0
  6 50  1  1
  7 51  1  0
  7 52  1  0
  8 53  1  0
  8 54  1  0
 10 55  1  0
 11 56  1  0
 12 57  1  0
 13 58  1  0
 16 59  1  1
 17 60  1  0
 17 61  1  0
 17 62  1  0
 19 63  1  0
 22 64  1  0
 28 65  1  0
 28 66  1  0
 32 67  1  0
 32 68  1  0
 33 69  1  0
 35 70  1  0
 36 71  1  0
 37 72  1  0
 38 73  1  0
 40 74  1  0
 42 75  1  0
 46 76  1  0
 49 77  1  0
 49 78  1  0
M  CHG  3   5  -1  23   1  26  -1
M  END
>  <EmbedRMS>  (409) 
0.0829445506393

$$$$

     RDKit          3D

 78 83  0  0  0  0  0  0  0  0999 V2000
   10.2808   43.7664   33.8246 C   0  0  0  0  0  0  0  0  0  0  0  0
   11.4111   43.5917   34.3671 O   0  0  0  0  0  0  0  0  0  0  0  0
    9.3624   42.7250   33.7335 O   0  0  0  0  0  0  0  0  0  0  0  0
    9.8905   41.2275   34.2943 P   0  0  0  0  0  0  0  0  0  0  0  0
   10.3734   41.4589   35.8838 O   0  0  0  0  0  0  0  0  0  0  0  0
    9.9464   45.0732   33.2102 C   0  0  1  0  0  0  0  0  0  0  0  0
   11.0266   46.0294   33.4684 N   0  0  0  0  0  0  0  0  0  0  0  0
    9.7543   44.8529   31.6936 C   0  0  0  0  0  0  0  0  0  0  0  0
    8.7957   45.8396   31.0836 C   0  0  0  0  0  0  0  0  0  0  0  0
    7.4091   45.5978   31.0964 C   0  0  0  0  0  0  0  0  0  0  0  0
    9.2822   46.9878   30.4429 C   0  0  0  0  0  0  0  0  0  0  0  0
    6.5261   46.4960   30.4794 C   0  0  0  0  0  0  0  0  0  0  0  0
    8.3994   47.8910   29.8418 C   0  0  0  0  0  0  0  0  0  0  0  0
    7.0177   47.6579   29.8492 C   0  0  0  0  0  0  0  0  0  0  0  0
    6.1917   48.6153   29.2328 O   0  0  0  0  0  0  0  0  0  0  0  0
    4.7966   48.4977   28.9221 C   0  0  1  0  0  0  0  0  0  0  0  0
    4.5931   47.4255   27.8385 C   0  0  0  0  0  0  0  0  0  0  0  0
    3.9375   48.3630   30.1809 C   0  0  0  0  0  0  0  0  0  0  0  0
    2.9229   47.3687   30.2651 C   0  0  0  0  0  0  0  0  0  0  0  0
    4.1384   49.2393   31.3036 C   0  0  0  0  0  0  0  0  0  0  0  0
    2.1859   47.2623   31.4370 C   0  0  0  0  0  0  0  0  0  0  0  0
    3.3666   49.0654   32.4774 C   0  0  0  0  0  0  0  0  0  0  0  0
    5.1120   50.2994   31.2758 N   0  0  0  0  0  0  0  0  0  0  0  0
    1.1619   46.3816   31.7301 O   0  0  0  0  0  0  0  0  0  0  0  0
    2.4014   48.0708   32.4969 C   0  0  0  0  0  0  0  0  0  0  0  0
    5.2242   51.1202   30.1749 O   0  0  0  0  0  0  0  0  0  0  0  0
    5.7006   50.6279   32.3280 O   0  0  0  0  0  0  0  0  0  0  0  0
    0.7011   46.6624   33.0593 C   0  0  0  0  0  0  0  0  0  0  0  0
    1.5247   47.7438   33.5143 O   0  0  0  0  0  0  0  0  0  0  0  0
    8.8129   40.1854   34.2135 O   0  0  0  0  0  0  0  0  0  0  0  0
   11.2412   40.7943   33.3695 O   0  0  0  0  0  0  0  0  0  0  0  0
   10.9157   40.6905   31.9973 C   0  0  0  0  0  0  0  0  0  0  0  0
   11.5248   39.3883   31.4370 C   0  0  0  0  0  0  0  0  0  0  0  0
   12.7502   39.0868   32.0784 O   0  0  0  0  0  0  0  0  0  0  0  0
   10.6084   38.1924   31.6472 C   0  0  0  0  0  0  0  0  0  0  0  0
   12.9330   37.6785   32.0284 C   0  0  0  0  0  0  0  0  0  0  0  0
    9.6113   38.0880   30.6545 O   0  0  0  0  0  0  0  0  0  0  0  0
   11.5734   37.0145   31.7024 C   0  0  0  0  0  0  0  0  0  0  0  0
   13.4843   37.2103   33.3236 N   0  0  0  0  0  0  0  0  0  0  0  0
   11.6265   36.3237   30.4739 O   0  0  0  0  0  0  0  0  0  0  0  0
   14.4798   36.3306   33.5730 C   0  0  0  0  0  0  0  0  0  0  0  0
   13.1136   37.6268   34.5685 C   0  0  0  0  0  0  0  0  0  0  0  0
   15.2076   35.6142   32.6746 N   0  0  0  0  0  0  0  0  0  0  0  0
   14.6760   36.2303   34.9186 C   0  0  0  0  0  0  0  0  0  0  0  0
   13.8218   37.0454   35.5783 N   0  0  0  0  0  0  0  0  0  0  0  0
   16.1654   34.7604   33.1552 C   0  0  0  0  0  0  0  0  0  0  0  0
   15.6536   35.3511   35.4138 C   0  0  0  0  0  0  0  0  0  0  0  0
   16.3812   34.6325   34.5048 N   0  0  0  0  0  0  0  0  0  0  0  0
   15.9007   35.1930   36.8099 N   0  0  0  0  0  0  0  0  0  0  0  0
    9.0005   45.4376   33.6727 H   0  0  0  0  0  0  0  0  0  0  0  0
   11.0515   46.2274   34.4958 H   0  0  0  0  0  0  0  0  0  0  0  0
   10.7735   46.9367   33.0140 H   0  0  0  0  0  0  0  0  0  0  0  0
   10.7416   44.9032   31.1808 H   0  0  0  0  0  0  0  0  0  0  0  0
    9.3642   43.8351   31.4693 H   0  0  0  0  0  0  0  0  0  0  0  0
    7.0151   44.7125   31.5801 H   0  0  0  0  0  0  0  0  0  0  0  0
   10.3461   47.1876   30.4094 H   0  0  0  0  0  0  0  0  0  0  0  0
    5.4724   46.2729   30.5111 H   0  0  0  0  0  0  0  0  0  0  0  0
    8.7931   48.7776   29.3613 H   0  0  0  0  0  0  0  0  0  0  0  0
    4.4942   49.4527   28.4439 H   0  0  0  0  0  0  0  0  0  0  0  0
    5.2951   47.6140   26.9986 H   0  0  0  0  0  0  0  0  0  0  0  0
    3.5604   47.4763   27.4331 H   0  0  0  0  0  0  0  0  0  0  0  0
    4.7884   46.4056   28.2300 H   0  0  0  0  0  0  0  0  0  0  0  0
    2.7043   46.6857   29.4569 H   0  0  0  0  0  0  0  0  0  0  0  0
    3.4958   49.7071   33.3399 H   0  0  0  0  0  0  0  0  0  0  0  0
    0.8392   45.7729   33.7105 H   0  0  0  0  0  0  0  0  0  0  0  0
   -0.3648   46.9749   33.0377 H   0  0  0  0  0  0  0  0  0  0  0  0
    9.8247   40.7236   31.7648 H   0  0  0  0  0  0  0  0  0  0  0  0
   11.3824   41.5510   31.4716 H   0  0  0  0  0  0  0  0  0  0  0  0
   11.7260   39.5317   30.3503 H   0  0  0  0  0  0  0  0  0  0  0  0
   10.1096   38.2737   32.6387 H   0  0  0  0  0  0  0  0  0  0  0  0
   13.6649   37.4503   31.2212 H   0  0  0  0  0  0  0  0  0  0  0  0
   10.0498   38.1150   29.7645 H   0  0  0  0  0  0  0  0  0  0  0  0
   11.2765   36.3154   32.5202 H   0  0  0  0  0  0  0  0  0  0  0  0
   10.8572   35.6958   30.4658 H   0  0  0  0  0  0  0  0  0  0  0  0
   12.3290   38.3523   34.7429 H   0  0  0  0  0  0  0  0  0  0  0  0
   16.7584   34.1797   32.4617 H   0  0  0  0  0  0  0  0  0  0  0  0
   16.6361   34.5301   37.1410 H   0  0  0  0  0  0  0  0  0  0  0  0
   15.3557   35.7355   37.5165 H   0  0  0  0  0  0  0  0  0  0  0  0
  1  2  2  0
  1  3  1  0
  3  4  1  0
  4  5  1  0
  6  1  1  0
  7  6  1  0
  6  8  1  0
  8  9  1  0
  9 10  2  0
 11  9  1  0
 10 12  1  0
 13 11  2  0
 12 14  2  0
 14 13  1  0
 14 15  1  0
 15 16  1  0
 16 17  1  0
 16 18  1  0
 18 19  2  0
 20 18  1  0
 19 21  1  0
 22 20  2  0
 20 23  1  0
 21 24  1  0
 21 25  2  0
 25 22  1  0
 23 26  1  0
 23 27  2  0
 24 28  1  0
 25 29  1  0
 28 29  1  0
  4 30  2  0
  4 31  1  0
 32 31  1  0
 32 33  1  0
 33 34  1  0
 33 35  1  0
 34 36  1  0
 35 37  1  0
 35 38  1  0
 38 36  1  0
 36 39  1  0
 38 40  1  0
 41 39  1  0
 42 39  1  0
 43 41  2  0
 41 44  1  0
 45 42  2  0
 46 43  1  0
 44 47  2  0
 44 45  1  0
 48 46  2  0
 48 47  1  0
 47 49  1  0
  6 50  1  1
  7 51  1  0
  7 52  1  0
  8 53  1  0
  8 54  1  0
 10 55  1  0
 11 56  1  0
 12 57  1  0
 13 58  1  0
 16 59  1  6
 17 60  1  0
 17 61  1  0
 17 62  1  0
 19 63  1  0
 22 64  1  0
 28 65  1  0
 28 66  1  0
 32 67  1  0
 32 68  1  0
 33 69  1  0
 35 70  1  0
 36 71  1  0
 37 72  1  0
 38 73  1  0
 40 74  1  0
 42 75  1  0
 46 76  1  0
 49 77  1  0
 49 78  1  0
M  CHG  3   5  -1  23   1  26  -1
M  END
>  <EmbedRMS>  (410) 
0.0814837312757

$$$$

     RDKit          3D

 78 83  0  0  0  0  0  0  0  0999 V2000
   10.2803   43.7664   33.8246 C   0  0  0  0  0  0  0  0  0  0  0  0
   11.4109   43.5920   34.3665 O   0  0  0  0  0  0  0  0  0  0  0  0
    9.3618   42.7249   33.7343 O   0  0  0  0  0  0  0  0  0  0  0  0
    9.8899   41.2267   34.2939 P   0  0  0  0  0  0  0  0  0  0  0  0
   10.3734   41.4567   35.8832 O   0  0  0  0  0  0  0  0  0  0  0  0
    9.9458   45.0736   33.2107 C   0  0  1  0  0  0  0  0  0  0  0  0
   11.0265   46.0292   33.4704 N   0  0  0  0  0  0  0  0  0  0  0  0
    9.7535   44.8542   31.6943 C   0  0  0  0  0  0  0  0  0  0  0  0
    8.7952   45.8412   31.0840 C   0  0  0  0  0  0  0  0  0  0  0  0
    7.4072   45.6005   31.1020 C   0  0  0  0  0  0  0  0  0  0  0  0
    9.2828   46.9901   30.4403 C   0  0  0  0  0  0  0  0  0  0  0  0
    6.5260   46.5021   30.4889 C   0  0  0  0  0  0  0  0  0  0  0  0
    8.4000   47.8910   29.8327 C   0  0  0  0  0  0  0  0  0  0  0  0
    7.0211   47.6448   29.8438 C   0  0  0  0  0  0  0  0  0  0  0  0
    6.1426   48.5433   29.2309 O   0  0  0  0  0  0  0  0  0  0  0  0
    5.6756   48.3977   27.8857 C   0  0  1  0  0  0  0  0  0  0  0  0
    6.8055   48.6599   26.8792 C   0  0  0  0  0  0  0  0  0  0  0  0
    4.9695   47.0599   27.6856 C   0  0  0  0  0  0  0  0  0  0  0  0
    5.7194   45.9086   27.3278 C   0  0  0  0  0  0  0  0  0  0  0  0
    3.5502   46.9344   27.8681 C   0  0  0  0  0  0  0  0  0  0  0  0
    5.0446   44.7148   27.1126 C   0  0  0  0  0  0  0  0  0  0  0  0
    2.9171   45.6971   27.6126 C   0  0  0  0  0  0  0  0  0  0  0  0
    2.7477   48.0293   28.3389 N   0  0  0  0  0  0  0  0  0  0  0  0
    5.5664   43.4869   26.7538 O   0  0  0  0  0  0  0  0  0  0  0  0
    3.7025   44.6152   27.2412 C   0  0  0  0  0  0  0  0  0  0  0  0
    1.4520   48.1673   27.8969 O   0  0  0  0  0  0  0  0  0  0  0  0
    3.1284   48.7167   29.3088 O   0  0  0  0  0  0  0  0  0  0  0  0
    4.4792   42.5577   26.6494 C   0  0  0  0  0  0  0  0  0  0  0  0
    3.3070   43.3197   26.9688 O   0  0  0  0  0  0  0  0  0  0  0  0
    8.8123   40.1844   34.2133 O   0  0  0  0  0  0  0  0  0  0  0  0
   11.2405   40.7942   33.3691 O   0  0  0  0  0  0  0  0  0  0  0  0
   10.9150   40.6905   31.9972 C   0  0  0  0  0  0  0  0  0  0  0  0
   11.5252   39.3886   31.4375 C   0  0  0  0  0  0  0  0  0  0  0  0
   12.7499   39.0874   32.0799 O   0  0  0  0  0  0  0  0  0  0  0  0
   10.6092   38.1926   31.6469 C   0  0  0  0  0  0  0  0  0  0  0  0
   12.9332   37.6793   32.0294 C   0  0  0  0  0  0  0  0  0  0  0  0
    9.6121   38.0895   30.6542 O   0  0  0  0  0  0  0  0  0  0  0  0
   11.5743   37.0145   31.7024 C   0  0  0  0  0  0  0  0  0  0  0  0
   13.4844   37.2108   33.3241 N   0  0  0  0  0  0  0  0  0  0  0  0
   11.6297   36.3239   30.4740 O   0  0  0  0  0  0  0  0  0  0  0  0
   14.4802   36.3313   33.5726 C   0  0  0  0  0  0  0  0  0  0  0  0
   13.1138   37.6266   34.5692 C   0  0  0  0  0  0  0  0  0  0  0  0
   15.2075   35.6149   32.6739 N   0  0  0  0  0  0  0  0  0  0  0  0
   14.6761   36.2303   34.9181 C   0  0  0  0  0  0  0  0  0  0  0  0
   13.8220   37.0447   35.5785 N   0  0  0  0  0  0  0  0  0  0  0  0
   16.1643   34.7600   33.1547 C   0  0  0  0  0  0  0  0  0  0  0  0
   15.6529   35.3505   35.4130 C   0  0  0  0  0  0  0  0  0  0  0  0
   16.3798   34.6315   34.5042 N   0  0  0  0  0  0  0  0  0  0  0  0
   15.9003   35.1932   36.8090 N   0  0  0  0  0  0  0  0  0  0  0  0
    8.9994   45.4382   33.6718 H   0  0  0  0  0  0  0  0  0  0  0  0
   11.0501   46.2277   34.4978 H   0  0  0  0  0  0  0  0  0  0  0  0
   10.7763   46.9369   33.0155 H   0  0  0  0  0  0  0  0  0  0  0  0
    9.3636   43.8355   31.4707 H   0  0  0  0  0  0  0  0  0  0  0  0
   10.7405   44.9077   31.1827 H   0  0  0  0  0  0  0  0  0  0  0  0
    7.0116   44.7171   31.5878 H   0  0  0  0  0  0  0  0  0  0  0  0
   10.3465   47.1909   30.4081 H   0  0  0  0  0  0  0  0  0  0  0  0
    5.4608   46.3104   30.5118 H   0  0  0  0  0  0  0  0  0  0  0  0
    8.7880   48.7759   29.3447 H   0  0  0  0  0  0  0  0  0  0  0  0
    4.9458   49.2128   27.6994 H   0  0  0  0  0  0  0  0  0  0  0  0
    7.1531   49.7103   26.9774 H   0  0  0  0  0  0  0  0  0  0  0  0
    6.4374   48.5080   25.8420 H   0  0  0  0  0  0  0  0  0  0  0  0
    7.6771   47.9984   27.0568 H   0  0  0  0  0  0  0  0  0  0  0  0
    6.7944   45.9304   27.2224 H   0  0  0  0  0  0  0  0  0  0  0  0
    1.8488   45.5739   27.7358 H   0  0  0  0  0  0  0  0  0  0  0  0
    4.4093   42.1630   25.6141 H   0  0  0  0  0  0  0  0  0  0  0  0
    4.6092   41.7309   27.3788 H   0  0  0  0  0  0  0  0  0  0  0  0
   11.3801   41.5528   31.4730 H   0  0  0  0  0  0  0  0  0  0  0  0
    9.8241   40.7216   31.7640 H   0  0  0  0  0  0  0  0  0  0  0  0
   11.7266   39.5310   30.3512 H   0  0  0  0  0  0  0  0  0  0  0  0
   10.1110   38.2747   32.6387 H   0  0  0  0  0  0  0  0  0  0  0  0
   13.6652   37.4519   31.2226 H   0  0  0  0  0  0  0  0  0  0  0  0
   10.0510   38.1144   29.7645 H   0  0  0  0  0  0  0  0  0  0  0  0
   11.2761   36.3141   32.5190 H   0  0  0  0  0  0  0  0  0  0  0  0
   10.8592   35.6978   30.4640 H   0  0  0  0  0  0  0  0  0  0  0  0
   12.3294   38.3517   34.7449 H   0  0  0  0  0  0  0  0  0  0  0  0
   16.7563   34.1779   32.4620 H   0  0  0  0  0  0  0  0  0  0  0  0
   16.6349   34.5300   37.1415 H   0  0  0  0  0  0  0  0  0  0  0  0
   15.3534   35.7359   37.5138 H   0  0  0  0  0  0  0  0  0  0  0  0
  1  2  2  0
  1  3  1  0
  3  4  1  0
  4  5  1  0
  6  1  1  0
  7  6  1  0
  6  8  1  0
  8  9  1  0
  9 10  2  0
 11  9  1  0
 10 12  1  0
 13 11  2  0
 12 14  2  0
 14 13  1  0
 14 15  1  0
 15 16  1  0
 16 17  1  0
 16 18  1  0
 18 19  2  0
 20 18  1  0
 19 21  1  0
 22 20  2  0
 20 23  1  0
 21 24  1  0
 21 25  2  0
 25 22  1  0
 23 26  1  0
 23 27  2  0
 24 28  1  0
 25 29  1  0
 28 29  1  0
  4 30  2  0
  4 31  1  0
 32 31  1  0
 32 33  1  0
 33 34  1  0
 33 35  1  0
 34 36  1  0
 35 37  1  0
 35 38  1  0
 38 36  1  0
 36 39  1  0
 38 40  1  0
 41 39  1  0
 42 39  1  0
 43 41  2  0
 41 44  1  0
 45 42  2  0
 46 43  1  0
 44 47  2  0
 44 45  1  0
 48 46  2  0
 48 47  1  0
 47 49  1  0
  6 50  1  1
  7 51  1  0
  7 52  1  0
  8 53  1  0
  8 54  1  0
 10 55  1  0
 11 56  1  0
 12 57  1  0
 13 58  1  0
 16 59  1  6
 17 60  1  0
 17 61  1  0
 17 62  1  0
 19 63  1  0
 22 64  1  0
 28 65  1  0
 28 66  1  0
 32 67  1  0
 32 68  1  0
 33 69  1  0
 35 70  1  0
 36 71  1  0
 37 72  1  0
 38 73  1  0
 40 74  1  0
 42 75  1  0
 46 76  1  0
 49 77  1  0
 49 78  1  0
M  CHG  3   5  -1  23   1  26  -1
M  END
>  <EmbedRMS>  (411) 
0.0817607541219

$$$$

     RDKit          3D

 78 83  0  0  0  0  0  0  0  0999 V2000
   10.2838   43.7627   33.8276 C   0  0  0  0  0  0  0  0  0  0  0  0
   11.4103   43.5864   34.3767 O   0  0  0  0  0  0  0  0  0  0  0  0
    9.3631   42.7236   33.7353 O   0  0  0  0  0  0  0  0  0  0  0  0
    9.8897   41.2248   34.2935 P   0  0  0  0  0  0  0  0  0  0  0  0
   10.3734   41.4543   35.8829 O   0  0  0  0  0  0  0  0  0  0  0  0
    9.9548   45.0700   33.2064 C   0  0  1  0  0  0  0  0  0  0  0  0
   11.0197   46.0482   33.4572 N   0  0  0  0  0  0  0  0  0  0  0  0
    9.7508   44.8510   31.6923 C   0  0  0  0  0  0  0  0  0  0  0  0
    8.7948   45.8416   31.0866 C   0  0  0  0  0  0  0  0  0  0  0  0
    7.4086   45.6008   31.1001 C   0  0  0  0  0  0  0  0  0  0  0  0
    9.2826   46.9885   30.4444 C   0  0  0  0  0  0  0  0  0  0  0  0
    6.5263   46.4998   30.4852 C   0  0  0  0  0  0  0  0  0  0  0  0
    8.4005   47.8872   29.8339 C   0  0  0  0  0  0  0  0  0  0  0  0
    7.0179   47.6568   29.8455 C   0  0  0  0  0  0  0  0  0  0  0  0
    6.1921   48.6094   29.2203 O   0  0  0  0  0  0  0  0  0  0  0  0
    4.7641   48.5826   29.0918 C   0  0  1  0  0  0  0  0  0  0  0  0
    4.3467   47.5094   28.0738 C   0  0  0  0  0  0  0  0  0  0  0  0
    4.0752   48.5349   30.4571 C   0  0  0  0  0  0  0  0  0  0  0  0
    3.0560   47.5807   30.7268 C   0  0  0  0  0  0  0  0  0  0  0  0
    4.4674   49.4403   31.5042 C   0  0  0  0  0  0  0  0  0  0  0  0
    2.5100   47.5297   32.0020 C   0  0  0  0  0  0  0  0  0  0  0  0
    3.8841   49.3270   32.7862 C   0  0  0  0  0  0  0  0  0  0  0  0
    5.4558   50.4633   31.2943 N   0  0  0  0  0  0  0  0  0  0  0  0
    1.5312   46.6808   32.4823 O   0  0  0  0  0  0  0  0  0  0  0  0
    2.9097   48.3616   32.9888 C   0  0  0  0  0  0  0  0  0  0  0  0
    6.3009   50.8190   32.3202 O   0  0  0  0  0  0  0  0  0  0  0  0
    5.4306   51.1685   30.2652 O   0  0  0  0  0  0  0  0  0  0  0  0
    1.3034   47.0032   33.8609 C   0  0  0  0  0  0  0  0  0  0  0  0
    2.2043   48.0824   34.1436 O   0  0  0  0  0  0  0  0  0  0  0  0
    8.8114   40.1834   34.2126 O   0  0  0  0  0  0  0  0  0  0  0  0
   11.2401   40.7936   33.3673 O   0  0  0  0  0  0  0  0  0  0  0  0
   10.9134   40.6864   31.9955 C   0  0  0  0  0  0  0  0  0  0  0  0
   11.5166   39.3786   31.4404 C   0  0  0  0  0  0  0  0  0  0  0  0
   12.7486   39.0849   32.0734 O   0  0  0  0  0  0  0  0  0  0  0  0
   10.6039   38.1883   31.6669 C   0  0  0  0  0  0  0  0  0  0  0  0
   12.9329   37.6775   32.0284 C   0  0  0  0  0  0  0  0  0  0  0  0
    9.6373   38.0938   30.6484 O   0  0  0  0  0  0  0  0  0  0  0  0
   11.5737   37.0140   31.7055 C   0  0  0  0  0  0  0  0  0  0  0  0
   13.4853   37.2120   33.3238 N   0  0  0  0  0  0  0  0  0  0  0  0
   11.6210   36.3379   30.4683 O   0  0  0  0  0  0  0  0  0  0  0  0
   14.4804   36.3319   33.5726 C   0  0  0  0  0  0  0  0  0  0  0  0
   13.1141   37.6275   34.5689 C   0  0  0  0  0  0  0  0  0  0  0  0
   15.2076   35.6152   32.6740 N   0  0  0  0  0  0  0  0  0  0  0  0
   14.6761   36.2307   34.9181 C   0  0  0  0  0  0  0  0  0  0  0  0
   13.8218   37.0451   35.5783 N   0  0  0  0  0  0  0  0  0  0  0  0
   16.1642   34.7600   33.1548 C   0  0  0  0  0  0  0  0  0  0  0  0
   15.6527   35.3507   35.4131 C   0  0  0  0  0  0  0  0  0  0  0  0
   16.3795   34.6315   34.5043 N   0  0  0  0  0  0  0  0  0  0  0  0
   15.9000   35.1933   36.8090 N   0  0  0  0  0  0  0  0  0  0  0  0
    9.0097   45.4349   33.6667 H   0  0  0  0  0  0  0  0  0  0  0  0
   11.1129   46.1994   34.4885 H   0  0  0  0  0  0  0  0  0  0  0  0
   11.9349   45.6935   33.0932 H   0  0  0  0  0  0  0  0  0  0  0  0
    9.3522   43.8344   31.4758 H   0  0  0  0  0  0  0  0  0  0  0  0
   10.7313   44.8931   31.1678 H   0  0  0  0  0  0  0  0  0  0  0  0
    7.0135   44.7158   31.5837 H   0  0  0  0  0  0  0  0  0  0  0  0
   10.3465   47.1893   30.4151 H   0  0  0  0  0  0  0  0  0  0  0  0
    5.4733   46.2774   30.5238 H   0  0  0  0  0  0  0  0  0  0  0  0
    8.7942   48.7706   29.3472 H   0  0  0  0  0  0  0  0  0  0  0  0
    4.4660   49.5462   28.6275 H   0  0  0  0  0  0  0  0  0  0  0  0
    3.2701   47.6157   27.8215 H   0  0  0  0  0  0  0  0  0  0  0  0
    4.5358   46.4848   28.4508 H   0  0  0  0  0  0  0  0  0  0  0  0
    4.9275   47.6435   27.1366 H   0  0  0  0  0  0  0  0  0  0  0  0
    2.7025   46.8783   29.9863 H   0  0  0  0  0  0  0  0  0  0  0  0
    4.1677   49.9876   33.5954 H   0  0  0  0  0  0  0  0  0  0  0  0
    1.5389   46.1292   34.5037 H   0  0  0  0  0  0  0  0  0  0  0  0
    0.2534   47.3313   34.0103 H   0  0  0  0  0  0  0  0  0  0  0  0
    9.8226   40.7225   31.7628 H   0  0  0  0  0  0  0  0  0  0  0  0
   11.3831   41.5438   31.4675 H   0  0  0  0  0  0  0  0  0  0  0  0
   11.6978   39.5037   30.3478 H   0  0  0  0  0  0  0  0  0  0  0  0
   10.1084   38.2786   32.6626 H   0  0  0  0  0  0  0  0  0  0  0  0
   13.6638   37.4472   31.2214 H   0  0  0  0  0  0  0  0  0  0  0  0
    8.9763   37.4190   30.9532 H   0  0  0  0  0  0  0  0  0  0  0  0
   11.2821   36.3054   32.5171 H   0  0  0  0  0  0  0  0  0  0  0  0
   10.8658   35.6935   30.4652 H   0  0  0  0  0  0  0  0  0  0  0  0
   12.3293   38.3523   34.7444 H   0  0  0  0  0  0  0  0  0  0  0  0
   16.7561   34.1778   32.4621 H   0  0  0  0  0  0  0  0  0  0  0  0
   15.3533   35.7361   37.5138 H   0  0  0  0  0  0  0  0  0  0  0  0
   16.6345   34.5300   37.1416 H   0  0  0  0  0  0  0  0  0  0  0  0
  1  2  2  0
  1  3  1  0
  3  4  1  0
  4  5  1  0
  6  1  1  0
  7  6  1  0
  6  8  1  0
  8  9  1  0
  9 10  2  0
 11  9  1  0
 10 12  1  0
 13 11  2  0
 12 14  2  0
 14 13  1  0
 14 15  1  0
 15 16  1  0
 16 17  1  0
 16 18  1  0
 18 19  2  0
 20 18  1  0
 19 21  1  0
 22 20  2  0
 20 23  1  0
 21 24  1  0
 21 25  2  0
 25 22  1  0
 23 26  1  0
 23 27  2  0
 24 28  1  0
 25 29  1  0
 28 29  1  0
  4 30  2  0
  4 31  1  0
 32 31  1  0
 32 33  1  0
 33 34  1  0
 33 35  1  0
 34 36  1  0
 35 37  1  0
 35 38  1  0
 38 36  1  0
 36 39  1  0
 38 40  1  0
 41 39  1  0
 42 39  1  0
 43 41  2  0
 41 44  1  0
 45 42  2  0
 46 43  1  0
 44 47  2  0
 44 45  1  0
 48 46  2  0
 48 47  1  0
 47 49  1  0
  6 50  1  1
  7 51  1  0
  7 52  1  0
  8 53  1  0
  8 54  1  0
 10 55  1  0
 11 56  1  0
 12 57  1  0
 13 58  1  0
 16 59  1  6
 17 60  1  0
 17 61  1  0
 17 62  1  0
 19 63  1  0
 22 64  1  0
 28 65  1  0
 28 66  1  0
 32 67  1  0
 32 68  1  0
 33 69  1  0
 35 70  1  0
 36 71  1  0
 37 72  1  0
 38 73  1  0
 40 74  1  0
 42 75  1  0
 46 76  1  0
 49 77  1  0
 49 78  1  0
M  CHG  3   5  -1  23   1  26  -1
M  END
>  <EmbedRMS>  (412) 
0.0834347241746

$$$$

     RDKit          3D

 78 83  0  0  0  0  0  0  0  0999 V2000
   10.2803   43.7665   33.8251 C   0  0  0  0  0  0  0  0  0  0  0  0
   11.4110   43.5919   34.3666 O   0  0  0  0  0  0  0  0  0  0  0  0
    9.3616   42.7252   33.7349 O   0  0  0  0  0  0  0  0  0  0  0  0
    9.8896   41.2269   34.2945 P   0  0  0  0  0  0  0  0  0  0  0  0
   10.3732   41.4568   35.8838 O   0  0  0  0  0  0  0  0  0  0  0  0
    9.9458   45.0737   33.2113 C   0  0  1  0  0  0  0  0  0  0  0  0
   11.0266   46.0293   33.4705 N   0  0  0  0  0  0  0  0  0  0  0  0
    9.7534   44.8539   31.6951 C   0  0  0  0  0  0  0  0  0  0  0  0
    8.7955   45.8411   31.0849 C   0  0  0  0  0  0  0  0  0  0  0  0
    7.4087   45.6001   31.1001 C   0  0  0  0  0  0  0  0  0  0  0  0
    9.2831   46.9874   30.4396 C   0  0  0  0  0  0  0  0  0  0  0  0
    6.5282   46.5006   30.4846 C   0  0  0  0  0  0  0  0  0  0  0  0
    8.4027   47.8885   29.8297 C   0  0  0  0  0  0  0  0  0  0  0  0
    7.0134   47.6523   29.8500 C   0  0  0  0  0  0  0  0  0  0  0  0
    6.0859   48.5265   29.2597 O   0  0  0  0  0  0  0  0  0  0  0  0
    6.4030   49.7868   28.6621 C   0  0  1  0  0  0  0  0  0  0  0  0
    5.1609   50.3193   27.9501 C   0  0  0  0  0  0  0  0  0  0  0  0
    6.8615   50.7784   29.7185 C   0  0  0  0  0  0  0  0  0  0  0  0
    6.1510   50.8389   30.9426 C   0  0  0  0  0  0  0  0  0  0  0  0
    8.0173   51.6091   29.5368 C   0  0  0  0  0  0  0  0  0  0  0  0
    6.6248   51.6755   31.9442 C   0  0  0  0  0  0  0  0  0  0  0  0
    8.4617   52.4284   30.5990 C   0  0  0  0  0  0  0  0  0  0  0  0
    8.7363   51.6454   28.2943 N   0  0  0  0  0  0  0  0  0  0  0  0
    6.1067   51.8808   33.2084 O   0  0  0  0  0  0  0  0  0  0  0  0
    7.7343   52.4323   31.7818 C   0  0  0  0  0  0  0  0  0  0  0  0
   10.1025   51.8069   28.3003 O   0  0  0  0  0  0  0  0  0  0  0  0
    8.1206   51.7682   27.2156 O   0  0  0  0  0  0  0  0  0  0  0  0
    6.9461   52.8290   33.8816 C   0  0  0  0  0  0  0  0  0  0  0  0
    7.9727   53.1553   32.9348 O   0  0  0  0  0  0  0  0  0  0  0  0
    8.8122   40.1844   34.2135 O   0  0  0  0  0  0  0  0  0  0  0  0
   11.2401   40.7950   33.3698 O   0  0  0  0  0  0  0  0  0  0  0  0
   10.9143   40.6914   31.9981 C   0  0  0  0  0  0  0  0  0  0  0  0
   11.5269   39.3912   31.4385 C   0  0  0  0  0  0  0  0  0  0  0  0
   12.7519   39.0911   32.0837 O   0  0  0  0  0  0  0  0  0  0  0  0
   10.6113   38.1932   31.6451 C   0  0  0  0  0  0  0  0  0  0  0  0
   12.9413   37.6838   32.0297 C   0  0  0  0  0  0  0  0  0  0  0  0
    9.6064   38.0878   30.6599 O   0  0  0  0  0  0  0  0  0  0  0  0
   11.5822   37.0197   31.6877 C   0  0  0  0  0  0  0  0  0  0  0  0
   13.4840   37.2104   33.3254 N   0  0  0  0  0  0  0  0  0  0  0  0
   11.6179   36.3072   30.4690 O   0  0  0  0  0  0  0  0  0  0  0  0
   14.4797   36.3309   33.5738 C   0  0  0  0  0  0  0  0  0  0  0  0
   13.1137   37.6269   34.5702 C   0  0  0  0  0  0  0  0  0  0  0  0
   15.2074   35.6152   32.6747 N   0  0  0  0  0  0  0  0  0  0  0  0
   14.6756   36.2298   34.9190 C   0  0  0  0  0  0  0  0  0  0  0  0
   13.8217   37.0445   35.5793 N   0  0  0  0  0  0  0  0  0  0  0  0
   16.1643   34.7603   33.1551 C   0  0  0  0  0  0  0  0  0  0  0  0
   15.6528   35.3503   35.4136 C   0  0  0  0  0  0  0  0  0  0  0  0
   16.3798   34.6316   34.5046 N   0  0  0  0  0  0  0  0  0  0  0  0
   15.9004   35.1930   36.8094 N   0  0  0  0  0  0  0  0  0  0  0  0
    8.9995   45.4383   33.6724 H   0  0  0  0  0  0  0  0  0  0  0  0
   11.0504   46.2279   34.4979 H   0  0  0  0  0  0  0  0  0  0  0  0
   10.7762   46.9369   33.0156 H   0  0  0  0  0  0  0  0  0  0  0  0
    9.3634   43.8353   31.4717 H   0  0  0  0  0  0  0  0  0  0  0  0
   10.7405   44.9069   31.1836 H   0  0  0  0  0  0  0  0  0  0  0  0
    7.0130   44.7157   31.5841 H   0  0  0  0  0  0  0  0  0  0  0  0
   10.3474   47.1852   30.4051 H   0  0  0  0  0  0  0  0  0  0  0  0
    5.4637   46.3044   30.5053 H   0  0  0  0  0  0  0  0  0  0  0  0
    8.8161   48.7591   29.3414 H   0  0  0  0  0  0  0  0  0  0  0  0
    7.1823   49.6153   27.8915 H   0  0  0  0  0  0  0  0  0  0  0  0
    4.3211   50.4425   28.6670 H   0  0  0  0  0  0  0  0  0  0  0  0
    4.8481   49.6059   27.1584 H   0  0  0  0  0  0  0  0  0  0  0  0
    5.3779   51.2997   27.4751 H   0  0  0  0  0  0  0  0  0  0  0  0
    5.2701   50.2338   31.1162 H   0  0  0  0  0  0  0  0  0  0  0  0
    9.3334   53.0617   30.4959 H   0  0  0  0  0  0  0  0  0  0  0  0
    6.3649   53.7375   34.1449 H   0  0  0  0  0  0  0  0  0  0  0  0
    7.3931   52.3703   34.7884 H   0  0  0  0  0  0  0  0  0  0  0  0
   11.3775   41.5548   31.4741 H   0  0  0  0  0  0  0  0  0  0  0  0
    9.8233   40.7201   31.7652 H   0  0  0  0  0  0  0  0  0  0  0  0
   11.7312   39.5362   30.3532 H   0  0  0  0  0  0  0  0  0  0  0  0
   10.1202   38.2696   32.6410 H   0  0  0  0  0  0  0  0  0  0  0  0
   13.6850   37.4639   31.2321 H   0  0  0  0  0  0  0  0  0  0  0  0
   10.0251   38.1792   29.7654 H   0  0  0  0  0  0  0  0  0  0  0  0
   11.2757   36.3135   32.4908 H   0  0  0  0  0  0  0  0  0  0  0  0
   11.9838   36.9111   29.7708 H   0  0  0  0  0  0  0  0  0  0  0  0
   12.3307   38.3536   34.7458 H   0  0  0  0  0  0  0  0  0  0  0  0
   16.7566   34.1787   32.4623 H   0  0  0  0  0  0  0  0  0  0  0  0
   16.6353   34.5301   37.1419 H   0  0  0  0  0  0  0  0  0  0  0  0
   15.3535   35.7355   37.5144 H   0  0  0  0  0  0  0  0  0  0  0  0
  1  2  2  0
  1  3  1  0
  3  4  1  0
  4  5  1  0
  6  1  1  0
  7  6  1  0
  6  8  1  0
  8  9  1  0
  9 10  2  0
 11  9  1  0
 10 12  1  0
 13 11  2  0
 12 14  2  0
 14 13  1  0
 14 15  1  0
 15 16  1  0
 16 17  1  0
 16 18  1  0
 18 19  2  0
 20 18  1  0
 19 21  1  0
 22 20  2  0
 20 23  1  0
 21 24  1  0
 21 25  2  0
 25 22  1  0
 23 26  1  0
 23 27  2  0
 24 28  1  0
 25 29  1  0
 28 29  1  0
  4 30  2  0
  4 31  1  0
 32 31  1  0
 32 33  1  0
 33 34  1  0
 33 35  1  0
 34 36  1  0
 35 37  1  0
 35 38  1  0
 38 36  1  0
 36 39  1  0
 38 40  1  0
 41 39  1  0
 42 39  1  0
 43 41  2  0
 41 44  1  0
 45 42  2  0
 46 43  1  0
 44 47  2  0
 44 45  1  0
 48 46  2  0
 48 47  1  0
 47 49  1  0
  6 50  1  1
  7 51  1  0
  7 52  1  0
  8 53  1  0
  8 54  1  0
 10 55  1  0
 11 56  1  0
 12 57  1  0
 13 58  1  0
 16 59  1  6
 17 60  1  0
 17 61  1  0
 17 62  1  0
 19 63  1  0
 22 64  1  0
 28 65  1  0
 28 66  1  0
 32 67  1  0
 32 68  1  0
 33 69  1  0
 35 70  1  0
 36 71  1  0
 37 72  1  0
 38 73  1  0
 40 74  1  0
 42 75  1  0
 46 76  1  0
 49 77  1  0
 49 78  1  0
M  CHG  3   5  -1  23   1  26  -1
M  END
>  <EmbedRMS>  (413) 
0.0806555747607

$$$$

     RDKit          3D

 78 83  0  0  0  0  0  0  0  0999 V2000
   10.2838   43.7629   33.8277 C   0  0  0  0  0  0  0  0  0  0  0  0
   11.4103   43.5866   34.3766 O   0  0  0  0  0  0  0  0  0  0  0  0
    9.3631   42.7238   33.7355 O   0  0  0  0  0  0  0  0  0  0  0  0
    9.8895   41.2251   34.2947 P   0  0  0  0  0  0  0  0  0  0  0  0
   10.3720   41.4548   35.8843 O   0  0  0  0  0  0  0  0  0  0  0  0
    9.9545   45.0704   33.2066 C   0  0  1  0  0  0  0  0  0  0  0  0
   11.0194   46.0486   33.4571 N   0  0  0  0  0  0  0  0  0  0  0  0
    9.7499   44.8516   31.6926 C   0  0  0  0  0  0  0  0  0  0  0  0
    8.7938   45.8426   31.0876 C   0  0  0  0  0  0  0  0  0  0  0  0
    7.4062   45.5992   31.0977 C   0  0  0  0  0  0  0  0  0  0  0  0
    9.2835   46.9892   30.4426 C   0  0  0  0  0  0  0  0  0  0  0  0
    6.5259   46.4990   30.4805 C   0  0  0  0  0  0  0  0  0  0  0  0
    8.4021   47.8869   29.8287 C   0  0  0  0  0  0  0  0  0  0  0  0
    7.0206   47.6553   29.8584 C   0  0  0  0  0  0  0  0  0  0  0  0
    6.1560   48.5700   29.2485 O   0  0  0  0  0  0  0  0  0  0  0  0
    5.3593   49.5367   29.9477 C   0  0  1  0  0  0  0  0  0  0  0  0
    4.2773   48.8798   30.8128 C   0  0  0  0  0  0  0  0  0  0  0  0
    6.2255   50.5087   30.7450 C   0  0  0  0  0  0  0  0  0  0  0  0
    6.9458   50.0333   31.8718 C   0  0  0  0  0  0  0  0  0  0  0  0
    6.3887   51.8795   30.3486 C   0  0  0  0  0  0  0  0  0  0  0  0
    7.8151   50.8980   32.5223 C   0  0  0  0  0  0  0  0  0  0  0  0
    7.2993   52.7085   31.0405 C   0  0  0  0  0  0  0  0  0  0  0  0
    5.6356   52.4499   29.2701 N   0  0  0  0  0  0  0  0  0  0  0  0
    8.6196   50.6436   33.6163 O   0  0  0  0  0  0  0  0  0  0  0  0
    7.9891   52.1771   32.1210 C   0  0  0  0  0  0  0  0  0  0  0  0
    6.2631   53.2783   28.3687 O   0  0  0  0  0  0  0  0  0  0  0  0
    4.3881   52.4414   29.3129 O   0  0  0  0  0  0  0  0  0  0  0  0
    9.3446   51.8429   33.9203 C   0  0  0  0  0  0  0  0  0  0  0  0
    8.9114   52.7975   32.9416 O   0  0  0  0  0  0  0  0  0  0  0  0
    8.8117   40.1833   34.2124 O   0  0  0  0  0  0  0  0  0  0  0  0
   11.2411   40.7940   33.3709 O   0  0  0  0  0  0  0  0  0  0  0  0
   10.9179   40.6920   31.9985 C   0  0  0  0  0  0  0  0  0  0  0  0
   11.5175   39.3837   31.4423 C   0  0  0  0  0  0  0  0  0  0  0  0
   12.7508   39.0887   32.0752 O   0  0  0  0  0  0  0  0  0  0  0  0
   10.6028   38.1915   31.6658 C   0  0  0  0  0  0  0  0  0  0  0  0
   12.9385   37.6818   32.0278 C   0  0  0  0  0  0  0  0  0  0  0  0
    9.6371   38.0805   30.6470 O   0  0  0  0  0  0  0  0  0  0  0  0
   11.5780   37.0215   31.6935 C   0  0  0  0  0  0  0  0  0  0  0  0
   13.4844   37.2119   33.3242 N   0  0  0  0  0  0  0  0  0  0  0  0
   11.6095   36.3201   30.4679 O   0  0  0  0  0  0  0  0  0  0  0  0
   14.4797   36.3318   33.5730 C   0  0  0  0  0  0  0  0  0  0  0  0
   13.1135   37.6278   34.5691 C   0  0  0  0  0  0  0  0  0  0  0  0
   15.2073   35.6155   32.6742 N   0  0  0  0  0  0  0  0  0  0  0  0
   14.6754   36.2305   34.9184 C   0  0  0  0  0  0  0  0  0  0  0  0
   13.8213   37.0452   35.5785 N   0  0  0  0  0  0  0  0  0  0  0  0
   16.1640   34.7604   33.1549 C   0  0  0  0  0  0  0  0  0  0  0  0
   15.6524   35.3507   35.4132 C   0  0  0  0  0  0  0  0  0  0  0  0
   16.3794   34.6318   34.5044 N   0  0  0  0  0  0  0  0  0  0  0  0
   15.8999   35.1934   36.8091 N   0  0  0  0  0  0  0  0  0  0  0  0
    9.0095   45.4353   33.6673 H   0  0  0  0  0  0  0  0  0  0  0  0
   11.1126   46.2003   34.4883 H   0  0  0  0  0  0  0  0  0  0  0  0
   11.9346   45.6938   33.0931 H   0  0  0  0  0  0  0  0  0  0  0  0
   10.7302   44.8934   31.1678 H   0  0  0  0  0  0  0  0  0  0  0  0
    9.3509   43.8350   31.4763 H   0  0  0  0  0  0  0  0  0  0  0  0
    7.0107   44.7103   31.5733 H   0  0  0  0  0  0  0  0  0  0  0  0
   10.3475   47.1890   30.4126 H   0  0  0  0  0  0  0  0  0  0  0  0
    5.4649   46.2886   30.4788 H   0  0  0  0  0  0  0  0  0  0  0  0
    8.7909   48.7715   29.3406 H   0  0  0  0  0  0  0  0  0  0  0  0
    4.8110   50.0801   29.1567 H   0  0  0  0  0  0  0  0  0  0  0  0
    3.6680   48.1901   30.1912 H   0  0  0  0  0  0  0  0  0  0  0  0
    3.6060   49.6601   31.2307 H   0  0  0  0  0  0  0  0  0  0  0  0
    4.7135   48.3064   31.6552 H   0  0  0  0  0  0  0  0  0  0  0  0
    6.8547   49.0149   32.2232 H   0  0  0  0  0  0  0  0  0  0  0  0
    7.4454   53.7429   30.7570 H   0  0  0  0  0  0  0  0  0  0  0  0
    9.0894   52.1977   34.9408 H   0  0  0  0  0  0  0  0  0  0  0  0
   10.4365   51.6659   33.8258 H   0  0  0  0  0  0  0  0  0  0  0  0
   11.3954   41.5477   31.4750 H   0  0  0  0  0  0  0  0  0  0  0  0
    9.8292   40.7409   31.7624 H   0  0  0  0  0  0  0  0  0  0  0  0
   11.6981   39.5115   30.3500 H   0  0  0  0  0  0  0  0  0  0  0  0
   10.1117   38.2603   32.6660 H   0  0  0  0  0  0  0  0  0  0  0  0
   13.6767   37.4555   31.2267 H   0  0  0  0  0  0  0  0  0  0  0  0
    8.8961   38.6951   30.8872 H   0  0  0  0  0  0  0  0  0  0  0  0
   11.2792   36.3072   32.4922 H   0  0  0  0  0  0  0  0  0  0  0  0
   11.8829   36.9598   29.7588 H   0  0  0  0  0  0  0  0  0  0  0  0
   12.3300   38.3539   34.7446 H   0  0  0  0  0  0  0  0  0  0  0  0
   16.7561   34.1785   32.4622 H   0  0  0  0  0  0  0  0  0  0  0  0
   16.6347   34.5303   37.1417 H   0  0  0  0  0  0  0  0  0  0  0  0
   15.3531   35.7360   37.5140 H   0  0  0  0  0  0  0  0  0  0  0  0
  1  2  2  0
  1  3  1  0
  3  4  1  0
  4  5  1  0
  6  1  1  0
  7  6  1  0
  6  8  1  0
  8  9  1  0
  9 10  2  0
 11  9  1  0
 10 12  1  0
 13 11  2  0
 12 14  2  0
 14 13  1  0
 14 15  1  0
 15 16  1  0
 16 17  1  0
 16 18  1  0
 18 19  2  0
 20 18  1  0
 19 21  1  0
 22 20  2  0
 20 23  1  0
 21 24  1  0
 21 25  2  0
 25 22  1  0
 23 26  1  0
 23 27  2  0
 24 28  1  0
 25 29  1  0
 28 29  1  0
  4 30  2  0
  4 31  1  0
 32 31  1  0
 32 33  1  0
 33 34  1  0
 33 35  1  0
 34 36  1  0
 35 37  1  0
 35 38  1  0
 38 36  1  0
 36 39  1  0
 38 40  1  0
 41 39  1  0
 42 39  1  0
 43 41  2  0
 41 44  1  0
 45 42  2  0
 46 43  1  0
 44 47  2  0
 44 45  1  0
 48 46  2  0
 48 47  1  0
 47 49  1  0
  6 50  1  1
  7 51  1  0
  7 52  1  0
  8 53  1  0
  8 54  1  0
 10 55  1  0
 11 56  1  0
 12 57  1  0
 13 58  1  0
 16 59  1  6
 17 60  1  0
 17 61  1  0
 17 62  1  0
 19 63  1  0
 22 64  1  0
 28 65  1  0
 28 66  1  0
 32 67  1  0
 32 68  1  0
 33 69  1  0
 35 70  1  0
 36 71  1  0
 37 72  1  0
 38 73  1  0
 40 74  1  0
 42 75  1  0
 46 76  1  0
 49 77  1  0
 49 78  1  0
M  CHG  3   5  -1  23   1  26  -1
M  END
>  <EmbedRMS>  (414) 
0.0829586243186

$$$$

     RDKit          3D

 78 83  0  0  0  0  0  0  0  0999 V2000
   10.2837   43.7627   33.8273 C   0  0  0  0  0  0  0  0  0  0  0  0
   11.4102   43.5864   34.3764 O   0  0  0  0  0  0  0  0  0  0  0  0
    9.3629   42.7236   33.7352 O   0  0  0  0  0  0  0  0  0  0  0  0
    9.8893   41.2250   34.2943 P   0  0  0  0  0  0  0  0  0  0  0  0
   10.3727   41.4547   35.8837 O   0  0  0  0  0  0  0  0  0  0  0  0
    9.9547   45.0700   33.2059 C   0  0  1  0  0  0  0  0  0  0  0  0
   11.0197   46.0481   33.4566 N   0  0  0  0  0  0  0  0  0  0  0  0
    9.7500   44.8511   31.6917 C   0  0  0  0  0  0  0  0  0  0  0  0
    8.7939   45.8419   31.0862 C   0  0  0  0  0  0  0  0  0  0  0  0
    7.4059   45.6010   31.1013 C   0  0  0  0  0  0  0  0  0  0  0  0
    9.2831   46.9915   30.4453 C   0  0  0  0  0  0  0  0  0  0  0  0
    6.5259   46.5030   30.4876 C   0  0  0  0  0  0  0  0  0  0  0  0
    8.4013   47.8918   29.8348 C   0  0  0  0  0  0  0  0  0  0  0  0
    7.0221   47.6453   29.8433 C   0  0  0  0  0  0  0  0  0  0  0  0
    6.1431   48.5418   29.2285 O   0  0  0  0  0  0  0  0  0  0  0  0
    5.7076   48.4166   27.8706 C   0  0  1  0  0  0  0  0  0  0  0  0
    6.8507   48.7224   26.8920 C   0  0  0  0  0  0  0  0  0  0  0  0
    5.0357   47.0692   27.6247 C   0  0  0  0  0  0  0  0  0  0  0  0
    5.8245   45.9329   27.3050 C   0  0  0  0  0  0  0  0  0  0  0  0
    3.6111   46.9209   27.7190 C   0  0  0  0  0  0  0  0  0  0  0  0
    5.1836   44.7300   27.0421 C   0  0  0  0  0  0  0  0  0  0  0  0
    3.0141   45.6746   27.4193 C   0  0  0  0  0  0  0  0  0  0  0  0
    2.7701   48.0017   28.1533 N   0  0  0  0  0  0  0  0  0  0  0  0
    5.7462   43.5132   26.7077 O   0  0  0  0  0  0  0  0  0  0  0  0
    3.8380   44.6080   27.0891 C   0  0  0  0  0  0  0  0  0  0  0  0
    3.1091   48.7350   29.2670 O   0  0  0  0  0  0  0  0  0  0  0  0
    1.6289   48.1396   27.6662 O   0  0  0  0  0  0  0  0  0  0  0  0
    4.6825   42.5675   26.5323 C   0  0  0  0  0  0  0  0  0  0  0  0
    3.4810   43.3083   26.7855 O   0  0  0  0  0  0  0  0  0  0  0  0
    8.8113   40.1834   34.2130 O   0  0  0  0  0  0  0  0  0  0  0  0
   11.2399   40.7932   33.3692 O   0  0  0  0  0  0  0  0  0  0  0  0
   10.9143   40.6896   31.9973 C   0  0  0  0  0  0  0  0  0  0  0  0
   11.5260   39.3884   31.4375 C   0  0  0  0  0  0  0  0  0  0  0  0
   12.7504   39.0888   32.0815 O   0  0  0  0  0  0  0  0  0  0  0  0
   10.6114   38.1909   31.6460 C   0  0  0  0  0  0  0  0  0  0  0  0
   12.9357   37.6812   32.0303 C   0  0  0  0  0  0  0  0  0  0  0  0
    9.6145   38.0858   30.6533 O   0  0  0  0  0  0  0  0  0  0  0  0
   11.5769   37.0148   31.7012 C   0  0  0  0  0  0  0  0  0  0  0  0
   13.4849   37.2112   33.3247 N   0  0  0  0  0  0  0  0  0  0  0  0
   11.6192   36.3260   30.4724 O   0  0  0  0  0  0  0  0  0  0  0  0
   14.4802   36.3313   33.5730 C   0  0  0  0  0  0  0  0  0  0  0  0
   13.1141   37.6268   34.5697 C   0  0  0  0  0  0  0  0  0  0  0  0
   15.2074   35.6151   32.6740 N   0  0  0  0  0  0  0  0  0  0  0  0
   14.6761   36.2301   34.9184 C   0  0  0  0  0  0  0  0  0  0  0  0
   13.8220   37.0445   35.5788 N   0  0  0  0  0  0  0  0  0  0  0  0
   16.1642   34.7600   33.1547 C   0  0  0  0  0  0  0  0  0  0  0  0
   15.6529   35.3503   35.4131 C   0  0  0  0  0  0  0  0  0  0  0  0
   16.3797   34.6314   34.5042 N   0  0  0  0  0  0  0  0  0  0  0  0
   15.9004   35.1930   36.8090 N   0  0  0  0  0  0  0  0  0  0  0  0
    9.0097   45.4349   33.6666 H   0  0  0  0  0  0  0  0  0  0  0  0
   11.1133   46.1991   34.4879 H   0  0  0  0  0  0  0  0  0  0  0  0
   11.9347   45.6933   33.0921 H   0  0  0  0  0  0  0  0  0  0  0  0
   10.7302   44.8930   31.1668 H   0  0  0  0  0  0  0  0  0  0  0  0
    9.3509   43.8346   31.4755 H   0  0  0  0  0  0  0  0  0  0  0  0
    7.0094   44.7165   31.5844 H   0  0  0  0  0  0  0  0  0  0  0  0
   10.3469   47.1928   30.4182 H   0  0  0  0  0  0  0  0  0  0  0  0
    5.4607   46.3105   30.5062 H   0  0  0  0  0  0  0  0  0  0  0  0
    8.7902   48.7776   29.3492 H   0  0  0  0  0  0  0  0  0  0  0  0
    4.9662   49.2218   27.6886 H   0  0  0  0  0  0  0  0  0  0  0  0
    7.1843   49.7731   27.0280 H   0  0  0  0  0  0  0  0  0  0  0  0
    6.5010   48.5981   25.8449 H   0  0  0  0  0  0  0  0  0  0  0  0
    7.7267   48.0648   27.0621 H   0  0  0  0  0  0  0  0  0  0  0  0
    6.9035   45.9739   27.2644 H   0  0  0  0  0  0  0  0  0  0  0  0
    1.9424   45.5339   27.4778 H   0  0  0  0  0  0  0  0  0  0  0  0
    4.6814   42.1792   25.4923 H   0  0  0  0  0  0  0  0  0  0  0  0
    4.7822   41.7377   27.2631 H   0  0  0  0  0  0  0  0  0  0  0  0
   11.3782   41.5526   31.4732 H   0  0  0  0  0  0  0  0  0  0  0  0
    9.8233   40.7192   31.7643 H   0  0  0  0  0  0  0  0  0  0  0  0
   11.7282   39.5312   30.3515 H   0  0  0  0  0  0  0  0  0  0  0  0
   10.1127   38.2733   32.6376 H   0  0  0  0  0  0  0  0  0  0  0  0
   13.6692   37.4565   31.2241 H   0  0  0  0  0  0  0  0  0  0  0  0
   10.0533   38.1118   29.7635 H   0  0  0  0  0  0  0  0  0  0  0  0
   11.2606   36.3148   32.5101 H   0  0  0  0  0  0  0  0  0  0  0  0
   12.1496   35.5022   30.6323 H   0  0  0  0  0  0  0  0  0  0  0  0
   12.3301   38.3524   34.7455 H   0  0  0  0  0  0  0  0  0  0  0  0
   16.7562   34.1781   32.4619 H   0  0  0  0  0  0  0  0  0  0  0  0
   15.3536   35.7357   37.5139 H   0  0  0  0  0  0  0  0  0  0  0  0
   16.6351   34.5298   37.1415 H   0  0  0  0  0  0  0  0  0  0  0  0
  1  2  2  0
  1  3  1  0
  3  4  1  0
  4  5  1  0
  6  1  1  0
  7  6  1  0
  6  8  1  0
  8  9  1  0
  9 10  2  0
 11  9  1  0
 10 12  1  0
 13 11  2  0
 12 14  2  0
 14 13  1  0
 14 15  1  0
 15 16  1  0
 16 17  1  0
 16 18  1  0
 18 19  2  0
 20 18  1  0
 19 21  1  0
 22 20  2  0
 20 23  1  0
 21 24  1  0
 21 25  2  0
 25 22  1  0
 23 26  1  0
 23 27  2  0
 24 28  1  0
 25 29  1  0
 28 29  1  0
  4 30  2  0
  4 31  1  0
 32 31  1  0
 32 33  1  0
 33 34  1  0
 33 35  1  0
 34 36  1  0
 35 37  1  0
 35 38  1  0
 38 36  1  0
 36 39  1  0
 38 40  1  0
 41 39  1  0
 42 39  1  0
 43 41  2  0
 41 44  1  0
 45 42  2  0
 46 43  1  0
 44 47  2  0
 44 45  1  0
 48 46  2  0
 48 47  1  0
 47 49  1  0
  6 50  1  1
  7 51  1  0
  7 52  1  0
  8 53  1  0
  8 54  1  0
 10 55  1  0
 11 56  1  0
 12 57  1  0
 13 58  1  0
 16 59  1  6
 17 60  1  0
 17 61  1  0
 17 62  1  0
 19 63  1  0
 22 64  1  0
 28 65  1  0
 28 66  1  0
 32 67  1  0
 32 68  1  0
 33 69  1  0
 35 70  1  0
 36 71  1  0
 37 72  1  0
 38 73  1  0
 40 74  1  0
 42 75  1  0
 46 76  1  0
 49 77  1  0
 49 78  1  0
M  CHG  3   5  -1  23   1  26  -1
M  END
>  <EmbedRMS>  (415) 
0.0826483404916

$$$$

     RDKit          3D

 78 83  0  0  0  0  0  0  0  0999 V2000
   10.2838   43.7627   33.8276 C   0  0  0  0  0  0  0  0  0  0  0  0
   11.4103   43.5863   34.3765 O   0  0  0  0  0  0  0  0  0  0  0  0
    9.3628   42.7238   33.7357 O   0  0  0  0  0  0  0  0  0  0  0  0
    9.8893   41.2251   34.2943 P   0  0  0  0  0  0  0  0  0  0  0  0
   10.3730   41.4546   35.8836 O   0  0  0  0  0  0  0  0  0  0  0  0
    9.9549   45.0700   33.2063 C   0  0  1  0  0  0  0  0  0  0  0  0
   11.0198   46.0481   33.4570 N   0  0  0  0  0  0  0  0  0  0  0  0
    9.7505   44.8512   31.6922 C   0  0  0  0  0  0  0  0  0  0  0  0
    8.7944   45.8419   31.0869 C   0  0  0  0  0  0  0  0  0  0  0  0
    7.4076   45.6006   31.1008 C   0  0  0  0  0  0  0  0  0  0  0  0
    9.2826   46.9896   30.4450 C   0  0  0  0  0  0  0  0  0  0  0  0
    6.5256   46.4999   30.4859 C   0  0  0  0  0  0  0  0  0  0  0  0
    8.4009   47.8885   29.8337 C   0  0  0  0  0  0  0  0  0  0  0  0
    7.0197   47.6542   29.8442 C   0  0  0  0  0  0  0  0  0  0  0  0
    6.1836   48.5830   29.2025 O   0  0  0  0  0  0  0  0  0  0  0  0
    4.7678   48.4550   29.0541 C   0  0  1  0  0  0  0  0  0  0  0  0
    4.1783   49.7683   28.5409 C   0  0  0  0  0  0  0  0  0  0  0  0
    4.3853   47.3022   28.1369 C   0  0  0  0  0  0  0  0  0  0  0  0
    3.1846   46.6123   28.4329 C   0  0  0  0  0  0  0  0  0  0  0  0
    5.1945   46.8560   27.0336 C   0  0  0  0  0  0  0  0  0  0  0  0
    2.8426   45.5085   27.6638 C   0  0  0  0  0  0  0  0  0  0  0  0
    4.8012   45.7151   26.2982 C   0  0  0  0  0  0  0  0  0  0  0  0
    6.4091   47.5209   26.6532 N   0  0  0  0  0  0  0  0  0  0  0  0
    1.7350   44.6907   27.7798 O   0  0  0  0  0  0  0  0  0  0  0  0
    3.6187   45.0764   26.6445 C   0  0  0  0  0  0  0  0  0  0  0  0
    7.4907   46.7790   26.2378 O   0  0  0  0  0  0  0  0  0  0  0  0
    6.4263   48.7562   26.4814 O   0  0  0  0  0  0  0  0  0  0  0  0
    1.8233   43.6804   26.7658 C   0  0  0  0  0  0  0  0  0  0  0  0
    3.0411   43.9638   26.0635 O   0  0  0  0  0  0  0  0  0  0  0  0
    8.8112   40.1835   34.2130 O   0  0  0  0  0  0  0  0  0  0  0  0
   11.2397   40.7942   33.3684 O   0  0  0  0  0  0  0  0  0  0  0  0
   10.9125   40.6875   31.9969 C   0  0  0  0  0  0  0  0  0  0  0  0
   11.5169   39.3810   31.4420 C   0  0  0  0  0  0  0  0  0  0  0  0
   12.7500   39.0881   32.0758 O   0  0  0  0  0  0  0  0  0  0  0  0
   10.6043   38.1892   31.6659 C   0  0  0  0  0  0  0  0  0  0  0  0
   12.9395   37.6813   32.0279 C   0  0  0  0  0  0  0  0  0  0  0  0
    9.6353   38.0951   30.6499 O   0  0  0  0  0  0  0  0  0  0  0  0
   11.5804   37.0191   31.6934 C   0  0  0  0  0  0  0  0  0  0  0  0
   13.4851   37.2119   33.3244 N   0  0  0  0  0  0  0  0  0  0  0  0
   11.6118   36.3188   30.4673 O   0  0  0  0  0  0  0  0  0  0  0  0
   14.4801   36.3316   33.5732 C   0  0  0  0  0  0  0  0  0  0  0  0
   13.1139   37.6277   34.5692 C   0  0  0  0  0  0  0  0  0  0  0  0
   15.2076   35.6154   32.6744 N   0  0  0  0  0  0  0  0  0  0  0  0
   14.6756   36.2303   34.9186 C   0  0  0  0  0  0  0  0  0  0  0  0
   13.8215   37.0451   35.5786 N   0  0  0  0  0  0  0  0  0  0  0  0
   16.1642   34.7602   33.1551 C   0  0  0  0  0  0  0  0  0  0  0  0
   15.6526   35.3505   35.4134 C   0  0  0  0  0  0  0  0  0  0  0  0
   16.3795   34.6316   34.5045 N   0  0  0  0  0  0  0  0  0  0  0  0
   15.9001   35.1933   36.8093 N   0  0  0  0  0  0  0  0  0  0  0  0
    9.0099   45.4350   33.6668 H   0  0  0  0  0  0  0  0  0  0  0  0
   11.1133   46.1992   34.4884 H   0  0  0  0  0  0  0  0  0  0  0  0
   11.9349   45.6934   33.0928 H   0  0  0  0  0  0  0  0  0  0  0  0
    9.3518   43.8345   31.4758 H   0  0  0  0  0  0  0  0  0  0  0  0
   10.7309   44.8932   31.1674 H   0  0  0  0  0  0  0  0  0  0  0  0
    7.0126   44.7152   31.5835 H   0  0  0  0  0  0  0  0  0  0  0  0
   10.3466   47.1896   30.4149 H   0  0  0  0  0  0  0  0  0  0  0  0
    5.4672   46.2842   30.5162 H   0  0  0  0  0  0  0  0  0  0  0  0
    8.7937   48.7690   29.3411 H   0  0  0  0  0  0  0  0  0  0  0  0
    4.3328   48.2912   30.0658 H   0  0  0  0  0  0  0  0  0  0  0  0
    3.0689   49.7079   28.5276 H   0  0  0  0  0  0  0  0  0  0  0  0
    4.5313   49.9993   27.5162 H   0  0  0  0  0  0  0  0  0  0  0  0
    4.4747   50.6005   29.2141 H   0  0  0  0  0  0  0  0  0  0  0  0
    2.5435   46.9184   29.2501 H   0  0  0  0  0  0  0  0  0  0  0  0
    5.3920   45.3491   25.4683 H   0  0  0  0  0  0  0  0  0  0  0  0
    0.9571   43.7525   26.0752 H   0  0  0  0  0  0  0  0  0  0  0  0
    1.8744   42.6734   27.2304 H   0  0  0  0  0  0  0  0  0  0  0  0
    9.8216   40.7223   31.7644 H   0  0  0  0  0  0  0  0  0  0  0  0
   11.3812   41.5456   31.4692 H   0  0  0  0  0  0  0  0  0  0  0  0
   11.6985   39.5089   30.3498 H   0  0  0  0  0  0  0  0  0  0  0  0
   10.1109   38.2736   32.6630 H   0  0  0  0  0  0  0  0  0  0  0  0
   13.6783   37.4561   31.2271 H   0  0  0  0  0  0  0  0  0  0  0  0
    9.0020   37.3859   30.9348 H   0  0  0  0  0  0  0  0  0  0  0  0
   11.2808   36.3052   32.4921 H   0  0  0  0  0  0  0  0  0  0  0  0
   11.8819   36.9599   29.7584 H   0  0  0  0  0  0  0  0  0  0  0  0
   12.3304   38.3538   34.7445 H   0  0  0  0  0  0  0  0  0  0  0  0
   16.7563   34.1783   32.4623 H   0  0  0  0  0  0  0  0  0  0  0  0
   16.6348   34.5302   37.1418 H   0  0  0  0  0  0  0  0  0  0  0  0
   15.3532   35.7360   37.5142 H   0  0  0  0  0  0  0  0  0  0  0  0
  1  2  2  0
  1  3  1  0
  3  4  1  0
  4  5  1  0
  6  1  1  0
  7  6  1  0
  6  8  1  0
  8  9  1  0
  9 10  2  0
 11  9  1  0
 10 12  1  0
 13 11  2  0
 12 14  2  0
 14 13  1  0
 14 15  1  0
 15 16  1  0
 16 17  1  0
 16 18  1  0
 18 19  2  0
 20 18  1  0
 19 21  1  0
 22 20  2  0
 20 23  1  0
 21 24  1  0
 21 25  2  0
 25 22  1  0
 23 26  1  0
 23 27  2  0
 24 28  1  0
 25 29  1  0
 28 29  1  0
  4 30  2  0
  4 31  1  0
 32 31  1  0
 32 33  1  0
 33 34  1  0
 33 35  1  0
 34 36  1  0
 35 37  1  0
 35 38  1  0
 38 36  1  0
 36 39  1  0
 38 40  1  0
 41 39  1  0
 42 39  1  0
 43 41  2  0
 41 44  1  0
 45 42  2  0
 46 43  1  0
 44 47  2  0
 44 45  1  0
 48 46  2  0
 48 47  1  0
 47 49  1  0
  6 50  1  1
  7 51  1  0
  7 52  1  0
  8 53  1  0
  8 54  1  0
 10 55  1  0
 11 56  1  0
 12 57  1  0
 13 58  1  0
 16 59  1  1
 17 60  1  0
 17 61  1  0
 17 62  1  0
 19 63  1  0
 22 64  1  0
 28 65  1  0
 28 66  1  0
 32 67  1  0
 32 68  1  0
 33 69  1  0
 35 70  1  0
 36 71  1  0
 37 72  1  0
 38 73  1  0
 40 74  1  0
 42 75  1  0
 46 76  1  0
 49 77  1  0
 49 78  1  0
M  CHG  3   5  -1  23   1  26  -1
M  END
>  <EmbedRMS>  (416) 
0.0824683998928

$$$$

     RDKit          3D

 78 83  0  0  0  0  0  0  0  0999 V2000
   10.2796   43.7665   33.8250 C   0  0  0  0  0  0  0  0  0  0  0  0
   11.4101   43.5922   34.3671 O   0  0  0  0  0  0  0  0  0  0  0  0
    9.3617   42.7245   33.7336 O   0  0  0  0  0  0  0  0  0  0  0  0
    9.8903   41.2264   34.2935 P   0  0  0  0  0  0  0  0  0  0  0  0
   10.3730   41.4578   35.8829 O   0  0  0  0  0  0  0  0  0  0  0  0
    9.9455   45.0738   33.2109 C   0  0  1  0  0  0  0  0  0  0  0  0
   11.0273   46.0284   33.4697 N   0  0  0  0  0  0  0  0  0  0  0  0
    9.7533   44.8531   31.6945 C   0  0  0  0  0  0  0  0  0  0  0  0
    8.7959   45.8402   31.0836 C   0  0  0  0  0  0  0  0  0  0  0  0
    7.4086   45.5972   31.0952 C   0  0  0  0  0  0  0  0  0  0  0  0
    9.2842   46.9875   30.4388 C   0  0  0  0  0  0  0  0  0  0  0  0
    6.5281   46.4975   30.4792 C   0  0  0  0  0  0  0  0  0  0  0  0
    8.4020   47.8900   29.8334 C   0  0  0  0  0  0  0  0  0  0  0  0
    7.0177   47.6560   29.8615 C   0  0  0  0  0  0  0  0  0  0  0  0
    6.1129   48.5560   29.2841 O   0  0  0  0  0  0  0  0  0  0  0  0
    5.8598   49.8694   29.7997 C   0  0  1  0  0  0  0  0  0  0  0  0
    5.3833   49.7744   31.2592 C   0  0  0  0  0  0  0  0  0  0  0  0
    7.0485   50.7985   29.5487 C   0  0  0  0  0  0  0  0  0  0  0  0
    7.7239   51.4300   30.6302 C   0  0  0  0  0  0  0  0  0  0  0  0
    7.5403   51.0091   28.2115 C   0  0  0  0  0  0  0  0  0  0  0  0
    8.8382   52.2121   30.3582 C   0  0  0  0  0  0  0  0  0  0  0  0
    8.6885   51.8079   28.0030 C   0  0  0  0  0  0  0  0  0  0  0  0
    6.9238   50.3937   27.0657 N   0  0  0  0  0  0  0  0  0  0  0  0
    9.6401   52.9010   31.2489 O   0  0  0  0  0  0  0  0  0  0  0  0
    9.3010   52.3921   29.1016 C   0  0  0  0  0  0  0  0  0  0  0  0
    7.7025   49.9982   26.0018 O   0  0  0  0  0  0  0  0  0  0  0  0
    5.6837   50.3960   26.9317 O   0  0  0  0  0  0  0  0  0  0  0  0
   10.6734   53.5558   30.4991 C   0  0  0  0  0  0  0  0  0  0  0  0
   10.4184   53.2058   29.1313 O   0  0  0  0  0  0  0  0  0  0  0  0
    8.8128   40.1841   34.2128 O   0  0  0  0  0  0  0  0  0  0  0  0
   11.2417   40.7937   33.3694 O   0  0  0  0  0  0  0  0  0  0  0  0
   10.9181   40.6900   31.9969 C   0  0  0  0  0  0  0  0  0  0  0  0
   11.5168   39.3806   31.4405 C   0  0  0  0  0  0  0  0  0  0  0  0
   12.7489   39.0849   32.0723 O   0  0  0  0  0  0  0  0  0  0  0  0
   10.6018   38.1901   31.6669 C   0  0  0  0  0  0  0  0  0  0  0  0
   12.9315   37.6774   32.0278 C   0  0  0  0  0  0  0  0  0  0  0  0
    9.6384   38.0794   30.6458 O   0  0  0  0  0  0  0  0  0  0  0  0
   11.5710   37.0158   31.7058 C   0  0  0  0  0  0  0  0  0  0  0  0
   13.4843   37.2119   33.3233 N   0  0  0  0  0  0  0  0  0  0  0  0
   11.6179   36.3382   30.4693 O   0  0  0  0  0  0  0  0  0  0  0  0
   14.4800   36.3322   33.5722 C   0  0  0  0  0  0  0  0  0  0  0  0
   13.1142   37.6286   34.5683 C   0  0  0  0  0  0  0  0  0  0  0  0
   15.2077   35.6156   32.6738 N   0  0  0  0  0  0  0  0  0  0  0  0
   14.6761   36.2317   34.9177 C   0  0  0  0  0  0  0  0  0  0  0  0
   13.8224   37.0469   35.5777 N   0  0  0  0  0  0  0  0  0  0  0  0
   16.1642   34.7603   33.1550 C   0  0  0  0  0  0  0  0  0  0  0  0
   15.6524   35.3516   35.4130 C   0  0  0  0  0  0  0  0  0  0  0  0
   16.3790   34.6319   34.5045 N   0  0  0  0  0  0  0  0  0  0  0  0
   15.9004   35.1959   36.8090 N   0  0  0  0  0  0  0  0  0  0  0  0
    8.9996   45.4399   33.6723 H   0  0  0  0  0  0  0  0  0  0  0  0
   10.7782   46.9359   33.0141 H   0  0  0  0  0  0  0  0  0  0  0  0
   11.0518   46.2282   34.4968 H   0  0  0  0  0  0  0  0  0  0  0  0
    9.3642   43.8336   31.4717 H   0  0  0  0  0  0  0  0  0  0  0  0
   10.7400   44.9073   31.1824 H   0  0  0  0  0  0  0  0  0  0  0  0
    7.0127   44.7120   31.5768 H   0  0  0  0  0  0  0  0  0  0  0  0
   10.3492   47.1844   30.4015 H   0  0  0  0  0  0  0  0  0  0  0  0
    5.4630   46.3050   30.5000 H   0  0  0  0  0  0  0  0  0  0  0  0
    8.8042   48.7579   29.3330 H   0  0  0  0  0  0  0  0  0  0  0  0
    4.9952   50.2891   29.2469 H   0  0  0  0  0  0  0  0  0  0  0  0
    5.0827   50.7758   31.6347 H   0  0  0  0  0  0  0  0  0  0  0  0
    6.1770   49.3526   31.9119 H   0  0  0  0  0  0  0  0  0  0  0  0
    4.4980   49.1050   31.3178 H   0  0  0  0  0  0  0  0  0  0  0  0
    7.4174   51.3166   31.6594 H   0  0  0  0  0  0  0  0  0  0  0  0
    9.0856   51.9778   27.0105 H   0  0  0  0  0  0  0  0  0  0  0  0
   11.6702   53.1796   30.8106 H   0  0  0  0  0  0  0  0  0  0  0  0
   10.6070   54.6568   30.6324 H   0  0  0  0  0  0  0  0  0  0  0  0
   11.3952   41.5445   31.4718 H   0  0  0  0  0  0  0  0  0  0  0  0
    9.8296   40.7401   31.7615 H   0  0  0  0  0  0  0  0  0  0  0  0
   11.6970   39.5055   30.3476 H   0  0  0  0  0  0  0  0  0  0  0  0
   10.1075   38.2639   32.6651 H   0  0  0  0  0  0  0  0  0  0  0  0
   13.6622   37.4457   31.2208 H   0  0  0  0  0  0  0  0  0  0  0  0
    8.8974   38.6951   30.8834 H   0  0  0  0  0  0  0  0  0  0  0  0
   11.2807   36.3059   32.5174 H   0  0  0  0  0  0  0  0  0  0  0  0
   10.8486   35.7107   30.4581 H   0  0  0  0  0  0  0  0  0  0  0  0
   12.3309   38.3551   34.7438 H   0  0  0  0  0  0  0  0  0  0  0  0
   16.7570   34.1783   32.4629 H   0  0  0  0  0  0  0  0  0  0  0  0
   16.6337   34.5315   37.1422 H   0  0  0  0  0  0  0  0  0  0  0  0
   15.3523   35.7376   37.5137 H   0  0  0  0  0  0  0  0  0  0  0  0
  1  2  2  0
  1  3  1  0
  3  4  1  0
  4  5  1  0
  6  1  1  0
  7  6  1  0
  6  8  1  0
  8  9  1  0
  9 10  2  0
 11  9  1  0
 10 12  1  0
 13 11  2  0
 12 14  2  0
 14 13  1  0
 14 15  1  0
 15 16  1  0
 16 17  1  0
 16 18  1  0
 18 19  2  0
 20 18  1  0
 19 21  1  0
 22 20  2  0
 20 23  1  0
 21 24  1  0
 21 25  2  0
 25 22  1  0
 23 26  1  0
 23 27  2  0
 24 28  1  0
 25 29  1  0
 28 29  1  0
  4 30  2  0
  4 31  1  0
 32 31  1  0
 32 33  1  0
 33 34  1  0
 33 35  1  0
 34 36  1  0
 35 37  1  0
 35 38  1  0
 38 36  1  0
 36 39  1  0
 38 40  1  0
 41 39  1  0
 42 39  1  0
 43 41  2  0
 41 44  1  0
 45 42  2  0
 46 43  1  0
 44 47  2  0
 44 45  1  0
 48 46  2  0
 48 47  1  0
 47 49  1  0
  6 50  1  1
  7 51  1  0
  7 52  1  0
  8 53  1  0
  8 54  1  0
 10 55  1  0
 11 56  1  0
 12 57  1  0
 13 58  1  0
 16 59  1  6
 17 60  1  0
 17 61  1  0
 17 62  1  0
 19 63  1  0
 22 64  1  0
 28 65  1  0
 28 66  1  0
 32 67  1  0
 32 68  1  0
 33 69  1  0
 35 70  1  0
 36 71  1  0
 37 72  1  0
 38 73  1  0
 40 74  1  0
 42 75  1  0
 46 76  1  0
 49 77  1  0
 49 78  1  0
M  CHG  3   5  -1  23   1  26  -1
M  END
>  <EmbedRMS>  (417) 
0.0828044662607

$$$$

     RDKit          3D

 78 83  0  0  0  0  0  0  0  0999 V2000
   10.2833   43.7663   33.8257 C   0  0  0  0  0  0  0  0  0  0  0  0
   11.4100   43.5931   34.3752 O   0  0  0  0  0  0  0  0  0  0  0  0
    9.3634   42.7257   33.7352 O   0  0  0  0  0  0  0  0  0  0  0  0
    9.8899   41.2270   34.2947 P   0  0  0  0  0  0  0  0  0  0  0  0
   10.3732   41.4563   35.8841 O   0  0  0  0  0  0  0  0  0  0  0  0
    9.9546   45.0695   33.2032 C   0  0  1  0  0  0  0  0  0  0  0  0
   11.0271   46.0323   33.4757 N   0  0  0  0  0  0  0  0  0  0  0  0
    9.7474   44.8480   31.6872 C   0  0  0  0  0  0  0  0  0  0  0  0
    8.7929   45.8399   31.0830 C   0  0  0  0  0  0  0  0  0  0  0  0
    7.4064   45.6015   31.1001 C   0  0  0  0  0  0  0  0  0  0  0  0
    9.2816   46.9877   30.4425 C   0  0  0  0  0  0  0  0  0  0  0  0
    6.5251   46.5020   30.4868 C   0  0  0  0  0  0  0  0  0  0  0  0
    8.3999   47.8888   29.8349 C   0  0  0  0  0  0  0  0  0  0  0  0
    7.0181   47.6556   29.8423 C   0  0  0  0  0  0  0  0  0  0  0  0
    6.1866   48.6042   29.2146 O   0  0  0  0  0  0  0  0  0  0  0  0
    4.8043   48.4536   28.8497 C   0  0  1  0  0  0  0  0  0  0  0  0
    4.6071   47.1816   27.9996 C   0  0  0  0  0  0  0  0  0  0  0  0
    3.8496   48.5459   30.0435 C   0  0  0  0  0  0  0  0  0  0  0  0
    4.3598   48.7769   31.3495 C   0  0  0  0  0  0  0  0  0  0  0  0
    2.4271   48.4195   29.8763 C   0  0  0  0  0  0  0  0  0  0  0  0
    3.4787   48.7780   32.4222 C   0  0  0  0  0  0  0  0  0  0  0  0
    1.5816   48.4114   31.0091 C   0  0  0  0  0  0  0  0  0  0  0  0
    1.8251   48.3432   28.5760 N   0  0  0  0  0  0  0  0  0  0  0  0
    3.7602   48.9556   33.7633 O   0  0  0  0  0  0  0  0  0  0  0  0
    2.1502   48.5925   32.2607 C   0  0  0  0  0  0  0  0  0  0  0  0
    2.1313   49.2850   27.6214 O   0  0  0  0  0  0  0  0  0  0  0  0
    0.8556   47.5811   28.3818 O   0  0  0  0  0  0  0  0  0  0  0  0
    2.5262   48.8724   34.4891 C   0  0  0  0  0  0  0  0  0  0  0  0
    1.5230   48.6411   33.4908 O   0  0  0  0  0  0  0  0  0  0  0  0
    8.8120   40.1850   34.2133 O   0  0  0  0  0  0  0  0  0  0  0  0
   11.2403   40.7947   33.3700 O   0  0  0  0  0  0  0  0  0  0  0  0
   10.9144   40.6914   31.9982 C   0  0  0  0  0  0  0  0  0  0  0  0
   11.5270   39.3912   31.4385 C   0  0  0  0  0  0  0  0  0  0  0  0
   12.7520   39.0911   32.0836 O   0  0  0  0  0  0  0  0  0  0  0  0
   10.6113   38.1932   31.6451 C   0  0  0  0  0  0  0  0  0  0  0  0
   12.9413   37.6838   32.0297 C   0  0  0  0  0  0  0  0  0  0  0  0
    9.6064   38.0878   30.6599 O   0  0  0  0  0  0  0  0  0  0  0  0
   11.5822   37.0198   31.6877 C   0  0  0  0  0  0  0  0  0  0  0  0
   13.4840   37.2105   33.3254 N   0  0  0  0  0  0  0  0  0  0  0  0
   11.6179   36.3072   30.4690 O   0  0  0  0  0  0  0  0  0  0  0  0
   14.4797   36.3309   33.5738 C   0  0  0  0  0  0  0  0  0  0  0  0
   13.1136   37.6269   34.5702 C   0  0  0  0  0  0  0  0  0  0  0  0
   15.2074   35.6152   32.6747 N   0  0  0  0  0  0  0  0  0  0  0  0
   14.6756   36.2298   34.9190 C   0  0  0  0  0  0  0  0  0  0  0  0
   13.8217   37.0445   35.5793 N   0  0  0  0  0  0  0  0  0  0  0  0
   16.1643   34.7603   33.1551 C   0  0  0  0  0  0  0  0  0  0  0  0
   15.6528   35.3503   35.4136 C   0  0  0  0  0  0  0  0  0  0  0  0
   16.3798   34.6316   34.5046 N   0  0  0  0  0  0  0  0  0  0  0  0
   15.9004   35.1930   36.8094 N   0  0  0  0  0  0  0  0  0  0  0  0
    9.0117   45.4318   33.6705 H   0  0  0  0  0  0  0  0  0  0  0  0
   11.8906   45.7660   32.9475 H   0  0  0  0  0  0  0  0  0  0  0  0
   10.7258   46.9689   33.1212 H   0  0  0  0  0  0  0  0  0  0  0  0
   10.7240   44.8819   31.1557 H   0  0  0  0  0  0  0  0  0  0  0  0
    9.3429   43.8326   31.4757 H   0  0  0  0  0  0  0  0  0  0  0  0
    7.0100   44.7212   31.5910 H   0  0  0  0  0  0  0  0  0  0  0  0
   10.3458   47.1870   30.4119 H   0  0  0  0  0  0  0  0  0  0  0  0
    5.4671   46.3028   30.5517 H   0  0  0  0  0  0  0  0  0  0  0  0
    8.7938   48.7720   29.3481 H   0  0  0  0  0  0  0  0  0  0  0  0
    4.5775   49.3199   28.1944 H   0  0  0  0  0  0  0  0  0  0  0  0
    3.8154   47.3331   27.2387 H   0  0  0  0  0  0  0  0  0  0  0  0
    4.3198   46.3094   28.6209 H   0  0  0  0  0  0  0  0  0  0  0  0
    5.5402   46.9382   27.4485 H   0  0  0  0  0  0  0  0  0  0  0  0
    5.4085   48.9487   31.5420 H   0  0  0  0  0  0  0  0  0  0  0  0
    0.5088   48.3056   30.9108 H   0  0  0  0  0  0  0  0  0  0  0  0
    2.5577   48.0240   35.2044 H   0  0  0  0  0  0  0  0  0  0  0  0
    2.3269   49.8276   35.0186 H   0  0  0  0  0  0  0  0  0  0  0  0
   11.3776   41.5549   31.4744 H   0  0  0  0  0  0  0  0  0  0  0  0
    9.8234   40.7201   31.7654 H   0  0  0  0  0  0  0  0  0  0  0  0
   11.7311   39.5362   30.3532 H   0  0  0  0  0  0  0  0  0  0  0  0
   10.1203   38.2696   32.6410 H   0  0  0  0  0  0  0  0  0  0  0  0
   13.6850   37.4639   31.2321 H   0  0  0  0  0  0  0  0  0  0  0  0
   10.0251   38.1792   29.7654 H   0  0  0  0  0  0  0  0  0  0  0  0
   11.2757   36.3135   32.4908 H   0  0  0  0  0  0  0  0  0  0  0  0
   11.9838   36.9111   29.7708 H   0  0  0  0  0  0  0  0  0  0  0  0
   12.3307   38.3537   34.7457 H   0  0  0  0  0  0  0  0  0  0  0  0
   16.7565   34.1786   32.4623 H   0  0  0  0  0  0  0  0  0  0  0  0
   16.6353   34.5300   37.1418 H   0  0  0  0  0  0  0  0  0  0  0  0
   15.3535   35.7355   37.5144 H   0  0  0  0  0  0  0  0  0  0  0  0
  1  2  2  0
  1  3  1  0
  3  4  1  0
  4  5  1  0
  6  1  1  0
  7  6  1  0
  6  8  1  0
  8  9  1  0
  9 10  2  0
 11  9  1  0
 10 12  1  0
 13 11  2  0
 12 14  2  0
 14 13  1  0
 14 15  1  0
 15 16  1  0
 16 17  1  0
 16 18  1  0
 18 19  2  0
 20 18  1  0
 19 21  1  0
 22 20  2  0
 20 23  1  0
 21 24  1  0
 21 25  2  0
 25 22  1  0
 23 26  1  0
 23 27  2  0
 24 28  1  0
 25 29  1  0
 28 29  1  0
  4 30  2  0
  4 31  1  0
 32 31  1  0
 32 33  1  0
 33 34  1  0
 33 35  1  0
 34 36  1  0
 35 37  1  0
 35 38  1  0
 38 36  1  0
 36 39  1  0
 38 40  1  0
 41 39  1  0
 42 39  1  0
 43 41  2  0
 41 44  1  0
 45 42  2  0
 46 43  1  0
 44 47  2  0
 44 45  1  0
 48 46  2  0
 48 47  1  0
 47 49  1  0
  6 50  1  1
  7 51  1  0
  7 52  1  0
  8 53  1  0
  8 54  1  0
 10 55  1  0
 11 56  1  0
 12 57  1  0
 13 58  1  0
 16 59  1  6
 17 60  1  0
 17 61  1  0
 17 62  1  0
 19 63  1  0
 22 64  1  0
 28 65  1  0
 28 66  1  0
 32 67  1  0
 32 68  1  0
 33 69  1  0
 35 70  1  0
 36 71  1  0
 37 72  1  0
 38 73  1  0
 40 74  1  0
 42 75  1  0
 46 76  1  0
 49 77  1  0
 49 78  1  0
M  CHG  3   5  -1  23   1  26  -1
M  END
>  <EmbedRMS>  (418) 
0.0808460995513

$$$$

     RDKit          3D

 78 83  0  0  0  0  0  0  0  0999 V2000
   10.2835   43.7662   33.8256 C   0  0  0  0  0  0  0  0  0  0  0  0
   11.4102   43.5929   34.3752 O   0  0  0  0  0  0  0  0  0  0  0  0
    9.3637   42.7255   33.7349 O   0  0  0  0  0  0  0  0  0  0  0  0
    9.8902   41.2267   34.2942 P   0  0  0  0  0  0  0  0  0  0  0  0
   10.3736   41.4560   35.8836 O   0  0  0  0  0  0  0  0  0  0  0  0
    9.9548   45.0695   33.2036 C   0  0  1  0  0  0  0  0  0  0  0  0
   11.0274   46.0322   33.4760 N   0  0  0  0  0  0  0  0  0  0  0  0
    9.7471   44.8484   31.6877 C   0  0  0  0  0  0  0  0  0  0  0  0
    8.7926   45.8411   31.0847 C   0  0  0  0  0  0  0  0  0  0  0  0
    7.4061   45.6011   31.0991 C   0  0  0  0  0  0  0  0  0  0  0  0
    9.2817   46.9876   30.4419 C   0  0  0  0  0  0  0  0  0  0  0  0
    6.5243   46.5005   30.4842 C   0  0  0  0  0  0  0  0  0  0  0  0
    8.4005   47.8874   29.8317 C   0  0  0  0  0  0  0  0  0  0  0  0
    7.0181   47.6580   29.8467 C   0  0  0  0  0  0  0  0  0  0  0  0
    6.1874   48.5963   29.2115 O   0  0  0  0  0  0  0  0  0  0  0  0
    4.7574   48.5997   29.2235 C   0  0  1  0  0  0  0  0  0  0  0  0
    4.2349   49.0485   30.5950 C   0  0  0  0  0  0  0  0  0  0  0  0
    4.2639   49.5380   28.1367 C   0  0  0  0  0  0  0  0  0  0  0  0
    4.6681   50.8959   28.1788 C   0  0  0  0  0  0  0  0  0  0  0  0
    3.3747   49.1067   27.0970 C   0  0  0  0  0  0  0  0  0  0  0  0
    4.1528   51.7727   27.2331 C   0  0  0  0  0  0  0  0  0  0  0  0
    2.8691   50.0481   26.1719 C   0  0  0  0  0  0  0  0  0  0  0  0
    3.0040   47.7291   26.9477 N   0  0  0  0  0  0  0  0  0  0  0  0
    4.3966   53.1254   27.0930 O   0  0  0  0  0  0  0  0  0  0  0  0
    3.2865   51.3681   26.2761 C   0  0  0  0  0  0  0  0  0  0  0  0
    3.9816   46.7722   26.8004 O   0  0  0  0  0  0  0  0  0  0  0  0
    1.8218   47.4295   26.6815 O   0  0  0  0  0  0  0  0  0  0  0  0
    3.6332   53.5990   25.9751 C   0  0  0  0  0  0  0  0  0  0  0  0
    2.9395   52.4445   25.4824 O   0  0  0  0  0  0  0  0  0  0  0  0
    8.8121   40.1850   34.2131 O   0  0  0  0  0  0  0  0  0  0  0  0
   11.2404   40.7941   33.3690 O   0  0  0  0  0  0  0  0  0  0  0  0
   10.9143   40.6898   31.9972 C   0  0  0  0  0  0  0  0  0  0  0  0
   11.5261   39.3885   31.4376 C   0  0  0  0  0  0  0  0  0  0  0  0
   12.7504   39.0888   32.0816 O   0  0  0  0  0  0  0  0  0  0  0  0
   10.6115   38.1910   31.6460 C   0  0  0  0  0  0  0  0  0  0  0  0
   12.9357   37.6812   32.0303 C   0  0  0  0  0  0  0  0  0  0  0  0
    9.6146   38.0859   30.6533 O   0  0  0  0  0  0  0  0  0  0  0  0
   11.5769   37.0148   31.7012 C   0  0  0  0  0  0  0  0  0  0  0  0
   13.4849   37.2112   33.3247 N   0  0  0  0  0  0  0  0  0  0  0  0
   11.6193   36.3261   30.4724 O   0  0  0  0  0  0  0  0  0  0  0  0
   14.4802   36.3313   33.5730 C   0  0  0  0  0  0  0  0  0  0  0  0
   13.1141   37.6268   34.5698 C   0  0  0  0  0  0  0  0  0  0  0  0
   15.2075   35.6151   32.6741 N   0  0  0  0  0  0  0  0  0  0  0  0
   14.6761   36.2300   34.9184 C   0  0  0  0  0  0  0  0  0  0  0  0
   13.8220   37.0445   35.5789 N   0  0  0  0  0  0  0  0  0  0  0  0
   16.1642   34.7600   33.1547 C   0  0  0  0  0  0  0  0  0  0  0  0
   15.6529   35.3503   35.4131 C   0  0  0  0  0  0  0  0  0  0  0  0
   16.3798   34.6314   34.5042 N   0  0  0  0  0  0  0  0  0  0  0  0
   15.9004   35.1930   36.8090 N   0  0  0  0  0  0  0  0  0  0  0  0
    9.0121   45.4317   33.6714 H   0  0  0  0  0  0  0  0  0  0  0  0
   11.8909   45.7658   32.9477 H   0  0  0  0  0  0  0  0  0  0  0  0
   10.7262   46.9688   33.1215 H   0  0  0  0  0  0  0  0  0  0  0  0
   10.7236   44.8825   31.1559 H   0  0  0  0  0  0  0  0  0  0  0  0
    9.3425   43.8332   31.4758 H   0  0  0  0  0  0  0  0  0  0  0  0
    7.0108   44.7148   31.5802 H   0  0  0  0  0  0  0  0  0  0  0  0
   10.3460   47.1857   30.4096 H   0  0  0  0  0  0  0  0  0  0  0  0
    5.4681   46.2770   30.5105 H   0  0  0  0  0  0  0  0  0  0  0  0
    8.7945   48.7686   29.3413 H   0  0  0  0  0  0  0  0  0  0  0  0
    4.3819   47.5756   29.0453 H   0  0  0  0  0  0  0  0  0  0  0  0
    4.5108   48.3115   31.3765 H   0  0  0  0  0  0  0  0  0  0  0  0
    4.6647   50.0308   30.8824 H   0  0  0  0  0  0  0  0  0  0  0  0
    3.1270   49.1295   30.5733 H   0  0  0  0  0  0  0  0  0  0  0  0
    5.3537   51.2602   28.9331 H   0  0  0  0  0  0  0  0  0  0  0  0
    2.1935   49.7518   25.3797 H   0  0  0  0  0  0  0  0  0  0  0  0
    2.9066   54.3707   26.3053 H   0  0  0  0  0  0  0  0  0  0  0  0
    4.3088   54.0030   25.1922 H   0  0  0  0  0  0  0  0  0  0  0  0
    9.8233   40.7191   31.7647 H   0  0  0  0  0  0  0  0  0  0  0  0
   11.3779   41.5526   31.4727 H   0  0  0  0  0  0  0  0  0  0  0  0
   11.7283   39.5312   30.3515 H   0  0  0  0  0  0  0  0  0  0  0  0
   10.1127   38.2734   32.6376 H   0  0  0  0  0  0  0  0  0  0  0  0
   13.6692   37.4566   31.2242 H   0  0  0  0  0  0  0  0  0  0  0  0
   10.0533   38.1118   29.7636 H   0  0  0  0  0  0  0  0  0  0  0  0
   11.2607   36.3148   32.5102 H   0  0  0  0  0  0  0  0  0  0  0  0
   12.1496   35.5023   30.6324 H   0  0  0  0  0  0  0  0  0  0  0  0
   12.3301   38.3524   34.7455 H   0  0  0  0  0  0  0  0  0  0  0  0
   16.7563   34.1781   32.4619 H   0  0  0  0  0  0  0  0  0  0  0  0
   16.6351   34.5298   37.1416 H   0  0  0  0  0  0  0  0  0  0  0  0
   15.3536   35.7357   37.5140 H   0  0  0  0  0  0  0  0  0  0  0  0
  1  2  2  0
  1  3  1  0
  3  4  1  0
  4  5  1  0
  6  1  1  0
  7  6  1  0
  6  8  1  0
  8  9  1  0
  9 10  2  0
 11  9  1  0
 10 12  1  0
 13 11  2  0
 12 14  2  0
 14 13  1  0
 14 15  1  0
 15 16  1  0
 16 17  1  0
 16 18  1  0
 18 19  2  0
 20 18  1  0
 19 21  1  0
 22 20  2  0
 20 23  1  0
 21 24  1  0
 21 25  2  0
 25 22  1  0
 23 26  1  0
 23 27  2  0
 24 28  1  0
 25 29  1  0
 28 29  1  0
  4 30  2  0
  4 31  1  0
 32 31  1  0
 32 33  1  0
 33 34  1  0
 33 35  1  0
 34 36  1  0
 35 37  1  0
 35 38  1  0
 38 36  1  0
 36 39  1  0
 38 40  1  0
 41 39  1  0
 42 39  1  0
 43 41  2  0
 41 44  1  0
 45 42  2  0
 46 43  1  0
 44 47  2  0
 44 45  1  0
 48 46  2  0
 48 47  1  0
 47 49  1  0
  6 50  1  1
  7 51  1  0
  7 52  1  0
  8 53  1  0
  8 54  1  0
 10 55  1  0
 11 56  1  0
 12 57  1  0
 13 58  1  0
 16 59  1  6
 17 60  1  0
 17 61  1  0
 17 62  1  0
 19 63  1  0
 22 64  1  0
 28 65  1  0
 28 66  1  0
 32 67  1  0
 32 68  1  0
 33 69  1  0
 35 70  1  0
 36 71  1  0
 37 72  1  0
 38 73  1  0
 40 74  1  0
 42 75  1  0
 46 76  1  0
 49 77  1  0
 49 78  1  0
M  CHG  3   5  -1  23   1  26  -1
M  END
>  <EmbedRMS>  (419) 
0.081593915386

$$$$

     RDKit          3D

 78 83  0  0  0  0  0  0  0  0999 V2000
   10.2834   43.7662   33.8258 C   0  0  0  0  0  0  0  0  0  0  0  0
   11.4102   43.5930   34.3752 O   0  0  0  0  0  0  0  0  0  0  0  0
    9.3635   42.7257   33.7354 O   0  0  0  0  0  0  0  0  0  0  0  0
    9.8902   41.2268   34.2942 P   0  0  0  0  0  0  0  0  0  0  0  0
   10.3739   41.4559   35.8835 O   0  0  0  0  0  0  0  0  0  0  0  0
    9.9547   45.0695   33.2036 C   0  0  1  0  0  0  0  0  0  0  0  0
   11.0274   46.0321   33.4756 N   0  0  0  0  0  0  0  0  0  0  0  0
    9.7466   44.8479   31.6878 C   0  0  0  0  0  0  0  0  0  0  0  0
    8.7923   45.8407   31.0848 C   0  0  0  0  0  0  0  0  0  0  0  0
    7.4061   45.6017   31.0993 C   0  0  0  0  0  0  0  0  0  0  0  0
    9.2816   46.9871   30.4427 C   0  0  0  0  0  0  0  0  0  0  0  0
    6.5280   46.5033   30.4837 C   0  0  0  0  0  0  0  0  0  0  0  0
    8.4030   47.8894   29.8318 C   0  0  0  0  0  0  0  0  0  0  0  0
    7.0128   47.6542   29.8463 C   0  0  0  0  0  0  0  0  0  0  0  0
    6.0736   48.5103   29.2419 O   0  0  0  0  0  0  0  0  0  0  0  0
    6.3257   49.7463   28.5597 C   0  0  1  0  0  0  0  0  0  0  0  0
    6.7239   50.8339   29.5702 C   0  0  0  0  0  0  0  0  0  0  0  0
    7.2585   49.5509   27.3632 C   0  0  0  0  0  0  0  0  0  0  0  0
    8.3849   50.3971   27.1704 C   0  0  0  0  0  0  0  0  0  0  0  0
    7.0257   48.4872   26.4242 C   0  0  0  0  0  0  0  0  0  0  0  0
    9.2399   50.1385   26.1077 C   0  0  0  0  0  0  0  0  0  0  0  0
    7.9420   48.2664   25.3704 C   0  0  0  0  0  0  0  0  0  0  0  0
    5.8809   47.6235   26.5297 N   0  0  0  0  0  0  0  0  0  0  0  0
   10.3887   50.8163   25.7468 O   0  0  0  0  0  0  0  0  0  0  0  0
    9.0310   49.1161   25.2494 C   0  0  0  0  0  0  0  0  0  0  0  0
    4.6297   48.1478   26.7556 O   0  0  0  0  0  0  0  0  0  0  0  0
    5.9812   46.4154   26.2314 O   0  0  0  0  0  0  0  0  0  0  0  0
   10.9343   50.1756   24.5858 C   0  0  0  0  0  0  0  0  0  0  0  0
   10.0359   49.0948   24.3014 O   0  0  0  0  0  0  0  0  0  0  0  0
    8.8121   40.1851   34.2131 O   0  0  0  0  0  0  0  0  0  0  0  0
   11.2402   40.7951   33.3682 O   0  0  0  0  0  0  0  0  0  0  0  0
   10.9125   40.6877   31.9969 C   0  0  0  0  0  0  0  0  0  0  0  0
   11.5169   39.3811   31.4421 C   0  0  0  0  0  0  0  0  0  0  0  0
   12.7500   39.0881   32.0759 O   0  0  0  0  0  0  0  0  0  0  0  0
   10.6043   38.1893   31.6659 C   0  0  0  0  0  0  0  0  0  0  0  0
   12.9395   37.6814   32.0280 C   0  0  0  0  0  0  0  0  0  0  0  0
    9.6353   38.0951   30.6499 O   0  0  0  0  0  0  0  0  0  0  0  0
   11.5804   37.0191   31.6934 C   0  0  0  0  0  0  0  0  0  0  0  0
   13.4851   37.2119   33.3244 N   0  0  0  0  0  0  0  0  0  0  0  0
   11.6118   36.3189   30.4673 O   0  0  0  0  0  0  0  0  0  0  0  0
   14.4801   36.3316   33.5732 C   0  0  0  0  0  0  0  0  0  0  0  0
   13.1139   37.6277   34.5692 C   0  0  0  0  0  0  0  0  0  0  0  0
   15.2076   35.6154   32.6744 N   0  0  0  0  0  0  0  0  0  0  0  0
   14.6756   36.2303   34.9186 C   0  0  0  0  0  0  0  0  0  0  0  0
   13.8215   37.0451   35.5786 N   0  0  0  0  0  0  0  0  0  0  0  0
   16.1642   34.7602   33.1551 C   0  0  0  0  0  0  0  0  0  0  0  0
   15.6526   35.3505   35.4134 C   0  0  0  0  0  0  0  0  0  0  0  0
   16.3795   34.6316   34.5045 N   0  0  0  0  0  0  0  0  0  0  0  0
   15.9001   35.1933   36.8093 N   0  0  0  0  0  0  0  0  0  0  0  0
    9.0122   45.4318   33.6715 H   0  0  0  0  0  0  0  0  0  0  0  0
   11.8906   45.7657   32.9469 H   0  0  0  0  0  0  0  0  0  0  0  0
   10.7260   46.9687   33.1211 H   0  0  0  0  0  0  0  0  0  0  0  0
    9.3414   43.8328   31.4764 H   0  0  0  0  0  0  0  0  0  0  0  0
   10.7229   44.8813   31.1557 H   0  0  0  0  0  0  0  0  0  0  0  0
    7.0086   44.7167   31.5808 H   0  0  0  0  0  0  0  0  0  0  0  0
   10.3464   47.1833   30.4107 H   0  0  0  0  0  0  0  0  0  0  0  0
    5.4638   46.3047   30.4999 H   0  0  0  0  0  0  0  0  0  0  0  0
    8.8259   48.7544   29.3490 H   0  0  0  0  0  0  0  0  0  0  0  0
    5.3545   50.0867   28.1434 H   0  0  0  0  0  0  0  0  0  0  0  0
    5.9826   50.8593   30.3970 H   0  0  0  0  0  0  0  0  0  0  0  0
    6.7200   51.8322   29.0832 H   0  0  0  0  0  0  0  0  0  0  0  0
    7.7229   50.6445   30.0105 H   0  0  0  0  0  0  0  0  0  0  0  0
    8.6150   51.2223   27.8280 H   0  0  0  0  0  0  0  0  0  0  0  0
    7.7966   47.4672   24.6549 H   0  0  0  0  0  0  0  0  0  0  0  0
   10.9621   50.8854   23.7327 H   0  0  0  0  0  0  0  0  0  0  0  0
   11.9492   49.7826   24.8052 H   0  0  0  0  0  0  0  0  0  0  0  0
   11.3808   41.5456   31.4686 H   0  0  0  0  0  0  0  0  0  0  0  0
    9.8216   40.7222   31.7647 H   0  0  0  0  0  0  0  0  0  0  0  0
   11.6986   39.5089   30.3499 H   0  0  0  0  0  0  0  0  0  0  0  0
   10.1109   38.2737   32.6630 H   0  0  0  0  0  0  0  0  0  0  0  0
   13.6783   37.4562   31.2271 H   0  0  0  0  0  0  0  0  0  0  0  0
    9.0020   37.3860   30.9348 H   0  0  0  0  0  0  0  0  0  0  0  0
   11.2808   36.3053   32.4921 H   0  0  0  0  0  0  0  0  0  0  0  0
   11.8818   36.9600   29.7584 H   0  0  0  0  0  0  0  0  0  0  0  0
   12.3304   38.3538   34.7445 H   0  0  0  0  0  0  0  0  0  0  0  0
   16.7563   34.1783   32.4623 H   0  0  0  0  0  0  0  0  0  0  0  0
   15.3532   35.7359   37.5142 H   0  0  0  0  0  0  0  0  0  0  0  0
   16.6348   34.5301   37.1418 H   0  0  0  0  0  0  0  0  0  0  0  0
  1  2  2  0
  1  3  1  0
  3  4  1  0
  4  5  1  0
  6  1  1  0
  7  6  1  0
  6  8  1  0
  8  9  1  0
  9 10  2  0
 11  9  1  0
 10 12  1  0
 13 11  2  0
 12 14  2  0
 14 13  1  0
 14 15  1  0
 15 16  1  0
 16 17  1  0
 16 18  1  0
 18 19  2  0
 20 18  1  0
 19 21  1  0
 22 20  2  0
 20 23  1  0
 21 24  1  0
 21 25  2  0
 25 22  1  0
 23 26  1  0
 23 27  2  0
 24 28  1  0
 25 29  1  0
 28 29  1  0
  4 30  2  0
  4 31  1  0
 32 31  1  0
 32 33  1  0
 33 34  1  0
 33 35  1  0
 34 36  1  0
 35 37  1  0
 35 38  1  0
 38 36  1  0
 36 39  1  0
 38 40  1  0
 41 39  1  0
 42 39  1  0
 43 41  2  0
 41 44  1  0
 45 42  2  0
 46 43  1  0
 44 47  2  0
 44 45  1  0
 48 46  2  0
 48 47  1  0
 47 49  1  0
  6 50  1  1
  7 51  1  0
  7 52  1  0
  8 53  1  0
  8 54  1  0
 10 55  1  0
 11 56  1  0
 12 57  1  0
 13 58  1  0
 16 59  1  6
 17 60  1  0
 17 61  1  0
 17 62  1  0
 19 63  1  0
 22 64  1  0
 28 65  1  0
 28 66  1  0
 32 67  1  0
 32 68  1  0
 33 69  1  0
 35 70  1  0
 36 71  1  0
 37 72  1  0
 38 73  1  0
 40 74  1  0
 42 75  1  0
 46 76  1  0
 49 77  1  0
 49 78  1  0
M  CHG  3   5  -1  23   1  26  -1
M  END
>  <EmbedRMS>  (420) 
0.0815558200833

$$$$

     RDKit          3D

 78 83  0  0  0  0  0  0  0  0999 V2000
   10.2804   43.7664   33.8250 C   0  0  0  0  0  0  0  0  0  0  0  0
   11.4111   43.5918   34.3667 O   0  0  0  0  0  0  0  0  0  0  0  0
    9.3619   42.7249   33.7344 O   0  0  0  0  0  0  0  0  0  0  0  0
    9.8903   41.2265   34.2931 P   0  0  0  0  0  0  0  0  0  0  0  0
   10.3742   41.4563   35.8824 O   0  0  0  0  0  0  0  0  0  0  0  0
    9.9460   45.0737   33.2113 C   0  0  1  0  0  0  0  0  0  0  0  0
   11.0267   46.0292   33.4709 N   0  0  0  0  0  0  0  0  0  0  0  0
    9.7540   44.8543   31.6950 C   0  0  0  0  0  0  0  0  0  0  0  0
    8.7957   45.8414   31.0851 C   0  0  0  0  0  0  0  0  0  0  0  0
    7.4091   45.6001   31.1009 C   0  0  0  0  0  0  0  0  0  0  0  0
    9.2824   46.9877   30.4395 C   0  0  0  0  0  0  0  0  0  0  0  0
    6.5257   46.4984   30.4856 C   0  0  0  0  0  0  0  0  0  0  0  0
    8.3997   47.8867   29.8305 C   0  0  0  0  0  0  0  0  0  0  0  0
    7.0179   47.6559   29.8473 C   0  0  0  0  0  0  0  0  0  0  0  0
    6.1858   48.5930   29.2130 O   0  0  0  0  0  0  0  0  0  0  0  0
    4.7559   48.5969   29.2261 C   0  0  1  0  0  0  0  0  0  0  0  0
    4.2137   49.0196   30.5968 C   0  0  0  0  0  0  0  0  0  0  0  0
    4.2111   49.5121   28.1420 C   0  0  0  0  0  0  0  0  0  0  0  0
    2.9798   49.1479   27.5432 C   0  0  0  0  0  0  0  0  0  0  0  0
    4.8891   50.6951   27.6802 C   0  0  0  0  0  0  0  0  0  0  0  0
    2.4838   49.9291   26.5083 C   0  0  0  0  0  0  0  0  0  0  0  0
    4.3418   51.4394   26.6106 C   0  0  0  0  0  0  0  0  0  0  0  0
    6.1172   51.1548   28.2655 N   0  0  0  0  0  0  0  0  0  0  0  0
    1.3199   49.7570   25.7841 O   0  0  0  0  0  0  0  0  0  0  0  0
    3.1381   51.0235   26.0588 C   0  0  0  0  0  0  0  0  0  0  0  0
    7.0979   51.6863   27.4601 O   0  0  0  0  0  0  0  0  0  0  0  0
    6.2117   51.2990   29.5010 O   0  0  0  0  0  0  0  0  0  0  0  0
    1.2401   50.8136   24.8177 C   0  0  0  0  0  0  0  0  0  0  0  0
    2.4211   51.5995   25.0278 O   0  0  0  0  0  0  0  0  0  0  0  0
    8.8124   40.1844   34.2129 O   0  0  0  0  0  0  0  0  0  0  0  0
   11.2405   40.7948   33.3669 O   0  0  0  0  0  0  0  0  0  0  0  0
   10.9133   40.6866   31.9953 C   0  0  0  0  0  0  0  0  0  0  0  0
   11.5166   39.3787   31.4404 C   0  0  0  0  0  0  0  0  0  0  0  0
   12.7485   39.0849   32.0735 O   0  0  0  0  0  0  0  0  0  0  0  0
   10.6039   38.1884   31.6669 C   0  0  0  0  0  0  0  0  0  0  0  0
   12.9329   37.6776   32.0284 C   0  0  0  0  0  0  0  0  0  0  0  0
    9.6373   38.0938   30.6485 O   0  0  0  0  0  0  0  0  0  0  0  0
   11.5737   37.0140   31.7055 C   0  0  0  0  0  0  0  0  0  0  0  0
   13.4853   37.2120   33.3238 N   0  0  0  0  0  0  0  0  0  0  0  0
   11.6210   36.3379   30.4683 O   0  0  0  0  0  0  0  0  0  0  0  0
   14.4804   36.3319   33.5726 C   0  0  0  0  0  0  0  0  0  0  0  0
   13.1141   37.6275   34.5689 C   0  0  0  0  0  0  0  0  0  0  0  0
   15.2076   35.6152   32.6740 N   0  0  0  0  0  0  0  0  0  0  0  0
   14.6761   36.2306   34.9181 C   0  0  0  0  0  0  0  0  0  0  0  0
   13.8218   37.0451   35.5783 N   0  0  0  0  0  0  0  0  0  0  0  0
   16.1642   34.7600   33.1548 C   0  0  0  0  0  0  0  0  0  0  0  0
   15.6528   35.3507   35.4131 C   0  0  0  0  0  0  0  0  0  0  0  0
   16.3795   34.6315   34.5043 N   0  0  0  0  0  0  0  0  0  0  0  0
   15.9001   35.1933   36.8090 N   0  0  0  0  0  0  0  0  0  0  0  0
    8.9996   45.4382   33.6723 H   0  0  0  0  0  0  0  0  0  0  0  0
   11.0503   46.2277   34.4983 H   0  0  0  0  0  0  0  0  0  0  0  0
   10.7765   46.9369   33.0160 H   0  0  0  0  0  0  0  0  0  0  0  0
   10.7412   44.9080   31.1837 H   0  0  0  0  0  0  0  0  0  0  0  0
    9.3645   43.8355   31.4711 H   0  0  0  0  0  0  0  0  0  0  0  0
    7.0153   44.7144   31.5844 H   0  0  0  0  0  0  0  0  0  0  0  0
   10.3463   47.1873   30.4048 H   0  0  0  0  0  0  0  0  0  0  0  0
    5.4691   46.2759   30.5138 H   0  0  0  0  0  0  0  0  0  0  0  0
    8.7920   48.7682   29.3391 H   0  0  0  0  0  0  0  0  0  0  0  0
    4.4023   47.5652   29.0085 H   0  0  0  0  0  0  0  0  0  0  0  0
    3.1065   48.9308   30.6087 H   0  0  0  0  0  0  0  0  0  0  0  0
    4.4843   50.0686   30.8305 H   0  0  0  0  0  0  0  0  0  0  0  0
    4.6194   48.3684   31.3973 H   0  0  0  0  0  0  0  0  0  0  0  0
    2.4300   48.2730   27.8674 H   0  0  0  0  0  0  0  0  0  0  0  0
    4.8308   52.3295   26.2361 H   0  0  0  0  0  0  0  0  0  0  0  0
    0.3335   51.4292   24.9956 H   0  0  0  0  0  0  0  0  0  0  0  0
    1.2366   50.3944   23.7897 H   0  0  0  0  0  0  0  0  0  0  0  0
   11.3826   41.5438   31.4666 H   0  0  0  0  0  0  0  0  0  0  0  0
    9.8224   40.7224   31.7629 H   0  0  0  0  0  0  0  0  0  0  0  0
   11.6979   39.5036   30.3478 H   0  0  0  0  0  0  0  0  0  0  0  0
   10.1084   38.2786   32.6627 H   0  0  0  0  0  0  0  0  0  0  0  0
   13.6638   37.4473   31.2214 H   0  0  0  0  0  0  0  0  0  0  0  0
    8.9763   37.4190   30.9532 H   0  0  0  0  0  0  0  0  0  0  0  0
   11.2821   36.3054   32.5172 H   0  0  0  0  0  0  0  0  0  0  0  0
   10.8658   35.6935   30.4652 H   0  0  0  0  0  0  0  0  0  0  0  0
   12.3293   38.3523   34.7445 H   0  0  0  0  0  0  0  0  0  0  0  0
   16.7561   34.1778   32.4621 H   0  0  0  0  0  0  0  0  0  0  0  0
   16.6345   34.5300   37.1416 H   0  0  0  0  0  0  0  0  0  0  0  0
   15.3533   35.7361   37.5138 H   0  0  0  0  0  0  0  0  0  0  0  0
  1  2  2  0
  1  3  1  0
  3  4  1  0
  4  5  1  0
  6  1  1  0
  7  6  1  0
  6  8  1  0
  8  9  1  0
  9 10  2  0
 11  9  1  0
 10 12  1  0
 13 11  2  0
 12 14  2  0
 14 13  1  0
 14 15  1  0
 15 16  1  0
 16 17  1  0
 16 18  1  0
 18 19  2  0
 20 18  1  0
 19 21  1  0
 22 20  2  0
 20 23  1  0
 21 24  1  0
 21 25  2  0
 25 22  1  0
 23 26  1  0
 23 27  2  0
 24 28  1  0
 25 29  1  0
 28 29  1  0
  4 30  2  0
  4 31  1  0
 32 31  1  0
 32 33  1  0
 33 34  1  0
 33 35  1  0
 34 36  1  0
 35 37  1  0
 35 38  1  0
 38 36  1  0
 36 39  1  0
 38 40  1  0
 41 39  1  0
 42 39  1  0
 43 41  2  0
 41 44  1  0
 45 42  2  0
 46 43  1  0
 44 47  2  0
 44 45  1  0
 48 46  2  0
 48 47  1  0
 47 49  1  0
  6 50  1  1
  7 51  1  0
  7 52  1  0
  8 53  1  0
  8 54  1  0
 10 55  1  0
 11 56  1  0
 12 57  1  0
 13 58  1  0
 16 59  1  6
 17 60  1  0
 17 61  1  0
 17 62  1  0
 19 63  1  0
 22 64  1  0
 28 65  1  0
 28 66  1  0
 32 67  1  0
 32 68  1  0
 33 69  1  0
 35 70  1  0
 36 71  1  0
 37 72  1  0
 38 73  1  0
 40 74  1  0
 42 75  1  0
 46 76  1  0
 49 77  1  0
 49 78  1  0
M  CHG  3   5  -1  23   1  26  -1
M  END
>  <EmbedRMS>  (421) 
0.0823594247327

$$$$

     RDKit          3D

 78 83  0  0  0  0  0  0  0  0999 V2000
   10.2804   43.7664   33.8249 C   0  0  0  0  0  0  0  0  0  0  0  0
   11.4110   43.5918   34.3666 O   0  0  0  0  0  0  0  0  0  0  0  0
    9.3619   42.7249   33.7344 O   0  0  0  0  0  0  0  0  0  0  0  0
    9.8899   41.2267   34.2940 P   0  0  0  0  0  0  0  0  0  0  0  0
   10.3734   41.4567   35.8833 O   0  0  0  0  0  0  0  0  0  0  0  0
    9.9460   45.0736   33.2110 C   0  0  1  0  0  0  0  0  0  0  0  0
   11.0267   46.0292   33.4708 N   0  0  0  0  0  0  0  0  0  0  0  0
    9.7541   44.8541   31.6947 C   0  0  0  0  0  0  0  0  0  0  0  0
    8.7957   45.8411   31.0845 C   0  0  0  0  0  0  0  0  0  0  0  0
    7.4090   45.6001   31.1015 C   0  0  0  0  0  0  0  0  0  0  0  0
    9.2823   46.9883   30.4401 C   0  0  0  0  0  0  0  0  0  0  0  0
    6.5259   46.4992   30.4875 C   0  0  0  0  0  0  0  0  0  0  0  0
    8.3996   47.8879   29.8317 C   0  0  0  0  0  0  0  0  0  0  0  0
    7.0185   47.6535   29.8445 C   0  0  0  0  0  0  0  0  0  0  0  0
    6.1805   48.5849   29.2095 O   0  0  0  0  0  0  0  0  0  0  0  0
    4.7656   48.4495   29.0495 C   0  0  1  0  0  0  0  0  0  0  0  0
    4.2038   49.7660   28.5155 C   0  0  0  0  0  0  0  0  0  0  0  0
    4.4436   47.3183   28.0876 C   0  0  0  0  0  0  0  0  0  0  0  0
    5.2003   47.2083   26.8951 C   0  0  0  0  0  0  0  0  0  0  0  0
    3.4428   46.3330   28.3766 C   0  0  0  0  0  0  0  0  0  0  0  0
    4.9696   46.1228   26.0607 C   0  0  0  0  0  0  0  0  0  0  0  0
    3.2635   45.2409   27.4966 C   0  0  0  0  0  0  0  0  0  0  0  0
    2.5991   46.4345   29.5343 N   0  0  0  0  0  0  0  0  0  0  0  0
    5.5912   45.8093   24.8673 O   0  0  0  0  0  0  0  0  0  0  0  0
    4.0460   45.1780   26.3512 C   0  0  0  0  0  0  0  0  0  0  0  0
    1.9629   47.6195   29.8228 O   0  0  0  0  0  0  0  0  0  0  0  0
    2.2614   45.4036   30.1521 O   0  0  0  0  0  0  0  0  0  0  0  0
    5.0188   44.5888   24.3778 C   0  0  0  0  0  0  0  0  0  0  0  0
    4.0361   44.2204   25.3554 O   0  0  0  0  0  0  0  0  0  0  0  0
    8.8123   40.1844   34.2133 O   0  0  0  0  0  0  0  0  0  0  0  0
   11.2405   40.7942   33.3691 O   0  0  0  0  0  0  0  0  0  0  0  0
   10.9150   40.6905   31.9972 C   0  0  0  0  0  0  0  0  0  0  0  0
   11.5252   39.3886   31.4375 C   0  0  0  0  0  0  0  0  0  0  0  0
   12.7499   39.0874   32.0799 O   0  0  0  0  0  0  0  0  0  0  0  0
   10.6092   38.1926   31.6469 C   0  0  0  0  0  0  0  0  0  0  0  0
   12.9332   37.6793   32.0294 C   0  0  0  0  0  0  0  0  0  0  0  0
    9.6121   38.0894   30.6542 O   0  0  0  0  0  0  0  0  0  0  0  0
   11.5743   37.0145   31.7024 C   0  0  0  0  0  0  0  0  0  0  0  0
   13.4844   37.2108   33.3241 N   0  0  0  0  0  0  0  0  0  0  0  0
   11.6297   36.3239   30.4740 O   0  0  0  0  0  0  0  0  0  0  0  0
   14.4802   36.3313   33.5727 C   0  0  0  0  0  0  0  0  0  0  0  0
   13.1139   37.6266   34.5693 C   0  0  0  0  0  0  0  0  0  0  0  0
   15.2075   35.6149   32.6739 N   0  0  0  0  0  0  0  0  0  0  0  0
   14.6761   36.2303   34.9181 C   0  0  0  0  0  0  0  0  0  0  0  0
   13.8220   37.0446   35.5785 N   0  0  0  0  0  0  0  0  0  0  0  0
   16.1643   34.7600   33.1547 C   0  0  0  0  0  0  0  0  0  0  0  0
   15.6529   35.3505   35.4130 C   0  0  0  0  0  0  0  0  0  0  0  0
   16.3798   34.6315   34.5042 N   0  0  0  0  0  0  0  0  0  0  0  0
   15.9003   35.1932   36.8090 N   0  0  0  0  0  0  0  0  0  0  0  0
    8.9995   45.4381   33.6720 H   0  0  0  0  0  0  0  0  0  0  0  0
   10.7765   46.9369   33.0158 H   0  0  0  0  0  0  0  0  0  0  0  0
   11.0502   46.2277   34.4982 H   0  0  0  0  0  0  0  0  0  0  0  0
    9.3646   43.8354   31.4709 H   0  0  0  0  0  0  0  0  0  0  0  0
   10.7412   44.9079   31.1834 H   0  0  0  0  0  0  0  0  0  0  0  0
    7.0147   44.7161   31.5875 H   0  0  0  0  0  0  0  0  0  0  0  0
   10.3462   47.1882   30.4059 H   0  0  0  0  0  0  0  0  0  0  0  0
    5.4676   46.2858   30.5242 H   0  0  0  0  0  0  0  0  0  0  0  0
    8.7916   48.7691   29.3398 H   0  0  0  0  0  0  0  0  0  0  0  0
    4.3202   48.2781   30.0509 H   0  0  0  0  0  0  0  0  0  0  0  0
    4.6744   50.0274   27.5436 H   0  0  0  0  0  0  0  0  0  0  0  0
    3.1045   49.6896   28.3758 H   0  0  0  0  0  0  0  0  0  0  0  0
    4.4110   50.5825   29.2393 H   0  0  0  0  0  0  0  0  0  0  0  0
    5.9614   47.9345   26.6388 H   0  0  0  0  0  0  0  0  0  0  0  0
    2.5198   44.4782   27.6888 H   0  0  0  0  0  0  0  0  0  0  0  0
    5.7984   43.8020   24.3029 H   0  0  0  0  0  0  0  0  0  0  0  0
    4.5348   44.7594   23.3934 H   0  0  0  0  0  0  0  0  0  0  0  0
    9.8241   40.7215   31.7640 H   0  0  0  0  0  0  0  0  0  0  0  0
   11.3800   41.5528   31.4730 H   0  0  0  0  0  0  0  0  0  0  0  0
   11.7266   39.5310   30.3513 H   0  0  0  0  0  0  0  0  0  0  0  0
   10.1110   38.2747   32.6387 H   0  0  0  0  0  0  0  0  0  0  0  0
   13.6652   37.4520   31.2226 H   0  0  0  0  0  0  0  0  0  0  0  0
   10.0511   38.1143   29.7645 H   0  0  0  0  0  0  0  0  0  0  0  0
   11.2762   36.3141   32.5189 H   0  0  0  0  0  0  0  0  0  0  0  0
   10.8593   35.6978   30.4640 H   0  0  0  0  0  0  0  0  0  0  0  0
   12.3295   38.3518   34.7450 H   0  0  0  0  0  0  0  0  0  0  0  0
   16.7564   34.1780   32.4620 H   0  0  0  0  0  0  0  0  0  0  0  0
   16.6349   34.5300   37.1415 H   0  0  0  0  0  0  0  0  0  0  0  0
   15.3534   35.7359   37.5138 H   0  0  0  0  0  0  0  0  0  0  0  0
  1  2  2  0
  1  3  1  0
  3  4  1  0
  4  5  1  0
  6  1  1  0
  7  6  1  0
  6  8  1  0
  8  9  1  0
  9 10  2  0
 11  9  1  0
 10 12  1  0
 13 11  2  0
 12 14  2  0
 14 13  1  0
 14 15  1  0
 15 16  1  0
 16 17  1  0
 16 18  1  0
 18 19  2  0
 20 18  1  0
 19 21  1  0
 22 20  2  0
 20 23  1  0
 21 24  1  0
 21 25  2  0
 25 22  1  0
 23 26  1  0
 23 27  2  0
 24 28  1  0
 25 29  1  0
 28 29  1  0
  4 30  2  0
  4 31  1  0
 32 31  1  0
 32 33  1  0
 33 34  1  0
 33 35  1  0
 34 36  1  0
 35 37  1  0
 35 38  1  0
 38 36  1  0
 36 39  1  0
 38 40  1  0
 41 39  1  0
 42 39  1  0
 43 41  2  0
 41 44  1  0
 45 42  2  0
 46 43  1  0
 44 47  2  0
 44 45  1  0
 48 46  2  0
 48 47  1  0
 47 49  1  0
  6 50  1  1
  7 51  1  0
  7 52  1  0
  8 53  1  0
  8 54  1  0
 10 55  1  0
 11 56  1  0
 12 57  1  0
 13 58  1  0
 16 59  1  1
 17 60  1  0
 17 61  1  0
 17 62  1  0
 19 63  1  0
 22 64  1  0
 28 65  1  0
 28 66  1  0
 32 67  1  0
 32 68  1  0
 33 69  1  0
 35 70  1  0
 36 71  1  0
 37 72  1  0
 38 73  1  0
 40 74  1  0
 42 75  1  0
 46 76  1  0
 49 77  1  0
 49 78  1  0
M  CHG  3   5  -1  23   1  26  -1
M  END
>  <EmbedRMS>  (422) 
0.0816386275546

$$$$

     RDKit          3D

 78 83  0  0  0  0  0  0  0  0999 V2000
   10.2834   43.7662   33.8253 C   0  0  0  0  0  0  0  0  0  0  0  0
   11.4101   43.5931   34.3751 O   0  0  0  0  0  0  0  0  0  0  0  0
    9.3637   42.7255   33.7349 O   0  0  0  0  0  0  0  0  0  0  0  0
    9.8903   41.2268   34.2946 P   0  0  0  0  0  0  0  0  0  0  0  0
   10.3728   41.4562   35.8842 O   0  0  0  0  0  0  0  0  0  0  0  0
    9.9545   45.0695   33.2031 C   0  0  1  0  0  0  0  0  0  0  0  0
   11.0272   46.0322   33.4754 N   0  0  0  0  0  0  0  0  0  0  0  0
    9.7465   44.8484   31.6870 C   0  0  0  0  0  0  0  0  0  0  0  0
    8.7920   45.8409   31.0837 C   0  0  0  0  0  0  0  0  0  0  0  0
    7.4040   45.6015   31.1003 C   0  0  0  0  0  0  0  0  0  0  0  0
    9.2821   46.9902   30.4429 C   0  0  0  0  0  0  0  0  0  0  0  0
    6.5246   46.5043   30.4874 C   0  0  0  0  0  0  0  0  0  0  0  0
    8.4008   47.8918   29.8340 C   0  0  0  0  0  0  0  0  0  0  0  0
    7.0215   47.6463   29.8431 C   0  0  0  0  0  0  0  0  0  0  0  0
    6.1427   48.5431   29.2284 O   0  0  0  0  0  0  0  0  0  0  0  0
    5.7114   48.4212   27.8689 C   0  0  1  0  0  0  0  0  0  0  0  0
    6.8561   48.7335   26.8942 C   0  0  0  0  0  0  0  0  0  0  0  0
    5.0445   47.0724   27.6165 C   0  0  0  0  0  0  0  0  0  0  0  0
    5.8385   45.9388   27.3004 C   0  0  0  0  0  0  0  0  0  0  0  0
    3.6198   46.9201   27.7009 C   0  0  0  0  0  0  0  0  0  0  0  0
    5.2027   44.7345   27.0316 C   0  0  0  0  0  0  0  0  0  0  0  0
    3.0281   45.6727   27.3953 C   0  0  0  0  0  0  0  0  0  0  0  0
    2.7729   47.9979   28.1315 N   0  0  0  0  0  0  0  0  0  0  0  0
    5.7709   43.5197   26.6994 O   0  0  0  0  0  0  0  0  0  0  0  0
    3.8572   44.6088   27.0693 C   0  0  0  0  0  0  0  0  0  0  0  0
    3.1016   48.7288   29.2498 O   0  0  0  0  0  0  0  0  0  0  0  0
    1.6351   48.1342   27.6361 O   0  0  0  0  0  0  0  0  0  0  0  0
    4.7111   42.5713   26.5156 C   0  0  0  0  0  0  0  0  0  0  0  0
    3.5058   43.3085   26.7616 O   0  0  0  0  0  0  0  0  0  0  0  0
    8.8125   40.1848   34.2126 O   0  0  0  0  0  0  0  0  0  0  0  0
   11.2416   40.7948   33.3707 O   0  0  0  0  0  0  0  0  0  0  0  0
   10.9179   40.6922   31.9984 C   0  0  0  0  0  0  0  0  0  0  0  0
   11.5175   39.3838   31.4423 C   0  0  0  0  0  0  0  0  0  0  0  0
   12.7507   39.0887   32.0752 O   0  0  0  0  0  0  0  0  0  0  0  0
   10.6027   38.1916   31.6658 C   0  0  0  0  0  0  0  0  0  0  0  0
   12.9384   37.6819   32.0278 C   0  0  0  0  0  0  0  0  0  0  0  0
    9.6371   38.0806   30.6470 O   0  0  0  0  0  0  0  0  0  0  0  0
   11.5780   37.0215   31.6935 C   0  0  0  0  0  0  0  0  0  0  0  0
   13.4844   37.2119   33.3242 N   0  0  0  0  0  0  0  0  0  0  0  0
   11.6095   36.3202   30.4679 O   0  0  0  0  0  0  0  0  0  0  0  0
   14.4797   36.3318   33.5730 C   0  0  0  0  0  0  0  0  0  0  0  0
   13.1135   37.6278   34.5691 C   0  0  0  0  0  0  0  0  0  0  0  0
   15.2073   35.6155   32.6742 N   0  0  0  0  0  0  0  0  0  0  0  0
   14.6754   36.2305   34.9184 C   0  0  0  0  0  0  0  0  0  0  0  0
   13.8213   37.0452   35.5785 N   0  0  0  0  0  0  0  0  0  0  0  0
   16.1640   34.7604   33.1549 C   0  0  0  0  0  0  0  0  0  0  0  0
   15.6524   35.3507   35.4132 C   0  0  0  0  0  0  0  0  0  0  0  0
   16.3794   34.6318   34.5043 N   0  0  0  0  0  0  0  0  0  0  0  0
   15.9000   35.1934   36.8091 N   0  0  0  0  0  0  0  0  0  0  0  0
    9.0119   45.4317   33.6709 H   0  0  0  0  0  0  0  0  0  0  0  0
   10.7257   46.9688   33.1212 H   0  0  0  0  0  0  0  0  0  0  0  0
   11.8904   45.7660   32.9466 H   0  0  0  0  0  0  0  0  0  0  0  0
   10.7228   44.8822   31.1549 H   0  0  0  0  0  0  0  0  0  0  0  0
    9.3416   43.8332   31.4754 H   0  0  0  0  0  0  0  0  0  0  0  0
    7.0069   44.7173   31.5835 H   0  0  0  0  0  0  0  0  0  0  0  0
   10.3462   47.1898   30.4137 H   0  0  0  0  0  0  0  0  0  0  0  0
    5.4593   46.3126   30.5061 H   0  0  0  0  0  0  0  0  0  0  0  0
    8.7902   48.7775   29.3486 H   0  0  0  0  0  0  0  0  0  0  0  0
    4.9682   49.2248   27.6876 H   0  0  0  0  0  0  0  0  0  0  0  0
    7.7328   48.0767   27.0628 H   0  0  0  0  0  0  0  0  0  0  0  0
    7.1874   49.7841   27.0357 H   0  0  0  0  0  0  0  0  0  0  0  0
    6.5088   48.6134   25.8458 H   0  0  0  0  0  0  0  0  0  0  0  0
    6.9177   45.9828   27.2670 H   0  0  0  0  0  0  0  0  0  0  0  0
    1.9565   45.5290   27.4464 H   0  0  0  0  0  0  0  0  0  0  0  0
    4.7180   42.1843   25.4751 H   0  0  0  0  0  0  0  0  0  0  0  0
    4.8081   41.7408   27.2460 H   0  0  0  0  0  0  0  0  0  0  0  0
   11.3952   41.5478   31.4744 H   0  0  0  0  0  0  0  0  0  0  0  0
    9.8291   40.7410   31.7626 H   0  0  0  0  0  0  0  0  0  0  0  0
   11.6981   39.5116   30.3500 H   0  0  0  0  0  0  0  0  0  0  0  0
   10.1117   38.2604   32.6660 H   0  0  0  0  0  0  0  0  0  0  0  0
   13.6767   37.4556   31.2267 H   0  0  0  0  0  0  0  0  0  0  0  0
    8.8962   38.6954   30.8870 H   0  0  0  0  0  0  0  0  0  0  0  0
   11.2791   36.3073   32.4922 H   0  0  0  0  0  0  0  0  0  0  0  0
   11.8828   36.9598   29.7589 H   0  0  0  0  0  0  0  0  0  0  0  0
   12.3300   38.3539   34.7446 H   0  0  0  0  0  0  0  0  0  0  0  0
   16.7561   34.1785   32.4621 H   0  0  0  0  0  0  0  0  0  0  0  0
   16.6347   34.5303   37.1416 H   0  0  0  0  0  0  0  0  0  0  0  0
   15.3531   35.7360   37.5140 H   0  0  0  0  0  0  0  0  0  0  0  0
  1  2  2  0
  1  3  1  0
  3  4  1  0
  4  5  1  0
  6  1  1  0
  7  6  1  0
  6  8  1  0
  8  9  1  0
  9 10  2  0
 11  9  1  0
 10 12  1  0
 13 11  2  0
 12 14  2  0
 14 13  1  0
 14 15  1  0
 15 16  1  0
 16 17  1  0
 16 18  1  0
 18 19  2  0
 20 18  1  0
 19 21  1  0
 22 20  2  0
 20 23  1  0
 21 24  1  0
 21 25  2  0
 25 22  1  0
 23 26  1  0
 23 27  2  0
 24 28  1  0
 25 29  1  0
 28 29  1  0
  4 30  2  0
  4 31  1  0
 32 31  1  0
 32 33  1  0
 33 34  1  0
 33 35  1  0
 34 36  1  0
 35 37  1  0
 35 38  1  0
 38 36  1  0
 36 39  1  0
 38 40  1  0
 41 39  1  0
 42 39  1  0
 43 41  2  0
 41 44  1  0
 45 42  2  0
 46 43  1  0
 44 47  2  0
 44 45  1  0
 48 46  2  0
 48 47  1  0
 47 49  1  0
  6 50  1  1
  7 51  1  0
  7 52  1  0
  8 53  1  0
  8 54  1  0
 10 55  1  0
 11 56  1  0
 12 57  1  0
 13 58  1  0
 16 59  1  6
 17 60  1  0
 17 61  1  0
 17 62  1  0
 19 63  1  0
 22 64  1  0
 28 65  1  0
 28 66  1  0
 32 67  1  0
 32 68  1  0
 33 69  1  0
 35 70  1  0
 36 71  1  0
 37 72  1  0
 38 73  1  0
 40 74  1  0
 42 75  1  0
 46 76  1  0
 49 77  1  0
 49 78  1  0
M  CHG  3   5  -1  23   1  26  -1
M  END
>  <EmbedRMS>  (423) 
0.0820984158744

$$$$

     RDKit          3D

 78 83  0  0  0  0  0  0  0  0999 V2000
   10.2834   43.7662   33.8257 C   0  0  0  0  0  0  0  0  0  0  0  0
   11.4102   43.5930   34.3753 O   0  0  0  0  0  0  0  0  0  0  0  0
    9.3637   42.7255   33.7350 O   0  0  0  0  0  0  0  0  0  0  0  0
    9.8902   41.2267   34.2942 P   0  0  0  0  0  0  0  0  0  0  0  0
   10.3736   41.4560   35.8836 O   0  0  0  0  0  0  0  0  0  0  0  0
    9.9546   45.0695   33.2037 C   0  0  1  0  0  0  0  0  0  0  0  0
   11.0273   46.0323   33.4757 N   0  0  0  0  0  0  0  0  0  0  0  0
    9.7465   44.8481   31.6878 C   0  0  0  0  0  0  0  0  0  0  0  0
    8.7923   45.8409   31.0848 C   0  0  0  0  0  0  0  0  0  0  0  0
    7.4057   45.6012   31.0985 C   0  0  0  0  0  0  0  0  0  0  0  0
    9.2822   46.9873   30.4419 C   0  0  0  0  0  0  0  0  0  0  0  0
    6.5271   46.5026   30.4828 C   0  0  0  0  0  0  0  0  0  0  0  0
    8.4032   47.8891   29.8307 C   0  0  0  0  0  0  0  0  0  0  0  0
    7.0137   47.6547   29.8496 C   0  0  0  0  0  0  0  0  0  0  0  0
    6.0856   48.5276   29.2579 O   0  0  0  0  0  0  0  0  0  0  0  0
    6.3915   49.7939   28.6729 C   0  0  1  0  0  0  0  0  0  0  0  0
    5.1834   50.2936   27.8801 C   0  0  0  0  0  0  0  0  0  0  0  0
    6.8090   50.8074   29.7287 C   0  0  0  0  0  0  0  0  0  0  0  0
    8.0497   51.4701   29.5606 C   0  0  0  0  0  0  0  0  0  0  0  0
    5.9790   51.1571   30.8468 C   0  0  0  0  0  0  0  0  0  0  0  0
    8.4215   52.4339   30.4888 C   0  0  0  0  0  0  0  0  0  0  0  0
    6.4031   52.1557   31.7511 C   0  0  0  0  0  0  0  0  0  0  0  0
    4.7088   50.5330   31.0693 N   0  0  0  0  0  0  0  0  0  0  0  0
    9.5747   53.1941   30.5224 O   0  0  0  0  0  0  0  0  0  0  0  0
    7.6327   52.7631   31.5369 C   0  0  0  0  0  0  0  0  0  0  0  0
    4.6520   49.2033   31.4128 O   0  0  0  0  0  0  0  0  0  0  0  0
    3.6980   51.2435   31.2457 O   0  0  0  0  0  0  0  0  0  0  0  0
    9.5041   54.0545   31.6676 C   0  0  0  0  0  0  0  0  0  0  0  0
    8.2475   53.7471   32.2869 O   0  0  0  0  0  0  0  0  0  0  0  0
    8.8121   40.1850   34.2131 O   0  0  0  0  0  0  0  0  0  0  0  0
   11.2404   40.7941   33.3690 O   0  0  0  0  0  0  0  0  0  0  0  0
   10.9143   40.6898   31.9972 C   0  0  0  0  0  0  0  0  0  0  0  0
   11.5261   39.3885   31.4376 C   0  0  0  0  0  0  0  0  0  0  0  0
   12.7504   39.0888   32.0816 O   0  0  0  0  0  0  0  0  0  0  0  0
   10.6115   38.1910   31.6460 C   0  0  0  0  0  0  0  0  0  0  0  0
   12.9357   37.6812   32.0303 C   0  0  0  0  0  0  0  0  0  0  0  0
    9.6146   38.0859   30.6533 O   0  0  0  0  0  0  0  0  0  0  0  0
   11.5769   37.0148   31.7012 C   0  0  0  0  0  0  0  0  0  0  0  0
   13.4849   37.2112   33.3247 N   0  0  0  0  0  0  0  0  0  0  0  0
   11.6193   36.3261   30.4724 O   0  0  0  0  0  0  0  0  0  0  0  0
   14.4802   36.3313   33.5730 C   0  0  0  0  0  0  0  0  0  0  0  0
   13.1141   37.6268   34.5698 C   0  0  0  0  0  0  0  0  0  0  0  0
   15.2075   35.6151   32.6741 N   0  0  0  0  0  0  0  0  0  0  0  0
   14.6761   36.2300   34.9184 C   0  0  0  0  0  0  0  0  0  0  0  0
   13.8220   37.0445   35.5789 N   0  0  0  0  0  0  0  0  0  0  0  0
   16.1642   34.7600   33.1547 C   0  0  0  0  0  0  0  0  0  0  0  0
   15.6529   35.3503   35.4131 C   0  0  0  0  0  0  0  0  0  0  0  0
   16.3798   34.6314   34.5042 N   0  0  0  0  0  0  0  0  0  0  0  0
   15.9004   35.1930   36.8090 N   0  0  0  0  0  0  0  0  0  0  0  0
    9.0120   45.4318   33.6716 H   0  0  0  0  0  0  0  0  0  0  0  0
   10.7258   46.9688   33.1213 H   0  0  0  0  0  0  0  0  0  0  0  0
   11.8905   45.7660   32.9469 H   0  0  0  0  0  0  0  0  0  0  0  0
    9.3413   43.8330   31.4765 H   0  0  0  0  0  0  0  0  0  0  0  0
   10.7229   44.8814   31.1558 H   0  0  0  0  0  0  0  0  0  0  0  0
    7.0083   44.7163   31.5802 H   0  0  0  0  0  0  0  0  0  0  0  0
   10.3470   47.1829   30.4089 H   0  0  0  0  0  0  0  0  0  0  0  0
    5.4625   46.3068   30.5018 H   0  0  0  0  0  0  0  0  0  0  0  0
    8.8192   48.7557   29.3399 H   0  0  0  0  0  0  0  0  0  0  0  0
    7.2058   49.6492   27.9282 H   0  0  0  0  0  0  0  0  0  0  0  0
    4.9659   49.5886   27.0498 H   0  0  0  0  0  0  0  0  0  0  0  0
    4.2799   50.3618   28.5191 H   0  0  0  0  0  0  0  0  0  0  0  0
    5.3970   51.2931   27.4442 H   0  0  0  0  0  0  0  0  0  0  0  0
    8.7035   51.2497   28.7262 H   0  0  0  0  0  0  0  0  0  0  0  0
    5.7941   52.4398   32.5998 H   0  0  0  0  0  0  0  0  0  0  0  0
   10.3391   53.8345   32.3654 H   0  0  0  0  0  0  0  0  0  0  0  0
    9.5249   55.1183   31.3507 H   0  0  0  0  0  0  0  0  0  0  0  0
    9.8233   40.7191   31.7647 H   0  0  0  0  0  0  0  0  0  0  0  0
   11.3779   41.5526   31.4726 H   0  0  0  0  0  0  0  0  0  0  0  0
   11.7283   39.5312   30.3515 H   0  0  0  0  0  0  0  0  0  0  0  0
   10.1127   38.2734   32.6376 H   0  0  0  0  0  0  0  0  0  0  0  0
   13.6692   37.4566   31.2242 H   0  0  0  0  0  0  0  0  0  0  0  0
   10.0533   38.1118   29.7635 H   0  0  0  0  0  0  0  0  0  0  0  0
   11.2607   36.3148   32.5102 H   0  0  0  0  0  0  0  0  0  0  0  0
   12.1496   35.5023   30.6324 H   0  0  0  0  0  0  0  0  0  0  0  0
   12.3301   38.3524   34.7455 H   0  0  0  0  0  0  0  0  0  0  0  0
   16.7563   34.1781   32.4619 H   0  0  0  0  0  0  0  0  0  0  0  0
   15.3536   35.7357   37.5139 H   0  0  0  0  0  0  0  0  0  0  0  0
   16.6351   34.5298   37.1416 H   0  0  0  0  0  0  0  0  0  0  0  0
  1  2  2  0
  1  3  1  0
  3  4  1  0
  4  5  1  0
  6  1  1  0
  7  6  1  0
  6  8  1  0
  8  9  1  0
  9 10  2  0
 11  9  1  0
 10 12  1  0
 13 11  2  0
 12 14  2  0
 14 13  1  0
 14 15  1  0
 15 16  1  0
 16 17  1  0
 16 18  1  0
 18 19  2  0
 20 18  1  0
 19 21  1  0
 22 20  2  0
 20 23  1  0
 21 24  1  0
 21 25  2  0
 25 22  1  0
 23 26  1  0
 23 27  2  0
 24 28  1  0
 25 29  1  0
 28 29  1  0
  4 30  2  0
  4 31  1  0
 32 31  1  0
 32 33  1  0
 33 34  1  0
 33 35  1  0
 34 36  1  0
 35 37  1  0
 35 38  1  0
 38 36  1  0
 36 39  1  0
 38 40  1  0
 41 39  1  0
 42 39  1  0
 43 41  2  0
 41 44  1  0
 45 42  2  0
 46 43  1  0
 44 47  2  0
 44 45  1  0
 48 46  2  0
 48 47  1  0
 47 49  1  0
  6 50  1  1
  7 51  1  0
  7 52  1  0
  8 53  1  0
  8 54  1  0
 10 55  1  0
 11 56  1  0
 12 57  1  0
 13 58  1  0
 16 59  1  6
 17 60  1  0
 17 61  1  0
 17 62  1  0
 19 63  1  0
 22 64  1  0
 28 65  1  0
 28 66  1  0
 32 67  1  0
 32 68  1  0
 33 69  1  0
 35 70  1  0
 36 71  1  0
 37 72  1  0
 38 73  1  0
 40 74  1  0
 42 75  1  0
 46 76  1  0
 49 77  1  0
 49 78  1  0
M  CHG  3   5  -1  23   1  26  -1
M  END
>  <EmbedRMS>  (424) 
0.081620061754

$$$$

     RDKit          3D

 78 83  0  0  0  0  0  0  0  0999 V2000
   10.2838   43.7626   33.8276 C   0  0  0  0  0  0  0  0  0  0  0  0
   11.4103   43.5863   34.3767 O   0  0  0  0  0  0  0  0  0  0  0  0
    9.3631   42.7235   33.7353 O   0  0  0  0  0  0  0  0  0  0  0  0
    9.8898   41.2247   34.2935 P   0  0  0  0  0  0  0  0  0  0  0  0
   10.3734   41.4542   35.8829 O   0  0  0  0  0  0  0  0  0  0  0  0
    9.9548   45.0699   33.2063 C   0  0  1  0  0  0  0  0  0  0  0  0
   11.0198   46.0480   33.4568 N   0  0  0  0  0  0  0  0  0  0  0  0
    9.7502   44.8506   31.6923 C   0  0  0  0  0  0  0  0  0  0  0  0
    8.7943   45.8414   31.0866 C   0  0  0  0  0  0  0  0  0  0  0  0
    7.4077   45.6011   31.1003 C   0  0  0  0  0  0  0  0  0  0  0  0
    9.2830   46.9890   30.4452 C   0  0  0  0  0  0  0  0  0  0  0  0
    6.5284   46.5024   30.4852 C   0  0  0  0  0  0  0  0  0  0  0  0
    8.4037   47.8907   29.8334 C   0  0  0  0  0  0  0  0  0  0  0  0
    7.0141   47.6513   29.8453 C   0  0  0  0  0  0  0  0  0  0  0  0
    6.0818   48.5180   29.2511 O   0  0  0  0  0  0  0  0  0  0  0  0
    6.3838   49.6460   28.4281 C   0  0  1  0  0  0  0  0  0  0  0  0
    6.9101   49.2075   27.0544 C   0  0  0  0  0  0  0  0  0  0  0  0
    5.1495   50.5247   28.2913 C   0  0  0  0  0  0  0  0  0  0  0  0
    5.2331   51.8594   28.7623 C   0  0  0  0  0  0  0  0  0  0  0  0
    3.9283   50.0813   27.6716 C   0  0  0  0  0  0  0  0  0  0  0  0
    4.1398   52.6980   28.5916 C   0  0  0  0  0  0  0  0  0  0  0  0
    2.8560   50.9874   27.5118 C   0  0  0  0  0  0  0  0  0  0  0  0
    3.7578   48.7425   27.1842 N   0  0  0  0  0  0  0  0  0  0  0  0
    4.0063   54.0215   28.9650 O   0  0  0  0  0  0  0  0  0  0  0  0
    3.0031   52.2816   27.9900 C   0  0  0  0  0  0  0  0  0  0  0  0
    3.1303   48.5358   25.9775 O   0  0  0  0  0  0  0  0  0  0  0  0
    3.9322   47.7689   27.9439 O   0  0  0  0  0  0  0  0  0  0  0  0
    2.6994   54.4623   28.5721 C   0  0  0  0  0  0  0  0  0  0  0  0
    2.0925   53.3200   27.9529 O   0  0  0  0  0  0  0  0  0  0  0  0
    8.8115   40.1834   34.2126 O   0  0  0  0  0  0  0  0  0  0  0  0
   11.2402   40.7936   33.3673 O   0  0  0  0  0  0  0  0  0  0  0  0
   10.9134   40.6864   31.9955 C   0  0  0  0  0  0  0  0  0  0  0  0
   11.5166   39.3786   31.4404 C   0  0  0  0  0  0  0  0  0  0  0  0
   12.7486   39.0848   32.0734 O   0  0  0  0  0  0  0  0  0  0  0  0
   10.6039   38.1883   31.6669 C   0  0  0  0  0  0  0  0  0  0  0  0
   12.9329   37.6775   32.0284 C   0  0  0  0  0  0  0  0  0  0  0  0
    9.6374   38.0938   30.6484 O   0  0  0  0  0  0  0  0  0  0  0  0
   11.5737   37.0140   31.7055 C   0  0  0  0  0  0  0  0  0  0  0  0
   13.4853   37.2120   33.3238 N   0  0  0  0  0  0  0  0  0  0  0  0
   11.6210   36.3379   30.4683 O   0  0  0  0  0  0  0  0  0  0  0  0
   14.4804   36.3319   33.5726 C   0  0  0  0  0  0  0  0  0  0  0  0
   13.1141   37.6275   34.5689 C   0  0  0  0  0  0  0  0  0  0  0  0
   15.2076   35.6152   32.6740 N   0  0  0  0  0  0  0  0  0  0  0  0
   14.6761   36.2306   34.9181 C   0  0  0  0  0  0  0  0  0  0  0  0
   13.8218   37.0451   35.5783 N   0  0  0  0  0  0  0  0  0  0  0  0
   16.1642   34.7600   33.1548 C   0  0  0  0  0  0  0  0  0  0  0  0
   15.6527   35.3507   35.4131 C   0  0  0  0  0  0  0  0  0  0  0  0
   16.3795   34.6315   34.5043 N   0  0  0  0  0  0  0  0  0  0  0  0
   15.9000   35.1933   36.8090 N   0  0  0  0  0  0  0  0  0  0  0  0
    9.0098   45.4349   33.6669 H   0  0  0  0  0  0  0  0  0  0  0  0
   11.1134   46.1992   34.4881 H   0  0  0  0  0  0  0  0  0  0  0  0
   11.9348   45.6932   33.0924 H   0  0  0  0  0  0  0  0  0  0  0  0
    9.3510   43.8341   31.4762 H   0  0  0  0  0  0  0  0  0  0  0  0
   10.7305   44.8921   31.1675 H   0  0  0  0  0  0  0  0  0  0  0  0
    7.0109   44.7163   31.5829 H   0  0  0  0  0  0  0  0  0  0  0  0
   10.3472   47.1890   30.4191 H   0  0  0  0  0  0  0  0  0  0  0  0
    5.4639   46.3053   30.5037 H   0  0  0  0  0  0  0  0  0  0  0  0
    8.8209   48.7679   29.3618 H   0  0  0  0  0  0  0  0  0  0  0  0
    7.1856   50.2384   28.9197 H   0  0  0  0  0  0  0  0  0  0  0  0
    7.9036   48.7256   27.1563 H   0  0  0  0  0  0  0  0  0  0  0  0
    6.2298   48.4775   26.5728 H   0  0  0  0  0  0  0  0  0  0  0  0
    7.0247   50.0901   26.3894 H   0  0  0  0  0  0  0  0  0  0  0  0
    6.1281   52.2415   29.2369 H   0  0  0  0  0  0  0  0  0  0  0  0
    1.9286   50.6841   27.0431 H   0  0  0  0  0  0  0  0  0  0  0  0
    2.7783   55.2963   27.8436 H   0  0  0  0  0  0  0  0  0  0  0  0
    2.1141   54.7713   29.4634 H   0  0  0  0  0  0  0  0  0  0  0  0
    9.8226   40.7225   31.7629 H   0  0  0  0  0  0  0  0  0  0  0  0
   11.3831   41.5437   31.4675 H   0  0  0  0  0  0  0  0  0  0  0  0
   11.6978   39.5037   30.3478 H   0  0  0  0  0  0  0  0  0  0  0  0
   10.1084   38.2785   32.6626 H   0  0  0  0  0  0  0  0  0  0  0  0
   13.6638   37.4471   31.2214 H   0  0  0  0  0  0  0  0  0  0  0  0
    8.9763   37.4190   30.9531 H   0  0  0  0  0  0  0  0  0  0  0  0
   11.2821   36.3053   32.5171 H   0  0  0  0  0  0  0  0  0  0  0  0
   10.8658   35.6935   30.4652 H   0  0  0  0  0  0  0  0  0  0  0  0
   12.3293   38.3523   34.7444 H   0  0  0  0  0  0  0  0  0  0  0  0
   16.7561   34.1778   32.4621 H   0  0  0  0  0  0  0  0  0  0  0  0
   16.6345   34.5300   37.1416 H   0  0  0  0  0  0  0  0  0  0  0  0
   15.3533   35.7361   37.5138 H   0  0  0  0  0  0  0  0  0  0  0  0
  1  2  2  0
  1  3  1  0
  3  4  1  0
  4  5  1  0
  6  1  1  0
  7  6  1  0
  6  8  1  0
  8  9  1  0
  9 10  2  0
 11  9  1  0
 10 12  1  0
 13 11  2  0
 12 14  2  0
 14 13  1  0
 14 15  1  0
 15 16  1  0
 16 17  1  0
 16 18  1  0
 18 19  2  0
 20 18  1  0
 19 21  1  0
 22 20  2  0
 20 23  1  0
 21 24  1  0
 21 25  2  0
 25 22  1  0
 23 26  1  0
 23 27  2  0
 24 28  1  0
 25 29  1  0
 28 29  1  0
  4 30  2  0
  4 31  1  0
 32 31  1  0
 32 33  1  0
 33 34  1  0
 33 35  1  0
 34 36  1  0
 35 37  1  0
 35 38  1  0
 38 36  1  0
 36 39  1  0
 38 40  1  0
 41 39  1  0
 42 39  1  0
 43 41  2  0
 41 44  1  0
 45 42  2  0
 46 43  1  0
 44 47  2  0
 44 45  1  0
 48 46  2  0
 48 47  1  0
 47 49  1  0
  6 50  1  1
  7 51  1  0
  7 52  1  0
  8 53  1  0
  8 54  1  0
 10 55  1  0
 11 56  1  0
 12 57  1  0
 13 58  1  0
 16 59  1  1
 17 60  1  0
 17 61  1  0
 17 62  1  0
 19 63  1  0
 22 64  1  0
 28 65  1  0
 28 66  1  0
 32 67  1  0
 32 68  1  0
 33 69  1  0
 35 70  1  0
 36 71  1  0
 37 72  1  0
 38 73  1  0
 40 74  1  0
 42 75  1  0
 46 76  1  0
 49 77  1  0
 49 78  1  0
M  CHG  3   5  -1  23   1  26  -1
M  END
>  <EmbedRMS>  (425) 
0.0834541618717

$$$$

     RDKit          3D

 78 83  0  0  0  0  0  0  0  0999 V2000
   10.2849   43.7639   33.8266 C   0  0  0  0  0  0  0  0  0  0  0  0
   11.4121   43.5866   34.3736 O   0  0  0  0  0  0  0  0  0  0  0  0
    9.3644   42.7251   33.7326 O   0  0  0  0  0  0  0  0  0  0  0  0
    9.8890   41.2267   34.2928 P   0  0  0  0  0  0  0  0  0  0  0  0
   10.3701   41.4569   35.8831 O   0  0  0  0  0  0  0  0  0  0  0  0
    9.9556   45.0708   33.2063 C   0  0  1  0  0  0  0  0  0  0  0  0
   11.0226   46.0477   33.4545 N   0  0  0  0  0  0  0  0  0  0  0  0
    9.7493   44.8500   31.6931 C   0  0  0  0  0  0  0  0  0  0  0  0
    8.7936   45.8410   31.0870 C   0  0  0  0  0  0  0  0  0  0  0  0
    7.4069   45.5985   31.1000 C   0  0  0  0  0  0  0  0  0  0  0  0
    9.2815   46.9928   30.4504 C   0  0  0  0  0  0  0  0  0  0  0  0
    6.5252   46.4966   30.4811 C   0  0  0  0  0  0  0  0  0  0  0  0
    8.3999   47.8934   29.8419 C   0  0  0  0  0  0  0  0  0  0  0  0
    7.0207   47.6486   29.8432 C   0  0  0  0  0  0  0  0  0  0  0  0
    6.1696   48.5705   29.2186 O   0  0  0  0  0  0  0  0  0  0  0  0
    5.3485   48.2644   28.0819 C   0  0  1  0  0  0  0  0  0  0  0  0
    6.2280   47.7403   26.9303 C   0  0  0  0  0  0  0  0  0  0  0  0
    4.1647   47.3766   28.4744 C   0  0  0  0  0  0  0  0  0  0  0  0
    3.9489   46.1222   27.8361 C   0  0  0  0  0  0  0  0  0  0  0  0
    3.2709   47.7777   29.5312 C   0  0  0  0  0  0  0  0  0  0  0  0
    2.8960   45.3252   28.2666 C   0  0  0  0  0  0  0  0  0  0  0  0
    2.2200   46.9163   29.9271 C   0  0  0  0  0  0  0  0  0  0  0  0
    3.4303   49.0283   30.2271 N   0  0  0  0  0  0  0  0  0  0  0  0
    2.5145   44.0825   27.7958 O   0  0  0  0  0  0  0  0  0  0  0  0
    2.0682   45.7042   29.2664 C   0  0  0  0  0  0  0  0  0  0  0  0
    3.6330   50.1981   29.5307 O   0  0  0  0  0  0  0  0  0  0  0  0
    3.1850   49.0951   31.4495 O   0  0  0  0  0  0  0  0  0  0  0  0
    1.3699   43.6557   28.5489 C   0  0  0  0  0  0  0  0  0  0  0  0
    1.1168   44.7226   29.4751 O   0  0  0  0  0  0  0  0  0  0  0  0
    8.8088   40.1874   34.2102 O   0  0  0  0  0  0  0  0  0  0  0  0
   11.2404   40.7937   33.3685 O   0  0  0  0  0  0  0  0  0  0  0  0
   10.9143   40.6848   31.9967 C   0  0  0  0  0  0  0  0  0  0  0  0
   11.5193   39.3780   31.4418 C   0  0  0  0  0  0  0  0  0  0  0  0
   12.7512   39.0833   32.0739 O   0  0  0  0  0  0  0  0  0  0  0  0
   10.6063   38.1882   31.6674 C   0  0  0  0  0  0  0  0  0  0  0  0
   12.9338   37.6755   32.0289 C   0  0  0  0  0  0  0  0  0  0  0  0
    9.6391   38.0973   30.6495 O   0  0  0  0  0  0  0  0  0  0  0  0
   11.5741   37.0124   31.7060 C   0  0  0  0  0  0  0  0  0  0  0  0
   13.4841   37.2107   33.3245 N   0  0  0  0  0  0  0  0  0  0  0  0
   11.6201   36.3352   30.4697 O   0  0  0  0  0  0  0  0  0  0  0  0
   14.4796   36.3314   33.5728 C   0  0  0  0  0  0  0  0  0  0  0  0
   13.1112   37.6255   34.5695 C   0  0  0  0  0  0  0  0  0  0  0  0
   15.2067   35.6153   32.6735 N   0  0  0  0  0  0  0  0  0  0  0  0
   14.6753   36.2305   34.9178 C   0  0  0  0  0  0  0  0  0  0  0  0
   13.8196   37.0434   35.5785 N   0  0  0  0  0  0  0  0  0  0  0  0
   16.1634   34.7600   33.1534 C   0  0  0  0  0  0  0  0  0  0  0  0
   15.6530   35.3519   35.4118 C   0  0  0  0  0  0  0  0  0  0  0  0
   16.3793   34.6318   34.5029 N   0  0  0  0  0  0  0  0  0  0  0  0
   15.9017   35.1972   36.8074 N   0  0  0  0  0  0  0  0  0  0  0  0
    9.0113   45.4368   33.6683 H   0  0  0  0  0  0  0  0  0  0  0  0
   11.1170   46.1984   34.4855 H   0  0  0  0  0  0  0  0  0  0  0  0
   11.9378   45.6907   33.0923 H   0  0  0  0  0  0  0  0  0  0  0  0
    9.3543   43.8314   31.4751 H   0  0  0  0  0  0  0  0  0  0  0  0
   10.7297   44.8929   31.1707 H   0  0  0  0  0  0  0  0  0  0  0  0
    7.0147   44.7145   31.5887 H   0  0  0  0  0  0  0  0  0  0  0  0
   10.3441   47.1991   30.4277 H   0  0  0  0  0  0  0  0  0  0  0  0
    5.4648   46.2945   30.5221 H   0  0  0  0  0  0  0  0  0  0  0  0
    8.7911   48.7774   29.3539 H   0  0  0  0  0  0  0  0  0  0  0  0
    4.9273   49.2189   27.7073 H   0  0  0  0  0  0  0  0  0  0  0  0
    5.6290   47.6280   25.9991 H   0  0  0  0  0  0  0  0  0  0  0  0
    6.6961   46.7710   27.2005 H   0  0  0  0  0  0  0  0  0  0  0  0
    7.0395   48.4712   26.7247 H   0  0  0  0  0  0  0  0  0  0  0  0
    4.5748   45.7555   27.0334 H   0  0  0  0  0  0  0  0  0  0  0  0
    1.5325   47.1945   30.7175 H   0  0  0  0  0  0  0  0  0  0  0  0
    1.5970   42.7179   29.0995 H   0  0  0  0  0  0  0  0  0  0  0  0
    0.4981   43.5128   27.8752 H   0  0  0  0  0  0  0  0  0  0  0  0
    9.8234   40.7199   31.7643 H   0  0  0  0  0  0  0  0  0  0  0  0
   11.3823   41.5410   31.4664 H   0  0  0  0  0  0  0  0  0  0  0  0
   11.7011   39.5058   30.3497 H   0  0  0  0  0  0  0  0  0  0  0  0
   10.1118   38.2772   32.6635 H   0  0  0  0  0  0  0  0  0  0  0  0
   13.6652   37.4429   31.2225 H   0  0  0  0  0  0  0  0  0  0  0  0
    8.9781   37.4220   30.9523 H   0  0  0  0  0  0  0  0  0  0  0  0
   11.2796   36.3025   32.5163 H   0  0  0  0  0  0  0  0  0  0  0  0
   10.8631   35.6927   30.4685 H   0  0  0  0  0  0  0  0  0  0  0  0
   12.3236   38.3481   34.7452 H   0  0  0  0  0  0  0  0  0  0  0  0
   16.7586   34.1819   32.4593 H   0  0  0  0  0  0  0  0  0  0  0  0
   15.3533   35.7386   37.5123 H   0  0  0  0  0  0  0  0  0  0  0  0
   16.6341   34.5316   37.1390 H   0  0  0  0  0  0  0  0  0  0  0  0
  1  2  2  0
  1  3  1  0
  3  4  1  0
  4  5  1  0
  6  1  1  0
  7  6  1  0
  6  8  1  0
  8  9  1  0
  9 10  2  0
 11  9  1  0
 10 12  1  0
 13 11  2  0
 12 14  2  0
 14 13  1  0
 14 15  1  0
 15 16  1  0
 16 17  1  0
 16 18  1  0
 18 19  2  0
 20 18  1  0
 19 21  1  0
 22 20  2  0
 20 23  1  0
 21 24  1  0
 21 25  2  0
 25 22  1  0
 23 26  1  0
 23 27  2  0
 24 28  1  0
 25 29  1  0
 28 29  1  0
  4 30  2  0
  4 31  1  0
 32 31  1  0
 32 33  1  0
 33 34  1  0
 33 35  1  0
 34 36  1  0
 35 37  1  0
 35 38  1  0
 38 36  1  0
 36 39  1  0
 38 40  1  0
 41 39  1  0
 42 39  1  0
 43 41  2  0
 41 44  1  0
 45 42  2  0
 46 43  1  0
 44 47  2  0
 44 45  1  0
 48 46  2  0
 48 47  1  0
 47 49  1  0
  6 50  1  1
  7 51  1  0
  7 52  1  0
  8 53  1  0
  8 54  1  0
 10 55  1  0
 11 56  1  0
 12 57  1  0
 13 58  1  0
 16 59  1  6
 17 60  1  0
 17 61  1  0
 17 62  1  0
 19 63  1  0
 22 64  1  0
 28 65  1  0
 28 66  1  0
 32 67  1  0
 32 68  1  0
 33 69  1  0
 35 70  1  0
 36 71  1  0
 37 72  1  0
 38 73  1  0
 40 74  1  0
 42 75  1  0
 46 76  1  0
 49 77  1  0
 49 78  1  0
M  CHG  3   5  -1  23   1  26  -1
M  END
>  <EmbedRMS>  (426) 
0.0836380699439

$$$$

     RDKit          3D

 78 83  0  0  0  0  0  0  0  0999 V2000
   10.2837   43.7627   33.8277 C   0  0  0  0  0  0  0  0  0  0  0  0
   11.4103   43.5863   34.3767 O   0  0  0  0  0  0  0  0  0  0  0  0
    9.3628   42.7238   33.7358 O   0  0  0  0  0  0  0  0  0  0  0  0
    9.8893   41.2250   34.2943 P   0  0  0  0  0  0  0  0  0  0  0  0
   10.3731   41.4545   35.8837 O   0  0  0  0  0  0  0  0  0  0  0  0
    9.9548   45.0699   33.2064 C   0  0  1  0  0  0  0  0  0  0  0  0
   11.0198   46.0480   33.4567 N   0  0  0  0  0  0  0  0  0  0  0  0
    9.7501   44.8506   31.6923 C   0  0  0  0  0  0  0  0  0  0  0  0
    8.7942   45.8414   31.0867 C   0  0  0  0  0  0  0  0  0  0  0  0
    7.4076   45.6011   31.1002 C   0  0  0  0  0  0  0  0  0  0  0  0
    9.2830   46.9888   30.4451 C   0  0  0  0  0  0  0  0  0  0  0  0
    6.5284   46.5024   30.4850 C   0  0  0  0  0  0  0  0  0  0  0  0
    8.4038   47.8905   29.8332 C   0  0  0  0  0  0  0  0  0  0  0  0
    7.0141   47.6517   29.8458 C   0  0  0  0  0  0  0  0  0  0  0  0
    6.0819   48.5196   29.2525 O   0  0  0  0  0  0  0  0  0  0  0  0
    6.3877   49.6710   28.4615 C   0  0  1  0  0  0  0  0  0  0  0  0
    6.8883   49.2491   27.0735 C   0  0  0  0  0  0  0  0  0  0  0  0
    5.1365   50.5219   28.3366 C   0  0  0  0  0  0  0  0  0  0  0  0
    3.9765   49.9417   27.7647 C   0  0  0  0  0  0  0  0  0  0  0  0
    5.1018   51.8982   28.7395 C   0  0  0  0  0  0  0  0  0  0  0  0
    2.8574   50.7418   27.5748 C   0  0  0  0  0  0  0  0  0  0  0  0
    3.9397   52.6679   28.5057 C   0  0  0  0  0  0  0  0  0  0  0  0
    6.2113   52.5145   29.4078 N   0  0  0  0  0  0  0  0  0  0  0  0
    1.6356   50.3946   27.0311 O   0  0  0  0  0  0  0  0  0  0  0  0
    2.8418   52.0486   27.9237 C   0  0  0  0  0  0  0  0  0  0  0  0
    6.6970   51.9646   30.5718 O   0  0  0  0  0  0  0  0  0  0  0  0
    6.5572   53.6731   29.0979 O   0  0  0  0  0  0  0  0  0  0  0  0
    0.8002   51.5604   27.0401 C   0  0  0  0  0  0  0  0  0  0  0  0
    1.6094   52.5935   27.6186 O   0  0  0  0  0  0  0  0  0  0  0  0
    8.8113   40.1834   34.2130 O   0  0  0  0  0  0  0  0  0  0  0  0
   11.2397   40.7943   33.3684 O   0  0  0  0  0  0  0  0  0  0  0  0
   10.9125   40.6875   31.9969 C   0  0  0  0  0  0  0  0  0  0  0  0
   11.5169   39.3810   31.4420 C   0  0  0  0  0  0  0  0  0  0  0  0
   12.7500   39.0880   32.0758 O   0  0  0  0  0  0  0  0  0  0  0  0
   10.6043   38.1892   31.6658 C   0  0  0  0  0  0  0  0  0  0  0  0
   12.9395   37.6813   32.0279 C   0  0  0  0  0  0  0  0  0  0  0  0
    9.6353   38.0950   30.6499 O   0  0  0  0  0  0  0  0  0  0  0  0
   11.5804   37.0190   31.6934 C   0  0  0  0  0  0  0  0  0  0  0  0
   13.4851   37.2119   33.3244 N   0  0  0  0  0  0  0  0  0  0  0  0
   11.6118   36.3188   30.4673 O   0  0  0  0  0  0  0  0  0  0  0  0
   14.4801   36.3317   33.5732 C   0  0  0  0  0  0  0  0  0  0  0  0
   13.1139   37.6277   34.5692 C   0  0  0  0  0  0  0  0  0  0  0  0
   15.2076   35.6154   32.6744 N   0  0  0  0  0  0  0  0  0  0  0  0
   14.6756   36.2303   34.9186 C   0  0  0  0  0  0  0  0  0  0  0  0
   13.8215   37.0451   35.5786 N   0  0  0  0  0  0  0  0  0  0  0  0
   16.1643   34.7602   33.1551 C   0  0  0  0  0  0  0  0  0  0  0  0
   15.6526   35.3506   35.4134 C   0  0  0  0  0  0  0  0  0  0  0  0
   16.3796   34.6316   34.5046 N   0  0  0  0  0  0  0  0  0  0  0  0
   15.9001   35.1933   36.8093 N   0  0  0  0  0  0  0  0  0  0  0  0
    9.0098   45.4350   33.6670 H   0  0  0  0  0  0  0  0  0  0  0  0
   11.9348   45.6932   33.0923 H   0  0  0  0  0  0  0  0  0  0  0  0
   11.1135   46.1993   34.4880 H   0  0  0  0  0  0  0  0  0  0  0  0
   10.7304   44.8919   31.1675 H   0  0  0  0  0  0  0  0  0  0  0  0
    9.3509   43.8340   31.4764 H   0  0  0  0  0  0  0  0  0  0  0  0
    7.0109   44.7163   31.5827 H   0  0  0  0  0  0  0  0  0  0  0  0
   10.3473   47.1883   30.4182 H   0  0  0  0  0  0  0  0  0  0  0  0
    5.4639   46.3054   30.5038 H   0  0  0  0  0  0  0  0  0  0  0  0
    8.8218   48.7659   29.3587 H   0  0  0  0  0  0  0  0  0  0  0  0
    7.1972   50.2488   28.9436 H   0  0  0  0  0  0  0  0  0  0  0  0
    7.8548   48.7114   27.1556 H   0  0  0  0  0  0  0  0  0  0  0  0
    7.0454   50.1454   26.4359 H   0  0  0  0  0  0  0  0  0  0  0  0
    6.1609   48.5736   26.5766 H   0  0  0  0  0  0  0  0  0  0  0  0
    3.9514   48.9016   27.4657 H   0  0  0  0  0  0  0  0  0  0  0  0
    3.8868   53.7096   28.7955 H   0  0  0  0  0  0  0  0  0  0  0  0
    0.5121   51.8345   26.0036 H   0  0  0  0  0  0  0  0  0  0  0  0
   -0.0997   51.3831   27.6656 H   0  0  0  0  0  0  0  0  0  0  0  0
   11.3811   41.5455   31.4692 H   0  0  0  0  0  0  0  0  0  0  0  0
    9.8216   40.7222   31.7644 H   0  0  0  0  0  0  0  0  0  0  0  0
   11.6985   39.5089   30.3498 H   0  0  0  0  0  0  0  0  0  0  0  0
   10.1109   38.2736   32.6630 H   0  0  0  0  0  0  0  0  0  0  0  0
   13.6783   37.4561   31.2271 H   0  0  0  0  0  0  0  0  0  0  0  0
    9.0020   37.3859   30.9348 H   0  0  0  0  0  0  0  0  0  0  0  0
   11.2808   36.3052   32.4921 H   0  0  0  0  0  0  0  0  0  0  0  0
   11.8819   36.9599   29.7584 H   0  0  0  0  0  0  0  0  0  0  0  0
   12.3303   38.3538   34.7445 H   0  0  0  0  0  0  0  0  0  0  0  0
   16.7564   34.1783   32.4624 H   0  0  0  0  0  0  0  0  0  0  0  0
   16.6347   34.5302   37.1419 H   0  0  0  0  0  0  0  0  0  0  0  0
   15.3532   35.7360   37.5142 H   0  0  0  0  0  0  0  0  0  0  0  0
  1  2  2  0
  1  3  1  0
  3  4  1  0
  4  5  1  0
  6  1  1  0
  7  6  1  0
  6  8  1  0
  8  9  1  0
  9 10  2  0
 11  9  1  0
 10 12  1  0
 13 11  2  0
 12 14  2  0
 14 13  1  0
 14 15  1  0
 15 16  1  0
 16 17  1  0
 16 18  1  0
 18 19  2  0
 20 18  1  0
 19 21  1  0
 22 20  2  0
 20 23  1  0
 21 24  1  0
 21 25  2  0
 25 22  1  0
 23 26  1  0
 23 27  2  0
 24 28  1  0
 25 29  1  0
 28 29  1  0
  4 30  2  0
  4 31  1  0
 32 31  1  0
 32 33  1  0
 33 34  1  0
 33 35  1  0
 34 36  1  0
 35 37  1  0
 35 38  1  0
 38 36  1  0
 36 39  1  0
 38 40  1  0
 41 39  1  0
 42 39  1  0
 43 41  2  0
 41 44  1  0
 45 42  2  0
 46 43  1  0
 44 47  2  0
 44 45  1  0
 48 46  2  0
 48 47  1  0
 47 49  1  0
  6 50  1  1
  7 51  1  0
  7 52  1  0
  8 53  1  0
  8 54  1  0
 10 55  1  0
 11 56  1  0
 12 57  1  0
 13 58  1  0
 16 59  1  1
 17 60  1  0
 17 61  1  0
 17 62  1  0
 19 63  1  0
 22 64  1  0
 28 65  1  0
 28 66  1  0
 32 67  1  0
 32 68  1  0
 33 69  1  0
 35 70  1  0
 36 71  1  0
 37 72  1  0
 38 73  1  0
 40 74  1  0
 42 75  1  0
 46 76  1  0
 49 77  1  0
 49 78  1  0
M  CHG  3   5  -1  23   1  26  -1
M  END
>  <EmbedRMS>  (427) 
0.082467761351

$$$$

     RDKit          3D

 78 83  0  0  0  0  0  0  0  0999 V2000
   10.2834   43.7662   33.8257 C   0  0  0  0  0  0  0  0  0  0  0  0
   11.4102   43.5930   34.3752 O   0  0  0  0  0  0  0  0  0  0  0  0
    9.3635   42.7257   33.7353 O   0  0  0  0  0  0  0  0  0  0  0  0
    9.8899   41.2270   34.2948 P   0  0  0  0  0  0  0  0  0  0  0  0
   10.3732   41.4562   35.8841 O   0  0  0  0  0  0  0  0  0  0  0  0
    9.9546   45.0695   33.2035 C   0  0  1  0  0  0  0  0  0  0  0  0
   11.0274   46.0321   33.4756 N   0  0  0  0  0  0  0  0  0  0  0  0
    9.7467   44.8479   31.6876 C   0  0  0  0  0  0  0  0  0  0  0  0
    8.7924   45.8404   31.0841 C   0  0  0  0  0  0  0  0  0  0  0  0
    7.4058   45.6016   31.0993 C   0  0  0  0  0  0  0  0  0  0  0  0
    9.2821   46.9876   30.4425 C   0  0  0  0  0  0  0  0  0  0  0  0
    6.5271   46.5036   30.4847 C   0  0  0  0  0  0  0  0  0  0  0  0
    8.4033   47.8906   29.8324 C   0  0  0  0  0  0  0  0  0  0  0  0
    7.0134   47.6527   29.8458 C   0  0  0  0  0  0  0  0  0  0  0  0
    6.0821   48.5215   29.2528 O   0  0  0  0  0  0  0  0  0  0  0  0
    6.3899   49.6765   28.4655 C   0  0  1  0  0  0  0  0  0  0  0  0
    6.8870   49.2528   27.0789 C   0  0  0  0  0  0  0  0  0  0  0  0
    5.1421   50.5278   28.3229 C   0  0  0  0  0  0  0  0  0  0  0  0
    3.9115   49.8829   28.0429 C   0  0  0  0  0  0  0  0  0  0  0  0
    5.1618   51.9528   28.4976 C   0  0  0  0  0  0  0  0  0  0  0  0
    2.7563   50.6513   27.9876 C   0  0  0  0  0  0  0  0  0  0  0  0
    3.9503   52.6791   28.4477 C   0  0  0  0  0  0  0  0  0  0  0  0
    6.3863   52.6758   28.7001 N   0  0  0  0  0  0  0  0  0  0  0  0
    1.4606   50.2379   27.7439 O   0  0  0  0  0  0  0  0  0  0  0  0
    2.7740   51.9890   28.1872 C   0  0  0  0  0  0  0  0  0  0  0  0
    6.3991   53.7806   29.5200 O   0  0  0  0  0  0  0  0  0  0  0  0
    7.3706   52.4629   27.9628 O   0  0  0  0  0  0  0  0  0  0  0  0
    0.6113   51.3925   27.7936 C   0  0  0  0  0  0  0  0  0  0  0  0
    1.4906   52.4891   28.0788 O   0  0  0  0  0  0  0  0  0  0  0  0
    8.8120   40.1850   34.2133 O   0  0  0  0  0  0  0  0  0  0  0  0
   11.2403   40.7947   33.3700 O   0  0  0  0  0  0  0  0  0  0  0  0
   10.9144   40.6914   31.9982 C   0  0  0  0  0  0  0  0  0  0  0  0
   11.5270   39.3912   31.4385 C   0  0  0  0  0  0  0  0  0  0  0  0
   12.7520   39.0911   32.0836 O   0  0  0  0  0  0  0  0  0  0  0  0
   10.6114   38.1932   31.6451 C   0  0  0  0  0  0  0  0  0  0  0  0
   12.9413   37.6838   32.0297 C   0  0  0  0  0  0  0  0  0  0  0  0
    9.6064   38.0878   30.6599 O   0  0  0  0  0  0  0  0  0  0  0  0
   11.5822   37.0197   31.6877 C   0  0  0  0  0  0  0  0  0  0  0  0
   13.4840   37.2104   33.3254 N   0  0  0  0  0  0  0  0  0  0  0  0
   11.6179   36.3072   30.4690 O   0  0  0  0  0  0  0  0  0  0  0  0
   14.4797   36.3309   33.5738 C   0  0  0  0  0  0  0  0  0  0  0  0
   13.1136   37.6269   34.5702 C   0  0  0  0  0  0  0  0  0  0  0  0
   15.2074   35.6152   32.6747 N   0  0  0  0  0  0  0  0  0  0  0  0
   14.6756   36.2298   34.9190 C   0  0  0  0  0  0  0  0  0  0  0  0
   13.8217   37.0445   35.5793 N   0  0  0  0  0  0  0  0  0  0  0  0
   16.1643   34.7603   33.1551 C   0  0  0  0  0  0  0  0  0  0  0  0
   15.6528   35.3503   35.4136 C   0  0  0  0  0  0  0  0  0  0  0  0
   16.3798   34.6316   34.5046 N   0  0  0  0  0  0  0  0  0  0  0  0
   15.9004   35.1930   36.8094 N   0  0  0  0  0  0  0  0  0  0  0  0
    9.0121   45.4318   33.6712 H   0  0  0  0  0  0  0  0  0  0  0  0
   11.8906   45.7658   32.9469 H   0  0  0  0  0  0  0  0  0  0  0  0
   10.7260   46.9687   33.1212 H   0  0  0  0  0  0  0  0  0  0  0  0
    9.3416   43.8327   31.4763 H   0  0  0  0  0  0  0  0  0  0  0  0
   10.7231   44.8812   31.1556 H   0  0  0  0  0  0  0  0  0  0  0  0
    7.0085   44.7171   31.5819 H   0  0  0  0  0  0  0  0  0  0  0  0
   10.3467   47.1852   30.4133 H   0  0  0  0  0  0  0  0  0  0  0  0
    5.4625   46.3075   30.5040 H   0  0  0  0  0  0  0  0  0  0  0  0
    8.8209   48.7657   29.3568 H   0  0  0  0  0  0  0  0  0  0  0  0
    7.1790   50.2553   28.9844 H   0  0  0  0  0  0  0  0  0  0  0  0
    7.8277   48.6715   27.1614 H   0  0  0  0  0  0  0  0  0  0  0  0
    7.0869   50.1474   26.4518 H   0  0  0  0  0  0  0  0  0  0  0  0
    6.1285   48.6197   26.5709 H   0  0  0  0  0  0  0  0  0  0  0  0
    3.8546   48.8124   27.8908 H   0  0  0  0  0  0  0  0  0  0  0  0
    3.9311   53.7532   28.5798 H   0  0  0  0  0  0  0  0  0  0  0  0
   -0.1394   51.2825   28.6040 H   0  0  0  0  0  0  0  0  0  0  0  0
    0.1136   51.5456   26.8131 H   0  0  0  0  0  0  0  0  0  0  0  0
   11.3777   41.5549   31.4744 H   0  0  0  0  0  0  0  0  0  0  0  0
    9.8235   40.7201   31.7654 H   0  0  0  0  0  0  0  0  0  0  0  0
   11.7312   39.5363   30.3532 H   0  0  0  0  0  0  0  0  0  0  0  0
   10.1203   38.2696   32.6410 H   0  0  0  0  0  0  0  0  0  0  0  0
   13.6850   37.4639   31.2321 H   0  0  0  0  0  0  0  0  0  0  0  0
   10.0251   38.1792   29.7654 H   0  0  0  0  0  0  0  0  0  0  0  0
   11.2757   36.3135   32.4907 H   0  0  0  0  0  0  0  0  0  0  0  0
   11.9838   36.9111   29.7708 H   0  0  0  0  0  0  0  0  0  0  0  0
   12.3307   38.3536   34.7457 H   0  0  0  0  0  0  0  0  0  0  0  0
   16.7566   34.1787   32.4623 H   0  0  0  0  0  0  0  0  0  0  0  0
   15.3535   35.7355   37.5144 H   0  0  0  0  0  0  0  0  0  0  0  0
   16.6353   34.5301   37.1419 H   0  0  0  0  0  0  0  0  0  0  0  0
  1  2  2  0
  1  3  1  0
  3  4  1  0
  4  5  1  0
  6  1  1  0
  7  6  1  0
  6  8  1  0
  8  9  1  0
  9 10  2  0
 11  9  1  0
 10 12  1  0
 13 11  2  0
 12 14  2  0
 14 13  1  0
 14 15  1  0
 15 16  1  0
 16 17  1  0
 16 18  1  0
 18 19  2  0
 20 18  1  0
 19 21  1  0
 22 20  2  0
 20 23  1  0
 21 24  1  0
 21 25  2  0
 25 22  1  0
 23 26  1  0
 23 27  2  0
 24 28  1  0
 25 29  1  0
 28 29  1  0
  4 30  2  0
  4 31  1  0
 32 31  1  0
 32 33  1  0
 33 34  1  0
 33 35  1  0
 34 36  1  0
 35 37  1  0
 35 38  1  0
 38 36  1  0
 36 39  1  0
 38 40  1  0
 41 39  1  0
 42 39  1  0
 43 41  2  0
 41 44  1  0
 45 42  2  0
 46 43  1  0
 44 47  2  0
 44 45  1  0
 48 46  2  0
 48 47  1  0
 47 49  1  0
  6 50  1  1
  7 51  1  0
  7 52  1  0
  8 53  1  0
  8 54  1  0
 10 55  1  0
 11 56  1  0
 12 57  1  0
 13 58  1  0
 16 59  1  1
 17 60  1  0
 17 61  1  0
 17 62  1  0
 19 63  1  0
 22 64  1  0
 28 65  1  0
 28 66  1  0
 32 67  1  0
 32 68  1  0
 33 69  1  0
 35 70  1  0
 36 71  1  0
 37 72  1  0
 38 73  1  0
 40 74  1  0
 42 75  1  0
 46 76  1  0
 49 77  1  0
 49 78  1  0
M  CHG  3   5  -1  23   1  26  -1
M  END
>  <EmbedRMS>  (428) 
0.08083042375

$$$$

     RDKit          3D

 78 83  0  0  0  0  0  0  0  0999 V2000
   10.2835   43.7661   33.8257 C   0  0  0  0  0  0  0  0  0  0  0  0
   11.4102   43.5930   34.3753 O   0  0  0  0  0  0  0  0  0  0  0  0
    9.3638   42.7254   33.7350 O   0  0  0  0  0  0  0  0  0  0  0  0
    9.8903   41.2267   34.2942 P   0  0  0  0  0  0  0  0  0  0  0  0
   10.3735   41.4560   35.8837 O   0  0  0  0  0  0  0  0  0  0  0  0
    9.9547   45.0694   33.2035 C   0  0  1  0  0  0  0  0  0  0  0  0
   11.0273   46.0321   33.4756 N   0  0  0  0  0  0  0  0  0  0  0  0
    9.7467   44.8479   31.6876 C   0  0  0  0  0  0  0  0  0  0  0  0
    8.7924   45.8404   31.0840 C   0  0  0  0  0  0  0  0  0  0  0  0
    7.4058   45.6017   31.0995 C   0  0  0  0  0  0  0  0  0  0  0  0
    9.2820   46.9877   30.4427 C   0  0  0  0  0  0  0  0  0  0  0  0
    6.5271   46.5038   30.4851 C   0  0  0  0  0  0  0  0  0  0  0  0
    8.4032   47.8907   29.8325 C   0  0  0  0  0  0  0  0  0  0  0  0
    7.0135   47.6522   29.8450 C   0  0  0  0  0  0  0  0  0  0  0  0
    6.0817   48.5195   29.2508 O   0  0  0  0  0  0  0  0  0  0  0  0
    6.3843   49.6444   28.4238 C   0  0  1  0  0  0  0  0  0  0  0  0
    6.9097   49.2007   27.0513 C   0  0  0  0  0  0  0  0  0  0  0  0
    5.1508   50.5238   28.2842 C   0  0  0  0  0  0  0  0  0  0  0  0
    5.2361   51.8603   28.7498 C   0  0  0  0  0  0  0  0  0  0  0  0
    3.9290   50.0793   27.6666 C   0  0  0  0  0  0  0  0  0  0  0  0
    4.1438   52.6994   28.5758 C   0  0  0  0  0  0  0  0  0  0  0  0
    2.8578   50.9860   27.5033 C   0  0  0  0  0  0  0  0  0  0  0  0
    3.7569   48.7387   27.1845 N   0  0  0  0  0  0  0  0  0  0  0  0
    4.0120   54.0247   28.9436 O   0  0  0  0  0  0  0  0  0  0  0  0
    3.0066   52.2819   27.9761 C   0  0  0  0  0  0  0  0  0  0  0  0
    3.1290   48.5279   25.9788 O   0  0  0  0  0  0  0  0  0  0  0  0
    3.9303   47.7680   27.9482 O   0  0  0  0  0  0  0  0  0  0  0  0
    2.7057   54.4655   28.5489 C   0  0  0  0  0  0  0  0  0  0  0  0
    2.0972   53.3213   27.9348 O   0  0  0  0  0  0  0  0  0  0  0  0
    8.8122   40.1850   34.2131 O   0  0  0  0  0  0  0  0  0  0  0  0
   11.2407   40.7939   33.3693 O   0  0  0  0  0  0  0  0  0  0  0  0
   10.9152   40.6905   31.9974 C   0  0  0  0  0  0  0  0  0  0  0  0
   11.5252   39.3886   31.4375 C   0  0  0  0  0  0  0  0  0  0  0  0
   12.7500   39.0874   32.0799 O   0  0  0  0  0  0  0  0  0  0  0  0
   10.6092   38.1926   31.6469 C   0  0  0  0  0  0  0  0  0  0  0  0
   12.9332   37.6793   32.0294 C   0  0  0  0  0  0  0  0  0  0  0  0
    9.6122   38.0895   30.6542 O   0  0  0  0  0  0  0  0  0  0  0  0
   11.5743   37.0145   31.7024 C   0  0  0  0  0  0  0  0  0  0  0  0
   13.4844   37.2108   33.3241 N   0  0  0  0  0  0  0  0  0  0  0  0
   11.6297   36.3239   30.4740 O   0  0  0  0  0  0  0  0  0  0  0  0
   14.4802   36.3313   33.5727 C   0  0  0  0  0  0  0  0  0  0  0  0
   13.1139   37.6267   34.5692 C   0  0  0  0  0  0  0  0  0  0  0  0
   15.2075   35.6149   32.6739 N   0  0  0  0  0  0  0  0  0  0  0  0
   14.6761   36.2303   34.9181 C   0  0  0  0  0  0  0  0  0  0  0  0
   13.8220   37.0447   35.5785 N   0  0  0  0  0  0  0  0  0  0  0  0
   16.1643   34.7600   33.1547 C   0  0  0  0  0  0  0  0  0  0  0  0
   15.6529   35.3505   35.4130 C   0  0  0  0  0  0  0  0  0  0  0  0
   16.3798   34.6315   34.5042 N   0  0  0  0  0  0  0  0  0  0  0  0
   15.9003   35.1932   36.8090 N   0  0  0  0  0  0  0  0  0  0  0  0
    9.0120   45.4317   33.6713 H   0  0  0  0  0  0  0  0  0  0  0  0
   10.7259   46.9687   33.1213 H   0  0  0  0  0  0  0  0  0  0  0  0
   11.8906   45.7659   32.9469 H   0  0  0  0  0  0  0  0  0  0  0  0
   10.7231   44.8813   31.1556 H   0  0  0  0  0  0  0  0  0  0  0  0
    9.3416   43.8327   31.4762 H   0  0  0  0  0  0  0  0  0  0  0  0
    7.0084   44.7174   31.5823 H   0  0  0  0  0  0  0  0  0  0  0  0
   10.3465   47.1858   30.4144 H   0  0  0  0  0  0  0  0  0  0  0  0
    5.4625   46.3077   30.5042 H   0  0  0  0  0  0  0  0  0  0  0  0
    8.8209   48.7676   29.3608 H   0  0  0  0  0  0  0  0  0  0  0  0
    7.1869   50.2377   28.9130 H   0  0  0  0  0  0  0  0  0  0  0  0
    7.0244   50.0808   26.3831 H   0  0  0  0  0  0  0  0  0  0  0  0
    6.2287   48.4693   26.5728 H   0  0  0  0  0  0  0  0  0  0  0  0
    7.9030   48.7187   27.1545 H   0  0  0  0  0  0  0  0  0  0  0  0
    6.1317   52.2432   29.2226 H   0  0  0  0  0  0  0  0  0  0  0  0
    1.9300   50.6819   27.0359 H   0  0  0  0  0  0  0  0  0  0  0  0
    2.7856   55.2963   27.8168 H   0  0  0  0  0  0  0  0  0  0  0  0
    2.1209   54.7791   29.4389 H   0  0  0  0  0  0  0  0  0  0  0  0
   11.3802   41.5529   31.4733 H   0  0  0  0  0  0  0  0  0  0  0  0
    9.8243   40.7216   31.7643 H   0  0  0  0  0  0  0  0  0  0  0  0
   11.7266   39.5311   30.3513 H   0  0  0  0  0  0  0  0  0  0  0  0
   10.1110   38.2747   32.6387 H   0  0  0  0  0  0  0  0  0  0  0  0
   13.6652   37.4519   31.2226 H   0  0  0  0  0  0  0  0  0  0  0  0
   10.0511   38.1143   29.7645 H   0  0  0  0  0  0  0  0  0  0  0  0
   11.2762   36.3142   32.5189 H   0  0  0  0  0  0  0  0  0  0  0  0
   10.8593   35.6978   30.4640 H   0  0  0  0  0  0  0  0  0  0  0  0
   12.3295   38.3518   34.7449 H   0  0  0  0  0  0  0  0  0  0  0  0
   16.7563   34.1779   32.4620 H   0  0  0  0  0  0  0  0  0  0  0  0
   15.3534   35.7359   37.5138 H   0  0  0  0  0  0  0  0  0  0  0  0
   16.6348   34.5300   37.1416 H   0  0  0  0  0  0  0  0  0  0  0  0
  1  2  2  0
  1  3  1  0
  3  4  1  0
  4  5  1  0
  6  1  1  0
  7  6  1  0
  6  8  1  0
  8  9  1  0
  9 10  2  0
 11  9  1  0
 10 12  1  0
 13 11  2  0
 12 14  2  0
 14 13  1  0
 14 15  1  0
 15 16  1  0
 16 17  1  0
 16 18  1  0
 18 19  2  0
 20 18  1  0
 19 21  1  0
 22 20  2  0
 20 23  1  0
 21 24  1  0
 21 25  2  0
 25 22  1  0
 23 26  1  0
 23 27  2  0
 24 28  1  0
 25 29  1  0
 28 29  1  0
  4 30  2  0
  4 31  1  0
 32 31  1  0
 32 33  1  0
 33 34  1  0
 33 35  1  0
 34 36  1  0
 35 37  1  0
 35 38  1  0
 38 36  1  0
 36 39  1  0
 38 40  1  0
 41 39  1  0
 42 39  1  0
 43 41  2  0
 41 44  1  0
 45 42  2  0
 46 43  1  0
 44 47  2  0
 44 45  1  0
 48 46  2  0
 48 47  1  0
 47 49  1  0
  6 50  1  1
  7 51  1  0
  7 52  1  0
  8 53  1  0
  8 54  1  0
 10 55  1  0
 11 56  1  0
 12 57  1  0
 13 58  1  0
 16 59  1  1
 17 60  1  0
 17 61  1  0
 17 62  1  0
 19 63  1  0
 22 64  1  0
 28 65  1  0
 28 66  1  0
 32 67  1  0
 32 68  1  0
 33 69  1  0
 35 70  1  0
 36 71  1  0
 37 72  1  0
 38 73  1  0
 40 74  1  0
 42 75  1  0
 46 76  1  0
 49 77  1  0
 49 78  1  0
M  CHG  3   5  -1  23   1  26  -1
M  END
>  <EmbedRMS>  (429) 
0.0818241215367

$$$$

     RDKit          3D

 78 83  0  0  0  0  0  0  0  0999 V2000
   10.2834   43.7662   33.8257 C   0  0  0  0  0  0  0  0  0  0  0  0
   11.4102   43.5930   34.3752 O   0  0  0  0  0  0  0  0  0  0  0  0
    9.3635   42.7257   33.7353 O   0  0  0  0  0  0  0  0  0  0  0  0
    9.8899   41.2270   34.2948 P   0  0  0  0  0  0  0  0  0  0  0  0
   10.3732   41.4562   35.8841 O   0  0  0  0  0  0  0  0  0  0  0  0
    9.9546   45.0695   33.2035 C   0  0  1  0  0  0  0  0  0  0  0  0
   11.0274   46.0321   33.4756 N   0  0  0  0  0  0  0  0  0  0  0  0
    9.7467   44.8479   31.6876 C   0  0  0  0  0  0  0  0  0  0  0  0
    8.7924   45.8404   31.0840 C   0  0  0  0  0  0  0  0  0  0  0  0
    7.4058   45.6016   31.0994 C   0  0  0  0  0  0  0  0  0  0  0  0
    9.2820   46.9877   30.4427 C   0  0  0  0  0  0  0  0  0  0  0  0
    6.5271   46.5037   30.4851 C   0  0  0  0  0  0  0  0  0  0  0  0
    8.4032   47.8907   29.8326 C   0  0  0  0  0  0  0  0  0  0  0  0
    7.0135   47.6522   29.8451 C   0  0  0  0  0  0  0  0  0  0  0  0
    6.0816   48.5197   29.2512 O   0  0  0  0  0  0  0  0  0  0  0  0
    6.3844   49.6474   28.4285 C   0  0  1  0  0  0  0  0  0  0  0  0
    6.9084   49.2066   27.0547 C   0  0  0  0  0  0  0  0  0  0  0  0
    5.1502   50.5255   28.2921 C   0  0  0  0  0  0  0  0  0  0  0  0
    5.2318   51.8617   28.7587 C   0  0  0  0  0  0  0  0  0  0  0  0
    3.9300   50.0768   27.6780 C   0  0  0  0  0  0  0  0  0  0  0  0
    4.1346   52.6959   28.5904 C   0  0  0  0  0  0  0  0  0  0  0  0
    2.8520   50.9773   27.5216 C   0  0  0  0  0  0  0  0  0  0  0  0
    3.7682   48.7346   27.1992 N   0  0  0  0  0  0  0  0  0  0  0  0
    3.9978   54.0200   28.9607 O   0  0  0  0  0  0  0  0  0  0  0  0
    2.9964   52.2734   27.9955 C   0  0  0  0  0  0  0  0  0  0  0  0
    3.8797   47.6748   28.0675 O   0  0  0  0  0  0  0  0  0  0  0  0
    3.2714   48.5375   26.0712 O   0  0  0  0  0  0  0  0  0  0  0  0
    2.6873   54.4547   28.5729 C   0  0  0  0  0  0  0  0  0  0  0  0
    2.0816   53.3083   27.9600 O   0  0  0  0  0  0  0  0  0  0  0  0
    8.8120   40.1850   34.2133 O   0  0  0  0  0  0  0  0  0  0  0  0
   11.2403   40.7947   33.3700 O   0  0  0  0  0  0  0  0  0  0  0  0
   10.9144   40.6914   31.9982 C   0  0  0  0  0  0  0  0  0  0  0  0
   11.5270   39.3912   31.4385 C   0  0  0  0  0  0  0  0  0  0  0  0
   12.7520   39.0911   32.0836 O   0  0  0  0  0  0  0  0  0  0  0  0
   10.6113   38.1932   31.6451 C   0  0  0  0  0  0  0  0  0  0  0  0
   12.9413   37.6838   32.0297 C   0  0  0  0  0  0  0  0  0  0  0  0
    9.6064   38.0878   30.6599 O   0  0  0  0  0  0  0  0  0  0  0  0
   11.5822   37.0198   31.6877 C   0  0  0  0  0  0  0  0  0  0  0  0
   13.4840   37.2104   33.3254 N   0  0  0  0  0  0  0  0  0  0  0  0
   11.6179   36.3072   30.4690 O   0  0  0  0  0  0  0  0  0  0  0  0
   14.4797   36.3309   33.5738 C   0  0  0  0  0  0  0  0  0  0  0  0
   13.1136   37.6269   34.5702 C   0  0  0  0  0  0  0  0  0  0  0  0
   15.2074   35.6152   32.6747 N   0  0  0  0  0  0  0  0  0  0  0  0
   14.6756   36.2298   34.9190 C   0  0  0  0  0  0  0  0  0  0  0  0
   13.8217   37.0445   35.5793 N   0  0  0  0  0  0  0  0  0  0  0  0
   16.1643   34.7603   33.1551 C   0  0  0  0  0  0  0  0  0  0  0  0
   15.6528   35.3503   35.4136 C   0  0  0  0  0  0  0  0  0  0  0  0
   16.3798   34.6316   34.5046 N   0  0  0  0  0  0  0  0  0  0  0  0
   15.9004   35.1930   36.8094 N   0  0  0  0  0  0  0  0  0  0  0  0
    9.0120   45.4318   33.6712 H   0  0  0  0  0  0  0  0  0  0  0  0
   11.8906   45.7658   32.9469 H   0  0  0  0  0  0  0  0  0  0  0  0
   10.7260   46.9687   33.1213 H   0  0  0  0  0  0  0  0  0  0  0  0
    9.3417   43.8327   31.4762 H   0  0  0  0  0  0  0  0  0  0  0  0
   10.7231   44.8813   31.1556 H   0  0  0  0  0  0  0  0  0  0  0  0
    7.0085   44.7173   31.5821 H   0  0  0  0  0  0  0  0  0  0  0  0
   10.3465   47.1859   30.4145 H   0  0  0  0  0  0  0  0  0  0  0  0
    5.4625   46.3075   30.5043 H   0  0  0  0  0  0  0  0  0  0  0  0
    8.8209   48.7677   29.3610 H   0  0  0  0  0  0  0  0  0  0  0  0
    7.1864   50.2401   28.9193 H   0  0  0  0  0  0  0  0  0  0  0  0
    7.9067   48.7342   27.1549 H   0  0  0  0  0  0  0  0  0  0  0  0
    7.0120   50.0862   26.3840 H   0  0  0  0  0  0  0  0  0  0  0  0
    6.2323   48.4670   26.5817 H   0  0  0  0  0  0  0  0  0  0  0  0
    6.1276   52.2476   29.2287 H   0  0  0  0  0  0  0  0  0  0  0  0
    1.9242   50.6679   27.0575 H   0  0  0  0  0  0  0  0  0  0  0  0
    2.1052   54.7640   29.4661 H   0  0  0  0  0  0  0  0  0  0  0  0
    2.7594   55.2869   27.8416 H   0  0  0  0  0  0  0  0  0  0  0  0
    9.8235   40.7201   31.7654 H   0  0  0  0  0  0  0  0  0  0  0  0
   11.3777   41.5549   31.4744 H   0  0  0  0  0  0  0  0  0  0  0  0
   11.7311   39.5363   30.3532 H   0  0  0  0  0  0  0  0  0  0  0  0
   10.1203   38.2696   32.6410 H   0  0  0  0  0  0  0  0  0  0  0  0
   13.6850   37.4639   31.2321 H   0  0  0  0  0  0  0  0  0  0  0  0
   10.0251   38.1792   29.7654 H   0  0  0  0  0  0  0  0  0  0  0  0
   11.2757   36.3135   32.4907 H   0  0  0  0  0  0  0  0  0  0  0  0
   11.9838   36.9111   29.7708 H   0  0  0  0  0  0  0  0  0  0  0  0
   12.3307   38.3536   34.7457 H   0  0  0  0  0  0  0  0  0  0  0  0
   16.7566   34.1787   32.4623 H   0  0  0  0  0  0  0  0  0  0  0  0
   16.6353   34.5301   37.1419 H   0  0  0  0  0  0  0  0  0  0  0  0
   15.3535   35.7355   37.5144 H   0  0  0  0  0  0  0  0  0  0  0  0
  1  2  2  0
  1  3  1  0
  3  4  1  0
  4  5  1  0
  6  1  1  0
  7  6  1  0
  6  8  1  0
  8  9  1  0
  9 10  2  0
 11  9  1  0
 10 12  1  0
 13 11  2  0
 12 14  2  0
 14 13  1  0
 14 15  1  0
 15 16  1  0
 16 17  1  0
 16 18  1  0
 18 19  2  0
 20 18  1  0
 19 21  1  0
 22 20  2  0
 20 23  1  0
 21 24  1  0
 21 25  2  0
 25 22  1  0
 23 26  1  0
 23 27  2  0
 24 28  1  0
 25 29  1  0
 28 29  1  0
  4 30  2  0
  4 31  1  0
 32 31  1  0
 32 33  1  0
 33 34  1  0
 33 35  1  0
 34 36  1  0
 35 37  1  0
 35 38  1  0
 38 36  1  0
 36 39  1  0
 38 40  1  0
 41 39  1  0
 42 39  1  0
 43 41  2  0
 41 44  1  0
 45 42  2  0
 46 43  1  0
 44 47  2  0
 44 45  1  0
 48 46  2  0
 48 47  1  0
 47 49  1  0
  6 50  1  1
  7 51  1  0
  7 52  1  0
  8 53  1  0
  8 54  1  0
 10 55  1  0
 11 56  1  0
 12 57  1  0
 13 58  1  0
 16 59  1  1
 17 60  1  0
 17 61  1  0
 17 62  1  0
 19 63  1  0
 22 64  1  0
 28 65  1  0
 28 66  1  0
 32 67  1  0
 32 68  1  0
 33 69  1  0
 35 70  1  0
 36 71  1  0
 37 72  1  0
 38 73  1  0
 40 74  1  0
 42 75  1  0
 46 76  1  0
 49 77  1  0
 49 78  1  0
M  CHG  3   5  -1  23   1  26  -1
M  END
>  <EmbedRMS>  (430) 
0.0808352514247

$$$$

     RDKit          3D

 78 83  0  0  0  0  0  0  0  0999 V2000
   10.2802   43.7665   33.8249 C   0  0  0  0  0  0  0  0  0  0  0  0
   11.4109   43.5920   34.3666 O   0  0  0  0  0  0  0  0  0  0  0  0
    9.3618   42.7250   33.7344 O   0  0  0  0  0  0  0  0  0  0  0  0
    9.8902   41.2265   34.2931 P   0  0  0  0  0  0  0  0  0  0  0  0
   10.3742   41.4563   35.8824 O   0  0  0  0  0  0  0  0  0  0  0  0
    9.9458   45.0736   33.2109 C   0  0  1  0  0  0  0  0  0  0  0  0
   11.0264   46.0293   33.4707 N   0  0  0  0  0  0  0  0  0  0  0  0
    9.7543   44.8538   31.6945 C   0  0  0  0  0  0  0  0  0  0  0  0
    8.7961   45.8402   31.0834 C   0  0  0  0  0  0  0  0  0  0  0  0
    7.4095   45.6005   31.1018 C   0  0  0  0  0  0  0  0  0  0  0  0
    9.2823   46.9877   30.4400 C   0  0  0  0  0  0  0  0  0  0  0  0
    6.5265   46.4999   30.4883 C   0  0  0  0  0  0  0  0  0  0  0  0
    8.3992   47.8880   29.8335 C   0  0  0  0  0  0  0  0  0  0  0  0
    7.0176   47.6538   29.8429 C   0  0  0  0  0  0  0  0  0  0  0  0
    6.1845   48.6016   29.2163 O   0  0  0  0  0  0  0  0  0  0  0  0
    4.8014   48.4505   28.8547 C   0  0  1  0  0  0  0  0  0  0  0  0
    4.6027   47.1783   28.0052 C   0  0  0  0  0  0  0  0  0  0  0  0
    3.8495   48.5424   30.0507 C   0  0  0  0  0  0  0  0  0  0  0  0
    4.3626   48.7741   31.3554 C   0  0  0  0  0  0  0  0  0  0  0  0
    2.4266   48.4150   29.8870 C   0  0  0  0  0  0  0  0  0  0  0  0
    3.4840   48.7748   32.4303 C   0  0  0  0  0  0  0  0  0  0  0  0
    1.5838   48.4066   31.0217 C   0  0  0  0  0  0  0  0  0  0  0  0
    1.8216   48.3381   28.5881 N   0  0  0  0  0  0  0  0  0  0  0  0
    3.7685   48.9529   33.7706 O   0  0  0  0  0  0  0  0  0  0  0  0
    2.1552   48.5884   32.2719 C   0  0  0  0  0  0  0  0  0  0  0  0
    2.1249   49.2800   27.6327 O   0  0  0  0  0  0  0  0  0  0  0  0
    0.8521   47.5755   28.3964 O   0  0  0  0  0  0  0  0  0  0  0  0
    2.5363   48.8690   34.4994 C   0  0  0  0  0  0  0  0  0  0  0  0
    1.5310   48.6368   33.5035 O   0  0  0  0  0  0  0  0  0  0  0  0
    8.8124   40.1844   34.2129 O   0  0  0  0  0  0  0  0  0  0  0  0
   11.2404   40.7948   33.3669 O   0  0  0  0  0  0  0  0  0  0  0  0
   10.9133   40.6866   31.9953 C   0  0  0  0  0  0  0  0  0  0  0  0
   11.5166   39.3787   31.4404 C   0  0  0  0  0  0  0  0  0  0  0  0
   12.7485   39.0849   32.0735 O   0  0  0  0  0  0  0  0  0  0  0  0
   10.6039   38.1884   31.6669 C   0  0  0  0  0  0  0  0  0  0  0  0
   12.9329   37.6776   32.0284 C   0  0  0  0  0  0  0  0  0  0  0  0
    9.6374   38.0938   30.6484 O   0  0  0  0  0  0  0  0  0  0  0  0
   11.5737   37.0141   31.7055 C   0  0  0  0  0  0  0  0  0  0  0  0
   13.4853   37.2120   33.3238 N   0  0  0  0  0  0  0  0  0  0  0  0
   11.6210   36.3379   30.4683 O   0  0  0  0  0  0  0  0  0  0  0  0
   14.4804   36.3319   33.5726 C   0  0  0  0  0  0  0  0  0  0  0  0
   13.1141   37.6275   34.5689 C   0  0  0  0  0  0  0  0  0  0  0  0
   15.2075   35.6152   32.6740 N   0  0  0  0  0  0  0  0  0  0  0  0
   14.6761   36.2306   34.9181 C   0  0  0  0  0  0  0  0  0  0  0  0
   13.8218   37.0451   35.5783 N   0  0  0  0  0  0  0  0  0  0  0  0
   16.1642   34.7600   33.1548 C   0  0  0  0  0  0  0  0  0  0  0  0
   15.6528   35.3506   35.4131 C   0  0  0  0  0  0  0  0  0  0  0  0
   16.3796   34.6315   34.5043 N   0  0  0  0  0  0  0  0  0  0  0  0
   15.9001   35.1933   36.8090 N   0  0  0  0  0  0  0  0  0  0  0  0
    8.9992   45.4382   33.6715 H   0  0  0  0  0  0  0  0  0  0  0  0
   10.7762   46.9369   33.0157 H   0  0  0  0  0  0  0  0  0  0  0  0
   11.0497   46.2279   34.4981 H   0  0  0  0  0  0  0  0  0  0  0  0
    9.3651   43.8350   31.4708 H   0  0  0  0  0  0  0  0  0  0  0  0
   10.7417   44.9075   31.1835 H   0  0  0  0  0  0  0  0  0  0  0  0
    7.0148   44.7206   31.5948 H   0  0  0  0  0  0  0  0  0  0  0  0
   10.3461   47.1884   30.4066 H   0  0  0  0  0  0  0  0  0  0  0  0
    5.4688   46.2998   30.5548 H   0  0  0  0  0  0  0  0  0  0  0  0
    8.7917   48.7712   29.3456 H   0  0  0  0  0  0  0  0  0  0  0  0
    4.5726   49.3166   28.1999 H   0  0  0  0  0  0  0  0  0  0  0  0
    3.8096   47.3297   27.2457 H   0  0  0  0  0  0  0  0  0  0  0  0
    5.5348   46.9349   27.4524 H   0  0  0  0  0  0  0  0  0  0  0  0
    4.3166   46.3061   28.6271 H   0  0  0  0  0  0  0  0  0  0  0  0
    5.4116   48.9466   31.5455 H   0  0  0  0  0  0  0  0  0  0  0  0
    0.5109   48.3001   30.9260 H   0  0  0  0  0  0  0  0  0  0  0  0
    2.5701   48.0207   35.2148 H   0  0  0  0  0  0  0  0  0  0  0  0
    2.3377   49.8242   35.0291 H   0  0  0  0  0  0  0  0  0  0  0  0
   11.3826   41.5438   31.4666 H   0  0  0  0  0  0  0  0  0  0  0  0
    9.8224   40.7224   31.7629 H   0  0  0  0  0  0  0  0  0  0  0  0
   11.6979   39.5036   30.3478 H   0  0  0  0  0  0  0  0  0  0  0  0
   10.1084   38.2786   32.6627 H   0  0  0  0  0  0  0  0  0  0  0  0
   13.6638   37.4473   31.2215 H   0  0  0  0  0  0  0  0  0  0  0  0
    8.9763   37.4191   30.9532 H   0  0  0  0  0  0  0  0  0  0  0  0
   11.2821   36.3054   32.5171 H   0  0  0  0  0  0  0  0  0  0  0  0
   10.8658   35.6935   30.4652 H   0  0  0  0  0  0  0  0  0  0  0  0
   12.3293   38.3523   34.7445 H   0  0  0  0  0  0  0  0  0  0  0  0
   16.7561   34.1778   32.4621 H   0  0  0  0  0  0  0  0  0  0  0  0
   16.6346   34.5299   37.1416 H   0  0  0  0  0  0  0  0  0  0  0  0
   15.3533   35.7361   37.5138 H   0  0  0  0  0  0  0  0  0  0  0  0
  1  2  2  0
  1  3  1  0
  3  4  1  0
  4  5  1  0
  6  1  1  0
  7  6  1  0
  6  8  1  0
  8  9  1  0
  9 10  2  0
 11  9  1  0
 10 12  1  0
 13 11  2  0
 12 14  2  0
 14 13  1  0
 14 15  1  0
 15 16  1  0
 16 17  1  0
 16 18  1  0
 18 19  2  0
 20 18  1  0
 19 21  1  0
 22 20  2  0
 20 23  1  0
 21 24  1  0
 21 25  2  0
 25 22  1  0
 23 26  1  0
 23 27  2  0
 24 28  1  0
 25 29  1  0
 28 29  1  0
  4 30  2  0
  4 31  1  0
 32 31  1  0
 32 33  1  0
 33 34  1  0
 33 35  1  0
 34 36  1  0
 35 37  1  0
 35 38  1  0
 38 36  1  0
 36 39  1  0
 38 40  1  0
 41 39  1  0
 42 39  1  0
 43 41  2  0
 41 44  1  0
 45 42  2  0
 46 43  1  0
 44 47  2  0
 44 45  1  0
 48 46  2  0
 48 47  1  0
 47 49  1  0
  6 50  1  1
  7 51  1  0
  7 52  1  0
  8 53  1  0
  8 54  1  0
 10 55  1  0
 11 56  1  0
 12 57  1  0
 13 58  1  0
 16 59  1  6
 17 60  1  0
 17 61  1  0
 17 62  1  0
 19 63  1  0
 22 64  1  0
 28 65  1  0
 28 66  1  0
 32 67  1  0
 32 68  1  0
 33 69  1  0
 35 70  1  0
 36 71  1  0
 37 72  1  0
 38 73  1  0
 40 74  1  0
 42 75  1  0
 46 76  1  0
 49 77  1  0
 49 78  1  0
M  CHG  3   5  -1  23   1  26  -1
M  END
>  <EmbedRMS>  (431) 
0.0823978938531

$$$$

     RDKit          3D

 78 83  0  0  0  0  0  0  0  0999 V2000
   10.2832   43.7666   33.8256 C   0  0  0  0  0  0  0  0  0  0  0  0
   11.4101   43.5936   34.3751 O   0  0  0  0  0  0  0  0  0  0  0  0
    9.3640   42.7255   33.7347 O   0  0  0  0  0  0  0  0  0  0  0  0
    9.8908   41.2267   34.2938 P   0  0  0  0  0  0  0  0  0  0  0  0
   10.3733   41.4560   35.8835 O   0  0  0  0  0  0  0  0  0  0  0  0
    9.9539   45.0699   33.2035 C   0  0  1  0  0  0  0  0  0  0  0  0
   11.0260   46.0332   33.4758 N   0  0  0  0  0  0  0  0  0  0  0  0
    9.7465   44.8484   31.6875 C   0  0  0  0  0  0  0  0  0  0  0  0
    8.7923   45.8407   31.0838 C   0  0  0  0  0  0  0  0  0  0  0  0
    7.4042   45.5998   31.0971 C   0  0  0  0  0  0  0  0  0  0  0  0
    9.2831   46.9876   30.4395 C   0  0  0  0  0  0  0  0  0  0  0  0
    6.5247   46.5012   30.4814 C   0  0  0  0  0  0  0  0  0  0  0  0
    8.4022   47.8880   29.8292 C   0  0  0  0  0  0  0  0  0  0  0  0
    7.0202   47.6545   29.8582 C   0  0  0  0  0  0  0  0  0  0  0  0
    6.1444   48.5509   29.2409 O   0  0  0  0  0  0  0  0  0  0  0  0
    5.6032   49.7100   29.8830 C   0  0  1  0  0  0  0  0  0  0  0  0
    4.4977   49.3337   30.8748 C   0  0  0  0  0  0  0  0  0  0  0  0
    6.7028   50.6188   30.4327 C   0  0  0  0  0  0  0  0  0  0  0  0
    7.1983   51.6226   29.5625 C   0  0  0  0  0  0  0  0  0  0  0  0
    7.3293   50.4512   31.7168 C   0  0  0  0  0  0  0  0  0  0  0  0
    8.2647   52.4072   29.9813 C   0  0  0  0  0  0  0  0  0  0  0  0
    8.4154   51.2731   32.0852 C   0  0  0  0  0  0  0  0  0  0  0  0
    6.8850   49.4756   32.6608 N   0  0  0  0  0  0  0  0  0  0  0  0
    8.8994   53.4280   29.3002 O   0  0  0  0  0  0  0  0  0  0  0  0
    8.8488   52.2386   31.1886 C   0  0  0  0  0  0  0  0  0  0  0  0
    7.7203   48.4302   32.9763 O   0  0  0  0  0  0  0  0  0  0  0  0
    5.9880   49.7879   33.4701 O   0  0  0  0  0  0  0  0  0  0  0  0
    9.9485   53.9331   30.1375 C   0  0  0  0  0  0  0  0  0  0  0  0
    9.8810   53.1453   31.3340 O   0  0  0  0  0  0  0  0  0  0  0  0
    8.8128   40.1849   34.2122 O   0  0  0  0  0  0  0  0  0  0  0  0
   11.2421   40.7943   33.3696 O   0  0  0  0  0  0  0  0  0  0  0  0
   10.9187   40.6912   31.9971 C   0  0  0  0  0  0  0  0  0  0  0  0
   11.5172   39.3815   31.4408 C   0  0  0  0  0  0  0  0  0  0  0  0
   12.7493   39.0856   32.0728 O   0  0  0  0  0  0  0  0  0  0  0  0
   10.6023   38.1908   31.6665 C   0  0  0  0  0  0  0  0  0  0  0  0
   12.9319   37.6781   32.0281 C   0  0  0  0  0  0  0  0  0  0  0  0
    9.6392   38.0798   30.6452 O   0  0  0  0  0  0  0  0  0  0  0  0
   11.5715   37.0166   31.7056 C   0  0  0  0  0  0  0  0  0  0  0  0
   13.4847   37.2121   33.3235 N   0  0  0  0  0  0  0  0  0  0  0  0
   11.6186   36.3384   30.4695 O   0  0  0  0  0  0  0  0  0  0  0  0
   14.4801   36.3321   33.5724 C   0  0  0  0  0  0  0  0  0  0  0  0
   13.1137   37.6275   34.5687 C   0  0  0  0  0  0  0  0  0  0  0  0
   15.2073   35.6153   32.6738 N   0  0  0  0  0  0  0  0  0  0  0  0
   14.6758   36.2308   34.9179 C   0  0  0  0  0  0  0  0  0  0  0  0
   13.8216   37.0452   35.5781 N   0  0  0  0  0  0  0  0  0  0  0  0
   16.1640   34.7601   33.1546 C   0  0  0  0  0  0  0  0  0  0  0  0
   15.6526   35.3508   35.4129 C   0  0  0  0  0  0  0  0  0  0  0  0
   16.3794   34.6317   34.5041 N   0  0  0  0  0  0  0  0  0  0  0  0
   15.8999   35.1935   36.8088 N   0  0  0  0  0  0  0  0  0  0  0  0
    9.0109   45.4320   33.6708 H   0  0  0  0  0  0  0  0  0  0  0  0
   10.7233   46.9699   33.1227 H   0  0  0  0  0  0  0  0  0  0  0  0
   11.8892   45.7682   32.9464 H   0  0  0  0  0  0  0  0  0  0  0  0
   10.7230   44.8821   31.1559 H   0  0  0  0  0  0  0  0  0  0  0  0
    9.3417   43.8332   31.4761 H   0  0  0  0  0  0  0  0  0  0  0  0
    7.0075   44.7134   31.5765 H   0  0  0  0  0  0  0  0  0  0  0  0
   10.3475   47.1848   30.4063 H   0  0  0  0  0  0  0  0  0  0  0  0
    5.4606   46.3039   30.4907 H   0  0  0  0  0  0  0  0  0  0  0  0
    8.7929   48.7684   29.3351 H   0  0  0  0  0  0  0  0  0  0  0  0
    5.0734   50.2794   29.0874 H   0  0  0  0  0  0  0  0  0  0  0  0
    4.8185   48.5236   31.5578 H   0  0  0  0  0  0  0  0  0  0  0  0
    4.1820   50.2237   31.4596 H   0  0  0  0  0  0  0  0  0  0  0  0
    3.6146   48.9555   30.3169 H   0  0  0  0  0  0  0  0  0  0  0  0
    6.7788   51.7759   28.5760 H   0  0  0  0  0  0  0  0  0  0  0  0
    8.9007   51.1618   33.0465 H   0  0  0  0  0  0  0  0  0  0  0  0
    9.7706   55.0033   30.3729 H   0  0  0  0  0  0  0  0  0  0  0  0
   10.9334   53.7963   29.6438 H   0  0  0  0  0  0  0  0  0  0  0  0
    9.8299   40.7410   31.7613 H   0  0  0  0  0  0  0  0  0  0  0  0
   11.3968   41.5461   31.4727 H   0  0  0  0  0  0  0  0  0  0  0  0
   11.6975   39.5067   30.3481 H   0  0  0  0  0  0  0  0  0  0  0  0
   10.1077   38.2648   32.6646 H   0  0  0  0  0  0  0  0  0  0  0  0
   13.6621   37.4467   31.2209 H   0  0  0  0  0  0  0  0  0  0  0  0
    8.8975   38.6945   30.8831 H   0  0  0  0  0  0  0  0  0  0  0  0
   11.2805   36.3074   32.5170 H   0  0  0  0  0  0  0  0  0  0  0  0
   10.8492   35.7111   30.4586 H   0  0  0  0  0  0  0  0  0  0  0  0
   12.3290   38.3524   34.7444 H   0  0  0  0  0  0  0  0  0  0  0  0
   16.7559   34.1780   32.4619 H   0  0  0  0  0  0  0  0  0  0  0  0
   16.6344   34.5301   37.1414 H   0  0  0  0  0  0  0  0  0  0  0  0
   15.3531   35.7363   37.5137 H   0  0  0  0  0  0  0  0  0  0  0  0
  1  2  2  0
  1  3  1  0
  3  4  1  0
  4  5  1  0
  6  1  1  0
  7  6  1  0
  6  8  1  0
  8  9  1  0
  9 10  2  0
 11  9  1  0
 10 12  1  0
 13 11  2  0
 12 14  2  0
 14 13  1  0
 14 15  1  0
 15 16  1  0
 16 17  1  0
 16 18  1  0
 18 19  2  0
 20 18  1  0
 19 21  1  0
 22 20  2  0
 20 23  1  0
 21 24  1  0
 21 25  2  0
 25 22  1  0
 23 26  1  0
 23 27  2  0
 24 28  1  0
 25 29  1  0
 28 29  1  0
  4 30  2  0
  4 31  1  0
 32 31  1  0
 32 33  1  0
 33 34  1  0
 33 35  1  0
 34 36  1  0
 35 37  1  0
 35 38  1  0
 38 36  1  0
 36 39  1  0
 38 40  1  0
 41 39  1  0
 42 39  1  0
 43 41  2  0
 41 44  1  0
 45 42  2  0
 46 43  1  0
 44 47  2  0
 44 45  1  0
 48 46  2  0
 48 47  1  0
 47 49  1  0
  6 50  1  1
  7 51  1  0
  7 52  1  0
  8 53  1  0
  8 54  1  0
 10 55  1  0
 11 56  1  0
 12 57  1  0
 13 58  1  0
 16 59  1  6
 17 60  1  0
 17 61  1  0
 17 62  1  0
 19 63  1  0
 22 64  1  0
 28 65  1  0
 28 66  1  0
 32 67  1  0
 32 68  1  0
 33 69  1  0
 35 70  1  0
 36 71  1  0
 37 72  1  0
 38 73  1  0
 40 74  1  0
 42 75  1  0
 46 76  1  0
 49 77  1  0
 49 78  1  0
M  CHG  3   5  -1  23   1  26  -1
M  END
>  <EmbedRMS>  (432) 
0.0830814470716

$$$$

     RDKit          3D

 78 83  0  0  0  0  0  0  0  0999 V2000
   10.2835   43.7662   33.8257 C   0  0  0  0  0  0  0  0  0  0  0  0
   11.4102   43.5930   34.3753 O   0  0  0  0  0  0  0  0  0  0  0  0
    9.3638   42.7255   33.7352 O   0  0  0  0  0  0  0  0  0  0  0  0
    9.8904   41.2267   34.2946 P   0  0  0  0  0  0  0  0  0  0  0  0
   10.3729   41.4561   35.8842 O   0  0  0  0  0  0  0  0  0  0  0  0
    9.9546   45.0694   33.2035 C   0  0  1  0  0  0  0  0  0  0  0  0
   11.0273   46.0322   33.4756 N   0  0  0  0  0  0  0  0  0  0  0  0
    9.7466   44.8479   31.6876 C   0  0  0  0  0  0  0  0  0  0  0  0
    8.7923   45.8405   31.0842 C   0  0  0  0  0  0  0  0  0  0  0  0
    7.4058   45.6015   31.0992 C   0  0  0  0  0  0  0  0  0  0  0  0
    9.2820   46.9875   30.4424 C   0  0  0  0  0  0  0  0  0  0  0  0
    6.5272   46.5034   30.4844 C   0  0  0  0  0  0  0  0  0  0  0  0
    8.4033   47.8904   29.8321 C   0  0  0  0  0  0  0  0  0  0  0  0
    7.0134   47.6529   29.8463 C   0  0  0  0  0  0  0  0  0  0  0  0
    6.0809   48.5228   29.2564 O   0  0  0  0  0  0  0  0  0  0  0  0
    6.3838   49.7071   28.5128 C   0  0  1  0  0  0  0  0  0  0  0  0
    6.8625   49.3094   27.1075 C   0  0  0  0  0  0  0  0  0  0  0  0
    5.1571   50.6177   28.5393 C   0  0  0  0  0  0  0  0  0  0  0  0
    4.5406   51.0703   27.3389 C   0  0  0  0  0  0  0  0  0  0  0  0
    4.5767   51.0034   29.7981 C   0  0  0  0  0  0  0  0  0  0  0  0
    3.3953   51.8501   27.4284 C   0  0  0  0  0  0  0  0  0  0  0  0
    3.4004   51.7873   29.8213 C   0  0  0  0  0  0  0  0  0  0  0  0
    5.1511   50.5954   31.0520 N   0  0  0  0  0  0  0  0  0  0  0  0
    2.6415   52.3870   26.4022 O   0  0  0  0  0  0  0  0  0  0  0  0
    2.8480   52.1907   28.6156 C   0  0  0  0  0  0  0  0  0  0  0  0
    6.4992   50.7385   31.2825 O   0  0  0  0  0  0  0  0  0  0  0  0
    4.4075   50.2949   32.0087 O   0  0  0  0  0  0  0  0  0  0  0  0
    1.5508   53.1118   26.9864 C   0  0  0  0  0  0  0  0  0  0  0  0
    1.7207   52.9606   28.4022 O   0  0  0  0  0  0  0  0  0  0  0  0
    8.8125   40.1848   34.2126 O   0  0  0  0  0  0  0  0  0  0  0  0
   11.2416   40.7948   33.3707 O   0  0  0  0  0  0  0  0  0  0  0  0
   10.9179   40.6922   31.9984 C   0  0  0  0  0  0  0  0  0  0  0  0
   11.5175   39.3838   31.4423 C   0  0  0  0  0  0  0  0  0  0  0  0
   12.7508   39.0887   32.0752 O   0  0  0  0  0  0  0  0  0  0  0  0
   10.6028   38.1916   31.6659 C   0  0  0  0  0  0  0  0  0  0  0  0
   12.9385   37.6818   32.0278 C   0  0  0  0  0  0  0  0  0  0  0  0
    9.6371   38.0806   30.6470 O   0  0  0  0  0  0  0  0  0  0  0  0
   11.5780   37.0215   31.6935 C   0  0  0  0  0  0  0  0  0  0  0  0
   13.4844   37.2119   33.3242 N   0  0  0  0  0  0  0  0  0  0  0  0
   11.6095   36.3201   30.4679 O   0  0  0  0  0  0  0  0  0  0  0  0
   14.4797   36.3318   33.5730 C   0  0  0  0  0  0  0  0  0  0  0  0
   13.1136   37.6278   34.5691 C   0  0  0  0  0  0  0  0  0  0  0  0
   15.2073   35.6155   32.6742 N   0  0  0  0  0  0  0  0  0  0  0  0
   14.6754   36.2305   34.9184 C   0  0  0  0  0  0  0  0  0  0  0  0
   13.8213   37.0452   35.5785 N   0  0  0  0  0  0  0  0  0  0  0  0
   16.1640   34.7604   33.1549 C   0  0  0  0  0  0  0  0  0  0  0  0
   15.6524   35.3507   35.4132 C   0  0  0  0  0  0  0  0  0  0  0  0
   16.3794   34.6318   34.5044 N   0  0  0  0  0  0  0  0  0  0  0  0
   15.8999   35.1934   36.8091 N   0  0  0  0  0  0  0  0  0  0  0  0
    9.0120   45.4317   33.6713 H   0  0  0  0  0  0  0  0  0  0  0  0
   11.8905   45.7659   32.9469 H   0  0  0  0  0  0  0  0  0  0  0  0
   10.7258   46.9687   33.1213 H   0  0  0  0  0  0  0  0  0  0  0  0
   10.7230   44.8812   31.1557 H   0  0  0  0  0  0  0  0  0  0  0  0
    9.3415   43.8327   31.4763 H   0  0  0  0  0  0  0  0  0  0  0  0
    7.0084   44.7172   31.5819 H   0  0  0  0  0  0  0  0  0  0  0  0
   10.3467   47.1846   30.4125 H   0  0  0  0  0  0  0  0  0  0  0  0
    5.4625   46.3079   30.5047 H   0  0  0  0  0  0  0  0  0  0  0  0
    8.8219   48.7632   29.3535 H   0  0  0  0  0  0  0  0  0  0  0  0
    7.2089   50.2685   28.9955 H   0  0  0  0  0  0  0  0  0  0  0  0
    6.0651   48.7566   26.5665 H   0  0  0  0  0  0  0  0  0  0  0  0
    7.7494   48.6468   27.1741 H   0  0  0  0  0  0  0  0  0  0  0  0
    7.1618   50.2099   26.5303 H   0  0  0  0  0  0  0  0  0  0  0  0
    4.9170   50.8277   26.3564 H   0  0  0  0  0  0  0  0  0  0  0  0
    2.9406   52.0862   30.7546 H   0  0  0  0  0  0  0  0  0  0  0  0
    1.6083   54.1844   26.7059 H   0  0  0  0  0  0  0  0  0  0  0  0
    0.5826   52.6720   26.6675 H   0  0  0  0  0  0  0  0  0  0  0  0
    9.8291   40.7409   31.7627 H   0  0  0  0  0  0  0  0  0  0  0  0
   11.3952   41.5478   31.4744 H   0  0  0  0  0  0  0  0  0  0  0  0
   11.6981   39.5115   30.3500 H   0  0  0  0  0  0  0  0  0  0  0  0
   10.1117   38.2604   32.6660 H   0  0  0  0  0  0  0  0  0  0  0  0
   13.6767   37.4556   31.2267 H   0  0  0  0  0  0  0  0  0  0  0  0
    8.8961   38.6952   30.8872 H   0  0  0  0  0  0  0  0  0  0  0  0
   11.2791   36.3072   32.4922 H   0  0  0  0  0  0  0  0  0  0  0  0
   11.8828   36.9598   29.7589 H   0  0  0  0  0  0  0  0  0  0  0  0
   12.3300   38.3539   34.7446 H   0  0  0  0  0  0  0  0  0  0  0  0
   16.7561   34.1785   32.4622 H   0  0  0  0  0  0  0  0  0  0  0  0
   15.3531   35.7360   37.5140 H   0  0  0  0  0  0  0  0  0  0  0  0
   16.6347   34.5303   37.1416 H   0  0  0  0  0  0  0  0  0  0  0  0
  1  2  2  0
  1  3  1  0
  3  4  1  0
  4  5  1  0
  6  1  1  0
  7  6  1  0
  6  8  1  0
  8  9  1  0
  9 10  2  0
 11  9  1  0
 10 12  1  0
 13 11  2  0
 12 14  2  0
 14 13  1  0
 14 15  1  0
 15 16  1  0
 16 17  1  0
 16 18  1  0
 18 19  2  0
 20 18  1  0
 19 21  1  0
 22 20  2  0
 20 23  1  0
 21 24  1  0
 21 25  2  0
 25 22  1  0
 23 26  1  0
 23 27  2  0
 24 28  1  0
 25 29  1  0
 28 29  1  0
  4 30  2  0
  4 31  1  0
 32 31  1  0
 32 33  1  0
 33 34  1  0
 33 35  1  0
 34 36  1  0
 35 37  1  0
 35 38  1  0
 38 36  1  0
 36 39  1  0
 38 40  1  0
 41 39  1  0
 42 39  1  0
 43 41  2  0
 41 44  1  0
 45 42  2  0
 46 43  1  0
 44 47  2  0
 44 45  1  0
 48 46  2  0
 48 47  1  0
 47 49  1  0
  6 50  1  1
  7 51  1  0
  7 52  1  0
  8 53  1  0
  8 54  1  0
 10 55  1  0
 11 56  1  0
 12 57  1  0
 13 58  1  0
 16 59  1  1
 17 60  1  0
 17 61  1  0
 17 62  1  0
 19 63  1  0
 22 64  1  0
 28 65  1  0
 28 66  1  0
 32 67  1  0
 32 68  1  0
 33 69  1  0
 35 70  1  0
 36 71  1  0
 37 72  1  0
 38 73  1  0
 40 74  1  0
 42 75  1  0
 46 76  1  0
 49 77  1  0
 49 78  1  0
M  CHG  3   5  -1  23   1  26  -1
M  END
>  <EmbedRMS>  (433) 
0.081976819637

$$$$

     RDKit          3D

 78 83  0  0  0  0  0  0  0  0999 V2000
   10.2847   43.7650   33.8242 C   0  0  0  0  0  0  0  0  0  0  0  0
   11.4121   43.5918   34.3723 O   0  0  0  0  0  0  0  0  0  0  0  0
    9.3642   42.7248   33.7358 O   0  0  0  0  0  0  0  0  0  0  0  0
    9.8905   41.2265   34.2964 P   0  0  0  0  0  0  0  0  0  0  0  0
   10.3756   41.4542   35.8858 O   0  0  0  0  0  0  0  0  0  0  0  0
    9.9553   45.0686   33.2028 C   0  0  1  0  0  0  0  0  0  0  0  0
   11.0285   46.0312   33.4728 N   0  0  0  0  0  0  0  0  0  0  0  0
    9.7435   44.8479   31.6875 C   0  0  0  0  0  0  0  0  0  0  0  0
    8.7899   45.8430   31.0874 C   0  0  0  0  0  0  0  0  0  0  0  0
    7.4024   45.6043   31.0988 C   0  0  0  0  0  0  0  0  0  0  0  0
    9.2812   46.9913   30.4501 C   0  0  0  0  0  0  0  0  0  0  0  0
    6.5228   46.5017   30.4764 C   0  0  0  0  0  0  0  0  0  0  0  0
    8.4010   47.8932   29.8423 C   0  0  0  0  0  0  0  0  0  0  0  0
    7.0204   47.6532   29.8330 C   0  0  0  0  0  0  0  0  0  0  0  0
    6.2000   48.5831   29.1700 O   0  0  0  0  0  0  0  0  0  0  0  0
    4.8739   48.3651   28.6640 C   0  0  1  0  0  0  0  0  0  0  0  0
    4.8804   47.2264   27.6295 C   0  0  0  0  0  0  0  0  0  0  0  0
    3.8478   48.2567   29.7936 C   0  0  0  0  0  0  0  0  0  0  0  0
    2.9114   47.1863   29.8253 C   0  0  0  0  0  0  0  0  0  0  0  0
    3.7979   49.2483   30.8368 C   0  0  0  0  0  0  0  0  0  0  0  0
    1.9963   47.1292   30.8658 C   0  0  0  0  0  0  0  0  0  0  0  0
    2.8518   49.1254   31.8801 C   0  0  0  0  0  0  0  0  0  0  0  0
    4.6886   50.3766   30.8546 N   0  0  0  0  0  0  0  0  0  0  0  0
    1.0070   46.1898   31.0829 O   0  0  0  0  0  0  0  0  0  0  0  0
    1.9637   48.0588   31.8475 C   0  0  0  0  0  0  0  0  0  0  0  0
    5.1506   50.8654   32.0543 O   0  0  0  0  0  0  0  0  0  0  0  0
    4.8892   51.0429   29.8196 O   0  0  0  0  0  0  0  0  0  0  0  0
    0.2970   46.5648   32.2716 C   0  0  0  0  0  0  0  0  0  0  0  0
    0.9443   47.7611   32.7315 O   0  0  0  0  0  0  0  0  0  0  0  0
    8.8126   40.1845   34.2144 O   0  0  0  0  0  0  0  0  0  0  0  0
   11.2396   40.7955   33.3701 O   0  0  0  0  0  0  0  0  0  0  0  0
   10.9116   40.6910   31.9990 C   0  0  0  0  0  0  0  0  0  0  0  0
   11.5259   39.3909   31.4401 C   0  0  0  0  0  0  0  0  0  0  0  0
   12.7515   39.0921   32.0846 O   0  0  0  0  0  0  0  0  0  0  0  0
   10.6117   38.1922   31.6457 C   0  0  0  0  0  0  0  0  0  0  0  0
   12.9417   37.6851   32.0305 C   0  0  0  0  0  0  0  0  0  0  0  0
    9.6083   38.0855   30.6591 O   0  0  0  0  0  0  0  0  0  0  0  0
   11.5827   37.0197   31.6884 C   0  0  0  0  0  0  0  0  0  0  0  0
   13.4864   37.2131   33.3259 N   0  0  0  0  0  0  0  0  0  0  0  0
   11.6164   36.3074   30.4693 O   0  0  0  0  0  0  0  0  0  0  0  0
   14.4809   36.3320   33.5740 C   0  0  0  0  0  0  0  0  0  0  0  0
   13.1156   37.6294   34.5705 C   0  0  0  0  0  0  0  0  0  0  0  0
   15.2062   35.6141   32.6748 N   0  0  0  0  0  0  0  0  0  0  0  0
   14.6756   36.2290   34.9191 C   0  0  0  0  0  0  0  0  0  0  0  0
   13.8214   37.0439   35.5795 N   0  0  0  0  0  0  0  0  0  0  0  0
   16.1629   34.7581   33.1542 C   0  0  0  0  0  0  0  0  0  0  0  0
   15.6528   35.3490   35.4133 C   0  0  0  0  0  0  0  0  0  0  0  0
   16.3798   34.6301   34.5038 N   0  0  0  0  0  0  0  0  0  0  0  0
   15.9013   35.1931   36.8092 N   0  0  0  0  0  0  0  0  0  0  0  0
    9.0136   45.4320   33.6715 H   0  0  0  0  0  0  0  0  0  0  0  0
   10.7237   46.9660   33.1175 H   0  0  0  0  0  0  0  0  0  0  0  0
   11.8902   45.7672   32.9401 H   0  0  0  0  0  0  0  0  0  0  0  0
    9.3343   43.8341   31.4775 H   0  0  0  0  0  0  0  0  0  0  0  0
   10.7175   44.8788   31.1504 H   0  0  0  0  0  0  0  0  0  0  0  0
    7.0039   44.7212   31.5829 H   0  0  0  0  0  0  0  0  0  0  0  0
   10.3459   47.1917   30.4246 H   0  0  0  0  0  0  0  0  0  0  0  0
    5.4668   46.2848   30.5050 H   0  0  0  0  0  0  0  0  0  0  0  0
    8.7962   48.7788   29.3605 H   0  0  0  0  0  0  0  0  0  0  0  0
    4.5966   49.2712   28.0855 H   0  0  0  0  0  0  0  0  0  0  0  0
    3.9117   47.1923   27.0890 H   0  0  0  0  0  0  0  0  0  0  0  0
    5.6780   47.4106   26.8786 H   0  0  0  0  0  0  0  0  0  0  0  0
    5.0745   46.2418   28.1043 H   0  0  0  0  0  0  0  0  0  0  0  0
    2.8792   46.4130   29.0708 H   0  0  0  0  0  0  0  0  0  0  0  0
    2.7924   49.8584   32.6764 H   0  0  0  0  0  0  0  0  0  0  0  0
   -0.7712   46.7721   32.0321 H   0  0  0  0  0  0  0  0  0  0  0  0
    0.3782   45.7679   33.0363 H   0  0  0  0  0  0  0  0  0  0  0  0
    9.8191   40.7169   31.7680 H   0  0  0  0  0  0  0  0  0  0  0  0
   11.3746   41.5547   31.4739 H   0  0  0  0  0  0  0  0  0  0  0  0
   11.7279   39.5349   30.3550 H   0  0  0  0  0  0  0  0  0  0  0  0
   10.1198   38.2688   32.6408 H   0  0  0  0  0  0  0  0  0  0  0  0
   13.6846   37.4655   31.2326 H   0  0  0  0  0  0  0  0  0  0  0  0
   10.0271   38.1839   29.7653 H   0  0  0  0  0  0  0  0  0  0  0  0
   11.2757   36.3131   32.4903 H   0  0  0  0  0  0  0  0  0  0  0  0
   11.9868   36.9096   29.7720 H   0  0  0  0  0  0  0  0  0  0  0  0
   12.3320   38.3566   34.7452 H   0  0  0  0  0  0  0  0  0  0  0  0
   16.7537   34.1759   32.4594 H   0  0  0  0  0  0  0  0  0  0  0  0
   16.6356   34.5299   37.1419 H   0  0  0  0  0  0  0  0  0  0  0  0
   15.3537   35.7351   37.5142 H   0  0  0  0  0  0  0  0  0  0  0  0
  1  2  2  0
  1  3  1  0
  3  4  1  0
  4  5  1  0
  6  1  1  0
  7  6  1  0
  6  8  1  0
  8  9  1  0
  9 10  2  0
 11  9  1  0
 10 12  1  0
 13 11  2  0
 12 14  2  0
 14 13  1  0
 14 15  1  0
 15 16  1  0
 16 17  1  0
 16 18  1  0
 18 19  2  0
 20 18  1  0
 19 21  1  0
 22 20  2  0
 20 23  1  0
 21 24  1  0
 21 25  2  0
 25 22  1  0
 23 26  1  0
 23 27  2  0
 24 28  1  0
 25 29  1  0
 28 29  1  0
  4 30  2  0
  4 31  1  0
 32 31  1  0
 32 33  1  0
 33 34  1  0
 33 35  1  0
 34 36  1  0
 35 37  1  0
 35 38  1  0
 38 36  1  0
 36 39  1  0
 38 40  1  0
 41 39  1  0
 42 39  1  0
 43 41  2  0
 41 44  1  0
 45 42  2  0
 46 43  1  0
 44 47  2  0
 44 45  1  0
 48 46  2  0
 48 47  1  0
 47 49  1  0
  6 50  1  1
  7 51  1  0
  7 52  1  0
  8 53  1  0
  8 54  1  0
 10 55  1  0
 11 56  1  0
 12 57  1  0
 13 58  1  0
 16 59  1  6
 17 60  1  0
 17 61  1  0
 17 62  1  0
 19 63  1  0
 22 64  1  0
 28 65  1  0
 28 66  1  0
 32 67  1  0
 32 68  1  0
 33 69  1  0
 35 70  1  0
 36 71  1  0
 37 72  1  0
 38 73  1  0
 40 74  1  0
 42 75  1  0
 46 76  1  0
 49 77  1  0
 49 78  1  0
M  CHG  3   5  -1  23   1  26  -1
M  END
>  <EmbedRMS>  (434) 
0.0808233795427

$$$$

     RDKit          3D

 78 83  0  0  0  0  0  0  0  0999 V2000
   10.2804   43.7664   33.8250 C   0  0  0  0  0  0  0  0  0  0  0  0
   11.4111   43.5920   34.3668 O   0  0  0  0  0  0  0  0  0  0  0  0
    9.3622   42.7247   33.7343 O   0  0  0  0  0  0  0  0  0  0  0  0
    9.8904   41.2264   34.2936 P   0  0  0  0  0  0  0  0  0  0  0  0
   10.3732   41.4565   35.8832 O   0  0  0  0  0  0  0  0  0  0  0  0
    9.9458   45.0736   33.2113 C   0  0  1  0  0  0  0  0  0  0  0  0
   11.0264   46.0293   33.4706 N   0  0  0  0  0  0  0  0  0  0  0  0
    9.7535   44.8539   31.6950 C   0  0  0  0  0  0  0  0  0  0  0  0
    8.7955   45.8410   31.0848 C   0  0  0  0  0  0  0  0  0  0  0  0
    7.4087   45.6002   31.1002 C   0  0  0  0  0  0  0  0  0  0  0  0
    9.2831   46.9874   30.4395 C   0  0  0  0  0  0  0  0  0  0  0  0
    6.5282   46.5006   30.4849 C   0  0  0  0  0  0  0  0  0  0  0  0
    8.4027   47.8886   29.8297 C   0  0  0  0  0  0  0  0  0  0  0  0
    7.0135   47.6520   29.8499 C   0  0  0  0  0  0  0  0  0  0  0  0
    6.0851   48.5284   29.2640 O   0  0  0  0  0  0  0  0  0  0  0  0
    6.4036   49.7788   28.6491 C   0  0  1  0  0  0  0  0  0  0  0  0
    5.1815   50.3191   27.9075 C   0  0  0  0  0  0  0  0  0  0  0  0
    6.9163   50.8020   29.6525 C   0  0  0  0  0  0  0  0  0  0  0  0
    7.8876   51.7250   29.1947 C   0  0  0  0  0  0  0  0  0  0  0  0
    6.5062   50.8446   31.0314 C   0  0  0  0  0  0  0  0  0  0  0  0
    8.4333   52.6236   30.1012 C   0  0  0  0  0  0  0  0  0  0  0  0
    7.1111   51.7720   31.9095 C   0  0  0  0  0  0  0  0  0  0  0  0
    5.5058   49.9623   31.5631 N   0  0  0  0  0  0  0  0  0  0  0  0
    9.3904   53.5946   29.8777 O   0  0  0  0  0  0  0  0  0  0  0  0
    8.0646   52.6433   31.4018 C   0  0  0  0  0  0  0  0  0  0  0  0
    5.6552   49.4475   32.8302 O   0  0  0  0  0  0  0  0  0  0  0  0
    4.4064   49.8336   30.9881 O   0  0  0  0  0  0  0  0  0  0  0  0
    9.6367   54.2670   31.1202 C   0  0  0  0  0  0  0  0  0  0  0  0
    8.7693   53.6282   32.0669 O   0  0  0  0  0  0  0  0  0  0  0  0
    8.8129   40.1841   34.2124 O   0  0  0  0  0  0  0  0  0  0  0  0
   11.2419   40.7944   33.3695 O   0  0  0  0  0  0  0  0  0  0  0  0
   10.9185   40.6911   31.9969 C   0  0  0  0  0  0  0  0  0  0  0  0
   11.5172   39.3814   31.4407 C   0  0  0  0  0  0  0  0  0  0  0  0
   12.7492   39.0856   32.0729 O   0  0  0  0  0  0  0  0  0  0  0  0
   10.6023   38.1908   31.6665 C   0  0  0  0  0  0  0  0  0  0  0  0
   12.9319   37.6781   32.0281 C   0  0  0  0  0  0  0  0  0  0  0  0
    9.6392   38.0797   30.6452 O   0  0  0  0  0  0  0  0  0  0  0  0
   11.5715   37.0165   31.7056 C   0  0  0  0  0  0  0  0  0  0  0  0
   13.4846   37.2121   33.3235 N   0  0  0  0  0  0  0  0  0  0  0  0
   11.6187   36.3383   30.4695 O   0  0  0  0  0  0  0  0  0  0  0  0
   14.4801   36.3321   33.5724 C   0  0  0  0  0  0  0  0  0  0  0  0
   13.1137   37.6275   34.5688 C   0  0  0  0  0  0  0  0  0  0  0  0
   15.2073   35.6153   32.6738 N   0  0  0  0  0  0  0  0  0  0  0  0
   14.6759   36.2308   34.9179 C   0  0  0  0  0  0  0  0  0  0  0  0
   13.8216   37.0452   35.5781 N   0  0  0  0  0  0  0  0  0  0  0  0
   16.1640   34.7602   33.1546 C   0  0  0  0  0  0  0  0  0  0  0  0
   15.6526   35.3508   35.4129 C   0  0  0  0  0  0  0  0  0  0  0  0
   16.3794   34.6317   34.5041 N   0  0  0  0  0  0  0  0  0  0  0  0
   15.8999   35.1934   36.8088 N   0  0  0  0  0  0  0  0  0  0  0  0
    8.9994   45.4381   33.6723 H   0  0  0  0  0  0  0  0  0  0  0  0
   11.0502   46.2279   34.4980 H   0  0  0  0  0  0  0  0  0  0  0  0
   10.7759   46.9370   33.0158 H   0  0  0  0  0  0  0  0  0  0  0  0
   10.7406   44.9070   31.1836 H   0  0  0  0  0  0  0  0  0  0  0  0
    9.3635   43.8352   31.4716 H   0  0  0  0  0  0  0  0  0  0  0  0
    7.0130   44.7162   31.5849 H   0  0  0  0  0  0  0  0  0  0  0  0
   10.3473   47.1857   30.4058 H   0  0  0  0  0  0  0  0  0  0  0  0
    5.4636   46.3057   30.5074 H   0  0  0  0  0  0  0  0  0  0  0  0
    8.8155   48.7617   29.3447 H   0  0  0  0  0  0  0  0  0  0  0  0
    7.1809   49.5891   27.8749 H   0  0  0  0  0  0  0  0  0  0  0  0
    4.3600   50.5706   28.6074 H   0  0  0  0  0  0  0  0  0  0  0  0
    4.8134   49.5579   27.1873 H   0  0  0  0  0  0  0  0  0  0  0  0
    5.4549   51.2341   27.3396 H   0  0  0  0  0  0  0  0  0  0  0  0
    8.2199   51.7315   28.1641 H   0  0  0  0  0  0  0  0  0  0  0  0
    6.8309   51.8237   32.9537 H   0  0  0  0  0  0  0  0  0  0  0  0
   10.6968   54.1372   31.4236 H   0  0  0  0  0  0  0  0  0  0  0  0
    9.3808   55.3436   31.0317 H   0  0  0  0  0  0  0  0  0  0  0  0
    9.8298   40.7409   31.7611 H   0  0  0  0  0  0  0  0  0  0  0  0
   11.3966   41.5460   31.4726 H   0  0  0  0  0  0  0  0  0  0  0  0
   11.6975   39.5066   30.3481 H   0  0  0  0  0  0  0  0  0  0  0  0
   10.1076   38.2647   32.6645 H   0  0  0  0  0  0  0  0  0  0  0  0
   13.6621   37.4468   31.2209 H   0  0  0  0  0  0  0  0  0  0  0  0
    8.8974   38.6942   30.8832 H   0  0  0  0  0  0  0  0  0  0  0  0
   11.2806   36.3073   32.5170 H   0  0  0  0  0  0  0  0  0  0  0  0
   10.8492   35.7110   30.4586 H   0  0  0  0  0  0  0  0  0  0  0  0
   12.3291   38.3524   34.7444 H   0  0  0  0  0  0  0  0  0  0  0  0
   16.7559   34.1780   32.4619 H   0  0  0  0  0  0  0  0  0  0  0  0
   16.6344   34.5301   37.1414 H   0  0  0  0  0  0  0  0  0  0  0  0
   15.3532   35.7362   37.5137 H   0  0  0  0  0  0  0  0  0  0  0  0
  1  2  2  0
  1  3  1  0
  3  4  1  0
  4  5  1  0
  6  1  1  0
  7  6  1  0
  6  8  1  0
  8  9  1  0
  9 10  2  0
 11  9  1  0
 10 12  1  0
 13 11  2  0
 12 14  2  0
 14 13  1  0
 14 15  1  0
 15 16  1  0
 16 17  1  0
 16 18  1  0
 18 19  2  0
 20 18  1  0
 19 21  1  0
 22 20  2  0
 20 23  1  0
 21 24  1  0
 21 25  2  0
 25 22  1  0
 23 26  1  0
 23 27  2  0
 24 28  1  0
 25 29  1  0
 28 29  1  0
  4 30  2  0
  4 31  1  0
 32 31  1  0
 32 33  1  0
 33 34  1  0
 33 35  1  0
 34 36  1  0
 35 37  1  0
 35 38  1  0
 38 36  1  0
 36 39  1  0
 38 40  1  0
 41 39  1  0
 42 39  1  0
 43 41  2  0
 41 44  1  0
 45 42  2  0
 46 43  1  0
 44 47  2  0
 44 45  1  0
 48 46  2  0
 48 47  1  0
 47 49  1  0
  6 50  1  1
  7 51  1  0
  7 52  1  0
  8 53  1  0
  8 54  1  0
 10 55  1  0
 11 56  1  0
 12 57  1  0
 13 58  1  0
 16 59  1  6
 17 60  1  0
 17 61  1  0
 17 62  1  0
 19 63  1  0
 22 64  1  0
 28 65  1  0
 28 66  1  0
 32 67  1  0
 32 68  1  0
 33 69  1  0
 35 70  1  0
 36 71  1  0
 37 72  1  0
 38 73  1  0
 40 74  1  0
 42 75  1  0
 46 76  1  0
 49 77  1  0
 49 78  1  0
M  CHG  3   5  -1  23   1  26  -1
M  END
>  <EmbedRMS>  (435) 
0.082782519597

$$$$

     RDKit          3D

 78 83  0  0  0  0  0  0  0  0999 V2000
   10.2840   43.7626   33.8278 C   0  0  0  0  0  0  0  0  0  0  0  0
   11.4105   43.5863   34.3768 O   0  0  0  0  0  0  0  0  0  0  0  0
    9.3631   42.7236   33.7357 O   0  0  0  0  0  0  0  0  0  0  0  0
    9.8895   41.2250   34.2948 P   0  0  0  0  0  0  0  0  0  0  0  0
   10.3720   41.4546   35.8844 O   0  0  0  0  0  0  0  0  0  0  0  0
    9.9549   45.0698   33.2065 C   0  0  1  0  0  0  0  0  0  0  0  0
   11.0199   46.0480   33.4568 N   0  0  0  0  0  0  0  0  0  0  0  0
    9.7502   44.8505   31.6925 C   0  0  0  0  0  0  0  0  0  0  0  0
    8.7942   45.8413   31.0872 C   0  0  0  0  0  0  0  0  0  0  0  0
    7.4082   45.6011   31.1004 C   0  0  0  0  0  0  0  0  0  0  0  0
    9.2821   46.9884   30.4455 C   0  0  0  0  0  0  0  0  0  0  0  0
    6.5298   46.5024   30.4843 C   0  0  0  0  0  0  0  0  0  0  0  0
    8.4026   47.8893   29.8331 C   0  0  0  0  0  0  0  0  0  0  0  0
    7.0136   47.6532   29.8451 C   0  0  0  0  0  0  0  0  0  0  0  0
    6.0700   48.5060   29.2429 O   0  0  0  0  0  0  0  0  0  0  0  0
    6.2998   49.7153   28.5089 C   0  0  1  0  0  0  0  0  0  0  0  0
    6.7297   50.8465   29.4558 C   0  0  0  0  0  0  0  0  0  0  0  0
    7.1781   49.4904   27.2777 C   0  0  0  0  0  0  0  0  0  0  0  0
    8.4463   50.1222   27.1561 C   0  0  0  0  0  0  0  0  0  0  0  0
    6.6934   48.7049   26.1772 C   0  0  0  0  0  0  0  0  0  0  0  0
    9.1817   49.9272   25.9947 C   0  0  0  0  0  0  0  0  0  0  0  0
    7.4820   48.5551   25.0145 C   0  0  0  0  0  0  0  0  0  0  0  0
    5.3902   48.1037   26.1990 N   0  0  0  0  0  0  0  0  0  0  0  0
   10.4293   50.4279   25.6752 O   0  0  0  0  0  0  0  0  0  0  0  0
    8.7209   49.1763   24.9701 C   0  0  0  0  0  0  0  0  0  0  0  0
    5.0662   47.1906   27.1737 O   0  0  0  0  0  0  0  0  0  0  0  0
    4.6453   48.2088   25.2030 O   0  0  0  0  0  0  0  0  0  0  0  0
   10.7726   49.9572   24.3648 C   0  0  0  0  0  0  0  0  0  0  0  0
    9.6532   49.1624   23.9505 O   0  0  0  0  0  0  0  0  0  0  0  0
    8.8117   40.1832   34.2124 O   0  0  0  0  0  0  0  0  0  0  0  0
   11.2411   40.7939   33.3710 O   0  0  0  0  0  0  0  0  0  0  0  0
   10.9179   40.6920   31.9986 C   0  0  0  0  0  0  0  0  0  0  0  0
   11.5175   39.3837   31.4423 C   0  0  0  0  0  0  0  0  0  0  0  0
   12.7508   39.0887   32.0752 O   0  0  0  0  0  0  0  0  0  0  0  0
   10.6028   38.1916   31.6658 C   0  0  0  0  0  0  0  0  0  0  0  0
   12.9385   37.6818   32.0277 C   0  0  0  0  0  0  0  0  0  0  0  0
    9.6371   38.0805   30.6470 O   0  0  0  0  0  0  0  0  0  0  0  0
   11.5780   37.0215   31.6934 C   0  0  0  0  0  0  0  0  0  0  0  0
   13.4844   37.2119   33.3241 N   0  0  0  0  0  0  0  0  0  0  0  0
   11.6095   36.3201   30.4678 O   0  0  0  0  0  0  0  0  0  0  0  0
   14.4797   36.3318   33.5730 C   0  0  0  0  0  0  0  0  0  0  0  0
   13.1136   37.6278   34.5691 C   0  0  0  0  0  0  0  0  0  0  0  0
   15.2073   35.6155   32.6742 N   0  0  0  0  0  0  0  0  0  0  0  0
   14.6754   36.2304   34.9184 C   0  0  0  0  0  0  0  0  0  0  0  0
   13.8214   37.0452   35.5784 N   0  0  0  0  0  0  0  0  0  0  0  0
   16.1641   34.7604   33.1549 C   0  0  0  0  0  0  0  0  0  0  0  0
   15.6525   35.3507   35.4132 C   0  0  0  0  0  0  0  0  0  0  0  0
   16.3794   34.6317   34.5043 N   0  0  0  0  0  0  0  0  0  0  0  0
   15.8999   35.1933   36.8091 N   0  0  0  0  0  0  0  0  0  0  0  0
    9.0100   45.4348   33.6671 H   0  0  0  0  0  0  0  0  0  0  0  0
   11.9349   45.6933   33.0925 H   0  0  0  0  0  0  0  0  0  0  0  0
   11.1134   46.1994   34.4881 H   0  0  0  0  0  0  0  0  0  0  0  0
   10.7304   44.8921   31.1676 H   0  0  0  0  0  0  0  0  0  0  0  0
    9.3511   43.8339   31.4764 H   0  0  0  0  0  0  0  0  0  0  0  0
    7.0111   44.7161   31.5820 H   0  0  0  0  0  0  0  0  0  0  0  0
   10.3465   47.1879   30.4177 H   0  0  0  0  0  0  0  0  0  0  0  0
    5.4658   46.3028   30.5006 H   0  0  0  0  0  0  0  0  0  0  0  0
    8.8246   48.7566   29.3604 H   0  0  0  0  0  0  0  0  0  0  0  0
    5.3104   50.0397   28.1192 H   0  0  0  0  0  0  0  0  0  0  0  0
    5.9511   50.9906   30.2347 H   0  0  0  0  0  0  0  0  0  0  0  0
    7.6834   50.6205   29.9712 H   0  0  0  0  0  0  0  0  0  0  0  0
    6.8325   51.7993   28.8938 H   0  0  0  0  0  0  0  0  0  0  0  0
    8.8629   50.7458   27.9339 H   0  0  0  0  0  0  0  0  0  0  0  0
    7.1360   47.9694   24.1723 H   0  0  0  0  0  0  0  0  0  0  0  0
   10.9111   50.8143   23.6729 H   0  0  0  0  0  0  0  0  0  0  0  0
   11.6900   49.3335   24.4088 H   0  0  0  0  0  0  0  0  0  0  0  0
   11.3955   41.5477   31.4751 H   0  0  0  0  0  0  0  0  0  0  0  0
    9.8292   40.7409   31.7624 H   0  0  0  0  0  0  0  0  0  0  0  0
   11.6982   39.5116   30.3500 H   0  0  0  0  0  0  0  0  0  0  0  0
   10.1117   38.2603   32.6660 H   0  0  0  0  0  0  0  0  0  0  0  0
   13.6767   37.4556   31.2266 H   0  0  0  0  0  0  0  0  0  0  0  0
    8.8961   38.6952   30.8871 H   0  0  0  0  0  0  0  0  0  0  0  0
   11.2791   36.3072   32.4922 H   0  0  0  0  0  0  0  0  0  0  0  0
   11.8827   36.9598   29.7588 H   0  0  0  0  0  0  0  0  0  0  0  0
   12.3301   38.3539   34.7446 H   0  0  0  0  0  0  0  0  0  0  0  0
   16.7562   34.1785   32.4621 H   0  0  0  0  0  0  0  0  0  0  0  0
   16.6346   34.5302   37.1416 H   0  0  0  0  0  0  0  0  0  0  0  0
   15.3530   35.7360   37.5140 H   0  0  0  0  0  0  0  0  0  0  0  0
  1  2  2  0
  1  3  1  0
  3  4  1  0
  4  5  1  0
  6  1  1  0
  7  6  1  0
  6  8  1  0
  8  9  1  0
  9 10  2  0
 11  9  1  0
 10 12  1  0
 13 11  2  0
 12 14  2  0
 14 13  1  0
 14 15  1  0
 15 16  1  0
 16 17  1  0
 16 18  1  0
 18 19  2  0
 20 18  1  0
 19 21  1  0
 22 20  2  0
 20 23  1  0
 21 24  1  0
 21 25  2  0
 25 22  1  0
 23 26  1  0
 23 27  2  0
 24 28  1  0
 25 29  1  0
 28 29  1  0
  4 30  2  0
  4 31  1  0
 32 31  1  0
 32 33  1  0
 33 34  1  0
 33 35  1  0
 34 36  1  0
 35 37  1  0
 35 38  1  0
 38 36  1  0
 36 39  1  0
 38 40  1  0
 41 39  1  0
 42 39  1  0
 43 41  2  0
 41 44  1  0
 45 42  2  0
 46 43  1  0
 44 47  2  0
 44 45  1  0
 48 46  2  0
 48 47  1  0
 47 49  1  0
  6 50  1  1
  7 51  1  0
  7 52  1  0
  8 53  1  0
  8 54  1  0
 10 55  1  0
 11 56  1  0
 12 57  1  0
 13 58  1  0
 16 59  1  6
 17 60  1  0
 17 61  1  0
 17 62  1  0
 19 63  1  0
 22 64  1  0
 28 65  1  0
 28 66  1  0
 32 67  1  0
 32 68  1  0
 33 69  1  0
 35 70  1  0
 36 71  1  0
 37 72  1  0
 38 73  1  0
 40 74  1  0
 42 75  1  0
 46 76  1  0
 49 77  1  0
 49 78  1  0
M  CHG  3   5  -1  23   1  26  -1
M  END
>  <EmbedRMS>  (436) 
0.0828652024989

$$$$

     RDKit          3D

 78 83  0  0  0  0  0  0  0  0999 V2000
   10.2839   43.7626   33.8275 C   0  0  0  0  0  0  0  0  0  0  0  0
   11.4103   43.5863   34.3766 O   0  0  0  0  0  0  0  0  0  0  0  0
    9.3631   42.7236   33.7352 O   0  0  0  0  0  0  0  0  0  0  0  0
    9.8898   41.2248   34.2935 P   0  0  0  0  0  0  0  0  0  0  0  0
   10.3734   41.4543   35.8829 O   0  0  0  0  0  0  0  0  0  0  0  0
    9.9549   45.0700   33.2063 C   0  0  1  0  0  0  0  0  0  0  0  0
   11.0198   46.0481   33.4570 N   0  0  0  0  0  0  0  0  0  0  0  0
    9.7506   44.8511   31.6922 C   0  0  0  0  0  0  0  0  0  0  0  0
    8.7944   45.8419   31.0869 C   0  0  0  0  0  0  0  0  0  0  0  0
    7.4076   45.6006   31.1005 C   0  0  0  0  0  0  0  0  0  0  0  0
    9.2826   46.9895   30.4449 C   0  0  0  0  0  0  0  0  0  0  0  0
    6.5259   46.5001   30.4856 C   0  0  0  0  0  0  0  0  0  0  0  0
    8.4008   47.8884   29.8336 C   0  0  0  0  0  0  0  0  0  0  0  0
    7.0194   47.6546   29.8448 C   0  0  0  0  0  0  0  0  0  0  0  0
    6.1826   48.5863   29.2090 O   0  0  0  0  0  0  0  0  0  0  0  0
    4.7616   48.4752   29.0839 C   0  0  1  0  0  0  0  0  0  0  0  0
    4.2139   49.7891   28.5320 C   0  0  0  0  0  0  0  0  0  0  0  0
    4.3800   47.3342   28.1550 C   0  0  0  0  0  0  0  0  0  0  0  0
    5.1801   47.0869   27.0117 C   0  0  0  0  0  0  0  0  0  0  0  0
    3.1823   46.5710   28.3477 C   0  0  0  0  0  0  0  0  0  0  0  0
    4.7832   46.0938   26.1257 C   0  0  0  0  0  0  0  0  0  0  0  0
    2.8206   45.5829   27.4049 C   0  0  0  0  0  0  0  0  0  0  0  0
    2.3194   46.7991   29.4698 N   0  0  0  0  0  0  0  0  0  0  0  0
    5.4054   45.6812   24.9632 O   0  0  0  0  0  0  0  0  0  0  0  0
    3.6534   45.3738   26.3137 C   0  0  0  0  0  0  0  0  0  0  0  0
    2.7893   46.5987   30.7466 O   0  0  0  0  0  0  0  0  0  0  0  0
    1.0887   46.9045   29.2906 O   0  0  0  0  0  0  0  0  0  0  0  0
    4.6151   44.6323   24.3869 C   0  0  0  0  0  0  0  0  0  0  0  0
    3.5055   44.4683   25.2807 O   0  0  0  0  0  0  0  0  0  0  0  0
    8.8114   40.1834   34.2126 O   0  0  0  0  0  0  0  0  0  0  0  0
   11.2401   40.7936   33.3673 O   0  0  0  0  0  0  0  0  0  0  0  0
   10.9134   40.6864   31.9955 C   0  0  0  0  0  0  0  0  0  0  0  0
   11.5166   39.3786   31.4404 C   0  0  0  0  0  0  0  0  0  0  0  0
   12.7486   39.0848   32.0734 O   0  0  0  0  0  0  0  0  0  0  0  0
   10.6039   38.1883   31.6669 C   0  0  0  0  0  0  0  0  0  0  0  0
   12.9329   37.6775   32.0284 C   0  0  0  0  0  0  0  0  0  0  0  0
    9.6373   38.0938   30.6484 O   0  0  0  0  0  0  0  0  0  0  0  0
   11.5737   37.0140   31.7055 C   0  0  0  0  0  0  0  0  0  0  0  0
   13.4853   37.2120   33.3238 N   0  0  0  0  0  0  0  0  0  0  0  0
   11.6210   36.3379   30.4683 O   0  0  0  0  0  0  0  0  0  0  0  0
   14.4804   36.3319   33.5726 C   0  0  0  0  0  0  0  0  0  0  0  0
   13.1140   37.6275   34.5689 C   0  0  0  0  0  0  0  0  0  0  0  0
   15.2076   35.6152   32.6740 N   0  0  0  0  0  0  0  0  0  0  0  0
   14.6761   36.2306   34.9181 C   0  0  0  0  0  0  0  0  0  0  0  0
   13.8218   37.0451   35.5783 N   0  0  0  0  0  0  0  0  0  0  0  0
   16.1642   34.7600   33.1548 C   0  0  0  0  0  0  0  0  0  0  0  0
   15.6528   35.3507   35.4131 C   0  0  0  0  0  0  0  0  0  0  0  0
   16.3795   34.6315   34.5043 N   0  0  0  0  0  0  0  0  0  0  0  0
   15.9001   35.1933   36.8090 N   0  0  0  0  0  0  0  0  0  0  0  0
    9.0099   45.4348   33.6669 H   0  0  0  0  0  0  0  0  0  0  0  0
   11.1132   46.1992   34.4884 H   0  0  0  0  0  0  0  0  0  0  0  0
   11.9349   45.6933   33.0928 H   0  0  0  0  0  0  0  0  0  0  0  0
    9.3518   43.8345   31.4758 H   0  0  0  0  0  0  0  0  0  0  0  0
   10.7309   44.8932   31.1675 H   0  0  0  0  0  0  0  0  0  0  0  0
    7.0124   44.7150   31.5830 H   0  0  0  0  0  0  0  0  0  0  0  0
   10.3466   47.1898   30.4153 H   0  0  0  0  0  0  0  0  0  0  0  0
    5.4684   46.2848   30.5145 H   0  0  0  0  0  0  0  0  0  0  0  0
    8.7936   48.7699   29.3428 H   0  0  0  0  0  0  0  0  0  0  0  0
    4.3335   48.3437   30.0966 H   0  0  0  0  0  0  0  0  0  0  0  0
    3.1068   49.7403   28.4505 H   0  0  0  0  0  0  0  0  0  0  0  0
    4.6437   50.0002   27.5292 H   0  0  0  0  0  0  0  0  0  0  0  0
    4.4801   50.6236   29.2151 H   0  0  0  0  0  0  0  0  0  0  0  0
    6.0773   47.6586   26.8116 H   0  0  0  0  0  0  0  0  0  0  0  0
    1.9212   44.9928   27.5263 H   0  0  0  0  0  0  0  0  0  0  0  0
    5.2047   43.6932   24.3319 H   0  0  0  0  0  0  0  0  0  0  0  0
    4.2552   44.9314   23.3802 H   0  0  0  0  0  0  0  0  0  0  0  0
    9.8226   40.7226   31.7628 H   0  0  0  0  0  0  0  0  0  0  0  0
   11.3831   41.5437   31.4675 H   0  0  0  0  0  0  0  0  0  0  0  0
   11.6978   39.5037   30.3478 H   0  0  0  0  0  0  0  0  0  0  0  0
   10.1084   38.2785   32.6626 H   0  0  0  0  0  0  0  0  0  0  0  0
   13.6638   37.4471   31.2214 H   0  0  0  0  0  0  0  0  0  0  0  0
    8.9762   37.4190   30.9532 H   0  0  0  0  0  0  0  0  0  0  0  0
   11.2821   36.3053   32.5171 H   0  0  0  0  0  0  0  0  0  0  0  0
   10.8658   35.6935   30.4652 H   0  0  0  0  0  0  0  0  0  0  0  0
   12.3293   38.3522   34.7444 H   0  0  0  0  0  0  0  0  0  0  0  0
   16.7561   34.1778   32.4621 H   0  0  0  0  0  0  0  0  0  0  0  0
   15.3533   35.7361   37.5138 H   0  0  0  0  0  0  0  0  0  0  0  0
   16.6346   34.5300   37.1416 H   0  0  0  0  0  0  0  0  0  0  0  0
  1  2  2  0
  1  3  1  0
  3  4  1  0
  4  5  1  0
  6  1  1  0
  7  6  1  0
  6  8  1  0
  8  9  1  0
  9 10  2  0
 11  9  1  0
 10 12  1  0
 13 11  2  0
 12 14  2  0
 14 13  1  0
 14 15  1  0
 15 16  1  0
 16 17  1  0
 16 18  1  0
 18 19  2  0
 20 18  1  0
 19 21  1  0
 22 20  2  0
 20 23  1  0
 21 24  1  0
 21 25  2  0
 25 22  1  0
 23 26  1  0
 23 27  2  0
 24 28  1  0
 25 29  1  0
 28 29  1  0
  4 30  2  0
  4 31  1  0
 32 31  1  0
 32 33  1  0
 33 34  1  0
 33 35  1  0
 34 36  1  0
 35 37  1  0
 35 38  1  0
 38 36  1  0
 36 39  1  0
 38 40  1  0
 41 39  1  0
 42 39  1  0
 43 41  2  0
 41 44  1  0
 45 42  2  0
 46 43  1  0
 44 47  2  0
 44 45  1  0
 48 46  2  0
 48 47  1  0
 47 49  1  0
  6 50  1  1
  7 51  1  0
  7 52  1  0
  8 53  1  0
  8 54  1  0
 10 55  1  0
 11 56  1  0
 12 57  1  0
 13 58  1  0
 16 59  1  1
 17 60  1  0
 17 61  1  0
 17 62  1  0
 19 63  1  0
 22 64  1  0
 28 65  1  0
 28 66  1  0
 32 67  1  0
 32 68  1  0
 33 69  1  0
 35 70  1  0
 36 71  1  0
 37 72  1  0
 38 73  1  0
 40 74  1  0
 42 75  1  0
 46 76  1  0
 49 77  1  0
 49 78  1  0
M  CHG  3   5  -1  23   1  26  -1
M  END
>  <EmbedRMS>  (437) 
0.0834453036054

$$$$
