
     RDKit          3D

 75 80  0  0  0  0  0  0  0  0999 V2000
   10.2834   43.7662   33.8258 C   0  0  0  0  0  0  0  0  0  0  0  0
   11.4102   43.5930   34.3752 O   0  0  0  0  0  0  0  0  0  0  0  0
    9.3635   42.7257   33.7353 O   0  0  0  0  0  0  0  0  0  0  0  0
    9.8902   41.2268   34.2942 P   0  0  0  0  0  0  0  0  0  0  0  0
   10.3739   41.4559   35.8835 O   0  0  0  0  0  0  0  0  0  0  0  0
    9.9546   45.0695   33.2036 C   0  0  1  0  0  0  0  0  0  0  0  0
   11.0274   46.0322   33.4757 N   0  0  0  0  0  0  0  0  0  0  0  0
    9.7466   44.8481   31.6877 C   0  0  0  0  0  0  0  0  0  0  0  0
    8.7923   45.8409   31.0844 C   0  0  0  0  0  0  0  0  0  0  0  0
    7.4054   45.6015   31.0991 C   0  0  0  0  0  0  0  0  0  0  0  0
    9.2824   46.9879   30.4422 C   0  0  0  0  0  0  0  0  0  0  0  0
    6.5264   46.5031   30.4839 C   0  0  0  0  0  0  0  0  0  0  0  0
    8.4032   47.8901   29.8315 C   0  0  0  0  0  0  0  0  0  0  0  0
    7.0143   47.6526   29.8475 C   0  0  0  0  0  0  0  0  0  0  0  0
    6.0934   48.5248   29.2492 O   0  0  0  0  0  0  0  0  0  0  0  0
    6.4442   49.7327   28.5793 C   0  0  0  0  0  0  0  0  0  0  0  0
    5.1933   50.4153   28.0917 C   0  0  0  0  0  0  0  0  0  0  0  0
    4.8428   50.2764   26.7281 C   0  0  0  0  0  0  0  0  0  0  0  0
    4.3713   51.2143   28.9566 C   0  0  0  0  0  0  0  0  0  0  0  0
    3.7144   50.9391   26.2639 C   0  0  0  0  0  0  0  0  0  0  0  0
    3.2415   51.8758   28.4206 C   0  0  0  0  0  0  0  0  0  0  0  0
    4.6691   51.3824   30.3554 N   0  0  0  0  0  0  0  0  0  0  0  0
    3.1901   50.9508   24.9856 O   0  0  0  0  0  0  0  0  0  0  0  0
    2.9495   51.7069   27.0734 C   0  0  0  0  0  0  0  0  0  0  0  0
    4.2664   52.5239   31.0099 O   0  0  0  0  0  0  0  0  0  0  0  0
    5.1410   50.4432   31.0277 O   0  0  0  0  0  0  0  0  0  0  0  0
    2.0199   51.7799   24.9952 C   0  0  0  0  0  0  0  0  0  0  0  0
    1.9028   52.2424   26.3477 O   0  0  0  0  0  0  0  0  0  0  0  0
    8.8121   40.1851   34.2131 O   0  0  0  0  0  0  0  0  0  0  0  0
   11.2402   40.7951   33.3682 O   0  0  0  0  0  0  0  0  0  0  0  0
   10.9126   40.6877   31.9969 C   0  0  0  0  0  0  0  0  0  0  0  0
   11.5169   39.3811   31.4420 C   0  0  0  0  0  0  0  0  0  0  0  0
   12.7500   39.0881   32.0759 O   0  0  0  0  0  0  0  0  0  0  0  0
   10.6043   38.1893   31.6659 C   0  0  0  0  0  0  0  0  0  0  0  0
   12.9395   37.6813   32.0280 C   0  0  0  0  0  0  0  0  0  0  0  0
    9.6353   38.0951   30.6499 O   0  0  0  0  0  0  0  0  0  0  0  0
   11.5804   37.0191   31.6934 C   0  0  0  0  0  0  0  0  0  0  0  0
   13.4851   37.2119   33.3244 N   0  0  0  0  0  0  0  0  0  0  0  0
   11.6118   36.3189   30.4673 O   0  0  0  0  0  0  0  0  0  0  0  0
   14.4801   36.3316   33.5732 C   0  0  0  0  0  0  0  0  0  0  0  0
   13.1139   37.6277   34.5692 C   0  0  0  0  0  0  0  0  0  0  0  0
   15.2076   35.6154   32.6744 N   0  0  0  0  0  0  0  0  0  0  0  0
   14.6756   36.2303   34.9186 C   0  0  0  0  0  0  0  0  0  0  0  0
   13.8215   37.0451   35.5786 N   0  0  0  0  0  0  0  0  0  0  0  0
   16.1642   34.7602   33.1551 C   0  0  0  0  0  0  0  0  0  0  0  0
   15.6526   35.3505   35.4134 C   0  0  0  0  0  0  0  0  0  0  0  0
   16.3796   34.6316   34.5045 N   0  0  0  0  0  0  0  0  0  0  0  0
   15.9001   35.1933   36.8093 N   0  0  0  0  0  0  0  0  0  0  0  0
    9.0121   45.4319   33.6715 H   0  0  0  0  0  0  0  0  0  0  0  0
   11.8906   45.7658   32.9470 H   0  0  0  0  0  0  0  0  0  0  0  0
   10.7260   46.9688   33.1213 H   0  0  0  0  0  0  0  0  0  0  0  0
   10.7229   44.8814   31.1557 H   0  0  0  0  0  0  0  0  0  0  0  0
    9.3414   43.8330   31.4764 H   0  0  0  0  0  0  0  0  0  0  0  0
    7.0082   44.7168   31.5813 H   0  0  0  0  0  0  0  0  0  0  0  0
   10.3471   47.1848   30.4114 H   0  0  0  0  0  0  0  0  0  0  0  0
    5.4617   46.3074   30.5022 H   0  0  0  0  0  0  0  0  0  0  0  0
    8.8143   48.7651   29.3470 H   0  0  0  0  0  0  0  0  0  0  0  0
    7.0054   50.4093   29.2590 H   0  0  0  0  0  0  0  0  0  0  0  0
    7.1123   49.4918   27.7233 H   0  0  0  0  0  0  0  0  0  0  0  0
    5.4346   49.6763   26.0483 H   0  0  0  0  0  0  0  0  0  0  0  0
    2.5998   52.4901   29.0388 H   0  0  0  0  0  0  0  0  0  0  0  0
    1.1254   51.1850   24.7149 H   0  0  0  0  0  0  0  0  0  0  0  0
    2.1530   52.6401   24.3062 H   0  0  0  0  0  0  0  0  0  0  0  0
   11.3809   41.5456   31.4686 H   0  0  0  0  0  0  0  0  0  0  0  0
    9.8216   40.7222   31.7647 H   0  0  0  0  0  0  0  0  0  0  0  0
   11.6986   39.5089   30.3499 H   0  0  0  0  0  0  0  0  0  0  0  0
   10.1109   38.2737   32.6630 H   0  0  0  0  0  0  0  0  0  0  0  0
   13.6783   37.4561   31.2271 H   0  0  0  0  0  0  0  0  0  0  0  0
    9.0020   37.3860   30.9348 H   0  0  0  0  0  0  0  0  0  0  0  0
   11.2807   36.3053   32.4921 H   0  0  0  0  0  0  0  0  0  0  0  0
   11.8819   36.9599   29.7584 H   0  0  0  0  0  0  0  0  0  0  0  0
   12.3303   38.3538   34.7445 H   0  0  0  0  0  0  0  0  0  0  0  0
   16.7564   34.1783   32.4623 H   0  0  0  0  0  0  0  0  0  0  0  0
   15.3532   35.7359   37.5142 H   0  0  0  0  0  0  0  0  0  0  0  0
   16.6348   34.5301   37.1418 H   0  0  0  0  0  0  0  0  0  0  0  0
  1  2  2  0
  1  3  1  0
  3  4  1  0
  4  5  1  0
  6  1  1  0
  7  6  1  0
  6  8  1  0
  8  9  1  0
  9 10  2  0
 11  9  1  0
 10 12  1  0
 13 11  2  0
 12 14  2  0
 14 13  1  0
 14 15  1  0
 15 16  1  0
 16 17  1  0
 17 18  2  0
 19 17  1  0
 18 20  1  0
 21 19  2  0
 19 22  1  0
 20 23  1  0
 20 24  2  0
 24 21  1  0
 22 25  1  0
 22 26  2  0
 23 27  1  0
 24 28  1  0
 27 28  1  0
  4 29  2  0
  4 30  1  0
 31 30  1  0
 31 32  1  0
 32 33  1  0
 32 34  1  0
 33 35  1  0
 34 36  1  0
 34 37  1  0
 37 35  1  0
 35 38  1  0
 37 39  1  0
 40 38  1  0
 41 38  1  0
 42 40  2  0
 40 43  1  0
 44 41  2  0
 45 42  1  0
 43 46  2  0
 43 44  1  0
 47 45  2  0
 47 46  1  0
 46 48  1  0
  6 49  1  1
  7 50  1  0
  7 51  1  0
  8 52  1  0
  8 53  1  0
 10 54  1  0
 11 55  1  0
 12 56  1  0
 13 57  1  0
 16 58  1  0
 16 59  1  0
 18 60  1  0
 21 61  1  0
 27 62  1  0
 27 63  1  0
 31 64  1  0
 31 65  1  0
 32 66  1  0
 34 67  1  0
 35 68  1  0
 36 69  1  0
 37 70  1  0
 39 71  1  0
 41 72  1  0
 45 73  1  0
 48 74  1  0
 48 75  1  0
M  CHG  3   5  -1  22   1  25  -1
M  END
>  <EmbedRMS>  (1) 
0.0815667136891

$$$$

     RDKit          3D

 75 80  0  0  0  0  0  0  0  0999 V2000
   10.2839   43.7627   33.8277 C   0  0  0  0  0  0  0  0  0  0  0  0
   11.4104   43.5863   34.3766 O   0  0  0  0  0  0  0  0  0  0  0  0
    9.3631   42.7236   33.7354 O   0  0  0  0  0  0  0  0  0  0  0  0
    9.8895   41.2249   34.2944 P   0  0  0  0  0  0  0  0  0  0  0  0
   10.3726   41.4547   35.8839 O   0  0  0  0  0  0  0  0  0  0  0  0
    9.9548   45.0700   33.2066 C   0  0  1  0  0  0  0  0  0  0  0  0
   11.0198   46.0481   33.4570 N   0  0  0  0  0  0  0  0  0  0  0  0
    9.7502   44.8511   31.6925 C   0  0  0  0  0  0  0  0  0  0  0  0
    8.7943   45.8421   31.0872 C   0  0  0  0  0  0  0  0  0  0  0  0
    7.4076   45.6009   31.0999 C   0  0  0  0  0  0  0  0  0  0  0  0
    9.2832   46.9891   30.4443 C   0  0  0  0  0  0  0  0  0  0  0  0
    6.5279   46.5014   30.4839 C   0  0  0  0  0  0  0  0  0  0  0  0
    8.4035   47.8894   29.8314 C   0  0  0  0  0  0  0  0  0  0  0  0
    7.0142   47.6526   29.8491 C   0  0  0  0  0  0  0  0  0  0  0  0
    6.0883   48.5252   29.2545 O   0  0  0  0  0  0  0  0  0  0  0  0
    6.4096   49.7809   28.6541 C   0  0  0  0  0  0  0  0  0  0  0  0
    6.8314   50.7863   29.7026 C   0  0  0  0  0  0  0  0  0  0  0  0
    6.0448   50.9004   30.8731 C   0  0  0  0  0  0  0  0  0  0  0  0
    8.0108   51.5897   29.5661 C   0  0  0  0  0  0  0  0  0  0  0  0
    6.4748   51.7565   31.8787 C   0  0  0  0  0  0  0  0  0  0  0  0
    8.4088   52.4302   30.6299 C   0  0  0  0  0  0  0  0  0  0  0  0
    8.7930   51.5853   28.3627 N   0  0  0  0  0  0  0  0  0  0  0  0
    5.8832   52.0120   33.1008 O   0  0  0  0  0  0  0  0  0  0  0  0
    7.6100   52.4841   31.7649 C   0  0  0  0  0  0  0  0  0  0  0  0
   10.1609   51.7110   28.4368 O   0  0  0  0  0  0  0  0  0  0  0  0
    8.2356   51.7159   27.2536 O   0  0  0  0  0  0  0  0  0  0  0  0
    6.7006   52.9623   33.7976 C   0  0  0  0  0  0  0  0  0  0  0  0
    7.7921   53.2371   32.9087 O   0  0  0  0  0  0  0  0  0  0  0  0
    8.8115   40.1833   34.2129 O   0  0  0  0  0  0  0  0  0  0  0  0
   11.2402   40.7930   33.3696 O   0  0  0  0  0  0  0  0  0  0  0  0
   10.9152   40.6903   31.9974 C   0  0  0  0  0  0  0  0  0  0  0  0
   11.5253   39.3886   31.4374 C   0  0  0  0  0  0  0  0  0  0  0  0
   12.7501   39.0873   32.0797 O   0  0  0  0  0  0  0  0  0  0  0  0
   10.6093   38.1925   31.6468 C   0  0  0  0  0  0  0  0  0  0  0  0
   12.9333   37.6792   32.0294 C   0  0  0  0  0  0  0  0  0  0  0  0
    9.6123   38.0893   30.6541 O   0  0  0  0  0  0  0  0  0  0  0  0
   11.5744   37.0144   31.7023 C   0  0  0  0  0  0  0  0  0  0  0  0
   13.4844   37.2108   33.3241 N   0  0  0  0  0  0  0  0  0  0  0  0
   11.6299   36.3237   30.4740 O   0  0  0  0  0  0  0  0  0  0  0  0
   14.4801   36.3313   33.5727 C   0  0  0  0  0  0  0  0  0  0  0  0
   13.1137   37.6266   34.5693 C   0  0  0  0  0  0  0  0  0  0  0  0
   15.2074   35.6150   32.6740 N   0  0  0  0  0  0  0  0  0  0  0  0
   14.6760   36.2302   34.9182 C   0  0  0  0  0  0  0  0  0  0  0  0
   13.8219   37.0447   35.5785 N   0  0  0  0  0  0  0  0  0  0  0  0
   16.1642   34.7600   33.1547 C   0  0  0  0  0  0  0  0  0  0  0  0
   15.6529   35.3505   35.4131 C   0  0  0  0  0  0  0  0  0  0  0  0
   16.3796   34.6314   34.5042 N   0  0  0  0  0  0  0  0  0  0  0  0
   15.9003   35.1933   36.8090 N   0  0  0  0  0  0  0  0  0  0  0  0
    9.0100   45.4350   33.6675 H   0  0  0  0  0  0  0  0  0  0  0  0
   11.9349   45.6932   33.0927 H   0  0  0  0  0  0  0  0  0  0  0  0
   11.1135   46.1991   34.4883 H   0  0  0  0  0  0  0  0  0  0  0  0
    9.3510   43.8346   31.4763 H   0  0  0  0  0  0  0  0  0  0  0  0
   10.7305   44.8927   31.1676 H   0  0  0  0  0  0  0  0  0  0  0  0
    7.0112   44.7157   31.5819 H   0  0  0  0  0  0  0  0  0  0  0  0
   10.3476   47.1874   30.4142 H   0  0  0  0  0  0  0  0  0  0  0  0
    5.4636   46.3045   30.5027 H   0  0  0  0  0  0  0  0  0  0  0  0
    8.8168   48.7600   29.3431 H   0  0  0  0  0  0  0  0  0  0  0  0
    5.4990   50.1678   28.1508 H   0  0  0  0  0  0  0  0  0  0  0  0
    7.1762   49.6172   27.8712 H   0  0  0  0  0  0  0  0  0  0  0  0
    5.1396   50.3210   31.0048 H   0  0  0  0  0  0  0  0  0  0  0  0
    9.2976   53.0440   30.5611 H   0  0  0  0  0  0  0  0  0  0  0  0
    6.1254   53.8908   33.9964 H   0  0  0  0  0  0  0  0  0  0  0  0
    7.0788   52.5223   34.7441 H   0  0  0  0  0  0  0  0  0  0  0  0
   11.3805   41.5529   31.4741 H   0  0  0  0  0  0  0  0  0  0  0  0
    9.8244   40.7217   31.7637 H   0  0  0  0  0  0  0  0  0  0  0  0
   11.7267   39.5312   30.3511 H   0  0  0  0  0  0  0  0  0  0  0  0
   10.1112   38.2748   32.6386 H   0  0  0  0  0  0  0  0  0  0  0  0
   13.6654   37.4516   31.2227 H   0  0  0  0  0  0  0  0  0  0  0  0
   10.0513   38.1143   29.7644 H   0  0  0  0  0  0  0  0  0  0  0  0
   11.2764   36.3141   32.5189 H   0  0  0  0  0  0  0  0  0  0  0  0
   10.8594   35.6976   30.4639 H   0  0  0  0  0  0  0  0  0  0  0  0
   12.3294   38.3518   34.7450 H   0  0  0  0  0  0  0  0  0  0  0  0
   16.7563   34.1781   32.4618 H   0  0  0  0  0  0  0  0  0  0  0  0
   15.3533   35.7358   37.5138 H   0  0  0  0  0  0  0  0  0  0  0  0
   16.6347   34.5299   37.1417 H   0  0  0  0  0  0  0  0  0  0  0  0
  1  2  2  0
  1  3  1  0
  3  4  1  0
  4  5  1  0
  6  1  1  0
  7  6  1  0
  6  8  1  0
  8  9  1  0
  9 10  2  0
 11  9  1  0
 10 12  1  0
 13 11  2  0
 12 14  2  0
 14 13  1  0
 14 15  1  0
 15 16  1  0
 16 17  1  0
 17 18  2  0
 19 17  1  0
 18 20  1  0
 21 19  2  0
 19 22  1  0
 20 23  1  0
 20 24  2  0
 24 21  1  0
 22 25  1  0
 22 26  2  0
 23 27  1  0
 24 28  1  0
 27 28  1  0
  4 29  2  0
  4 30  1  0
 31 30  1  0
 31 32  1  0
 32 33  1  0
 32 34  1  0
 33 35  1  0
 34 36  1  0
 34 37  1  0
 37 35  1  0
 35 38  1  0
 37 39  1  0
 40 38  1  0
 41 38  1  0
 42 40  2  0
 40 43  1  0
 44 41  2  0
 45 42  1  0
 43 46  2  0
 43 44  1  0
 47 45  2  0
 47 46  1  0
 46 48  1  0
  6 49  1  1
  7 50  1  0
  7 51  1  0
  8 52  1  0
  8 53  1  0
 10 54  1  0
 11 55  1  0
 12 56  1  0
 13 57  1  0
 16 58  1  0
 16 59  1  0
 18 60  1  0
 21 61  1  0
 27 62  1  0
 27 63  1  0
 31 64  1  0
 31 65  1  0
 32 66  1  0
 34 67  1  0
 35 68  1  0
 36 69  1  0
 37 70  1  0
 39 71  1  0
 41 72  1  0
 45 73  1  0
 48 74  1  0
 48 75  1  0
M  CHG  3   5  -1  22   1  25  -1
M  END
>  <EmbedRMS>  (2) 
0.0827308325556

$$$$

     RDKit          3D

 75 80  0  0  0  0  0  0  0  0999 V2000
   10.2804   43.7665   33.8250 C   0  0  0  0  0  0  0  0  0  0  0  0
   11.4111   43.5919   34.3667 O   0  0  0  0  0  0  0  0  0  0  0  0
    9.3619   42.7250   33.7347 O   0  0  0  0  0  0  0  0  0  0  0  0
    9.8900   41.2267   34.2944 P   0  0  0  0  0  0  0  0  0  0  0  0
   10.3728   41.4567   35.8838 O   0  0  0  0  0  0  0  0  0  0  0  0
    9.9459   45.0737   33.2113 C   0  0  1  0  0  0  0  0  0  0  0  0
   11.0265   46.0293   33.4709 N   0  0  0  0  0  0  0  0  0  0  0  0
    9.7540   44.8542   31.6949 C   0  0  0  0  0  0  0  0  0  0  0  0
    8.7957   45.8412   31.0849 C   0  0  0  0  0  0  0  0  0  0  0  0
    7.4090   45.5997   31.1008 C   0  0  0  0  0  0  0  0  0  0  0  0
    9.2824   46.9876   30.4390 C   0  0  0  0  0  0  0  0  0  0  0  0
    6.5261   46.4983   30.4857 C   0  0  0  0  0  0  0  0  0  0  0  0
    8.3998   47.8870   29.8302 C   0  0  0  0  0  0  0  0  0  0  0  0
    7.0182   47.6557   29.8483 C   0  0  0  0  0  0  0  0  0  0  0  0
    6.1783   48.5941   29.2267 O   0  0  0  0  0  0  0  0  0  0  0  0
    4.7502   48.5596   29.2461 C   0  0  0  0  0  0  0  0  0  0  0  0
    4.2240   48.8521   30.6335 C   0  0  0  0  0  0  0  0  0  0  0  0
    4.7767   49.9450   31.3418 C   0  0  0  0  0  0  0  0  0  0  0  0
    3.2247   48.0394   31.2608 C   0  0  0  0  0  0  0  0  0  0  0  0
    4.3643   50.1624   32.6501 C   0  0  0  0  0  0  0  0  0  0  0  0
    2.8554   48.2984   32.6009 C   0  0  0  0  0  0  0  0  0  0  0  0
    2.5625   46.9821   30.5505 N   0  0  0  0  0  0  0  0  0  0  0  0
    4.7764   51.1459   33.5286 O   0  0  0  0  0  0  0  0  0  0  0  0
    3.4492   49.3701   33.2552 C   0  0  0  0  0  0  0  0  0  0  0  0
    2.0365   47.2177   29.3012 O   0  0  0  0  0  0  0  0  0  0  0  0
    2.2571   45.9273   31.1441 O   0  0  0  0  0  0  0  0  0  0  0  0
    4.0733   50.9578   34.7645 C   0  0  0  0  0  0  0  0  0  0  0  0
    3.2362   49.8139   34.5461 O   0  0  0  0  0  0  0  0  0  0  0  0
    8.8127   40.1842   34.2128 O   0  0  0  0  0  0  0  0  0  0  0  0
   11.2414   40.7950   33.3705 O   0  0  0  0  0  0  0  0  0  0  0  0
   10.9178   40.6922   31.9983 C   0  0  0  0  0  0  0  0  0  0  0  0
   11.5175   39.3837   31.4423 C   0  0  0  0  0  0  0  0  0  0  0  0
   12.7507   39.0887   32.0753 O   0  0  0  0  0  0  0  0  0  0  0  0
   10.6027   38.1916   31.6659 C   0  0  0  0  0  0  0  0  0  0  0  0
   12.9384   37.6819   32.0278 C   0  0  0  0  0  0  0  0  0  0  0  0
    9.6371   38.0805   30.6470 O   0  0  0  0  0  0  0  0  0  0  0  0
   11.5780   37.0215   31.6935 C   0  0  0  0  0  0  0  0  0  0  0  0
   13.4844   37.2119   33.3242 N   0  0  0  0  0  0  0  0  0  0  0  0
   11.6095   36.3201   30.4679 O   0  0  0  0  0  0  0  0  0  0  0  0
   14.4797   36.3318   33.5730 C   0  0  0  0  0  0  0  0  0  0  0  0
   13.1136   37.6278   34.5691 C   0  0  0  0  0  0  0  0  0  0  0  0
   15.2073   35.6155   32.6742 N   0  0  0  0  0  0  0  0  0  0  0  0
   14.6754   36.2305   34.9184 C   0  0  0  0  0  0  0  0  0  0  0  0
   13.8213   37.0452   35.5785 N   0  0  0  0  0  0  0  0  0  0  0  0
   16.1640   34.7604   33.1549 C   0  0  0  0  0  0  0  0  0  0  0  0
   15.6525   35.3507   35.4132 C   0  0  0  0  0  0  0  0  0  0  0  0
   16.3794   34.6318   34.5044 N   0  0  0  0  0  0  0  0  0  0  0  0
   15.8999   35.1934   36.8091 N   0  0  0  0  0  0  0  0  0  0  0  0
    8.9994   45.4382   33.6722 H   0  0  0  0  0  0  0  0  0  0  0  0
   10.7763   46.9370   33.0160 H   0  0  0  0  0  0  0  0  0  0  0  0
   11.0500   46.2278   34.4983 H   0  0  0  0  0  0  0  0  0  0  0  0
   10.7412   44.9080   31.1837 H   0  0  0  0  0  0  0  0  0  0  0  0
    9.3646   43.8355   31.4711 H   0  0  0  0  0  0  0  0  0  0  0  0
    7.0149   44.7141   31.5842 H   0  0  0  0  0  0  0  0  0  0  0  0
   10.3463   47.1873   30.4045 H   0  0  0  0  0  0  0  0  0  0  0  0
    5.4686   46.2791   30.5112 H   0  0  0  0  0  0  0  0  0  0  0  0
    8.7917   48.7696   29.3407 H   0  0  0  0  0  0  0  0  0  0  0  0
    4.4102   47.5833   28.8476 H   0  0  0  0  0  0  0  0  0  0  0  0
    4.3746   49.3473   28.5603 H   0  0  0  0  0  0  0  0  0  0  0  0
    5.5235   50.5891   30.8945 H   0  0  0  0  0  0  0  0  0  0  0  0
    2.1081   47.6998   33.1057 H   0  0  0  0  0  0  0  0  0  0  0  0
    4.7906   50.7562   35.5875 H   0  0  0  0  0  0  0  0  0  0  0  0
    3.4521   51.8492   34.9924 H   0  0  0  0  0  0  0  0  0  0  0  0
   11.3950   41.5477   31.4741 H   0  0  0  0  0  0  0  0  0  0  0  0
    9.8290   40.7408   31.7625 H   0  0  0  0  0  0  0  0  0  0  0  0
   11.6982   39.5114   30.3500 H   0  0  0  0  0  0  0  0  0  0  0  0
   10.1117   38.2604   32.6661 H   0  0  0  0  0  0  0  0  0  0  0  0
   13.6767   37.4557   31.2267 H   0  0  0  0  0  0  0  0  0  0  0  0
    8.8960   38.6950   30.8873 H   0  0  0  0  0  0  0  0  0  0  0  0
   11.2791   36.3072   32.4922 H   0  0  0  0  0  0  0  0  0  0  0  0
   11.8828   36.9598   29.7589 H   0  0  0  0  0  0  0  0  0  0  0  0
   12.3300   38.3539   34.7446 H   0  0  0  0  0  0  0  0  0  0  0  0
   16.7561   34.1785   32.4622 H   0  0  0  0  0  0  0  0  0  0  0  0
   15.3531   35.7360   37.5140 H   0  0  0  0  0  0  0  0  0  0  0  0
   16.6347   34.5303   37.1416 H   0  0  0  0  0  0  0  0  0  0  0  0
  1  2  2  0
  1  3  1  0
  3  4  1  0
  4  5  1  0
  6  1  1  0
  7  6  1  0
  6  8  1  0
  8  9  1  0
  9 10  2  0
 11  9  1  0
 10 12  1  0
 13 11  2  0
 12 14  2  0
 14 13  1  0
 14 15  1  0
 15 16  1  0
 16 17  1  0
 17 18  2  0
 19 17  1  0
 18 20  1  0
 21 19  2  0
 19 22  1  0
 20 23  1  0
 20 24  2  0
 24 21  1  0
 22 25  1  0
 22 26  2  0
 23 27  1  0
 24 28  1  0
 27 28  1  0
  4 29  2  0
  4 30  1  0
 31 30  1  0
 31 32  1  0
 32 33  1  0
 32 34  1  0
 33 35  1  0
 34 36  1  0
 34 37  1  0
 37 35  1  0
 35 38  1  0
 37 39  1  0
 40 38  1  0
 41 38  1  0
 42 40  2  0
 40 43  1  0
 44 41  2  0
 45 42  1  0
 43 46  2  0
 43 44  1  0
 47 45  2  0
 47 46  1  0
 46 48  1  0
  6 49  1  1
  7 50  1  0
  7 51  1  0
  8 52  1  0
  8 53  1  0
 10 54  1  0
 11 55  1  0
 12 56  1  0
 13 57  1  0
 16 58  1  0
 16 59  1  0
 18 60  1  0
 21 61  1  0
 27 62  1  0
 27 63  1  0
 31 64  1  0
 31 65  1  0
 32 66  1  0
 34 67  1  0
 35 68  1  0
 36 69  1  0
 37 70  1  0
 39 71  1  0
 41 72  1  0
 45 73  1  0
 48 74  1  0
 48 75  1  0
M  CHG  3   5  -1  22   1  25  -1
M  END
>  <EmbedRMS>  (3) 
0.0817901365102

$$$$

     RDKit          3D

 75 80  0  0  0  0  0  0  0  0999 V2000
   10.2816   43.7667   33.8274 C   0  0  0  0  0  0  0  0  0  0  0  0
   11.4099   43.5915   34.3734 O   0  0  0  0  0  0  0  0  0  0  0  0
    9.3621   42.7265   33.7354 O   0  0  0  0  0  0  0  0  0  0  0  0
    9.8893   41.2279   34.2938 P   0  0  0  0  0  0  0  0  0  0  0  0
   10.3760   41.4577   35.8823 O   0  0  0  0  0  0  0  0  0  0  0  0
    9.9537   45.0695   33.2043 C   0  0  1  0  0  0  0  0  0  0  0  0
   11.0278   46.0302   33.4740 N   0  0  0  0  0  0  0  0  0  0  0  0
    9.7454   44.8472   31.6877 C   0  0  0  0  0  0  0  0  0  0  0  0
    8.7914   45.8399   31.0832 C   0  0  0  0  0  0  0  0  0  0  0  0
    7.4048   45.5974   31.0893 C   0  0  0  0  0  0  0  0  0  0  0  0
    9.2818   46.9914   30.4491 C   0  0  0  0  0  0  0  0  0  0  0  0
    6.5286   46.5000   30.4715 C   0  0  0  0  0  0  0  0  0  0  0  0
    8.4039   47.8973   29.8431 C   0  0  0  0  0  0  0  0  0  0  0  0
    7.0162   47.6595   29.8507 C   0  0  0  0  0  0  0  0  0  0  0  0
    6.0862   48.5429   29.2801 O   0  0  0  0  0  0  0  0  0  0  0  0
    6.3587   49.8589   28.7946 C   0  0  0  0  0  0  0  0  0  0  0  0
    7.0181   49.8483   27.4295 C   0  0  0  0  0  0  0  0  0  0  0  0
    8.3111   50.4181   27.3149 C   0  0  0  0  0  0  0  0  0  0  0  0
    6.3355   49.4109   26.2389 C   0  0  0  0  0  0  0  0  0  0  0  0
    8.8924   50.5067   26.0569 C   0  0  0  0  0  0  0  0  0  0  0  0
    6.9766   49.5437   24.9825 C   0  0  0  0  0  0  0  0  0  0  0  0
    4.9947   48.8855   26.2728 N   0  0  0  0  0  0  0  0  0  0  0  0
   10.1329   51.0166   25.7219 O   0  0  0  0  0  0  0  0  0  0  0  0
    8.2539   50.0906   24.9397 C   0  0  0  0  0  0  0  0  0  0  0  0
    4.1705   49.0306   25.1786 O   0  0  0  0  0  0  0  0  0  0  0  0
    4.6412   48.0952   27.1718 O   0  0  0  0  0  0  0  0  0  0  0  0
   10.2816   50.9143   24.2977 C   0  0  0  0  0  0  0  0  0  0  0  0
    9.0608   50.3145   23.8370 O   0  0  0  0  0  0  0  0  0  0  0  0
    8.8095   40.1879   34.2133 O   0  0  0  0  0  0  0  0  0  0  0  0
   11.2384   40.7952   33.3665 O   0  0  0  0  0  0  0  0  0  0  0  0
   10.9087   40.6860   31.9957 C   0  0  0  0  0  0  0  0  0  0  0  0
   11.5156   39.3804   31.4411 C   0  0  0  0  0  0  0  0  0  0  0  0
   12.7505   39.0889   32.0732 O   0  0  0  0  0  0  0  0  0  0  0  0
   10.6041   38.1879   31.6681 C   0  0  0  0  0  0  0  0  0  0  0  0
   12.9400   37.6814   32.0280 C   0  0  0  0  0  0  0  0  0  0  0  0
    9.6326   38.0937   30.6541 O   0  0  0  0  0  0  0  0  0  0  0  0
   11.5809   37.0177   31.6954 C   0  0  0  0  0  0  0  0  0  0  0  0
   13.4873   37.2129   33.3242 N   0  0  0  0  0  0  0  0  0  0  0  0
   11.6107   36.3163   30.4697 O   0  0  0  0  0  0  0  0  0  0  0  0
   14.4827   36.3327   33.5732 C   0  0  0  0  0  0  0  0  0  0  0  0
   13.1144   37.6272   34.5689 C   0  0  0  0  0  0  0  0  0  0  0  0
   15.2079   35.6138   32.6747 N   0  0  0  0  0  0  0  0  0  0  0  0
   14.6775   36.2305   34.9187 C   0  0  0  0  0  0  0  0  0  0  0  0
   13.8214   37.0437   35.5784 N   0  0  0  0  0  0  0  0  0  0  0  0
   16.1635   34.7576   33.1554 C   0  0  0  0  0  0  0  0  0  0  0  0
   15.6548   35.3509   35.4134 C   0  0  0  0  0  0  0  0  0  0  0  0
   16.3812   34.6315   34.5045 N   0  0  0  0  0  0  0  0  0  0  0  0
   15.9028   35.1932   36.8090 N   0  0  0  0  0  0  0  0  0  0  0  0
    9.0134   45.4351   33.6731 H   0  0  0  0  0  0  0  0  0  0  0  0
   10.7248   46.9660   33.1192 H   0  0  0  0  0  0  0  0  0  0  0  0
   11.8858   45.7610   32.9384 H   0  0  0  0  0  0  0  0  0  0  0  0
    9.3388   43.8325   31.4748 H   0  0  0  0  0  0  0  0  0  0  0  0
   10.7233   44.8798   31.1571 H   0  0  0  0  0  0  0  0  0  0  0  0
    7.0040   44.7109   31.5669 H   0  0  0  0  0  0  0  0  0  0  0  0
   10.3457   47.1940   30.4246 H   0  0  0  0  0  0  0  0  0  0  0  0
    5.4636   46.3069   30.4919 H   0  0  0  0  0  0  0  0  0  0  0  0
    8.8201   48.7802   29.3880 H   0  0  0  0  0  0  0  0  0  0  0  0
    5.4000   50.4112   28.7121 H   0  0  0  0  0  0  0  0  0  0  0  0
    6.9647   50.4080   29.5474 H   0  0  0  0  0  0  0  0  0  0  0  0
    8.8454   50.8013   28.1778 H   0  0  0  0  0  0  0  0  0  0  0  0
    6.4923   49.2327   24.0652 H   0  0  0  0  0  0  0  0  0  0  0  0
   10.4021   51.9271   23.8524 H   0  0  0  0  0  0  0  0  0  0  0  0
   11.1476   50.2684   24.0466 H   0  0  0  0  0  0  0  0  0  0  0  0
   11.3733   41.5445   31.4631 H   0  0  0  0  0  0  0  0  0  0  0  0
    9.8154   40.7125   31.7676 H   0  0  0  0  0  0  0  0  0  0  0  0
   11.6933   39.5094   30.3476 H   0  0  0  0  0  0  0  0  0  0  0  0
   10.1118   38.2743   32.6657 H   0  0  0  0  0  0  0  0  0  0  0  0
   13.6775   37.4533   31.2282 H   0  0  0  0  0  0  0  0  0  0  0  0
    9.0009   37.3815   30.9365 H   0  0  0  0  0  0  0  0  0  0  0  0
   11.2856   36.3031   32.4958 H   0  0  0  0  0  0  0  0  0  0  0  0
   11.8800   36.9561   29.7596 H   0  0  0  0  0  0  0  0  0  0  0  0
   12.3261   38.3483   34.7439 H   0  0  0  0  0  0  0  0  0  0  0  0
   16.7577   34.1778   32.4630 H   0  0  0  0  0  0  0  0  0  0  0  0
   16.6364   34.5272   37.1389 H   0  0  0  0  0  0  0  0  0  0  0  0
   15.3534   35.7334   37.5141 H   0  0  0  0  0  0  0  0  0  0  0  0
  1  2  2  0
  1  3  1  0
  3  4  1  0
  4  5  1  0
  6  1  1  0
  7  6  1  0
  6  8  1  0
  8  9  1  0
  9 10  2  0
 11  9  1  0
 10 12  1  0
 13 11  2  0
 12 14  2  0
 14 13  1  0
 14 15  1  0
 15 16  1  0
 16 17  1  0
 17 18  2  0
 19 17  1  0
 18 20  1  0
 21 19  2  0
 19 22  1  0
 20 23  1  0
 20 24  2  0
 24 21  1  0
 22 25  1  0
 22 26  2  0
 23 27  1  0
 24 28  1  0
 27 28  1  0
  4 29  2  0
  4 30  1  0
 31 30  1  0
 31 32  1  0
 32 33  1  0
 32 34  1  0
 33 35  1  0
 34 36  1  0
 34 37  1  0
 37 35  1  0
 35 38  1  0
 37 39  1  0
 40 38  1  0
 41 38  1  0
 42 40  2  0
 40 43  1  0
 44 41  2  0
 45 42  1  0
 43 46  2  0
 43 44  1  0
 47 45  2  0
 47 46  1  0
 46 48  1  0
  6 49  1  1
  7 50  1  0
  7 51  1  0
  8 52  1  0
  8 53  1  0
 10 54  1  0
 11 55  1  0
 12 56  1  0
 13 57  1  0
 16 58  1  0
 16 59  1  0
 18 60  1  0
 21 61  1  0
 27 62  1  0
 27 63  1  0
 31 64  1  0
 31 65  1  0
 32 66  1  0
 34 67  1  0
 35 68  1  0
 36 69  1  0
 37 70  1  0
 39 71  1  0
 41 72  1  0
 45 73  1  0
 48 74  1  0
 48 75  1  0
M  CHG  3   5  -1  22   1  25  -1
M  END
>  <EmbedRMS>  (4) 
0.0812595642759

$$$$

     RDKit          3D

 75 80  0  0  0  0  0  0  0  0999 V2000
   10.2803   43.7665   33.8251 C   0  0  0  0  0  0  0  0  0  0  0  0
   11.4110   43.5919   34.3666 O   0  0  0  0  0  0  0  0  0  0  0  0
    9.3616   42.7251   33.7349 O   0  0  0  0  0  0  0  0  0  0  0  0
    9.8896   41.2269   34.2945 P   0  0  0  0  0  0  0  0  0  0  0  0
   10.3732   41.4568   35.8838 O   0  0  0  0  0  0  0  0  0  0  0  0
    9.9459   45.0736   33.2112 C   0  0  1  0  0  0  0  0  0  0  0  0
   11.0267   46.0291   33.4706 N   0  0  0  0  0  0  0  0  0  0  0  0
    9.7535   44.8539   31.6950 C   0  0  0  0  0  0  0  0  0  0  0  0
    8.7955   45.8411   31.0848 C   0  0  0  0  0  0  0  0  0  0  0  0
    7.4085   45.6005   31.1007 C   0  0  0  0  0  0  0  0  0  0  0  0
    9.2831   46.9879   30.4396 C   0  0  0  0  0  0  0  0  0  0  0  0
    6.5278   46.5009   30.4853 C   0  0  0  0  0  0  0  0  0  0  0  0
    8.4025   47.8893   29.8301 C   0  0  0  0  0  0  0  0  0  0  0  0
    7.0139   47.6510   29.8485 C   0  0  0  0  0  0  0  0  0  0  0  0
    6.0914   48.5229   29.2526 O   0  0  0  0  0  0  0  0  0  0  0  0
    6.4386   49.7371   28.5911 C   0  0  0  0  0  0  0  0  0  0  0  0
    5.1865   50.4375   28.1282 C   0  0  0  0  0  0  0  0  0  0  0  0
    5.0467   50.7266   26.7498 C   0  0  0  0  0  0  0  0  0  0  0  0
    4.1251   50.7775   29.0329 C   0  0  0  0  0  0  0  0  0  0  0  0
    3.8717   51.3248   26.3142 C   0  0  0  0  0  0  0  0  0  0  0  0
    2.9462   51.3744   28.5258 C   0  0  0  0  0  0  0  0  0  0  0  0
    4.2153   50.5102   30.4448 N   0  0  0  0  0  0  0  0  0  0  0  0
    3.5195   51.6912   25.0294 O   0  0  0  0  0  0  0  0  0  0  0  0
    2.8654   51.6330   27.1639 C   0  0  0  0  0  0  0  0  0  0  0  0
    5.3972   50.6948   31.1232 O   0  0  0  0  0  0  0  0  0  0  0  0
    3.1822   50.2622   31.1005 O   0  0  0  0  0  0  0  0  0  0  0  0
    2.2070   52.2673   25.0778 C   0  0  0  0  0  0  0  0  0  0  0  0
    1.8266   52.2104   26.4594 O   0  0  0  0  0  0  0  0  0  0  0  0
    8.8122   40.1844   34.2135 O   0  0  0  0  0  0  0  0  0  0  0  0
   11.2401   40.7950   33.3698 O   0  0  0  0  0  0  0  0  0  0  0  0
   10.9143   40.6914   31.9981 C   0  0  0  0  0  0  0  0  0  0  0  0
   11.5270   39.3911   31.4385 C   0  0  0  0  0  0  0  0  0  0  0  0
   12.7519   39.0911   32.0837 O   0  0  0  0  0  0  0  0  0  0  0  0
   10.6113   38.1932   31.6451 C   0  0  0  0  0  0  0  0  0  0  0  0
   12.9413   37.6838   32.0297 C   0  0  0  0  0  0  0  0  0  0  0  0
    9.6064   38.0877   30.6599 O   0  0  0  0  0  0  0  0  0  0  0  0
   11.5822   37.0197   31.6877 C   0  0  0  0  0  0  0  0  0  0  0  0
   13.4840   37.2104   33.3254 N   0  0  0  0  0  0  0  0  0  0  0  0
   11.6179   36.3072   30.4690 O   0  0  0  0  0  0  0  0  0  0  0  0
   14.4797   36.3309   33.5738 C   0  0  0  0  0  0  0  0  0  0  0  0
   13.1136   37.6269   34.5702 C   0  0  0  0  0  0  0  0  0  0  0  0
   15.2074   35.6152   32.6747 N   0  0  0  0  0  0  0  0  0  0  0  0
   14.6756   36.2298   34.9190 C   0  0  0  0  0  0  0  0  0  0  0  0
   13.8217   37.0445   35.5793 N   0  0  0  0  0  0  0  0  0  0  0  0
   16.1643   34.7603   33.1551 C   0  0  0  0  0  0  0  0  0  0  0  0
   15.6528   35.3503   35.4136 C   0  0  0  0  0  0  0  0  0  0  0  0
   16.3798   34.6316   34.5046 N   0  0  0  0  0  0  0  0  0  0  0  0
   15.9004   35.1930   36.8094 N   0  0  0  0  0  0  0  0  0  0  0  0
    8.9996   45.4383   33.6723 H   0  0  0  0  0  0  0  0  0  0  0  0
   11.0505   46.2277   34.4979 H   0  0  0  0  0  0  0  0  0  0  0  0
   10.7765   46.9368   33.0156 H   0  0  0  0  0  0  0  0  0  0  0  0
    9.3634   43.8353   31.4716 H   0  0  0  0  0  0  0  0  0  0  0  0
   10.7406   44.9069   31.1835 H   0  0  0  0  0  0  0  0  0  0  0  0
    7.0129   44.7162   31.5851 H   0  0  0  0  0  0  0  0  0  0  0  0
   10.3474   47.1861   30.4060 H   0  0  0  0  0  0  0  0  0  0  0  0
    5.4633   46.3046   30.5054 H   0  0  0  0  0  0  0  0  0  0  0  0
    8.8122   48.7641   29.3442 H   0  0  0  0  0  0  0  0  0  0  0  0
    7.0034   50.4042   29.2751 H   0  0  0  0  0  0  0  0  0  0  0  0
    7.1020   49.5016   27.7301 H   0  0  0  0  0  0  0  0  0  0  0  0
    5.8241   50.4850   26.0360 H   0  0  0  0  0  0  0  0  0  0  0  0
    2.1235   51.6418   29.1764 H   0  0  0  0  0  0  0  0  0  0  0  0
    1.5026   51.6704   24.4614 H   0  0  0  0  0  0  0  0  0  0  0  0
    2.2375   53.3218   24.7319 H   0  0  0  0  0  0  0  0  0  0  0  0
    9.8233   40.7200   31.7652 H   0  0  0  0  0  0  0  0  0  0  0  0
   11.3775   41.5548   31.4741 H   0  0  0  0  0  0  0  0  0  0  0  0
   11.7312   39.5361   30.3532 H   0  0  0  0  0  0  0  0  0  0  0  0
   10.1202   38.2696   32.6410 H   0  0  0  0  0  0  0  0  0  0  0  0
   13.6850   37.4639   31.2321 H   0  0  0  0  0  0  0  0  0  0  0  0
   10.0251   38.1792   29.7654 H   0  0  0  0  0  0  0  0  0  0  0  0
   11.2757   36.3135   32.4907 H   0  0  0  0  0  0  0  0  0  0  0  0
   11.9838   36.9111   29.7708 H   0  0  0  0  0  0  0  0  0  0  0  0
   12.3307   38.3536   34.7458 H   0  0  0  0  0  0  0  0  0  0  0  0
   16.7566   34.1787   32.4623 H   0  0  0  0  0  0  0  0  0  0  0  0
   15.3535   35.7355   37.5144 H   0  0  0  0  0  0  0  0  0  0  0  0
   16.6353   34.5301   37.1419 H   0  0  0  0  0  0  0  0  0  0  0  0
  1  2  2  0
  1  3  1  0
  3  4  1  0
  4  5  1  0
  6  1  1  0
  7  6  1  0
  6  8  1  0
  8  9  1  0
  9 10  2  0
 11  9  1  0
 10 12  1  0
 13 11  2  0
 12 14  2  0
 14 13  1  0
 14 15  1  0
 15 16  1  0
 16 17  1  0
 17 18  2  0
 19 17  1  0
 18 20  1  0
 21 19  2  0
 19 22  1  0
 20 23  1  0
 20 24  2  0
 24 21  1  0
 22 25  1  0
 22 26  2  0
 23 27  1  0
 24 28  1  0
 27 28  1  0
  4 29  2  0
  4 30  1  0
 31 30  1  0
 31 32  1  0
 32 33  1  0
 32 34  1  0
 33 35  1  0
 34 36  1  0
 34 37  1  0
 37 35  1  0
 35 38  1  0
 37 39  1  0
 40 38  1  0
 41 38  1  0
 42 40  2  0
 40 43  1  0
 44 41  2  0
 45 42  1  0
 43 46  2  0
 43 44  1  0
 47 45  2  0
 47 46  1  0
 46 48  1  0
  6 49  1  1
  7 50  1  0
  7 51  1  0
  8 52  1  0
  8 53  1  0
 10 54  1  0
 11 55  1  0
 12 56  1  0
 13 57  1  0
 16 58  1  0
 16 59  1  0
 18 60  1  0
 21 61  1  0
 27 62  1  0
 27 63  1  0
 31 64  1  0
 31 65  1  0
 32 66  1  0
 34 67  1  0
 35 68  1  0
 36 69  1  0
 37 70  1  0
 39 71  1  0
 41 72  1  0
 45 73  1  0
 48 74  1  0
 48 75  1  0
M  CHG  3   5  -1  22   1  25  -1
M  END
>  <EmbedRMS>  (5) 
0.0806537197677

$$$$

     RDKit          3D

 75 80  0  0  0  0  0  0  0  0999 V2000
   10.2838   43.7627   33.8276 C   0  0  0  0  0  0  0  0  0  0  0  0
   11.4103   43.5863   34.3766 O   0  0  0  0  0  0  0  0  0  0  0  0
    9.3628   42.7238   33.7357 O   0  0  0  0  0  0  0  0  0  0  0  0
    9.8893   41.2251   34.2943 P   0  0  0  0  0  0  0  0  0  0  0  0
   10.3730   41.4545   35.8836 O   0  0  0  0  0  0  0  0  0  0  0  0
    9.9549   45.0700   33.2063 C   0  0  1  0  0  0  0  0  0  0  0  0
   11.0198   46.0481   33.4570 N   0  0  0  0  0  0  0  0  0  0  0  0
    9.7506   44.8511   31.6922 C   0  0  0  0  0  0  0  0  0  0  0  0
    8.7944   45.8417   31.0867 C   0  0  0  0  0  0  0  0  0  0  0  0
    7.4076   45.6006   31.1008 C   0  0  0  0  0  0  0  0  0  0  0  0
    9.2826   46.9896   30.4450 C   0  0  0  0  0  0  0  0  0  0  0  0
    6.5257   46.5002   30.4862 C   0  0  0  0  0  0  0  0  0  0  0  0
    8.4008   47.8887   29.8338 C   0  0  0  0  0  0  0  0  0  0  0  0
    7.0195   47.6542   29.8440 C   0  0  0  0  0  0  0  0  0  0  0  0
    6.1820   48.5850   29.2079 O   0  0  0  0  0  0  0  0  0  0  0  0
    4.7700   48.4432   29.0437 C   0  0  0  0  0  0  0  0  0  0  0  0
    4.4514   47.3370   28.0623 C   0  0  0  0  0  0  0  0  0  0  0  0
    5.1708   47.2979   26.8447 C   0  0  0  0  0  0  0  0  0  0  0  0
    3.4842   46.3162   28.3415 C   0  0  0  0  0  0  0  0  0  0  0  0
    4.9502   46.2342   25.9793 C   0  0  0  0  0  0  0  0  0  0  0  0
    3.3150   45.2485   27.4313 C   0  0  0  0  0  0  0  0  0  0  0  0
    2.6589   46.3573   29.5152 N   0  0  0  0  0  0  0  0  0  0  0  0
    5.5449   45.9828   24.7579 O   0  0  0  0  0  0  0  0  0  0  0  0
    4.0665   45.2495   26.2632 C   0  0  0  0  0  0  0  0  0  0  0  0
    2.3142   45.1859   30.1491 O   0  0  0  0  0  0  0  0  0  0  0  0
    2.0561   47.4070   29.8201 O   0  0  0  0  0  0  0  0  0  0  0  0
    4.9979   44.7612   24.2427 C   0  0  0  0  0  0  0  0  0  0  0  0
    4.0576   44.3268   25.2349 O   0  0  0  0  0  0  0  0  0  0  0  0
    8.8112   40.1835   34.2130 O   0  0  0  0  0  0  0  0  0  0  0  0
   11.2397   40.7942   33.3684 O   0  0  0  0  0  0  0  0  0  0  0  0
   10.9125   40.6875   31.9969 C   0  0  0  0  0  0  0  0  0  0  0  0
   11.5169   39.3810   31.4420 C   0  0  0  0  0  0  0  0  0  0  0  0
   12.7500   39.0880   32.0758 O   0  0  0  0  0  0  0  0  0  0  0  0
   10.6043   38.1892   31.6658 C   0  0  0  0  0  0  0  0  0  0  0  0
   12.9395   37.6813   32.0279 C   0  0  0  0  0  0  0  0  0  0  0  0
    9.6353   38.0951   30.6499 O   0  0  0  0  0  0  0  0  0  0  0  0
   11.5804   37.0191   31.6934 C   0  0  0  0  0  0  0  0  0  0  0  0
   13.4851   37.2119   33.3244 N   0  0  0  0  0  0  0  0  0  0  0  0
   11.6118   36.3188   30.4673 O   0  0  0  0  0  0  0  0  0  0  0  0
   14.4801   36.3316   33.5732 C   0  0  0  0  0  0  0  0  0  0  0  0
   13.1139   37.6277   34.5692 C   0  0  0  0  0  0  0  0  0  0  0  0
   15.2076   35.6154   32.6744 N   0  0  0  0  0  0  0  0  0  0  0  0
   14.6756   36.2303   34.9186 C   0  0  0  0  0  0  0  0  0  0  0  0
   13.8215   37.0451   35.5786 N   0  0  0  0  0  0  0  0  0  0  0  0
   16.1642   34.7602   33.1551 C   0  0  0  0  0  0  0  0  0  0  0  0
   15.6526   35.3505   35.4134 C   0  0  0  0  0  0  0  0  0  0  0  0
   16.3795   34.6316   34.5045 N   0  0  0  0  0  0  0  0  0  0  0  0
   15.9001   35.1933   36.8093 N   0  0  0  0  0  0  0  0  0  0  0  0
    9.0098   45.4350   33.6668 H   0  0  0  0  0  0  0  0  0  0  0  0
   11.1132   46.1992   34.4883 H   0  0  0  0  0  0  0  0  0  0  0  0
   11.9349   45.6933   33.0928 H   0  0  0  0  0  0  0  0  0  0  0  0
   10.7309   44.8931   31.1675 H   0  0  0  0  0  0  0  0  0  0  0  0
    9.3518   43.8344   31.4758 H   0  0  0  0  0  0  0  0  0  0  0  0
    7.0124   44.7158   31.5846 H   0  0  0  0  0  0  0  0  0  0  0  0
   10.3466   47.1899   30.4156 H   0  0  0  0  0  0  0  0  0  0  0  0
    5.4672   46.2877   30.5210 H   0  0  0  0  0  0  0  0  0  0  0  0
    8.7938   48.7702   29.3432 H   0  0  0  0  0  0  0  0  0  0  0  0
    4.3075   48.2923   30.0390 H   0  0  0  0  0  0  0  0  0  0  0  0
    4.3712   49.3945   28.6339 H   0  0  0  0  0  0  0  0  0  0  0  0
    5.8981   48.0596   26.5930 H   0  0  0  0  0  0  0  0  0  0  0  0
    2.5988   44.4583   27.6159 H   0  0  0  0  0  0  0  0  0  0  0  0
    4.4790   44.9489   23.2794 H   0  0  0  0  0  0  0  0  0  0  0  0
    5.7999   44.0039   24.1175 H   0  0  0  0  0  0  0  0  0  0  0  0
   11.3812   41.5456   31.4692 H   0  0  0  0  0  0  0  0  0  0  0  0
    9.8216   40.7223   31.7644 H   0  0  0  0  0  0  0  0  0  0  0  0
   11.6985   39.5089   30.3498 H   0  0  0  0  0  0  0  0  0  0  0  0
   10.1109   38.2736   32.6629 H   0  0  0  0  0  0  0  0  0  0  0  0
   13.6783   37.4561   31.2271 H   0  0  0  0  0  0  0  0  0  0  0  0
    9.0020   37.3860   30.9348 H   0  0  0  0  0  0  0  0  0  0  0  0
   11.2808   36.3052   32.4921 H   0  0  0  0  0  0  0  0  0  0  0  0
   11.8819   36.9599   29.7584 H   0  0  0  0  0  0  0  0  0  0  0  0
   12.3303   38.3538   34.7445 H   0  0  0  0  0  0  0  0  0  0  0  0
   16.7563   34.1783   32.4623 H   0  0  0  0  0  0  0  0  0  0  0  0
   15.3532   35.7359   37.5142 H   0  0  0  0  0  0  0  0  0  0  0  0
   16.6348   34.5301   37.1418 H   0  0  0  0  0  0  0  0  0  0  0  0
  1  2  2  0
  1  3  1  0
  3  4  1  0
  4  5  1  0
  6  1  1  0
  7  6  1  0
  6  8  1  0
  8  9  1  0
  9 10  2  0
 11  9  1  0
 10 12  1  0
 13 11  2  0
 12 14  2  0
 14 13  1  0
 14 15  1  0
 15 16  1  0
 16 17  1  0
 17 18  2  0
 19 17  1  0
 18 20  1  0
 21 19  2  0
 19 22  1  0
 20 23  1  0
 20 24  2  0
 24 21  1  0
 22 25  1  0
 22 26  2  0
 23 27  1  0
 24 28  1  0
 27 28  1  0
  4 29  2  0
  4 30  1  0
 31 30  1  0
 31 32  1  0
 32 33  1  0
 32 34  1  0
 33 35  1  0
 34 36  1  0
 34 37  1  0
 37 35  1  0
 35 38  1  0
 37 39  1  0
 40 38  1  0
 41 38  1  0
 42 40  2  0
 40 43  1  0
 44 41  2  0
 45 42  1  0
 43 46  2  0
 43 44  1  0
 47 45  2  0
 47 46  1  0
 46 48  1  0
  6 49  1  1
  7 50  1  0
  7 51  1  0
  8 52  1  0
  8 53  1  0
 10 54  1  0
 11 55  1  0
 12 56  1  0
 13 57  1  0
 16 58  1  0
 16 59  1  0
 18 60  1  0
 21 61  1  0
 27 62  1  0
 27 63  1  0
 31 64  1  0
 31 65  1  0
 32 66  1  0
 34 67  1  0
 35 68  1  0
 36 69  1  0
 37 70  1  0
 39 71  1  0
 41 72  1  0
 45 73  1  0
 48 74  1  0
 48 75  1  0
M  CHG  3   5  -1  22   1  25  -1
M  END
>  <EmbedRMS>  (6) 
0.0824650756136

$$$$

     RDKit          3D

 75 80  0  0  0  0  0  0  0  0999 V2000
   10.2838   43.7628   33.8277 C   0  0  0  0  0  0  0  0  0  0  0  0
   11.4103   43.5864   34.3768 O   0  0  0  0  0  0  0  0  0  0  0  0
    9.3631   42.7237   33.7353 O   0  0  0  0  0  0  0  0  0  0  0  0
    9.8894   41.2250   34.2943 P   0  0  0  0  0  0  0  0  0  0  0  0
   10.3724   41.4549   35.8838 O   0  0  0  0  0  0  0  0  0  0  0  0
    9.9550   45.0702   33.2066 C   0  0  1  0  0  0  0  0  0  0  0  0
   11.0201   46.0482   33.4570 N   0  0  0  0  0  0  0  0  0  0  0  0
    9.7503   44.8512   31.6926 C   0  0  0  0  0  0  0  0  0  0  0  0
    8.7943   45.8421   31.0871 C   0  0  0  0  0  0  0  0  0  0  0  0
    7.4077   45.6006   31.0993 C   0  0  0  0  0  0  0  0  0  0  0  0
    9.2831   46.9892   30.4444 C   0  0  0  0  0  0  0  0  0  0  0  0
    6.5280   46.5010   30.4831 C   0  0  0  0  0  0  0  0  0  0  0  0
    8.4034   47.8896   29.8318 C   0  0  0  0  0  0  0  0  0  0  0  0
    7.0140   47.6529   29.8496 C   0  0  0  0  0  0  0  0  0  0  0  0
    6.0879   48.5268   29.2571 O   0  0  0  0  0  0  0  0  0  0  0  0
    6.4065   49.7917   28.6744 C   0  0  0  0  0  0  0  0  0  0  0  0
    6.8229   50.7830   29.7380 C   0  0  0  0  0  0  0  0  0  0  0  0
    6.0308   50.8822   30.9062 C   0  0  0  0  0  0  0  0  0  0  0  0
    8.0054   51.5830   29.6189 C   0  0  0  0  0  0  0  0  0  0  0  0
    6.4590   51.7212   31.9269 C   0  0  0  0  0  0  0  0  0  0  0  0
    8.4010   52.4079   30.6971 C   0  0  0  0  0  0  0  0  0  0  0  0
    8.7873   51.5920   28.4150 N   0  0  0  0  0  0  0  0  0  0  0  0
    5.8629   51.9592   33.1504 O   0  0  0  0  0  0  0  0  0  0  0  0
    7.5974   52.4467   31.8295 C   0  0  0  0  0  0  0  0  0  0  0  0
    8.1713   51.7643   27.1966 O   0  0  0  0  0  0  0  0  0  0  0  0
   10.0312   51.6777   28.4796 O   0  0  0  0  0  0  0  0  0  0  0  0
    6.6810   52.8949   33.8663 C   0  0  0  0  0  0  0  0  0  0  0  0
    7.7772   53.1806   32.9863 O   0  0  0  0  0  0  0  0  0  0  0  0
    8.8113   40.1834   34.2129 O   0  0  0  0  0  0  0  0  0  0  0  0
   11.2402   40.7930   33.3696 O   0  0  0  0  0  0  0  0  0  0  0  0
   10.9152   40.6903   31.9975 C   0  0  0  0  0  0  0  0  0  0  0  0
   11.5253   39.3885   31.4375 C   0  0  0  0  0  0  0  0  0  0  0  0
   12.7501   39.0872   32.0798 O   0  0  0  0  0  0  0  0  0  0  0  0
   10.6093   38.1925   31.6469 C   0  0  0  0  0  0  0  0  0  0  0  0
   12.9331   37.6791   32.0294 C   0  0  0  0  0  0  0  0  0  0  0  0
    9.6123   38.0893   30.6542 O   0  0  0  0  0  0  0  0  0  0  0  0
   11.5742   37.0143   31.7025 C   0  0  0  0  0  0  0  0  0  0  0  0
   13.4845   37.2107   33.3241 N   0  0  0  0  0  0  0  0  0  0  0  0
   11.6298   36.3236   30.4741 O   0  0  0  0  0  0  0  0  0  0  0  0
   14.4802   36.3313   33.5726 C   0  0  0  0  0  0  0  0  0  0  0  0
   13.1139   37.6265   34.5692 C   0  0  0  0  0  0  0  0  0  0  0  0
   15.2075   35.6148   32.6739 N   0  0  0  0  0  0  0  0  0  0  0  0
   14.6762   36.2302   34.9181 C   0  0  0  0  0  0  0  0  0  0  0  0
   13.8220   37.0445   35.5785 N   0  0  0  0  0  0  0  0  0  0  0  0
   16.1643   34.7599   33.1547 C   0  0  0  0  0  0  0  0  0  0  0  0
   15.6529   35.3505   35.4130 C   0  0  0  0  0  0  0  0  0  0  0  0
   16.3797   34.6314   34.5042 N   0  0  0  0  0  0  0  0  0  0  0  0
   15.9002   35.1932   36.8089 N   0  0  0  0  0  0  0  0  0  0  0  0
    9.0102   45.4355   33.6673 H   0  0  0  0  0  0  0  0  0  0  0  0
   11.1135   46.1994   34.4883 H   0  0  0  0  0  0  0  0  0  0  0  0
   11.9351   45.6931   33.0928 H   0  0  0  0  0  0  0  0  0  0  0  0
   10.7306   44.8927   31.1678 H   0  0  0  0  0  0  0  0  0  0  0  0
    9.3512   43.8347   31.4763 H   0  0  0  0  0  0  0  0  0  0  0  0
    7.0113   44.7154   31.5812 H   0  0  0  0  0  0  0  0  0  0  0  0
   10.3475   47.1877   30.4145 H   0  0  0  0  0  0  0  0  0  0  0  0
    5.4636   46.3042   30.5017 H   0  0  0  0  0  0  0  0  0  0  0  0
    8.8164   48.7603   29.3437 H   0  0  0  0  0  0  0  0  0  0  0  0
    5.4961   50.1826   28.1742 H   0  0  0  0  0  0  0  0  0  0  0  0
    7.1761   49.6421   27.8915 H   0  0  0  0  0  0  0  0  0  0  0  0
    5.1233   50.3033   31.0249 H   0  0  0  0  0  0  0  0  0  0  0  0
    9.2920   53.0199   30.6414 H   0  0  0  0  0  0  0  0  0  0  0  0
    7.0539   52.4378   34.8070 H   0  0  0  0  0  0  0  0  0  0  0  0
    6.1082   53.8221   34.0784 H   0  0  0  0  0  0  0  0  0  0  0  0
   11.3804   41.5529   31.4739 H   0  0  0  0  0  0  0  0  0  0  0  0
    9.8244   40.7213   31.7641 H   0  0  0  0  0  0  0  0  0  0  0  0
   11.7265   39.5311   30.3512 H   0  0  0  0  0  0  0  0  0  0  0  0
   10.1112   38.2748   32.6387 H   0  0  0  0  0  0  0  0  0  0  0  0
   13.6650   37.4517   31.2225 H   0  0  0  0  0  0  0  0  0  0  0  0
   10.0513   38.1141   29.7644 H   0  0  0  0  0  0  0  0  0  0  0  0
   11.2758   36.3141   32.5191 H   0  0  0  0  0  0  0  0  0  0  0  0
   10.8592   35.6977   30.4638 H   0  0  0  0  0  0  0  0  0  0  0  0
   12.3294   38.3514   34.7449 H   0  0  0  0  0  0  0  0  0  0  0  0
   16.7564   34.1780   32.4620 H   0  0  0  0  0  0  0  0  0  0  0  0
   16.6348   34.5300   37.1415 H   0  0  0  0  0  0  0  0  0  0  0  0
   15.3533   35.7359   37.5138 H   0  0  0  0  0  0  0  0  0  0  0  0
  1  2  2  0
  1  3  1  0
  3  4  1  0
  4  5  1  0
  6  1  1  0
  7  6  1  0
  6  8  1  0
  8  9  1  0
  9 10  2  0
 11  9  1  0
 10 12  1  0
 13 11  2  0
 12 14  2  0
 14 13  1  0
 14 15  1  0
 15 16  1  0
 16 17  1  0
 17 18  2  0
 19 17  1  0
 18 20  1  0
 21 19  2  0
 19 22  1  0
 20 23  1  0
 20 24  2  0
 24 21  1  0
 22 25  1  0
 22 26  2  0
 23 27  1  0
 24 28  1  0
 27 28  1  0
  4 29  2  0
  4 30  1  0
 31 30  1  0
 31 32  1  0
 32 33  1  0
 32 34  1  0
 33 35  1  0
 34 36  1  0
 34 37  1  0
 37 35  1  0
 35 38  1  0
 37 39  1  0
 40 38  1  0
 41 38  1  0
 42 40  2  0
 40 43  1  0
 44 41  2  0
 45 42  1  0
 43 46  2  0
 43 44  1  0
 47 45  2  0
 47 46  1  0
 46 48  1  0
  6 49  1  1
  7 50  1  0
  7 51  1  0
  8 52  1  0
  8 53  1  0
 10 54  1  0
 11 55  1  0
 12 56  1  0
 13 57  1  0
 16 58  1  0
 16 59  1  0
 18 60  1  0
 21 61  1  0
 27 62  1  0
 27 63  1  0
 31 64  1  0
 31 65  1  0
 32 66  1  0
 34 67  1  0
 35 68  1  0
 36 69  1  0
 37 70  1  0
 39 71  1  0
 41 72  1  0
 45 73  1  0
 48 74  1  0
 48 75  1  0
M  CHG  3   5  -1  22   1  25  -1
M  END
>  <EmbedRMS>  (7) 
0.0827164185681

$$$$

     RDKit          3D

 75 80  0  0  0  0  0  0  0  0999 V2000
   10.2834   43.7663   33.8258 C   0  0  0  0  0  0  0  0  0  0  0  0
   11.4102   43.5931   34.3752 O   0  0  0  0  0  0  0  0  0  0  0  0
    9.3635   42.7257   33.7353 O   0  0  0  0  0  0  0  0  0  0  0  0
    9.8902   41.2269   34.2942 P   0  0  0  0  0  0  0  0  0  0  0  0
   10.3739   41.4559   35.8835 O   0  0  0  0  0  0  0  0  0  0  0  0
    9.9546   45.0696   33.2037 C   0  0  1  0  0  0  0  0  0  0  0  0
   11.0273   46.0323   33.4757 N   0  0  0  0  0  0  0  0  0  0  0  0
    9.7465   44.8481   31.6879 C   0  0  0  0  0  0  0  0  0  0  0  0
    8.7923   45.8410   31.0848 C   0  0  0  0  0  0  0  0  0  0  0  0
    7.4056   45.6012   31.0983 C   0  0  0  0  0  0  0  0  0  0  0  0
    9.2823   46.9874   30.4418 C   0  0  0  0  0  0  0  0  0  0  0  0
    6.5268   46.5026   30.4827 C   0  0  0  0  0  0  0  0  0  0  0  0
    8.4033   47.8891   29.8305 C   0  0  0  0  0  0  0  0  0  0  0  0
    7.0140   47.6546   29.8501 C   0  0  0  0  0  0  0  0  0  0  0  0
    6.0882   48.5290   29.2590 O   0  0  0  0  0  0  0  0  0  0  0  0
    6.3937   49.8166   28.7214 C   0  0  0  0  0  0  0  0  0  0  0  0
    6.7823   50.7820   29.8178 C   0  0  0  0  0  0  0  0  0  0  0  0
    8.0159   51.4657   29.7047 C   0  0  0  0  0  0  0  0  0  0  0  0
    5.9624   50.9911   30.9779 C   0  0  0  0  0  0  0  0  0  0  0  0
    8.4080   52.3006   30.7424 C   0  0  0  0  0  0  0  0  0  0  0  0
    6.4226   51.8440   32.0078 C   0  0  0  0  0  0  0  0  0  0  0  0
    4.6862   50.3453   31.1367 N   0  0  0  0  0  0  0  0  0  0  0  0
    9.5627   53.0514   30.8512 O   0  0  0  0  0  0  0  0  0  0  0  0
    7.6471   52.4790   31.8465 C   0  0  0  0  0  0  0  0  0  0  0  0
    4.2122   50.0630   32.3972 O   0  0  0  0  0  0  0  0  0  0  0  0
    3.9244   50.1878   30.1611 O   0  0  0  0  0  0  0  0  0  0  0  0
    9.5222   53.7458   32.1053 C   0  0  0  0  0  0  0  0  0  0  0  0
    8.2821   53.3521   32.7086 O   0  0  0  0  0  0  0  0  0  0  0  0
    8.8121   40.1851   34.2131 O   0  0  0  0  0  0  0  0  0  0  0  0
   11.2402   40.7952   33.3682 O   0  0  0  0  0  0  0  0  0  0  0  0
   10.9126   40.6877   31.9969 C   0  0  0  0  0  0  0  0  0  0  0  0
   11.5169   39.3811   31.4421 C   0  0  0  0  0  0  0  0  0  0  0  0
   12.7500   39.0881   32.0759 O   0  0  0  0  0  0  0  0  0  0  0  0
   10.6043   38.1893   31.6659 C   0  0  0  0  0  0  0  0  0  0  0  0
   12.9395   37.6814   32.0280 C   0  0  0  0  0  0  0  0  0  0  0  0
    9.6353   38.0951   30.6499 O   0  0  0  0  0  0  0  0  0  0  0  0
   11.5804   37.0191   31.6934 C   0  0  0  0  0  0  0  0  0  0  0  0
   13.4851   37.2119   33.3244 N   0  0  0  0  0  0  0  0  0  0  0  0
   11.6118   36.3189   30.4673 O   0  0  0  0  0  0  0  0  0  0  0  0
   14.4801   36.3316   33.5732 C   0  0  0  0  0  0  0  0  0  0  0  0
   13.1139   37.6277   34.5692 C   0  0  0  0  0  0  0  0  0  0  0  0
   15.2076   35.6154   32.6744 N   0  0  0  0  0  0  0  0  0  0  0  0
   14.6756   36.2303   34.9186 C   0  0  0  0  0  0  0  0  0  0  0  0
   13.8215   37.0450   35.5786 N   0  0  0  0  0  0  0  0  0  0  0  0
   16.1642   34.7602   33.1551 C   0  0  0  0  0  0  0  0  0  0  0  0
   15.6526   35.3505   35.4134 C   0  0  0  0  0  0  0  0  0  0  0  0
   16.3796   34.6316   34.5045 N   0  0  0  0  0  0  0  0  0  0  0  0
   15.9001   35.1933   36.8093 N   0  0  0  0  0  0  0  0  0  0  0  0
    9.0120   45.4319   33.6716 H   0  0  0  0  0  0  0  0  0  0  0  0
   10.7258   46.9689   33.1213 H   0  0  0  0  0  0  0  0  0  0  0  0
   11.8905   45.7660   32.9469 H   0  0  0  0  0  0  0  0  0  0  0  0
   10.7228   44.8814   31.1558 H   0  0  0  0  0  0  0  0  0  0  0  0
    9.3412   43.8330   31.4765 H   0  0  0  0  0  0  0  0  0  0  0  0
    7.0083   44.7163   31.5802 H   0  0  0  0  0  0  0  0  0  0  0  0
   10.3471   47.1829   30.4084 H   0  0  0  0  0  0  0  0  0  0  0  0
    5.4621   46.3075   30.5022 H   0  0  0  0  0  0  0  0  0  0  0  0
    8.8176   48.7559   29.3376 H   0  0  0  0  0  0  0  0  0  0  0  0
    5.4976   50.2088   28.1985 H   0  0  0  0  0  0  0  0  0  0  0  0
    7.1858   49.7204   27.9475 H   0  0  0  0  0  0  0  0  0  0  0  0
    8.6588   51.3388   28.8428 H   0  0  0  0  0  0  0  0  0  0  0  0
    5.8357   52.0209   32.8997 H   0  0  0  0  0  0  0  0  0  0  0  0
    9.5352   54.8431   31.9373 H   0  0  0  0  0  0  0  0  0  0  0  0
   10.3750   53.4346   32.7444 H   0  0  0  0  0  0  0  0  0  0  0  0
    9.8216   40.7222   31.7647 H   0  0  0  0  0  0  0  0  0  0  0  0
   11.3808   41.5456   31.4686 H   0  0  0  0  0  0  0  0  0  0  0  0
   11.6986   39.5089   30.3499 H   0  0  0  0  0  0  0  0  0  0  0  0
   10.1109   38.2737   32.6630 H   0  0  0  0  0  0  0  0  0  0  0  0
   13.6783   37.4562   31.2271 H   0  0  0  0  0  0  0  0  0  0  0  0
    9.0020   37.3860   30.9348 H   0  0  0  0  0  0  0  0  0  0  0  0
   11.2807   36.3053   32.4921 H   0  0  0  0  0  0  0  0  0  0  0  0
   11.8818   36.9600   29.7584 H   0  0  0  0  0  0  0  0  0  0  0  0
   12.3303   38.3538   34.7445 H   0  0  0  0  0  0  0  0  0  0  0  0
   16.7564   34.1783   32.4624 H   0  0  0  0  0  0  0  0  0  0  0  0
   16.6348   34.5301   37.1418 H   0  0  0  0  0  0  0  0  0  0  0  0
   15.3532   35.7359   37.5142 H   0  0  0  0  0  0  0  0  0  0  0  0
  1  2  2  0
  1  3  1  0
  3  4  1  0
  4  5  1  0
  6  1  1  0
  7  6  1  0
  6  8  1  0
  8  9  1  0
  9 10  2  0
 11  9  1  0
 10 12  1  0
 13 11  2  0
 12 14  2  0
 14 13  1  0
 14 15  1  0
 15 16  1  0
 16 17  1  0
 17 18  2  0
 19 17  1  0
 18 20  1  0
 21 19  2  0
 19 22  1  0
 20 23  1  0
 20 24  2  0
 24 21  1  0
 22 25  1  0
 22 26  2  0
 23 27  1  0
 24 28  1  0
 27 28  1  0
  4 29  2  0
  4 30  1  0
 31 30  1  0
 31 32  1  0
 32 33  1  0
 32 34  1  0
 33 35  1  0
 34 36  1  0
 34 37  1  0
 37 35  1  0
 35 38  1  0
 37 39  1  0
 40 38  1  0
 41 38  1  0
 42 40  2  0
 40 43  1  0
 44 41  2  0
 45 42  1  0
 43 46  2  0
 43 44  1  0
 47 45  2  0
 47 46  1  0
 46 48  1  0
  6 49  1  1
  7 50  1  0
  7 51  1  0
  8 52  1  0
  8 53  1  0
 10 54  1  0
 11 55  1  0
 12 56  1  0
 13 57  1  0
 16 58  1  0
 16 59  1  0
 18 60  1  0
 21 61  1  0
 27 62  1  0
 27 63  1  0
 31 64  1  0
 31 65  1  0
 32 66  1  0
 34 67  1  0
 35 68  1  0
 36 69  1  0
 37 70  1  0
 39 71  1  0
 41 72  1  0
 45 73  1  0
 48 74  1  0
 48 75  1  0
M  CHG  3   5  -1  22   1  25  -1
M  END
>  <EmbedRMS>  (8) 
0.0815691034661

$$$$

     RDKit          3D

 75 80  0  0  0  0  0  0  0  0999 V2000
   10.2803   43.7665   33.8250 C   0  0  0  0  0  0  0  0  0  0  0  0
   11.4110   43.5919   34.3666 O   0  0  0  0  0  0  0  0  0  0  0  0
    9.3616   42.7251   33.7348 O   0  0  0  0  0  0  0  0  0  0  0  0
    9.8896   41.2269   34.2945 P   0  0  0  0  0  0  0  0  0  0  0  0
   10.3731   41.4568   35.8838 O   0  0  0  0  0  0  0  0  0  0  0  0
    9.9459   45.0736   33.2111 C   0  0  1  0  0  0  0  0  0  0  0  0
   11.0267   46.0291   33.4704 N   0  0  0  0  0  0  0  0  0  0  0  0
    9.7536   44.8537   31.6948 C   0  0  0  0  0  0  0  0  0  0  0  0
    8.7955   45.8408   31.0844 C   0  0  0  0  0  0  0  0  0  0  0  0
    7.4086   45.6008   31.1012 C   0  0  0  0  0  0  0  0  0  0  0  0
    9.2829   46.9880   30.4403 C   0  0  0  0  0  0  0  0  0  0  0  0
    6.5281   46.5016   30.4864 C   0  0  0  0  0  0  0  0  0  0  0  0
    8.4023   47.8897   29.8316 C   0  0  0  0  0  0  0  0  0  0  0  0
    7.0139   47.6498   29.8457 C   0  0  0  0  0  0  0  0  0  0  0  0
    6.0877   48.5155   29.2426 O   0  0  0  0  0  0  0  0  0  0  0  0
    6.4173   49.6389   28.4245 C   0  0  0  0  0  0  0  0  0  0  0  0
    7.0241   49.1948   27.1135 C   0  0  0  0  0  0  0  0  0  0  0  0
    8.2715   49.7417   26.7305 C   0  0  0  0  0  0  0  0  0  0  0  0
    6.3960   48.2133   26.2763 C   0  0  0  0  0  0  0  0  0  0  0  0
    8.8634   49.2857   25.5602 C   0  0  0  0  0  0  0  0  0  0  0  0
    7.0548   47.7791   25.1017 C   0  0  0  0  0  0  0  0  0  0  0  0
    5.1157   47.6450   26.6052 N   0  0  0  0  0  0  0  0  0  0  0  0
   10.0690   49.6658   25.0028 O   0  0  0  0  0  0  0  0  0  0  0  0
    8.2827   48.3436   24.7822 C   0  0  0  0  0  0  0  0  0  0  0  0
    4.1120   48.4291   27.1241 O   0  0  0  0  0  0  0  0  0  0  0  0
    4.8476   46.4725   26.2703 O   0  0  0  0  0  0  0  0  0  0  0  0
   10.2554   48.9130   23.7964 C   0  0  0  0  0  0  0  0  0  0  0  0
    9.0916   48.0813   23.6933 O   0  0  0  0  0  0  0  0  0  0  0  0
    8.8122   40.1844   34.2135 O   0  0  0  0  0  0  0  0  0  0  0  0
   11.2401   40.7950   33.3698 O   0  0  0  0  0  0  0  0  0  0  0  0
   10.9143   40.6914   31.9981 C   0  0  0  0  0  0  0  0  0  0  0  0
   11.5269   39.3912   31.4385 C   0  0  0  0  0  0  0  0  0  0  0  0
   12.7519   39.0911   32.0837 O   0  0  0  0  0  0  0  0  0  0  0  0
   10.6113   38.1932   31.6451 C   0  0  0  0  0  0  0  0  0  0  0  0
   12.9413   37.6838   32.0297 C   0  0  0  0  0  0  0  0  0  0  0  0
    9.6064   38.0878   30.6599 O   0  0  0  0  0  0  0  0  0  0  0  0
   11.5822   37.0198   31.6877 C   0  0  0  0  0  0  0  0  0  0  0  0
   13.4840   37.2105   33.3254 N   0  0  0  0  0  0  0  0  0  0  0  0
   11.6179   36.3072   30.4691 O   0  0  0  0  0  0  0  0  0  0  0  0
   14.4797   36.3309   33.5738 C   0  0  0  0  0  0  0  0  0  0  0  0
   13.1136   37.6269   34.5702 C   0  0  0  0  0  0  0  0  0  0  0  0
   15.2074   35.6152   32.6747 N   0  0  0  0  0  0  0  0  0  0  0  0
   14.6756   36.2298   34.9190 C   0  0  0  0  0  0  0  0  0  0  0  0
   13.8217   37.0445   35.5793 N   0  0  0  0  0  0  0  0  0  0  0  0
   16.1643   34.7603   33.1551 C   0  0  0  0  0  0  0  0  0  0  0  0
   15.6528   35.3503   35.4136 C   0  0  0  0  0  0  0  0  0  0  0  0
   16.3798   34.6316   34.5046 N   0  0  0  0  0  0  0  0  0  0  0  0
   15.9004   35.1930   36.8094 N   0  0  0  0  0  0  0  0  0  0  0  0
    8.9996   45.4383   33.6721 H   0  0  0  0  0  0  0  0  0  0  0  0
   10.7765   46.9368   33.0155 H   0  0  0  0  0  0  0  0  0  0  0  0
   11.0505   46.2277   34.4978 H   0  0  0  0  0  0  0  0  0  0  0  0
    9.3636   43.8351   31.4714 H   0  0  0  0  0  0  0  0  0  0  0  0
   10.7407   44.9069   31.1833 H   0  0  0  0  0  0  0  0  0  0  0  0
    7.0129   44.7166   31.5856 H   0  0  0  0  0  0  0  0  0  0  0  0
   10.3469   47.1879   30.4093 H   0  0  0  0  0  0  0  0  0  0  0  0
    5.4638   46.3039   30.5045 H   0  0  0  0  0  0  0  0  0  0  0  0
    8.8135   48.7687   29.3580 H   0  0  0  0  0  0  0  0  0  0  0  0
    5.4927   50.2144   28.2153 H   0  0  0  0  0  0  0  0  0  0  0  0
    7.0881   50.3256   28.9850 H   0  0  0  0  0  0  0  0  0  0  0  0
    8.7737   50.4878   27.3334 H   0  0  0  0  0  0  0  0  0  0  0  0
    6.6148   47.0361   24.4490 H   0  0  0  0  0  0  0  0  0  0  0  0
   11.1687   48.2864   23.8720 H   0  0  0  0  0  0  0  0  0  0  0  0
   10.3170   49.5959   22.9232 H   0  0  0  0  0  0  0  0  0  0  0  0
   11.3776   41.5548   31.4742 H   0  0  0  0  0  0  0  0  0  0  0  0
    9.8233   40.7201   31.7651 H   0  0  0  0  0  0  0  0  0  0  0  0
   11.7312   39.5362   30.3532 H   0  0  0  0  0  0  0  0  0  0  0  0
   10.1203   38.2696   32.6410 H   0  0  0  0  0  0  0  0  0  0  0  0
   13.6850   37.4639   31.2321 H   0  0  0  0  0  0  0  0  0  0  0  0
   10.0250   38.1792   29.7654 H   0  0  0  0  0  0  0  0  0  0  0  0
   11.2757   36.3135   32.4908 H   0  0  0  0  0  0  0  0  0  0  0  0
   11.9838   36.9111   29.7709 H   0  0  0  0  0  0  0  0  0  0  0  0
   12.3307   38.3536   34.7458 H   0  0  0  0  0  0  0  0  0  0  0  0
   16.7565   34.1786   32.4623 H   0  0  0  0  0  0  0  0  0  0  0  0
   15.3535   35.7355   37.5144 H   0  0  0  0  0  0  0  0  0  0  0  0
   16.6353   34.5301   37.1419 H   0  0  0  0  0  0  0  0  0  0  0  0
  1  2  2  0
  1  3  1  0
  3  4  1  0
  4  5  1  0
  6  1  1  0
  7  6  1  0
  6  8  1  0
  8  9  1  0
  9 10  2  0
 11  9  1  0
 10 12  1  0
 13 11  2  0
 12 14  2  0
 14 13  1  0
 14 15  1  0
 15 16  1  0
 16 17  1  0
 17 18  2  0
 19 17  1  0
 18 20  1  0
 21 19  2  0
 19 22  1  0
 20 23  1  0
 20 24  2  0
 24 21  1  0
 22 25  1  0
 22 26  2  0
 23 27  1  0
 24 28  1  0
 27 28  1  0
  4 29  2  0
  4 30  1  0
 31 30  1  0
 31 32  1  0
 32 33  1  0
 32 34  1  0
 33 35  1  0
 34 36  1  0
 34 37  1  0
 37 35  1  0
 35 38  1  0
 37 39  1  0
 40 38  1  0
 41 38  1  0
 42 40  2  0
 40 43  1  0
 44 41  2  0
 45 42  1  0
 43 46  2  0
 43 44  1  0
 47 45  2  0
 47 46  1  0
 46 48  1  0
  6 49  1  1
  7 50  1  0
  7 51  1  0
  8 52  1  0
  8 53  1  0
 10 54  1  0
 11 55  1  0
 12 56  1  0
 13 57  1  0
 16 58  1  0
 16 59  1  0
 18 60  1  0
 21 61  1  0
 27 62  1  0
 27 63  1  0
 31 64  1  0
 31 65  1  0
 32 66  1  0
 34 67  1  0
 35 68  1  0
 36 69  1  0
 37 70  1  0
 39 71  1  0
 41 72  1  0
 45 73  1  0
 48 74  1  0
 48 75  1  0
M  CHG  3   5  -1  22   1  25  -1
M  END
>  <EmbedRMS>  (9) 
0.0806632192667

$$$$

     RDKit          3D

 75 80  0  0  0  0  0  0  0  0999 V2000
   10.2834   43.7662   33.8256 C   0  0  0  0  0  0  0  0  0  0  0  0
   11.4101   43.5930   34.3752 O   0  0  0  0  0  0  0  0  0  0  0  0
    9.3636   42.7255   33.7349 O   0  0  0  0  0  0  0  0  0  0  0  0
    9.8905   41.2266   34.2933 P   0  0  0  0  0  0  0  0  0  0  0  0
   10.3744   41.4557   35.8827 O   0  0  0  0  0  0  0  0  0  0  0  0
    9.9546   45.0694   33.2034 C   0  0  1  0  0  0  0  0  0  0  0  0
   11.0273   46.0321   33.4755 N   0  0  0  0  0  0  0  0  0  0  0  0
    9.7466   44.8479   31.6875 C   0  0  0  0  0  0  0  0  0  0  0  0
    8.7924   45.8405   31.0840 C   0  0  0  0  0  0  0  0  0  0  0  0
    7.4055   45.6018   31.0995 C   0  0  0  0  0  0  0  0  0  0  0  0
    9.2822   46.9880   30.4427 C   0  0  0  0  0  0  0  0  0  0  0  0
    6.5267   46.5038   30.4849 C   0  0  0  0  0  0  0  0  0  0  0  0
    8.4030   47.8905   29.8329 C   0  0  0  0  0  0  0  0  0  0  0  0
    7.0143   47.6517   29.8452 C   0  0  0  0  0  0  0  0  0  0  0  0
    6.0896   48.5184   29.2414 O   0  0  0  0  0  0  0  0  0  0  0  0
    6.4211   49.6415   28.4236 C   0  0  0  0  0  0  0  0  0  0  0  0
    7.0284   49.1967   27.1130 C   0  0  0  0  0  0  0  0  0  0  0  0
    8.2768   49.7420   26.7310 C   0  0  0  0  0  0  0  0  0  0  0  0
    6.3998   48.2160   26.2753 C   0  0  0  0  0  0  0  0  0  0  0  0
    8.8690   49.2854   25.5612 C   0  0  0  0  0  0  0  0  0  0  0  0
    7.0589   47.7811   25.1012 C   0  0  0  0  0  0  0  0  0  0  0  0
    5.1185   47.6492   26.6032 N   0  0  0  0  0  0  0  0  0  0  0  0
   10.0755   49.6642   25.0046 O   0  0  0  0  0  0  0  0  0  0  0  0
    8.2877   48.3442   24.7827 C   0  0  0  0  0  0  0  0  0  0  0  0
    4.1154   48.4346   27.1214 O   0  0  0  0  0  0  0  0  0  0  0  0
    4.8493   46.4771   26.2682 O   0  0  0  0  0  0  0  0  0  0  0  0
   10.2618   48.9113   23.7983 C   0  0  0  0  0  0  0  0  0  0  0  0
    9.0970   48.0810   23.6943 O   0  0  0  0  0  0  0  0  0  0  0  0
    8.8122   40.1851   34.2128 O   0  0  0  0  0  0  0  0  0  0  0  0
   11.2403   40.7946   33.3668 O   0  0  0  0  0  0  0  0  0  0  0  0
   10.9126   40.6859   31.9954 C   0  0  0  0  0  0  0  0  0  0  0  0
   11.5175   39.3787   31.4405 C   0  0  0  0  0  0  0  0  0  0  0  0
   12.7490   39.0864   32.0752 O   0  0  0  0  0  0  0  0  0  0  0  0
   10.6061   38.1868   31.6656 C   0  0  0  0  0  0  0  0  0  0  0  0
   12.9356   37.6796   32.0292 C   0  0  0  0  0  0  0  0  0  0  0  0
    9.6399   38.0903   30.6471 O   0  0  0  0  0  0  0  0  0  0  0  0
   11.5765   37.0145   31.7044 C   0  0  0  0  0  0  0  0  0  0  0  0
   13.4858   37.2125   33.3244 N   0  0  0  0  0  0  0  0  0  0  0  0
   11.6101   36.3397   30.4673 O   0  0  0  0  0  0  0  0  0  0  0  0
   14.4805   36.3319   33.5729 C   0  0  0  0  0  0  0  0  0  0  0  0
   13.1143   37.6276   34.5694 C   0  0  0  0  0  0  0  0  0  0  0  0
   15.2076   35.6153   32.6741 N   0  0  0  0  0  0  0  0  0  0  0  0
   14.6760   36.2304   34.9184 C   0  0  0  0  0  0  0  0  0  0  0  0
   13.8219   37.0449   35.5786 N   0  0  0  0  0  0  0  0  0  0  0  0
   16.1641   34.7600   33.1548 C   0  0  0  0  0  0  0  0  0  0  0  0
   15.6528   35.3505   35.4132 C   0  0  0  0  0  0  0  0  0  0  0  0
   16.3795   34.6314   34.5043 N   0  0  0  0  0  0  0  0  0  0  0  0
   15.9002   35.1931   36.8091 N   0  0  0  0  0  0  0  0  0  0  0  0
    9.0120   45.4317   33.6712 H   0  0  0  0  0  0  0  0  0  0  0  0
   10.7259   46.9687   33.1212 H   0  0  0  0  0  0  0  0  0  0  0  0
   11.8906   45.7658   32.9469 H   0  0  0  0  0  0  0  0  0  0  0  0
    9.3416   43.8328   31.4761 H   0  0  0  0  0  0  0  0  0  0  0  0
   10.7230   44.8814   31.1555 H   0  0  0  0  0  0  0  0  0  0  0  0
    7.0082   44.7172   31.5818 H   0  0  0  0  0  0  0  0  0  0  0  0
   10.3466   47.1864   30.4142 H   0  0  0  0  0  0  0  0  0  0  0  0
    5.4622   46.3071   30.5017 H   0  0  0  0  0  0  0  0  0  0  0  0
    8.8155   48.7695   29.3603 H   0  0  0  0  0  0  0  0  0  0  0  0
    7.0923   50.3274   28.9846 H   0  0  0  0  0  0  0  0  0  0  0  0
    5.4973   50.2180   28.2137 H   0  0  0  0  0  0  0  0  0  0  0  0
    8.7794   50.4874   27.3344 H   0  0  0  0  0  0  0  0  0  0  0  0
    6.6185   47.0387   24.4481 H   0  0  0  0  0  0  0  0  0  0  0  0
   10.3248   49.5942   22.9253 H   0  0  0  0  0  0  0  0  0  0  0  0
   11.1743   48.2835   23.8745 H   0  0  0  0  0  0  0  0  0  0  0  0
    9.8215   40.7200   31.7636 H   0  0  0  0  0  0  0  0  0  0  0  0
   11.3803   41.5437   31.4663 H   0  0  0  0  0  0  0  0  0  0  0  0
   11.6999   39.5041   30.3482 H   0  0  0  0  0  0  0  0  0  0  0  0
   10.1085   38.2767   32.6603 H   0  0  0  0  0  0  0  0  0  0  0  0
   13.6680   37.4520   31.2229 H   0  0  0  0  0  0  0  0  0  0  0  0
    9.0016   37.3868   30.9350 H   0  0  0  0  0  0  0  0  0  0  0  0
   11.2666   36.3062   32.5084 H   0  0  0  0  0  0  0  0  0  0  0  0
   12.1389   35.5126   30.6150 H   0  0  0  0  0  0  0  0  0  0  0  0
   12.3300   38.3529   34.7449 H   0  0  0  0  0  0  0  0  0  0  0  0
   16.7560   34.1779   32.4621 H   0  0  0  0  0  0  0  0  0  0  0  0
   15.3534   35.7359   37.5140 H   0  0  0  0  0  0  0  0  0  0  0  0
   16.6347   34.5298   37.1416 H   0  0  0  0  0  0  0  0  0  0  0  0
  1  2  2  0
  1  3  1  0
  3  4  1  0
  4  5  1  0
  6  1  1  0
  7  6  1  0
  6  8  1  0
  8  9  1  0
  9 10  2  0
 11  9  1  0
 10 12  1  0
 13 11  2  0
 12 14  2  0
 14 13  1  0
 14 15  1  0
 15 16  1  0
 16 17  1  0
 17 18  2  0
 19 17  1  0
 18 20  1  0
 21 19  2  0
 19 22  1  0
 20 23  1  0
 20 24  2  0
 24 21  1  0
 22 25  1  0
 22 26  2  0
 23 27  1  0
 24 28  1  0
 27 28  1  0
  4 29  2  0
  4 30  1  0
 31 30  1  0
 31 32  1  0
 32 33  1  0
 32 34  1  0
 33 35  1  0
 34 36  1  0
 34 37  1  0
 37 35  1  0
 35 38  1  0
 37 39  1  0
 40 38  1  0
 41 38  1  0
 42 40  2  0
 40 43  1  0
 44 41  2  0
 45 42  1  0
 43 46  2  0
 43 44  1  0
 47 45  2  0
 47 46  1  0
 46 48  1  0
  6 49  1  1
  7 50  1  0
  7 51  1  0
  8 52  1  0
  8 53  1  0
 10 54  1  0
 11 55  1  0
 12 56  1  0
 13 57  1  0
 16 58  1  0
 16 59  1  0
 18 60  1  0
 21 61  1  0
 27 62  1  0
 27 63  1  0
 31 64  1  0
 31 65  1  0
 32 66  1  0
 34 67  1  0
 35 68  1  0
 36 69  1  0
 37 70  1  0
 39 71  1  0
 41 72  1  0
 45 73  1  0
 48 74  1  0
 48 75  1  0
M  CHG  3   5  -1  22   1  25  -1
M  END
>  <EmbedRMS>  (10) 
0.0824117000463

$$$$

     RDKit          3D

 75 80  0  0  0  0  0  0  0  0999 V2000
   10.2834   43.7662   33.8255 C   0  0  0  0  0  0  0  0  0  0  0  0
   11.4101   43.5930   34.3752 O   0  0  0  0  0  0  0  0  0  0  0  0
    9.3637   42.7255   33.7347 O   0  0  0  0  0  0  0  0  0  0  0  0
    9.8906   41.2265   34.2933 P   0  0  0  0  0  0  0  0  0  0  0  0
   10.3742   41.4557   35.8827 O   0  0  0  0  0  0  0  0  0  0  0  0
    9.9547   45.0695   33.2034 C   0  0  1  0  0  0  0  0  0  0  0  0
   11.0274   46.0321   33.4758 N   0  0  0  0  0  0  0  0  0  0  0  0
    9.7471   44.8483   31.6873 C   0  0  0  0  0  0  0  0  0  0  0  0
    8.7926   45.8406   31.0839 C   0  0  0  0  0  0  0  0  0  0  0  0
    7.4058   45.6013   31.0999 C   0  0  0  0  0  0  0  0  0  0  0  0
    9.2816   46.9883   30.4426 C   0  0  0  0  0  0  0  0  0  0  0  0
    6.5244   46.5018   30.4862 C   0  0  0  0  0  0  0  0  0  0  0  0
    8.4003   47.8889   29.8335 C   0  0  0  0  0  0  0  0  0  0  0  0
    7.0189   47.6548   29.8434 C   0  0  0  0  0  0  0  0  0  0  0  0
    6.1832   48.5868   29.2078 O   0  0  0  0  0  0  0  0  0  0  0  0
    4.7814   48.4249   28.9867 C   0  0  0  0  0  0  0  0  0  0  0  0
    4.5159   47.3309   27.9779 C   0  0  0  0  0  0  0  0  0  0  0  0
    3.6399   46.2807   28.3405 C   0  0  0  0  0  0  0  0  0  0  0  0
    5.1528   47.3072   26.6911 C   0  0  0  0  0  0  0  0  0  0  0  0
    3.4471   45.2393   27.4429 C   0  0  0  0  0  0  0  0  0  0  0  0
    4.9267   46.2119   25.8256 C   0  0  0  0  0  0  0  0  0  0  0  0
    6.0319   48.3599   26.2555 N   0  0  0  0  0  0  0  0  0  0  0  0
    2.6545   44.1169   27.5870 O   0  0  0  0  0  0  0  0  0  0  0  0
    4.0658   45.2045   26.2405 C   0  0  0  0  0  0  0  0  0  0  0  0
    7.0497   48.0823   25.3722 O   0  0  0  0  0  0  0  0  0  0  0  0
    5.7866   49.5519   26.5312 O   0  0  0  0  0  0  0  0  0  0  0  0
    2.7850   43.3275   26.3967 C   0  0  0  0  0  0  0  0  0  0  0  0
    3.6949   44.0586   25.5635 O   0  0  0  0  0  0  0  0  0  0  0  0
    8.8123   40.1850   34.2126 O   0  0  0  0  0  0  0  0  0  0  0  0
   11.2407   40.7945   33.3670 O   0  0  0  0  0  0  0  0  0  0  0  0
   10.9135   40.6867   31.9954 C   0  0  0  0  0  0  0  0  0  0  0  0
   11.5167   39.3787   31.4404 C   0  0  0  0  0  0  0  0  0  0  0  0
   12.7486   39.0849   32.0734 O   0  0  0  0  0  0  0  0  0  0  0  0
   10.6039   38.1884   31.6670 C   0  0  0  0  0  0  0  0  0  0  0  0
   12.9329   37.6776   32.0284 C   0  0  0  0  0  0  0  0  0  0  0  0
    9.6373   38.0939   30.6485 O   0  0  0  0  0  0  0  0  0  0  0  0
   11.5737   37.0141   31.7056 C   0  0  0  0  0  0  0  0  0  0  0  0
   13.4853   37.2120   33.3238 N   0  0  0  0  0  0  0  0  0  0  0  0
   11.6209   36.3379   30.4684 O   0  0  0  0  0  0  0  0  0  0  0  0
   14.4804   36.3319   33.5726 C   0  0  0  0  0  0  0  0  0  0  0  0
   13.1141   37.6275   34.5689 C   0  0  0  0  0  0  0  0  0  0  0  0
   15.2076   35.6152   32.6740 N   0  0  0  0  0  0  0  0  0  0  0  0
   14.6761   36.2306   34.9181 C   0  0  0  0  0  0  0  0  0  0  0  0
   13.8218   37.0451   35.5782 N   0  0  0  0  0  0  0  0  0  0  0  0
   16.1641   34.7600   33.1548 C   0  0  0  0  0  0  0  0  0  0  0  0
   15.6527   35.3506   35.4131 C   0  0  0  0  0  0  0  0  0  0  0  0
   16.3795   34.6314   34.5043 N   0  0  0  0  0  0  0  0  0  0  0  0
   15.9000   35.1933   36.8090 N   0  0  0  0  0  0  0  0  0  0  0  0
    9.0120   45.4318   33.6709 H   0  0  0  0  0  0  0  0  0  0  0  0
   10.7261   46.9688   33.1216 H   0  0  0  0  0  0  0  0  0  0  0  0
   11.8908   45.7658   32.9474 H   0  0  0  0  0  0  0  0  0  0  0  0
   10.7236   44.8823   31.1555 H   0  0  0  0  0  0  0  0  0  0  0  0
    9.3425   43.8330   31.4757 H   0  0  0  0  0  0  0  0  0  0  0  0
    7.0098   44.7176   31.5851 H   0  0  0  0  0  0  0  0  0  0  0  0
   10.3459   47.1868   30.4111 H   0  0  0  0  0  0  0  0  0  0  0  0
    5.4657   46.2932   30.5264 H   0  0  0  0  0  0  0  0  0  0  0  0
    8.7935   48.7701   29.3426 H   0  0  0  0  0  0  0  0  0  0  0  0
    4.2695   48.2354   29.9551 H   0  0  0  0  0  0  0  0  0  0  0  0
    4.3668   49.3783   28.6001 H   0  0  0  0  0  0  0  0  0  0  0  0
    3.1364   46.2664   29.2989 H   0  0  0  0  0  0  0  0  0  0  0  0
    5.3942   46.1558   24.8510 H   0  0  0  0  0  0  0  0  0  0  0  0
    1.8008   43.2266   25.8930 H   0  0  0  0  0  0  0  0  0  0  0  0
    3.2069   42.3302   26.6417 H   0  0  0  0  0  0  0  0  0  0  0  0
    9.8227   40.7227   31.7630 H   0  0  0  0  0  0  0  0  0  0  0  0
   11.3830   41.5438   31.4669 H   0  0  0  0  0  0  0  0  0  0  0  0
   11.6978   39.5036   30.3478 H   0  0  0  0  0  0  0  0  0  0  0  0
   10.1084   38.2786   32.6627 H   0  0  0  0  0  0  0  0  0  0  0  0
   13.6637   37.4471   31.2214 H   0  0  0  0  0  0  0  0  0  0  0  0
    8.9763   37.4191   30.9532 H   0  0  0  0  0  0  0  0  0  0  0  0
   11.2822   36.3054   32.5172 H   0  0  0  0  0  0  0  0  0  0  0  0
   10.8657   35.6936   30.4653 H   0  0  0  0  0  0  0  0  0  0  0  0
   12.3294   38.3525   34.7444 H   0  0  0  0  0  0  0  0  0  0  0  0
   16.7560   34.1777   32.4621 H   0  0  0  0  0  0  0  0  0  0  0  0
   16.6345   34.5300   37.1417 H   0  0  0  0  0  0  0  0  0  0  0  0
   15.3532   35.7361   37.5138 H   0  0  0  0  0  0  0  0  0  0  0  0
  1  2  2  0
  1  3  1  0
  3  4  1  0
  4  5  1  0
  6  1  1  0
  7  6  1  0
  6  8  1  0
  8  9  1  0
  9 10  2  0
 11  9  1  0
 10 12  1  0
 13 11  2  0
 12 14  2  0
 14 13  1  0
 14 15  1  0
 15 16  1  0
 16 17  1  0
 17 18  2  0
 19 17  1  0
 18 20  1  0
 21 19  2  0
 19 22  1  0
 20 23  1  0
 20 24  2  0
 24 21  1  0
 22 25  1  0
 22 26  2  0
 23 27  1  0
 24 28  1  0
 27 28  1  0
  4 29  2  0
  4 30  1  0
 31 30  1  0
 31 32  1  0
 32 33  1  0
 32 34  1  0
 33 35  1  0
 34 36  1  0
 34 37  1  0
 37 35  1  0
 35 38  1  0
 37 39  1  0
 40 38  1  0
 41 38  1  0
 42 40  2  0
 40 43  1  0
 44 41  2  0
 45 42  1  0
 43 46  2  0
 43 44  1  0
 47 45  2  0
 47 46  1  0
 46 48  1  0
  6 49  1  1
  7 50  1  0
  7 51  1  0
  8 52  1  0
  8 53  1  0
 10 54  1  0
 11 55  1  0
 12 56  1  0
 13 57  1  0
 16 58  1  0
 16 59  1  0
 18 60  1  0
 21 61  1  0
 27 62  1  0
 27 63  1  0
 31 64  1  0
 31 65  1  0
 32 66  1  0
 34 67  1  0
 35 68  1  0
 36 69  1  0
 37 70  1  0
 39 71  1  0
 41 72  1  0
 45 73  1  0
 48 74  1  0
 48 75  1  0
M  CHG  3   5  -1  22   1  25  -1
M  END
>  <EmbedRMS>  (11) 
0.0825632006908

$$$$

     RDKit          3D

 75 80  0  0  0  0  0  0  0  0999 V2000
   10.2835   43.7661   33.8256 C   0  0  0  0  0  0  0  0  0  0  0  0
   11.4102   43.5930   34.3753 O   0  0  0  0  0  0  0  0  0  0  0  0
    9.3640   42.7253   33.7346 O   0  0  0  0  0  0  0  0  0  0  0  0
    9.8908   41.2265   34.2938 P   0  0  0  0  0  0  0  0  0  0  0  0
   10.3732   41.4559   35.8835 O   0  0  0  0  0  0  0  0  0  0  0  0
    9.9547   45.0695   33.2036 C   0  0  1  0  0  0  0  0  0  0  0  0
   11.0272   46.0323   33.4760 N   0  0  0  0  0  0  0  0  0  0  0  0
    9.7471   44.8484   31.6876 C   0  0  0  0  0  0  0  0  0  0  0  0
    8.7925   45.8410   31.0845 C   0  0  0  0  0  0  0  0  0  0  0  0
    7.4059   45.6007   31.0991 C   0  0  0  0  0  0  0  0  0  0  0  0
    9.2818   46.9877   30.4414 C   0  0  0  0  0  0  0  0  0  0  0  0
    6.5247   46.5004   30.4842 C   0  0  0  0  0  0  0  0  0  0  0  0
    8.4005   47.8879   29.8315 C   0  0  0  0  0  0  0  0  0  0  0  0
    7.0186   47.6576   29.8478 C   0  0  0  0  0  0  0  0  0  0  0  0
    6.1802   48.5971   29.2258 O   0  0  0  0  0  0  0  0  0  0  0  0
    4.7520   48.5632   29.2426 C   0  0  0  0  0  0  0  0  0  0  0  0
    4.2233   48.8537   30.6294 C   0  0  0  0  0  0  0  0  0  0  0  0
    4.7759   49.9444   31.3411 C   0  0  0  0  0  0  0  0  0  0  0  0
    3.2215   48.0411   31.2529 C   0  0  0  0  0  0  0  0  0  0  0  0
    4.3611   50.1598   32.6490 C   0  0  0  0  0  0  0  0  0  0  0  0
    2.8497   48.2979   32.5928 C   0  0  0  0  0  0  0  0  0  0  0  0
    2.5594   46.9862   30.5390 N   0  0  0  0  0  0  0  0  0  0  0  0
    4.7726   51.1408   33.5304 O   0  0  0  0  0  0  0  0  0  0  0  0
    3.4436   49.3674   33.2505 C   0  0  0  0  0  0  0  0  0  0  0  0
    2.0369   47.2249   29.2889 O   0  0  0  0  0  0  0  0  0  0  0  0
    2.2509   45.9307   31.1299 O   0  0  0  0  0  0  0  0  0  0  0  0
    4.0667   50.9511   34.7644 C   0  0  0  0  0  0  0  0  0  0  0  0
    3.2284   49.8088   34.5419 O   0  0  0  0  0  0  0  0  0  0  0  0
    8.8127   40.1848   34.2122 O   0  0  0  0  0  0  0  0  0  0  0  0
   11.2420   40.7941   33.3697 O   0  0  0  0  0  0  0  0  0  0  0  0
   10.9186   40.6911   31.9971 C   0  0  0  0  0  0  0  0  0  0  0  0
   11.5172   39.3815   31.4407 C   0  0  0  0  0  0  0  0  0  0  0  0
   12.7493   39.0856   32.0728 O   0  0  0  0  0  0  0  0  0  0  0  0
   10.6023   38.1908   31.6665 C   0  0  0  0  0  0  0  0  0  0  0  0
   12.9319   37.6781   32.0281 C   0  0  0  0  0  0  0  0  0  0  0  0
    9.6392   38.0798   30.6452 O   0  0  0  0  0  0  0  0  0  0  0  0
   11.5715   37.0165   31.7056 C   0  0  0  0  0  0  0  0  0  0  0  0
   13.4846   37.2121   33.3235 N   0  0  0  0  0  0  0  0  0  0  0  0
   11.6187   36.3384   30.4695 O   0  0  0  0  0  0  0  0  0  0  0  0
   14.4801   36.3321   33.5724 C   0  0  0  0  0  0  0  0  0  0  0  0
   13.1137   37.6275   34.5688 C   0  0  0  0  0  0  0  0  0  0  0  0
   15.2073   35.6153   32.6738 N   0  0  0  0  0  0  0  0  0  0  0  0
   14.6759   36.2308   34.9179 C   0  0  0  0  0  0  0  0  0  0  0  0
   13.8216   37.0452   35.5781 N   0  0  0  0  0  0  0  0  0  0  0  0
   16.1640   34.7602   33.1546 C   0  0  0  0  0  0  0  0  0  0  0  0
   15.6526   35.3508   35.4129 C   0  0  0  0  0  0  0  0  0  0  0  0
   16.3794   34.6317   34.5041 N   0  0  0  0  0  0  0  0  0  0  0  0
   15.8999   35.1935   36.8088 N   0  0  0  0  0  0  0  0  0  0  0  0
    9.0119   45.4316   33.6713 H   0  0  0  0  0  0  0  0  0  0  0  0
   10.7258   46.9689   33.1217 H   0  0  0  0  0  0  0  0  0  0  0  0
   11.8907   45.7661   32.9477 H   0  0  0  0  0  0  0  0  0  0  0  0
    9.3426   43.8331   31.4758 H   0  0  0  0  0  0  0  0  0  0  0  0
   10.7236   44.8826   31.1559 H   0  0  0  0  0  0  0  0  0  0  0  0
    7.0103   44.7146   31.5803 H   0  0  0  0  0  0  0  0  0  0  0  0
   10.3461   47.1859   30.4095 H   0  0  0  0  0  0  0  0  0  0  0  0
    5.4670   46.2821   30.5082 H   0  0  0  0  0  0  0  0  0  0  0  0
    8.7937   48.7706   29.3432 H   0  0  0  0  0  0  0  0  0  0  0  0
    4.4124   47.5876   28.8421 H   0  0  0  0  0  0  0  0  0  0  0  0
    4.3781   49.3520   28.5572 H   0  0  0  0  0  0  0  0  0  0  0  0
    5.5245   50.5884   30.8967 H   0  0  0  0  0  0  0  0  0  0  0  0
    2.1005   47.6993   33.0948 H   0  0  0  0  0  0  0  0  0  0  0  0
    4.7819   50.7468   35.5885 H   0  0  0  0  0  0  0  0  0  0  0  0
    3.4463   51.8429   34.9928 H   0  0  0  0  0  0  0  0  0  0  0  0
    9.8299   40.7409   31.7613 H   0  0  0  0  0  0  0  0  0  0  0  0
   11.3967   41.5460   31.4728 H   0  0  0  0  0  0  0  0  0  0  0  0
   11.6975   39.5067   30.3481 H   0  0  0  0  0  0  0  0  0  0  0  0
   10.1076   38.2647   32.6645 H   0  0  0  0  0  0  0  0  0  0  0  0
   13.6621   37.4467   31.2209 H   0  0  0  0  0  0  0  0  0  0  0  0
    8.8975   38.6944   30.8831 H   0  0  0  0  0  0  0  0  0  0  0  0
   11.2806   36.3073   32.5170 H   0  0  0  0  0  0  0  0  0  0  0  0
   10.8492   35.7110   30.4586 H   0  0  0  0  0  0  0  0  0  0  0  0
   12.3290   38.3524   34.7444 H   0  0  0  0  0  0  0  0  0  0  0  0
   16.7559   34.1780   32.4619 H   0  0  0  0  0  0  0  0  0  0  0  0
   15.3532   35.7362   37.5137 H   0  0  0  0  0  0  0  0  0  0  0  0
   16.6344   34.5301   37.1414 H   0  0  0  0  0  0  0  0  0  0  0  0
  1  2  2  0
  1  3  1  0
  3  4  1  0
  4  5  1  0
  6  1  1  0
  7  6  1  0
  6  8  1  0
  8  9  1  0
  9 10  2  0
 11  9  1  0
 10 12  1  0
 13 11  2  0
 12 14  2  0
 14 13  1  0
 14 15  1  0
 15 16  1  0
 16 17  1  0
 17 18  2  0
 19 17  1  0
 18 20  1  0
 21 19  2  0
 19 22  1  0
 20 23  1  0
 20 24  2  0
 24 21  1  0
 22 25  1  0
 22 26  2  0
 23 27  1  0
 24 28  1  0
 27 28  1  0
  4 29  2  0
  4 30  1  0
 31 30  1  0
 31 32  1  0
 32 33  1  0
 32 34  1  0
 33 35  1  0
 34 36  1  0
 34 37  1  0
 37 35  1  0
 35 38  1  0
 37 39  1  0
 40 38  1  0
 41 38  1  0
 42 40  2  0
 40 43  1  0
 44 41  2  0
 45 42  1  0
 43 46  2  0
 43 44  1  0
 47 45  2  0
 47 46  1  0
 46 48  1  0
  6 49  1  1
  7 50  1  0
  7 51  1  0
  8 52  1  0
  8 53  1  0
 10 54  1  0
 11 55  1  0
 12 56  1  0
 13 57  1  0
 16 58  1  0
 16 59  1  0
 18 60  1  0
 21 61  1  0
 27 62  1  0
 27 63  1  0
 31 64  1  0
 31 65  1  0
 32 66  1  0
 34 67  1  0
 35 68  1  0
 36 69  1  0
 37 70  1  0
 39 71  1  0
 41 72  1  0
 45 73  1  0
 48 74  1  0
 48 75  1  0
M  CHG  3   5  -1  22   1  25  -1
M  END
>  <EmbedRMS>  (12) 
0.0829295604543

$$$$

     RDKit          3D

 75 80  0  0  0  0  0  0  0  0999 V2000
   10.2834   43.7662   33.8256 C   0  0  0  0  0  0  0  0  0  0  0  0
   11.4101   43.5930   34.3752 O   0  0  0  0  0  0  0  0  0  0  0  0
    9.3635   42.7257   33.7352 O   0  0  0  0  0  0  0  0  0  0  0  0
    9.8899   41.2270   34.2947 P   0  0  0  0  0  0  0  0  0  0  0  0
   10.3732   41.4563   35.8841 O   0  0  0  0  0  0  0  0  0  0  0  0
    9.9547   45.0695   33.2034 C   0  0  1  0  0  0  0  0  0  0  0  0
   11.0274   46.0322   33.4758 N   0  0  0  0  0  0  0  0  0  0  0  0
    9.7471   44.8482   31.6873 C   0  0  0  0  0  0  0  0  0  0  0  0
    8.7926   45.8406   31.0839 C   0  0  0  0  0  0  0  0  0  0  0  0
    7.4058   45.6013   31.0999 C   0  0  0  0  0  0  0  0  0  0  0  0
    9.2817   46.9883   30.4426 C   0  0  0  0  0  0  0  0  0  0  0  0
    6.5245   46.5018   30.4862 C   0  0  0  0  0  0  0  0  0  0  0  0
    8.4003   47.8889   29.8335 C   0  0  0  0  0  0  0  0  0  0  0  0
    7.0189   47.6548   29.8434 C   0  0  0  0  0  0  0  0  0  0  0  0
    6.1831   48.5868   29.2079 O   0  0  0  0  0  0  0  0  0  0  0  0
    4.7813   48.4246   28.9868 C   0  0  0  0  0  0  0  0  0  0  0  0
    4.5160   47.3307   27.9779 C   0  0  0  0  0  0  0  0  0  0  0  0
    3.6404   46.2802   28.3406 C   0  0  0  0  0  0  0  0  0  0  0  0
    5.1525   47.3074   26.6910 C   0  0  0  0  0  0  0  0  0  0  0  0
    3.4478   45.2387   27.4430 C   0  0  0  0  0  0  0  0  0  0  0  0
    4.9266   46.2121   25.8254 C   0  0  0  0  0  0  0  0  0  0  0  0
    6.0312   48.3604   26.2552 N   0  0  0  0  0  0  0  0  0  0  0  0
    2.6557   44.1159   27.5873 O   0  0  0  0  0  0  0  0  0  0  0  0
    4.0663   45.2042   26.2405 C   0  0  0  0  0  0  0  0  0  0  0  0
    7.0481   48.0834   25.3705 O   0  0  0  0  0  0  0  0  0  0  0  0
    5.7863   49.5522   26.5321 O   0  0  0  0  0  0  0  0  0  0  0  0
    2.7863   43.3267   26.3970 C   0  0  0  0  0  0  0  0  0  0  0  0
    3.6958   44.0581   25.5636 O   0  0  0  0  0  0  0  0  0  0  0  0
    8.8120   40.1851   34.2132 O   0  0  0  0  0  0  0  0  0  0  0  0
   11.2403   40.7947   33.3700 O   0  0  0  0  0  0  0  0  0  0  0  0
   10.9144   40.6914   31.9982 C   0  0  0  0  0  0  0  0  0  0  0  0
   11.5270   39.3912   31.4385 C   0  0  0  0  0  0  0  0  0  0  0  0
   12.7520   39.0911   32.0836 O   0  0  0  0  0  0  0  0  0  0  0  0
   10.6113   38.1932   31.6451 C   0  0  0  0  0  0  0  0  0  0  0  0
   12.9413   37.6838   32.0297 C   0  0  0  0  0  0  0  0  0  0  0  0
    9.6064   38.0878   30.6599 O   0  0  0  0  0  0  0  0  0  0  0  0
   11.5822   37.0198   31.6877 C   0  0  0  0  0  0  0  0  0  0  0  0
   13.4840   37.2104   33.3254 N   0  0  0  0  0  0  0  0  0  0  0  0
   11.6179   36.3072   30.4690 O   0  0  0  0  0  0  0  0  0  0  0  0
   14.4797   36.3309   33.5738 C   0  0  0  0  0  0  0  0  0  0  0  0
   13.1137   37.6269   34.5702 C   0  0  0  0  0  0  0  0  0  0  0  0
   15.2074   35.6152   32.6747 N   0  0  0  0  0  0  0  0  0  0  0  0
   14.6756   36.2298   34.9190 C   0  0  0  0  0  0  0  0  0  0  0  0
   13.8217   37.0445   35.5793 N   0  0  0  0  0  0  0  0  0  0  0  0
   16.1643   34.7603   33.1551 C   0  0  0  0  0  0  0  0  0  0  0  0
   15.6528   35.3503   35.4136 C   0  0  0  0  0  0  0  0  0  0  0  0
   16.3798   34.6316   34.5046 N   0  0  0  0  0  0  0  0  0  0  0  0
   15.9004   35.1930   36.8094 N   0  0  0  0  0  0  0  0  0  0  0  0
    9.0120   45.4318   33.6710 H   0  0  0  0  0  0  0  0  0  0  0  0
   11.8908   45.7658   32.9474 H   0  0  0  0  0  0  0  0  0  0  0  0
   10.7261   46.9688   33.1213 H   0  0  0  0  0  0  0  0  0  0  0  0
   10.7236   44.8822   31.1555 H   0  0  0  0  0  0  0  0  0  0  0  0
    9.3425   43.8330   31.4757 H   0  0  0  0  0  0  0  0  0  0  0  0
    7.0099   44.7175   31.5850 H   0  0  0  0  0  0  0  0  0  0  0  0
   10.3459   47.1869   30.4111 H   0  0  0  0  0  0  0  0  0  0  0  0
    5.4658   46.2931   30.5265 H   0  0  0  0  0  0  0  0  0  0  0  0
    8.7935   48.7701   29.3426 H   0  0  0  0  0  0  0  0  0  0  0  0
    4.3664   49.3780   28.6004 H   0  0  0  0  0  0  0  0  0  0  0  0
    4.2695   48.2349   29.9552 H   0  0  0  0  0  0  0  0  0  0  0  0
    3.1371   46.2656   29.2992 H   0  0  0  0  0  0  0  0  0  0  0  0
    5.3938   46.1562   24.8507 H   0  0  0  0  0  0  0  0  0  0  0  0
    1.8021   43.2254   25.8934 H   0  0  0  0  0  0  0  0  0  0  0  0
    3.2084   42.3295   26.6418 H   0  0  0  0  0  0  0  0  0  0  0  0
    9.8235   40.7202   31.7653 H   0  0  0  0  0  0  0  0  0  0  0  0
   11.3777   41.5549   31.4744 H   0  0  0  0  0  0  0  0  0  0  0  0
   11.7311   39.5362   30.3532 H   0  0  0  0  0  0  0  0  0  0  0  0
   10.1202   38.2697   32.6410 H   0  0  0  0  0  0  0  0  0  0  0  0
   13.6850   37.4639   31.2321 H   0  0  0  0  0  0  0  0  0  0  0  0
   10.0250   38.1793   29.7654 H   0  0  0  0  0  0  0  0  0  0  0  0
   11.2757   36.3135   32.4907 H   0  0  0  0  0  0  0  0  0  0  0  0
   11.9838   36.9111   29.7708 H   0  0  0  0  0  0  0  0  0  0  0  0
   12.3307   38.3536   34.7457 H   0  0  0  0  0  0  0  0  0  0  0  0
   16.7566   34.1787   32.4623 H   0  0  0  0  0  0  0  0  0  0  0  0
   15.3535   35.7355   37.5144 H   0  0  0  0  0  0  0  0  0  0  0  0
   16.6353   34.5301   37.1419 H   0  0  0  0  0  0  0  0  0  0  0  0
  1  2  2  0
  1  3  1  0
  3  4  1  0
  4  5  1  0
  6  1  1  0
  7  6  1  0
  6  8  1  0
  8  9  1  0
  9 10  2  0
 11  9  1  0
 10 12  1  0
 13 11  2  0
 12 14  2  0
 14 13  1  0
 14 15  1  0
 15 16  1  0
 16 17  1  0
 17 18  2  0
 19 17  1  0
 18 20  1  0
 21 19  2  0
 19 22  1  0
 20 23  1  0
 20 24  2  0
 24 21  1  0
 22 25  1  0
 22 26  2  0
 23 27  1  0
 24 28  1  0
 27 28  1  0
  4 29  2  0
  4 30  1  0
 31 30  1  0
 31 32  1  0
 32 33  1  0
 32 34  1  0
 33 35  1  0
 34 36  1  0
 34 37  1  0
 37 35  1  0
 35 38  1  0
 37 39  1  0
 40 38  1  0
 41 38  1  0
 42 40  2  0
 40 43  1  0
 44 41  2  0
 45 42  1  0
 43 46  2  0
 43 44  1  0
 47 45  2  0
 47 46  1  0
 46 48  1  0
  6 49  1  1
  7 50  1  0
  7 51  1  0
  8 52  1  0
  8 53  1  0
 10 54  1  0
 11 55  1  0
 12 56  1  0
 13 57  1  0
 16 58  1  0
 16 59  1  0
 18 60  1  0
 21 61  1  0
 27 62  1  0
 27 63  1  0
 31 64  1  0
 31 65  1  0
 32 66  1  0
 34 67  1  0
 35 68  1  0
 36 69  1  0
 37 70  1  0
 39 71  1  0
 41 72  1  0
 45 73  1  0
 48 74  1  0
 48 75  1  0
M  CHG  3   5  -1  22   1  25  -1
M  END
>  <EmbedRMS>  (13) 
0.0808347077483

$$$$

     RDKit          3D

 75 80  0  0  0  0  0  0  0  0999 V2000
   10.2834   43.7662   33.8256 C   0  0  0  0  0  0  0  0  0  0  0  0
   11.4102   43.5930   34.3752 O   0  0  0  0  0  0  0  0  0  0  0  0
    9.3637   42.7256   33.7349 O   0  0  0  0  0  0  0  0  0  0  0  0
    9.8902   41.2268   34.2942 P   0  0  0  0  0  0  0  0  0  0  0  0
   10.3736   41.4561   35.8836 O   0  0  0  0  0  0  0  0  0  0  0  0
    9.9547   45.0696   33.2036 C   0  0  1  0  0  0  0  0  0  0  0  0
   11.0273   46.0323   33.4760 N   0  0  0  0  0  0  0  0  0  0  0  0
    9.7471   44.8485   31.6876 C   0  0  0  0  0  0  0  0  0  0  0  0
    8.7925   45.8410   31.0845 C   0  0  0  0  0  0  0  0  0  0  0  0
    7.4059   45.6007   31.0991 C   0  0  0  0  0  0  0  0  0  0  0  0
    9.2817   46.9877   30.4415 C   0  0  0  0  0  0  0  0  0  0  0  0
    6.5247   46.5004   30.4841 C   0  0  0  0  0  0  0  0  0  0  0  0
    8.4005   47.8879   29.8316 C   0  0  0  0  0  0  0  0  0  0  0  0
    7.0186   47.6575   29.8476 C   0  0  0  0  0  0  0  0  0  0  0  0
    6.1803   48.5966   29.2249 O   0  0  0  0  0  0  0  0  0  0  0  0
    4.7522   48.5615   29.2396 C   0  0  0  0  0  0  0  0  0  0  0  0
    4.2212   48.8530   30.6253 C   0  0  0  0  0  0  0  0  0  0  0  0
    4.7713   49.9455   31.3363 C   0  0  0  0  0  0  0  0  0  0  0  0
    3.2196   48.0399   31.2485 C   0  0  0  0  0  0  0  0  0  0  0  0
    4.3541   50.1621   32.6432 C   0  0  0  0  0  0  0  0  0  0  0  0
    2.8455   48.2980   32.5874 C   0  0  0  0  0  0  0  0  0  0  0  0
    2.5600   46.9830   30.5351 N   0  0  0  0  0  0  0  0  0  0  0  0
    4.7629   51.1450   33.5238 O   0  0  0  0  0  0  0  0  0  0  0  0
    3.4368   49.3693   33.2445 C   0  0  0  0  0  0  0  0  0  0  0  0
    2.0386   47.2194   29.2841 O   0  0  0  0  0  0  0  0  0  0  0  0
    2.2526   45.9278   31.1270 O   0  0  0  0  0  0  0  0  0  0  0  0
    4.0553   50.9562   34.7570 C   0  0  0  0  0  0  0  0  0  0  0  0
    3.2190   49.8123   34.5349 O   0  0  0  0  0  0  0  0  0  0  0  0
    8.8121   40.1850   34.2131 O   0  0  0  0  0  0  0  0  0  0  0  0
   11.2404   40.7941   33.3690 O   0  0  0  0  0  0  0  0  0  0  0  0
   10.9143   40.6898   31.9972 C   0  0  0  0  0  0  0  0  0  0  0  0
   11.5261   39.3885   31.4376 C   0  0  0  0  0  0  0  0  0  0  0  0
   12.7504   39.0888   32.0816 O   0  0  0  0  0  0  0  0  0  0  0  0
   10.6115   38.1910   31.6461 C   0  0  0  0  0  0  0  0  0  0  0  0
   12.9357   37.6812   32.0303 C   0  0  0  0  0  0  0  0  0  0  0  0
    9.6145   38.0859   30.6534 O   0  0  0  0  0  0  0  0  0  0  0  0
   11.5769   37.0148   31.7012 C   0  0  0  0  0  0  0  0  0  0  0  0
   13.4849   37.2112   33.3247 N   0  0  0  0  0  0  0  0  0  0  0  0
   11.6193   36.3261   30.4724 O   0  0  0  0  0  0  0  0  0  0  0  0
   14.4802   36.3313   33.5730 C   0  0  0  0  0  0  0  0  0  0  0  0
   13.1141   37.6268   34.5698 C   0  0  0  0  0  0  0  0  0  0  0  0
   15.2074   35.6151   32.6740 N   0  0  0  0  0  0  0  0  0  0  0  0
   14.6761   36.2300   34.9184 C   0  0  0  0  0  0  0  0  0  0  0  0
   13.8221   37.0445   35.5789 N   0  0  0  0  0  0  0  0  0  0  0  0
   16.1642   34.7600   33.1547 C   0  0  0  0  0  0  0  0  0  0  0  0
   15.6529   35.3503   35.4131 C   0  0  0  0  0  0  0  0  0  0  0  0
   16.3797   34.6314   34.5042 N   0  0  0  0  0  0  0  0  0  0  0  0
   15.9004   35.1930   36.8090 N   0  0  0  0  0  0  0  0  0  0  0  0
    9.0120   45.4318   33.6713 H   0  0  0  0  0  0  0  0  0  0  0  0
   11.8907   45.7660   32.9476 H   0  0  0  0  0  0  0  0  0  0  0  0
   10.7259   46.9689   33.1216 H   0  0  0  0  0  0  0  0  0  0  0  0
    9.3426   43.8332   31.4758 H   0  0  0  0  0  0  0  0  0  0  0  0
   10.7236   44.8825   31.1558 H   0  0  0  0  0  0  0  0  0  0  0  0
    7.0102   44.7147   31.5803 H   0  0  0  0  0  0  0  0  0  0  0  0
   10.3460   47.1860   30.4096 H   0  0  0  0  0  0  0  0  0  0  0  0
    5.4670   46.2820   30.5081 H   0  0  0  0  0  0  0  0  0  0  0  0
    8.7937   48.7706   29.3432 H   0  0  0  0  0  0  0  0  0  0  0  0
    4.4138   47.5853   28.8394 H   0  0  0  0  0  0  0  0  0  0  0  0
    4.3786   49.3494   28.5529 H   0  0  0  0  0  0  0  0  0  0  0  0
    5.5196   50.5899   30.8921 H   0  0  0  0  0  0  0  0  0  0  0  0
    2.0964   47.6990   33.0892 H   0  0  0  0  0  0  0  0  0  0  0  0
    3.4332   51.8474   34.9831 H   0  0  0  0  0  0  0  0  0  0  0  0
    4.7695   50.7541   35.5825 H   0  0  0  0  0  0  0  0  0  0  0  0
   11.3779   41.5526   31.4726 H   0  0  0  0  0  0  0  0  0  0  0  0
    9.8233   40.7191   31.7646 H   0  0  0  0  0  0  0  0  0  0  0  0
   11.7283   39.5312   30.3515 H   0  0  0  0  0  0  0  0  0  0  0  0
   10.1127   38.2734   32.6377 H   0  0  0  0  0  0  0  0  0  0  0  0
   13.6692   37.4566   31.2242 H   0  0  0  0  0  0  0  0  0  0  0  0
   10.0533   38.1118   29.7636 H   0  0  0  0  0  0  0  0  0  0  0  0
   11.2607   36.3148   32.5102 H   0  0  0  0  0  0  0  0  0  0  0  0
   12.1496   35.5023   30.6324 H   0  0  0  0  0  0  0  0  0  0  0  0
   12.3302   38.3524   34.7455 H   0  0  0  0  0  0  0  0  0  0  0  0
   16.7562   34.1780   32.4619 H   0  0  0  0  0  0  0  0  0  0  0  0
   15.3536   35.7356   37.5139 H   0  0  0  0  0  0  0  0  0  0  0  0
   16.6351   34.5298   37.1415 H   0  0  0  0  0  0  0  0  0  0  0  0
  1  2  2  0
  1  3  1  0
  3  4  1  0
  4  5  1  0
  6  1  1  0
  7  6  1  0
  6  8  1  0
  8  9  1  0
  9 10  2  0
 11  9  1  0
 10 12  1  0
 13 11  2  0
 12 14  2  0
 14 13  1  0
 14 15  1  0
 15 16  1  0
 16 17  1  0
 17 18  2  0
 19 17  1  0
 18 20  1  0
 21 19  2  0
 19 22  1  0
 20 23  1  0
 20 24  2  0
 24 21  1  0
 22 25  1  0
 22 26  2  0
 23 27  1  0
 24 28  1  0
 27 28  1  0
  4 29  2  0
  4 30  1  0
 31 30  1  0
 31 32  1  0
 32 33  1  0
 32 34  1  0
 33 35  1  0
 34 36  1  0
 34 37  1  0
 37 35  1  0
 35 38  1  0
 37 39  1  0
 40 38  1  0
 41 38  1  0
 42 40  2  0
 40 43  1  0
 44 41  2  0
 45 42  1  0
 43 46  2  0
 43 44  1  0
 47 45  2  0
 47 46  1  0
 46 48  1  0
  6 49  1  1
  7 50  1  0
  7 51  1  0
  8 52  1  0
  8 53  1  0
 10 54  1  0
 11 55  1  0
 12 56  1  0
 13 57  1  0
 16 58  1  0
 16 59  1  0
 18 60  1  0
 21 61  1  0
 27 62  1  0
 27 63  1  0
 31 64  1  0
 31 65  1  0
 32 66  1  0
 34 67  1  0
 35 68  1  0
 36 69  1  0
 37 70  1  0
 39 71  1  0
 41 72  1  0
 45 73  1  0
 48 74  1  0
 48 75  1  0
M  CHG  3   5  -1  22   1  25  -1
M  END
>  <EmbedRMS>  (14) 
0.0816111536434

$$$$

     RDKit          3D

 75 80  0  0  0  0  0  0  0  0999 V2000
   10.2803   43.7665   33.8251 C   0  0  0  0  0  0  0  0  0  0  0  0
   11.4110   43.5919   34.3667 O   0  0  0  0  0  0  0  0  0  0  0  0
    9.3616   42.7252   33.7349 O   0  0  0  0  0  0  0  0  0  0  0  0
    9.8896   41.2269   34.2945 P   0  0  0  0  0  0  0  0  0  0  0  0
   10.3732   41.4568   35.8838 O   0  0  0  0  0  0  0  0  0  0  0  0
    9.9458   45.0737   33.2113 C   0  0  1  0  0  0  0  0  0  0  0  0
   11.0266   46.0293   33.4706 N   0  0  0  0  0  0  0  0  0  0  0  0
    9.7534   44.8539   31.6951 C   0  0  0  0  0  0  0  0  0  0  0  0
    8.7954   45.8412   31.0851 C   0  0  0  0  0  0  0  0  0  0  0  0
    7.4087   45.6001   31.1000 C   0  0  0  0  0  0  0  0  0  0  0  0
    9.2830   46.9873   30.4393 C   0  0  0  0  0  0  0  0  0  0  0  0
    6.5283   46.5004   30.4842 C   0  0  0  0  0  0  0  0  0  0  0  0
    8.4025   47.8883   29.8293 C   0  0  0  0  0  0  0  0  0  0  0  0
    7.0136   47.6527   29.8507 C   0  0  0  0  0  0  0  0  0  0  0  0
    6.0864   48.5265   29.2607 O   0  0  0  0  0  0  0  0  0  0  0  0
    6.3912   49.8136   28.7218 C   0  0  0  0  0  0  0  0  0  0  0  0
    6.7862   50.7788   29.8158 C   0  0  0  0  0  0  0  0  0  0  0  0
    8.0121   51.4738   29.6889 C   0  0  0  0  0  0  0  0  0  0  0  0
    5.9812   50.9744   30.9872 C   0  0  0  0  0  0  0  0  0  0  0  0
    8.4106   52.3084   30.7244 C   0  0  0  0  0  0  0  0  0  0  0  0
    6.4468   51.8287   32.0146 C   0  0  0  0  0  0  0  0  0  0  0  0
    4.7144   50.3128   31.1546 N   0  0  0  0  0  0  0  0  0  0  0  0
    9.5599   53.0691   30.8207 O   0  0  0  0  0  0  0  0  0  0  0  0
    7.6630   52.4757   31.8394 C   0  0  0  0  0  0  0  0  0  0  0  0
    3.8501   50.1724   30.0940 O   0  0  0  0  0  0  0  0  0  0  0  0
    4.3156   50.0061   32.2972 O   0  0  0  0  0  0  0  0  0  0  0  0
    9.5300   53.7584   32.0780 C   0  0  0  0  0  0  0  0  0  0  0  0
    8.3017   53.3512   32.6964 O   0  0  0  0  0  0  0  0  0  0  0  0
    8.8122   40.1844   34.2135 O   0  0  0  0  0  0  0  0  0  0  0  0
   11.2401   40.7950   33.3698 O   0  0  0  0  0  0  0  0  0  0  0  0
   10.9143   40.6914   31.9981 C   0  0  0  0  0  0  0  0  0  0  0  0
   11.5269   39.3912   31.4385 C   0  0  0  0  0  0  0  0  0  0  0  0
   12.7519   39.0911   32.0837 O   0  0  0  0  0  0  0  0  0  0  0  0
   10.6113   38.1932   31.6451 C   0  0  0  0  0  0  0  0  0  0  0  0
   12.9413   37.6838   32.0297 C   0  0  0  0  0  0  0  0  0  0  0  0
    9.6064   38.0877   30.6599 O   0  0  0  0  0  0  0  0  0  0  0  0
   11.5822   37.0197   31.6877 C   0  0  0  0  0  0  0  0  0  0  0  0
   13.4840   37.2105   33.3254 N   0  0  0  0  0  0  0  0  0  0  0  0
   11.6179   36.3072   30.4690 O   0  0  0  0  0  0  0  0  0  0  0  0
   14.4797   36.3309   33.5738 C   0  0  0  0  0  0  0  0  0  0  0  0
   13.1136   37.6269   34.5702 C   0  0  0  0  0  0  0  0  0  0  0  0
   15.2074   35.6152   32.6747 N   0  0  0  0  0  0  0  0  0  0  0  0
   14.6756   36.2298   34.9190 C   0  0  0  0  0  0  0  0  0  0  0  0
   13.8217   37.0445   35.5793 N   0  0  0  0  0  0  0  0  0  0  0  0
   16.1643   34.7603   33.1551 C   0  0  0  0  0  0  0  0  0  0  0  0
   15.6528   35.3503   35.4136 C   0  0  0  0  0  0  0  0  0  0  0  0
   16.3798   34.6316   34.5046 N   0  0  0  0  0  0  0  0  0  0  0  0
   15.9004   35.1930   36.8094 N   0  0  0  0  0  0  0  0  0  0  0  0
    8.9995   45.4384   33.6724 H   0  0  0  0  0  0  0  0  0  0  0  0
   11.0504   46.2280   34.4979 H   0  0  0  0  0  0  0  0  0  0  0  0
   10.7763   46.9369   33.0155 H   0  0  0  0  0  0  0  0  0  0  0  0
    9.3633   43.8353   31.4718 H   0  0  0  0  0  0  0  0  0  0  0  0
   10.7405   44.9069   31.1836 H   0  0  0  0  0  0  0  0  0  0  0  0
    7.0130   44.7157   31.5839 H   0  0  0  0  0  0  0  0  0  0  0  0
   10.3474   47.1844   30.4035 H   0  0  0  0  0  0  0  0  0  0  0  0
    5.4637   46.3044   30.5051 H   0  0  0  0  0  0  0  0  0  0  0  0
    8.8154   48.7555   29.3357 H   0  0  0  0  0  0  0  0  0  0  0  0
    7.1801   49.7161   27.9447 H   0  0  0  0  0  0  0  0  0  0  0  0
    5.4940   50.2071   28.2022 H   0  0  0  0  0  0  0  0  0  0  0  0
    8.6444   51.3557   28.8180 H   0  0  0  0  0  0  0  0  0  0  0  0
    5.8701   51.9957   32.9152 H   0  0  0  0  0  0  0  0  0  0  0  0
   10.3940   53.4524   32.7043 H   0  0  0  0  0  0  0  0  0  0  0  0
    9.5309   54.8564   31.9142 H   0  0  0  0  0  0  0  0  0  0  0  0
   11.3775   41.5548   31.4741 H   0  0  0  0  0  0  0  0  0  0  0  0
    9.8233   40.7200   31.7652 H   0  0  0  0  0  0  0  0  0  0  0  0
   11.7312   39.5361   30.3532 H   0  0  0  0  0  0  0  0  0  0  0  0
   10.1202   38.2696   32.6410 H   0  0  0  0  0  0  0  0  0  0  0  0
   13.6850   37.4639   31.2321 H   0  0  0  0  0  0  0  0  0  0  0  0
   10.0250   38.1792   29.7654 H   0  0  0  0  0  0  0  0  0  0  0  0
   11.2757   36.3135   32.4907 H   0  0  0  0  0  0  0  0  0  0  0  0
   11.9838   36.9111   29.7708 H   0  0  0  0  0  0  0  0  0  0  0  0
   12.3307   38.3536   34.7458 H   0  0  0  0  0  0  0  0  0  0  0  0
   16.7566   34.1787   32.4623 H   0  0  0  0  0  0  0  0  0  0  0  0
   15.3535   35.7355   37.5144 H   0  0  0  0  0  0  0  0  0  0  0  0
   16.6353   34.5301   37.1419 H   0  0  0  0  0  0  0  0  0  0  0  0
  1  2  2  0
  1  3  1  0
  3  4  1  0
  4  5  1  0
  6  1  1  0
  7  6  1  0
  6  8  1  0
  8  9  1  0
  9 10  2  0
 11  9  1  0
 10 12  1  0
 13 11  2  0
 12 14  2  0
 14 13  1  0
 14 15  1  0
 15 16  1  0
 16 17  1  0
 17 18  2  0
 19 17  1  0
 18 20  1  0
 21 19  2  0
 19 22  1  0
 20 23  1  0
 20 24  2  0
 24 21  1  0
 22 25  1  0
 22 26  2  0
 23 27  1  0
 24 28  1  0
 27 28  1  0
  4 29  2  0
  4 30  1  0
 31 30  1  0
 31 32  1  0
 32 33  1  0
 32 34  1  0
 33 35  1  0
 34 36  1  0
 34 37  1  0
 37 35  1  0
 35 38  1  0
 37 39  1  0
 40 38  1  0
 41 38  1  0
 42 40  2  0
 40 43  1  0
 44 41  2  0
 45 42  1  0
 43 46  2  0
 43 44  1  0
 47 45  2  0
 47 46  1  0
 46 48  1  0
  6 49  1  1
  7 50  1  0
  7 51  1  0
  8 52  1  0
  8 53  1  0
 10 54  1  0
 11 55  1  0
 12 56  1  0
 13 57  1  0
 16 58  1  0
 16 59  1  0
 18 60  1  0
 21 61  1  0
 27 62  1  0
 27 63  1  0
 31 64  1  0
 31 65  1  0
 32 66  1  0
 34 67  1  0
 35 68  1  0
 36 69  1  0
 37 70  1  0
 39 71  1  0
 41 72  1  0
 45 73  1  0
 48 74  1  0
 48 75  1  0
M  CHG  3   5  -1  22   1  25  -1
M  END
>  <EmbedRMS>  (15) 
0.0806558697264

$$$$

     RDKit          3D

 75 80  0  0  0  0  0  0  0  0999 V2000
   10.2834   43.7662   33.8256 C   0  0  0  0  0  0  0  0  0  0  0  0
   11.4102   43.5930   34.3752 O   0  0  0  0  0  0  0  0  0  0  0  0
    9.3637   42.7255   33.7350 O   0  0  0  0  0  0  0  0  0  0  0  0
    9.8902   41.2267   34.2942 P   0  0  0  0  0  0  0  0  0  0  0  0
   10.3736   41.4560   35.8836 O   0  0  0  0  0  0  0  0  0  0  0  0
    9.9546   45.0694   33.2035 C   0  0  1  0  0  0  0  0  0  0  0  0
   11.0274   46.0321   33.4755 N   0  0  0  0  0  0  0  0  0  0  0  0
    9.7466   44.8480   31.6875 C   0  0  0  0  0  0  0  0  0  0  0  0
    8.7923   45.8407   31.0842 C   0  0  0  0  0  0  0  0  0  0  0  0
    7.4055   45.6019   31.0995 C   0  0  0  0  0  0  0  0  0  0  0  0
    9.2823   46.9879   30.4426 C   0  0  0  0  0  0  0  0  0  0  0  0
    6.5265   46.5037   30.4847 C   0  0  0  0  0  0  0  0  0  0  0  0
    8.4033   47.8903   29.8325 C   0  0  0  0  0  0  0  0  0  0  0  0
    7.0141   47.6519   29.8456 C   0  0  0  0  0  0  0  0  0  0  0  0
    6.0901   48.5196   29.2410 O   0  0  0  0  0  0  0  0  0  0  0  0
    6.4282   49.6722   28.4675 C   0  0  0  0  0  0  0  0  0  0  0  0
    7.0607   49.2708   27.1534 C   0  0  0  0  0  0  0  0  0  0  0  0
    6.4413   48.2453   26.4008 C   0  0  0  0  0  0  0  0  0  0  0  0
    8.2754   49.8612   26.6723 C   0  0  0  0  0  0  0  0  0  0  0  0
    7.0648   47.8074   25.2396 C   0  0  0  0  0  0  0  0  0  0  0  0
    8.8734   49.3626   25.4930 C   0  0  0  0  0  0  0  0  0  0  0  0
    8.8959   50.9677   27.3439 N   0  0  0  0  0  0  0  0  0  0  0  0
    6.6567   46.8180   24.3659 O   0  0  0  0  0  0  0  0  0  0  0  0
    8.2327   48.3378   24.8085 C   0  0  0  0  0  0  0  0  0  0  0  0
   10.2679   51.0629   27.3789 O   0  0  0  0  0  0  0  0  0  0  0  0
    8.2147   51.9589   27.6781 O   0  0  0  0  0  0  0  0  0  0  0  0
    7.6322   46.7227   23.3189 C   0  0  0  0  0  0  0  0  0  0  0  0
    8.6207   47.7110   23.6400 O   0  0  0  0  0  0  0  0  0  0  0  0
    8.8121   40.1850   34.2131 O   0  0  0  0  0  0  0  0  0  0  0  0
   11.2404   40.7941   33.3690 O   0  0  0  0  0  0  0  0  0  0  0  0
   10.9143   40.6898   31.9972 C   0  0  0  0  0  0  0  0  0  0  0  0
   11.5261   39.3885   31.4376 C   0  0  0  0  0  0  0  0  0  0  0  0
   12.7504   39.0888   32.0816 O   0  0  0  0  0  0  0  0  0  0  0  0
   10.6115   38.1910   31.6460 C   0  0  0  0  0  0  0  0  0  0  0  0
   12.9357   37.6812   32.0303 C   0  0  0  0  0  0  0  0  0  0  0  0
    9.6146   38.0859   30.6533 O   0  0  0  0  0  0  0  0  0  0  0  0
   11.5769   37.0148   31.7012 C   0  0  0  0  0  0  0  0  0  0  0  0
   13.4849   37.2112   33.3247 N   0  0  0  0  0  0  0  0  0  0  0  0
   11.6193   36.3261   30.4724 O   0  0  0  0  0  0  0  0  0  0  0  0
   14.4802   36.3313   33.5730 C   0  0  0  0  0  0  0  0  0  0  0  0
   13.1141   37.6268   34.5698 C   0  0  0  0  0  0  0  0  0  0  0  0
   15.2075   35.6151   32.6741 N   0  0  0  0  0  0  0  0  0  0  0  0
   14.6761   36.2300   34.9184 C   0  0  0  0  0  0  0  0  0  0  0  0
   13.8220   37.0445   35.5789 N   0  0  0  0  0  0  0  0  0  0  0  0
   16.1642   34.7600   33.1547 C   0  0  0  0  0  0  0  0  0  0  0  0
   15.6529   35.3503   35.4131 C   0  0  0  0  0  0  0  0  0  0  0  0
   16.3798   34.6314   34.5042 N   0  0  0  0  0  0  0  0  0  0  0  0
   15.9004   35.1930   36.8090 N   0  0  0  0  0  0  0  0  0  0  0  0
    9.0121   45.4317   33.6713 H   0  0  0  0  0  0  0  0  0  0  0  0
   10.7259   46.9687   33.1212 H   0  0  0  0  0  0  0  0  0  0  0  0
   11.8906   45.7658   32.9468 H   0  0  0  0  0  0  0  0  0  0  0  0
    9.3414   43.8328   31.4762 H   0  0  0  0  0  0  0  0  0  0  0  0
   10.7229   44.8813   31.1555 H   0  0  0  0  0  0  0  0  0  0  0  0
    7.0082   44.7172   31.5819 H   0  0  0  0  0  0  0  0  0  0  0  0
   10.3468   47.1857   30.4130 H   0  0  0  0  0  0  0  0  0  0  0  0
    5.4621   46.3070   30.5018 H   0  0  0  0  0  0  0  0  0  0  0  0
    8.8163   48.7671   29.3555 H   0  0  0  0  0  0  0  0  0  0  0  0
    5.4932   50.2276   28.2459 H   0  0  0  0  0  0  0  0  0  0  0  0
    7.0706   50.3369   29.0780 H   0  0  0  0  0  0  0  0  0  0  0  0
    5.5156   47.7864   26.7251 H   0  0  0  0  0  0  0  0  0  0  0  0
    9.7940   49.7812   25.1072 H   0  0  0  0  0  0  0  0  0  0  0  0
    7.1661   46.9517   22.3377 H   0  0  0  0  0  0  0  0  0  0  0  0
    8.0899   45.7113   23.3115 H   0  0  0  0  0  0  0  0  0  0  0  0
    9.8233   40.7191   31.7647 H   0  0  0  0  0  0  0  0  0  0  0  0
   11.3779   41.5526   31.4727 H   0  0  0  0  0  0  0  0  0  0  0  0
   11.7283   39.5312   30.3515 H   0  0  0  0  0  0  0  0  0  0  0  0
   10.1127   38.2734   32.6376 H   0  0  0  0  0  0  0  0  0  0  0  0
   13.6692   37.4566   31.2242 H   0  0  0  0  0  0  0  0  0  0  0  0
   10.0534   38.1118   29.7635 H   0  0  0  0  0  0  0  0  0  0  0  0
   11.2607   36.3148   32.5102 H   0  0  0  0  0  0  0  0  0  0  0  0
   12.1496   35.5023   30.6324 H   0  0  0  0  0  0  0  0  0  0  0  0
   12.3301   38.3524   34.7455 H   0  0  0  0  0  0  0  0  0  0  0  0
   16.7563   34.1781   32.4619 H   0  0  0  0  0  0  0  0  0  0  0  0
   15.3536   35.7357   37.5139 H   0  0  0  0  0  0  0  0  0  0  0  0
   16.6351   34.5298   37.1415 H   0  0  0  0  0  0  0  0  0  0  0  0
  1  2  2  0
  1  3  1  0
  3  4  1  0
  4  5  1  0
  6  1  1  0
  7  6  1  0
  6  8  1  0
  8  9  1  0
  9 10  2  0
 11  9  1  0
 10 12  1  0
 13 11  2  0
 12 14  2  0
 14 13  1  0
 14 15  1  0
 15 16  1  0
 16 17  1  0
 17 18  2  0
 19 17  1  0
 18 20  1  0
 21 19  2  0
 19 22  1  0
 20 23  1  0
 20 24  2  0
 24 21  1  0
 22 25  1  0
 22 26  2  0
 23 27  1  0
 24 28  1  0
 27 28  1  0
  4 29  2  0
  4 30  1  0
 31 30  1  0
 31 32  1  0
 32 33  1  0
 32 34  1  0
 33 35  1  0
 34 36  1  0
 34 37  1  0
 37 35  1  0
 35 38  1  0
 37 39  1  0
 40 38  1  0
 41 38  1  0
 42 40  2  0
 40 43  1  0
 44 41  2  0
 45 42  1  0
 43 46  2  0
 43 44  1  0
 47 45  2  0
 47 46  1  0
 46 48  1  0
  6 49  1  1
  7 50  1  0
  7 51  1  0
  8 52  1  0
  8 53  1  0
 10 54  1  0
 11 55  1  0
 12 56  1  0
 13 57  1  0
 16 58  1  0
 16 59  1  0
 18 60  1  0
 21 61  1  0
 27 62  1  0
 27 63  1  0
 31 64  1  0
 31 65  1  0
 32 66  1  0
 34 67  1  0
 35 68  1  0
 36 69  1  0
 37 70  1  0
 39 71  1  0
 41 72  1  0
 45 73  1  0
 48 74  1  0
 48 75  1  0
M  CHG  3   5  -1  22   1  25  -1
M  END
>  <EmbedRMS>  (16) 
0.0816334040446

$$$$

     RDKit          3D

 75 80  0  0  0  0  0  0  0  0999 V2000
   10.2838   43.7627   33.8278 C   0  0  0  0  0  0  0  0  0  0  0  0
   11.4104   43.5863   34.3767 O   0  0  0  0  0  0  0  0  0  0  0  0
    9.3629   42.7238   33.7358 O   0  0  0  0  0  0  0  0  0  0  0  0
    9.8893   41.2251   34.2943 P   0  0  0  0  0  0  0  0  0  0  0  0
   10.3731   41.4545   35.8837 O   0  0  0  0  0  0  0  0  0  0  0  0
    9.9548   45.0701   33.2067 C   0  0  1  0  0  0  0  0  0  0  0  0
   11.0199   46.0482   33.4570 N   0  0  0  0  0  0  0  0  0  0  0  0
    9.7499   44.8510   31.6928 C   0  0  0  0  0  0  0  0  0  0  0  0
    8.7941   45.8423   31.0880 C   0  0  0  0  0  0  0  0  0  0  0  0
    7.4075   45.6004   31.0991 C   0  0  0  0  0  0  0  0  0  0  0  0
    9.2830   46.9885   30.4439 C   0  0  0  0  0  0  0  0  0  0  0  0
    6.5285   46.5007   30.4818 C   0  0  0  0  0  0  0  0  0  0  0  0
    8.4033   47.8885   29.8305 C   0  0  0  0  0  0  0  0  0  0  0  0
    7.0146   47.6547   29.8516 C   0  0  0  0  0  0  0  0  0  0  0  0
    6.0873   48.5249   29.2574 O   0  0  0  0  0  0  0  0  0  0  0  0
    6.3461   49.8689   28.8480 C   0  0  0  0  0  0  0  0  0  0  0  0
    6.5347   50.7708   30.0466 C   0  0  0  0  0  0  0  0  0  0  0  0
    7.8260   51.2974   30.2904 C   0  0  0  0  0  0  0  0  0  0  0  0
    5.4452   51.1470   30.9078 C   0  0  0  0  0  0  0  0  0  0  0  0
    8.0054   52.1424   31.3764 C   0  0  0  0  0  0  0  0  0  0  0  0
    5.6928   52.0210   31.9930 C   0  0  0  0  0  0  0  0  0  0  0  0
    4.0913   50.7075   30.6806 N   0  0  0  0  0  0  0  0  0  0  0  0
    9.1667   52.7571   31.8035 O   0  0  0  0  0  0  0  0  0  0  0  0
    6.9848   52.4871   32.1928 C   0  0  0  0  0  0  0  0  0  0  0  0
    3.0388   51.4753   31.1242 O   0  0  0  0  0  0  0  0  0  0  0  0
    3.8467   49.5785   30.2109 O   0  0  0  0  0  0  0  0  0  0  0  0
    8.8528   53.5359   32.9660 C   0  0  0  0  0  0  0  0  0  0  0  0
    7.4489   53.3359   33.1794 O   0  0  0  0  0  0  0  0  0  0  0  0
    8.8113   40.1835   34.2130 O   0  0  0  0  0  0  0  0  0  0  0  0
   11.2397   40.7942   33.3684 O   0  0  0  0  0  0  0  0  0  0  0  0
   10.9125   40.6875   31.9970 C   0  0  0  0  0  0  0  0  0  0  0  0
   11.5169   39.3810   31.4420 C   0  0  0  0  0  0  0  0  0  0  0  0
   12.7500   39.0880   32.0758 O   0  0  0  0  0  0  0  0  0  0  0  0
   10.6043   38.1892   31.6659 C   0  0  0  0  0  0  0  0  0  0  0  0
   12.9395   37.6813   32.0279 C   0  0  0  0  0  0  0  0  0  0  0  0
    9.6353   38.0951   30.6499 O   0  0  0  0  0  0  0  0  0  0  0  0
   11.5804   37.0190   31.6934 C   0  0  0  0  0  0  0  0  0  0  0  0
   13.4851   37.2118   33.3244 N   0  0  0  0  0  0  0  0  0  0  0  0
   11.6118   36.3188   30.4673 O   0  0  0  0  0  0  0  0  0  0  0  0
   14.4801   36.3316   33.5732 C   0  0  0  0  0  0  0  0  0  0  0  0
   13.1139   37.6277   34.5692 C   0  0  0  0  0  0  0  0  0  0  0  0
   15.2076   35.6154   32.6744 N   0  0  0  0  0  0  0  0  0  0  0  0
   14.6756   36.2303   34.9186 C   0  0  0  0  0  0  0  0  0  0  0  0
   13.8215   37.0451   35.5786 N   0  0  0  0  0  0  0  0  0  0  0  0
   16.1642   34.7602   33.1551 C   0  0  0  0  0  0  0  0  0  0  0  0
   15.6526   35.3505   35.4134 C   0  0  0  0  0  0  0  0  0  0  0  0
   16.3796   34.6316   34.5045 N   0  0  0  0  0  0  0  0  0  0  0  0
   15.9000   35.1933   36.8093 N   0  0  0  0  0  0  0  0  0  0  0  0
    9.0100   45.4351   33.6676 H   0  0  0  0  0  0  0  0  0  0  0  0
   11.9349   45.6933   33.0926 H   0  0  0  0  0  0  0  0  0  0  0  0
   11.1136   46.1995   34.4882 H   0  0  0  0  0  0  0  0  0  0  0  0
   10.7301   44.8924   31.1678 H   0  0  0  0  0  0  0  0  0  0  0  0
    9.3505   43.8346   31.4767 H   0  0  0  0  0  0  0  0  0  0  0  0
    7.0108   44.7148   31.5800 H   0  0  0  0  0  0  0  0  0  0  0  0
   10.3478   47.1839   30.4092 H   0  0  0  0  0  0  0  0  0  0  0  0
    5.4640   46.3037   30.4992 H   0  0  0  0  0  0  0  0  0  0  0  0
    8.8189   48.7456   29.3249 H   0  0  0  0  0  0  0  0  0  0  0  0
    5.4852   50.2373   28.2520 H   0  0  0  0  0  0  0  0  0  0  0  0
    7.2214   49.8942   28.1642 H   0  0  0  0  0  0  0  0  0  0  0  0
    8.6663   51.0671   29.6491 H   0  0  0  0  0  0  0  0  0  0  0  0
    4.9016   52.3263   32.6653 H   0  0  0  0  0  0  0  0  0  0  0  0
    9.4294   53.1695   33.8411 H   0  0  0  0  0  0  0  0  0  0  0  0
    9.0626   54.6096   32.7771 H   0  0  0  0  0  0  0  0  0  0  0  0
    9.8217   40.7223   31.7644 H   0  0  0  0  0  0  0  0  0  0  0  0
   11.3812   41.5456   31.4692 H   0  0  0  0  0  0  0  0  0  0  0  0
   11.6985   39.5089   30.3498 H   0  0  0  0  0  0  0  0  0  0  0  0
   10.1109   38.2736   32.6630 H   0  0  0  0  0  0  0  0  0  0  0  0
   13.6783   37.4561   31.2271 H   0  0  0  0  0  0  0  0  0  0  0  0
    9.0020   37.3859   30.9347 H   0  0  0  0  0  0  0  0  0  0  0  0
   11.2807   36.3052   32.4921 H   0  0  0  0  0  0  0  0  0  0  0  0
   11.8819   36.9599   29.7584 H   0  0  0  0  0  0  0  0  0  0  0  0
   12.3303   38.3538   34.7445 H   0  0  0  0  0  0  0  0  0  0  0  0
   16.7564   34.1783   32.4624 H   0  0  0  0  0  0  0  0  0  0  0  0
   16.6347   34.5301   37.1418 H   0  0  0  0  0  0  0  0  0  0  0  0
   15.3532   35.7359   37.5142 H   0  0  0  0  0  0  0  0  0  0  0  0
  1  2  2  0
  1  3  1  0
  3  4  1  0
  4  5  1  0
  6  1  1  0
  7  6  1  0
  6  8  1  0
  8  9  1  0
  9 10  2  0
 11  9  1  0
 10 12  1  0
 13 11  2  0
 12 14  2  0
 14 13  1  0
 14 15  1  0
 15 16  1  0
 16 17  1  0
 17 18  2  0
 19 17  1  0
 18 20  1  0
 21 19  2  0
 19 22  1  0
 20 23  1  0
 20 24  2  0
 24 21  1  0
 22 25  1  0
 22 26  2  0
 23 27  1  0
 24 28  1  0
 27 28  1  0
  4 29  2  0
  4 30  1  0
 31 30  1  0
 31 32  1  0
 32 33  1  0
 32 34  1  0
 33 35  1  0
 34 36  1  0
 34 37  1  0
 37 35  1  0
 35 38  1  0
 37 39  1  0
 40 38  1  0
 41 38  1  0
 42 40  2  0
 40 43  1  0
 44 41  2  0
 45 42  1  0
 43 46  2  0
 43 44  1  0
 47 45  2  0
 47 46  1  0
 46 48  1  0
  6 49  1  1
  7 50  1  0
  7 51  1  0
  8 52  1  0
  8 53  1  0
 10 54  1  0
 11 55  1  0
 12 56  1  0
 13 57  1  0
 16 58  1  0
 16 59  1  0
 18 60  1  0
 21 61  1  0
 27 62  1  0
 27 63  1  0
 31 64  1  0
 31 65  1  0
 32 66  1  0
 34 67  1  0
 35 68  1  0
 36 69  1  0
 37 70  1  0
 39 71  1  0
 41 72  1  0
 45 73  1  0
 48 74  1  0
 48 75  1  0
M  CHG  3   5  -1  22   1  25  -1
M  END
>  <EmbedRMS>  (17) 
0.082460659327

$$$$

     RDKit          3D

 75 80  0  0  0  0  0  0  0  0999 V2000
   10.2834   43.7662   33.8258 C   0  0  0  0  0  0  0  0  0  0  0  0
   11.4102   43.5930   34.3752 O   0  0  0  0  0  0  0  0  0  0  0  0
    9.3635   42.7257   33.7353 O   0  0  0  0  0  0  0  0  0  0  0  0
    9.8899   41.2270   34.2948 P   0  0  0  0  0  0  0  0  0  0  0  0
   10.3732   41.4562   35.8842 O   0  0  0  0  0  0  0  0  0  0  0  0
    9.9547   45.0695   33.2036 C   0  0  1  0  0  0  0  0  0  0  0  0
   11.0274   46.0321   33.4756 N   0  0  0  0  0  0  0  0  0  0  0  0
    9.7465   44.8481   31.6877 C   0  0  0  0  0  0  0  0  0  0  0  0
    8.7923   45.8409   31.0845 C   0  0  0  0  0  0  0  0  0  0  0  0
    7.4054   45.6016   31.0992 C   0  0  0  0  0  0  0  0  0  0  0  0
    9.2824   46.9880   30.4424 C   0  0  0  0  0  0  0  0  0  0  0  0
    6.5264   46.5032   30.4840 C   0  0  0  0  0  0  0  0  0  0  0  0
    8.4032   47.8902   29.8316 C   0  0  0  0  0  0  0  0  0  0  0  0
    7.0144   47.6523   29.8470 C   0  0  0  0  0  0  0  0  0  0  0  0
    6.0939   48.5222   29.2452 O   0  0  0  0  0  0  0  0  0  0  0  0
    6.4465   49.7135   28.5459 C   0  0  0  0  0  0  0  0  0  0  0  0
    5.2032   50.3592   27.9885 C   0  0  0  0  0  0  0  0  0  0  0  0
    4.8941   51.6808   28.3895 C   0  0  0  0  0  0  0  0  0  0  0  0
    4.3112   49.6618   27.1039 C   0  0  0  0  0  0  0  0  0  0  0  0
    3.7227   52.2592   27.9191 C   0  0  0  0  0  0  0  0  0  0  0  0
    3.1263   50.3010   26.6698 C   0  0  0  0  0  0  0  0  0  0  0  0
    4.5710   48.3177   26.6575 N   0  0  0  0  0  0  0  0  0  0  0  0
    3.2238   53.5213   28.1781 O   0  0  0  0  0  0  0  0  0  0  0  0
    2.8755   51.5980   27.0978 C   0  0  0  0  0  0  0  0  0  0  0  0
    3.5222   47.4894   26.3295 O   0  0  0  0  0  0  0  0  0  0  0  0
    5.7329   47.9381   26.4074 O   0  0  0  0  0  0  0  0  0  0  0  0
    1.9833   53.6600   27.4719 C   0  0  0  0  0  0  0  0  0  0  0  0
    1.7986   52.4090   26.7954 O   0  0  0  0  0  0  0  0  0  0  0  0
    8.8120   40.1850   34.2133 O   0  0  0  0  0  0  0  0  0  0  0  0
   11.2403   40.7947   33.3700 O   0  0  0  0  0  0  0  0  0  0  0  0
   10.9144   40.6914   31.9982 C   0  0  0  0  0  0  0  0  0  0  0  0
   11.5270   39.3912   31.4385 C   0  0  0  0  0  0  0  0  0  0  0  0
   12.7520   39.0911   32.0837 O   0  0  0  0  0  0  0  0  0  0  0  0
   10.6113   38.1932   31.6451 C   0  0  0  0  0  0  0  0  0  0  0  0
   12.9413   37.6838   32.0297 C   0  0  0  0  0  0  0  0  0  0  0  0
    9.6064   38.0878   30.6599 O   0  0  0  0  0  0  0  0  0  0  0  0
   11.5822   37.0198   31.6877 C   0  0  0  0  0  0  0  0  0  0  0  0
   13.4840   37.2104   33.3254 N   0  0  0  0  0  0  0  0  0  0  0  0
   11.6179   36.3072   30.4690 O   0  0  0  0  0  0  0  0  0  0  0  0
   14.4797   36.3310   33.5738 C   0  0  0  0  0  0  0  0  0  0  0  0
   13.1136   37.6269   34.5702 C   0  0  0  0  0  0  0  0  0  0  0  0
   15.2074   35.6152   32.6747 N   0  0  0  0  0  0  0  0  0  0  0  0
   14.6756   36.2298   34.9190 C   0  0  0  0  0  0  0  0  0  0  0  0
   13.8217   37.0445   35.5793 N   0  0  0  0  0  0  0  0  0  0  0  0
   16.1643   34.7603   33.1551 C   0  0  0  0  0  0  0  0  0  0  0  0
   15.6528   35.3503   35.4136 C   0  0  0  0  0  0  0  0  0  0  0  0
   16.3798   34.6316   34.5045 N   0  0  0  0  0  0  0  0  0  0  0  0
   15.9005   35.1930   36.8094 N   0  0  0  0  0  0  0  0  0  0  0  0
    9.0121   45.4319   33.6715 H   0  0  0  0  0  0  0  0  0  0  0  0
   10.7260   46.9687   33.1213 H   0  0  0  0  0  0  0  0  0  0  0  0
   11.8906   45.7658   32.9468 H   0  0  0  0  0  0  0  0  0  0  0  0
    9.3412   43.8330   31.4764 H   0  0  0  0  0  0  0  0  0  0  0  0
   10.7228   44.8813   31.1557 H   0  0  0  0  0  0  0  0  0  0  0  0
    7.0082   44.7168   31.5812 H   0  0  0  0  0  0  0  0  0  0  0  0
   10.3470   47.1851   30.4119 H   0  0  0  0  0  0  0  0  0  0  0  0
    5.4618   46.3069   30.5010 H   0  0  0  0  0  0  0  0  0  0  0  0
    8.8141   48.7658   29.3483 H   0  0  0  0  0  0  0  0  0  0  0  0
    6.9701   50.4007   29.2462 H   0  0  0  0  0  0  0  0  0  0  0  0
    7.1477   49.4839   27.7164 H   0  0  0  0  0  0  0  0  0  0  0  0
    5.5399   52.2393   29.0553 H   0  0  0  0  0  0  0  0  0  0  0  0
    2.4282   49.8075   26.0063 H   0  0  0  0  0  0  0  0  0  0  0  0
    1.1520   53.8354   28.1867 H   0  0  0  0  0  0  0  0  0  0  0  0
    2.0511   54.4877   26.7352 H   0  0  0  0  0  0  0  0  0  0  0  0
   11.3776   41.5549   31.4744 H   0  0  0  0  0  0  0  0  0  0  0  0
    9.8234   40.7201   31.7654 H   0  0  0  0  0  0  0  0  0  0  0  0
   11.7312   39.5363   30.3532 H   0  0  0  0  0  0  0  0  0  0  0  0
   10.1202   38.2696   32.6410 H   0  0  0  0  0  0  0  0  0  0  0  0
   13.6850   37.4639   31.2321 H   0  0  0  0  0  0  0  0  0  0  0  0
   10.0251   38.1793   29.7654 H   0  0  0  0  0  0  0  0  0  0  0  0
   11.2757   36.3135   32.4907 H   0  0  0  0  0  0  0  0  0  0  0  0
   11.9839   36.9111   29.7708 H   0  0  0  0  0  0  0  0  0  0  0  0
   12.3307   38.3536   34.7458 H   0  0  0  0  0  0  0  0  0  0  0  0
   16.7565   34.1786   32.4623 H   0  0  0  0  0  0  0  0  0  0  0  0
   16.6353   34.5301   37.1418 H   0  0  0  0  0  0  0  0  0  0  0  0
   15.3535   35.7355   37.5144 H   0  0  0  0  0  0  0  0  0  0  0  0
  1  2  2  0
  1  3  1  0
  3  4  1  0
  4  5  1  0
  6  1  1  0
  7  6  1  0
  6  8  1  0
  8  9  1  0
  9 10  2  0
 11  9  1  0
 10 12  1  0
 13 11  2  0
 12 14  2  0
 14 13  1  0
 14 15  1  0
 15 16  1  0
 16 17  1  0
 17 18  2  0
 19 17  1  0
 18 20  1  0
 21 19  2  0
 19 22  1  0
 20 23  1  0
 20 24  2  0
 24 21  1  0
 22 25  1  0
 22 26  2  0
 23 27  1  0
 24 28  1  0
 27 28  1  0
  4 29  2  0
  4 30  1  0
 31 30  1  0
 31 32  1  0
 32 33  1  0
 32 34  1  0
 33 35  1  0
 34 36  1  0
 34 37  1  0
 37 35  1  0
 35 38  1  0
 37 39  1  0
 40 38  1  0
 41 38  1  0
 42 40  2  0
 40 43  1  0
 44 41  2  0
 45 42  1  0
 43 46  2  0
 43 44  1  0
 47 45  2  0
 47 46  1  0
 46 48  1  0
  6 49  1  1
  7 50  1  0
  7 51  1  0
  8 52  1  0
  8 53  1  0
 10 54  1  0
 11 55  1  0
 12 56  1  0
 13 57  1  0
 16 58  1  0
 16 59  1  0
 18 60  1  0
 21 61  1  0
 27 62  1  0
 27 63  1  0
 31 64  1  0
 31 65  1  0
 32 66  1  0
 34 67  1  0
 35 68  1  0
 36 69  1  0
 37 70  1  0
 39 71  1  0
 41 72  1  0
 45 73  1  0
 48 74  1  0
 48 75  1  0
M  CHG  3   5  -1  22   1  25  -1
M  END
>  <EmbedRMS>  (18) 
0.0808314787676

$$$$

     RDKit          3D

 75 80  0  0  0  0  0  0  0  0999 V2000
   10.2836   43.7661   33.8256 C   0  0  0  0  0  0  0  0  0  0  0  0
   11.4103   43.5931   34.3753 O   0  0  0  0  0  0  0  0  0  0  0  0
    9.3641   42.7253   33.7347 O   0  0  0  0  0  0  0  0  0  0  0  0
    9.8908   41.2265   34.2939 P   0  0  0  0  0  0  0  0  0  0  0  0
   10.3733   41.4559   35.8836 O   0  0  0  0  0  0  0  0  0  0  0  0
    9.9546   45.0695   33.2036 C   0  0  1  0  0  0  0  0  0  0  0  0
   11.0272   46.0323   33.4757 N   0  0  0  0  0  0  0  0  0  0  0  0
    9.7465   44.8481   31.6877 C   0  0  0  0  0  0  0  0  0  0  0  0
    8.7923   45.8408   31.0846 C   0  0  0  0  0  0  0  0  0  0  0  0
    7.4056   45.6011   31.0983 C   0  0  0  0  0  0  0  0  0  0  0  0
    9.2824   46.9875   30.4420 C   0  0  0  0  0  0  0  0  0  0  0  0
    6.5267   46.5027   30.4830 C   0  0  0  0  0  0  0  0  0  0  0  0
    8.4034   47.8893   29.8311 C   0  0  0  0  0  0  0  0  0  0  0  0
    7.0138   47.6542   29.8496 C   0  0  0  0  0  0  0  0  0  0  0  0
    6.0888   48.5298   29.2579 O   0  0  0  0  0  0  0  0  0  0  0  0
    6.4102   49.7922   28.6716 C   0  0  0  0  0  0  0  0  0  0  0  0
    6.8317   50.7853   29.7319 C   0  0  0  0  0  0  0  0  0  0  0  0
    6.0417   50.8881   30.9011 C   0  0  0  0  0  0  0  0  0  0  0  0
    8.0153   51.5851   29.6096 C   0  0  0  0  0  0  0  0  0  0  0  0
    6.4725   51.7285   31.9194 C   0  0  0  0  0  0  0  0  0  0  0  0
    8.4138   52.4096   30.6859 C   0  0  0  0  0  0  0  0  0  0  0  0
    8.8021   51.5924   28.4090 N   0  0  0  0  0  0  0  0  0  0  0  0
    5.8786   51.9700   33.1432 O   0  0  0  0  0  0  0  0  0  0  0  0
    7.6118   52.4519   31.8192 C   0  0  0  0  0  0  0  0  0  0  0  0
   10.1701   51.7139   28.4898 O   0  0  0  0  0  0  0  0  0  0  0  0
    8.2493   51.7360   27.2991 O   0  0  0  0  0  0  0  0  0  0  0  0
    6.6988   52.9061   33.8559 C   0  0  0  0  0  0  0  0  0  0  0  0
    7.7943   53.1878   32.9742 O   0  0  0  0  0  0  0  0  0  0  0  0
    8.8127   40.1848   34.2122 O   0  0  0  0  0  0  0  0  0  0  0  0
   11.2421   40.7941   33.3697 O   0  0  0  0  0  0  0  0  0  0  0  0
   10.9187   40.6911   31.9971 C   0  0  0  0  0  0  0  0  0  0  0  0
   11.5172   39.3815   31.4408 C   0  0  0  0  0  0  0  0  0  0  0  0
   12.7493   39.0855   32.0728 O   0  0  0  0  0  0  0  0  0  0  0  0
   10.6023   38.1908   31.6665 C   0  0  0  0  0  0  0  0  0  0  0  0
   12.9319   37.6781   32.0281 C   0  0  0  0  0  0  0  0  0  0  0  0
    9.6392   38.0798   30.6452 O   0  0  0  0  0  0  0  0  0  0  0  0
   11.5715   37.0165   31.7056 C   0  0  0  0  0  0  0  0  0  0  0  0
   13.4847   37.2121   33.3235 N   0  0  0  0  0  0  0  0  0  0  0  0
   11.6187   36.3383   30.4695 O   0  0  0  0  0  0  0  0  0  0  0  0
   14.4801   36.3321   33.5724 C   0  0  0  0  0  0  0  0  0  0  0  0
   13.1137   37.6276   34.5687 C   0  0  0  0  0  0  0  0  0  0  0  0
   15.2073   35.6153   32.6738 N   0  0  0  0  0  0  0  0  0  0  0  0
   14.6759   36.2308   34.9179 C   0  0  0  0  0  0  0  0  0  0  0  0
   13.8216   37.0452   35.5781 N   0  0  0  0  0  0  0  0  0  0  0  0
   16.1640   34.7601   33.1546 C   0  0  0  0  0  0  0  0  0  0  0  0
   15.6526   35.3508   35.4129 C   0  0  0  0  0  0  0  0  0  0  0  0
   16.3794   34.6317   34.5041 N   0  0  0  0  0  0  0  0  0  0  0  0
   15.8999   35.1935   36.8088 N   0  0  0  0  0  0  0  0  0  0  0  0
    9.0120   45.4316   33.6715 H   0  0  0  0  0  0  0  0  0  0  0  0
   10.7256   46.9689   33.1214 H   0  0  0  0  0  0  0  0  0  0  0  0
   11.8904   45.7661   32.9469 H   0  0  0  0  0  0  0  0  0  0  0  0
   10.7229   44.8814   31.1558 H   0  0  0  0  0  0  0  0  0  0  0  0
    9.3414   43.8329   31.4763 H   0  0  0  0  0  0  0  0  0  0  0  0
    7.0083   44.7162   31.5801 H   0  0  0  0  0  0  0  0  0  0  0  0
   10.3471   47.1838   30.4099 H   0  0  0  0  0  0  0  0  0  0  0  0
    5.4620   46.3073   30.5022 H   0  0  0  0  0  0  0  0  0  0  0  0
    8.8175   48.7595   29.3428 H   0  0  0  0  0  0  0  0  0  0  0  0
    7.1767   49.6373   27.8870 H   0  0  0  0  0  0  0  0  0  0  0  0
    5.4999   50.1847   28.1723 H   0  0  0  0  0  0  0  0  0  0  0  0
    5.1337   50.3107   31.0225 H   0  0  0  0  0  0  0  0  0  0  0  0
    9.3058   53.0200   30.6285 H   0  0  0  0  0  0  0  0  0  0  0  0
    7.0720   52.4508   34.7972 H   0  0  0  0  0  0  0  0  0  0  0  0
    6.1278   53.8346   34.0664 H   0  0  0  0  0  0  0  0  0  0  0  0
   11.3968   41.5460   31.4728 H   0  0  0  0  0  0  0  0  0  0  0  0
    9.8299   40.7409   31.7613 H   0  0  0  0  0  0  0  0  0  0  0  0
   11.6974   39.5067   30.3481 H   0  0  0  0  0  0  0  0  0  0  0  0
   10.1076   38.2648   32.6645 H   0  0  0  0  0  0  0  0  0  0  0  0
   13.6621   37.4467   31.2208 H   0  0  0  0  0  0  0  0  0  0  0  0
    8.8975   38.6944   30.8831 H   0  0  0  0  0  0  0  0  0  0  0  0
   11.2806   36.3073   32.5170 H   0  0  0  0  0  0  0  0  0  0  0  0
   10.8492   35.7110   30.4586 H   0  0  0  0  0  0  0  0  0  0  0  0
   12.3290   38.3524   34.7444 H   0  0  0  0  0  0  0  0  0  0  0  0
   16.7559   34.1780   32.4619 H   0  0  0  0  0  0  0  0  0  0  0  0
   15.3532   35.7362   37.5137 H   0  0  0  0  0  0  0  0  0  0  0  0
   16.6344   34.5301   37.1414 H   0  0  0  0  0  0  0  0  0  0  0  0
  1  2  2  0
  1  3  1  0
  3  4  1  0
  4  5  1  0
  6  1  1  0
  7  6  1  0
  6  8  1  0
  8  9  1  0
  9 10  2  0
 11  9  1  0
 10 12  1  0
 13 11  2  0
 12 14  2  0
 14 13  1  0
 14 15  1  0
 15 16  1  0
 16 17  1  0
 17 18  2  0
 19 17  1  0
 18 20  1  0
 21 19  2  0
 19 22  1  0
 20 23  1  0
 20 24  2  0
 24 21  1  0
 22 25  1  0
 22 26  2  0
 23 27  1  0
 24 28  1  0
 27 28  1  0
  4 29  2  0
  4 30  1  0
 31 30  1  0
 31 32  1  0
 32 33  1  0
 32 34  1  0
 33 35  1  0
 34 36  1  0
 34 37  1  0
 37 35  1  0
 35 38  1  0
 37 39  1  0
 40 38  1  0
 41 38  1  0
 42 40  2  0
 40 43  1  0
 44 41  2  0
 45 42  1  0
 43 46  2  0
 43 44  1  0
 47 45  2  0
 47 46  1  0
 46 48  1  0
  6 49  1  1
  7 50  1  0
  7 51  1  0
  8 52  1  0
  8 53  1  0
 10 54  1  0
 11 55  1  0
 12 56  1  0
 13 57  1  0
 16 58  1  0
 16 59  1  0
 18 60  1  0
 21 61  1  0
 27 62  1  0
 27 63  1  0
 31 64  1  0
 31 65  1  0
 32 66  1  0
 34 67  1  0
 35 68  1  0
 36 69  1  0
 37 70  1  0
 39 71  1  0
 41 72  1  0
 45 73  1  0
 48 74  1  0
 48 75  1  0
M  CHG  3   5  -1  22   1  25  -1
M  END
>  <EmbedRMS>  (19) 
0.0829459539942

$$$$

     RDKit          3D

 75 80  0  0  0  0  0  0  0  0999 V2000
   10.2838   43.7626   33.8276 C   0  0  0  0  0  0  0  0  0  0  0  0
   11.4103   43.5863   34.3766 O   0  0  0  0  0  0  0  0  0  0  0  0
    9.3631   42.7236   33.7353 O   0  0  0  0  0  0  0  0  0  0  0  0
    9.8898   41.2247   34.2935 P   0  0  0  0  0  0  0  0  0  0  0  0
   10.3734   41.4543   35.8829 O   0  0  0  0  0  0  0  0  0  0  0  0
    9.9548   45.0699   33.2063 C   0  0  1  0  0  0  0  0  0  0  0  0
   11.0198   46.0480   33.4567 N   0  0  0  0  0  0  0  0  0  0  0  0
    9.7501   44.8507   31.6922 C   0  0  0  0  0  0  0  0  0  0  0  0
    8.7942   45.8415   31.0866 C   0  0  0  0  0  0  0  0  0  0  0  0
    7.4073   45.6013   31.1005 C   0  0  0  0  0  0  0  0  0  0  0  0
    9.2832   46.9892   30.4452 C   0  0  0  0  0  0  0  0  0  0  0  0
    6.5279   46.5026   30.4851 C   0  0  0  0  0  0  0  0  0  0  0  0
    8.4035   47.8905   29.8337 C   0  0  0  0  0  0  0  0  0  0  0  0
    7.0150   47.6506   29.8453 C   0  0  0  0  0  0  0  0  0  0  0  0
    6.0900   48.5164   29.2405 O   0  0  0  0  0  0  0  0  0  0  0  0
    6.4213   49.6390   28.4219 C   0  0  0  0  0  0  0  0  0  0  0  0
    7.0292   49.1933   27.1119 C   0  0  0  0  0  0  0  0  0  0  0  0
    8.2779   49.7383   26.7302 C   0  0  0  0  0  0  0  0  0  0  0  0
    6.4010   48.2120   26.2747 C   0  0  0  0  0  0  0  0  0  0  0  0
    8.8708   49.2806   25.5611 C   0  0  0  0  0  0  0  0  0  0  0  0
    7.0608   47.7761   25.1012 C   0  0  0  0  0  0  0  0  0  0  0  0
    5.1195   47.6455   26.6023 N   0  0  0  0  0  0  0  0  0  0  0  0
   10.0777   49.6587   25.0051 O   0  0  0  0  0  0  0  0  0  0  0  0
    8.2899   48.3388   24.7830 C   0  0  0  0  0  0  0  0  0  0  0  0
    4.1162   48.4313   27.1193 O   0  0  0  0  0  0  0  0  0  0  0  0
    4.8505   46.4731   26.2680 O   0  0  0  0  0  0  0  0  0  0  0  0
   10.2648   48.9047   23.7995 C   0  0  0  0  0  0  0  0  0  0  0  0
    9.0999   48.0746   23.6954 O   0  0  0  0  0  0  0  0  0  0  0  0
    8.8115   40.1834   34.2126 O   0  0  0  0  0  0  0  0  0  0  0  0
   11.2402   40.7936   33.3673 O   0  0  0  0  0  0  0  0  0  0  0  0
   10.9134   40.6864   31.9955 C   0  0  0  0  0  0  0  0  0  0  0  0
   11.5166   39.3786   31.4404 C   0  0  0  0  0  0  0  0  0  0  0  0
   12.7486   39.0848   32.0734 O   0  0  0  0  0  0  0  0  0  0  0  0
   10.6039   38.1883   31.6669 C   0  0  0  0  0  0  0  0  0  0  0  0
   12.9329   37.6775   32.0284 C   0  0  0  0  0  0  0  0  0  0  0  0
    9.6374   38.0938   30.6484 O   0  0  0  0  0  0  0  0  0  0  0  0
   11.5737   37.0140   31.7055 C   0  0  0  0  0  0  0  0  0  0  0  0
   13.4853   37.2120   33.3238 N   0  0  0  0  0  0  0  0  0  0  0  0
   11.6210   36.3379   30.4683 O   0  0  0  0  0  0  0  0  0  0  0  0
   14.4804   36.3319   33.5726 C   0  0  0  0  0  0  0  0  0  0  0  0
   13.1141   37.6275   34.5689 C   0  0  0  0  0  0  0  0  0  0  0  0
   15.2076   35.6152   32.6740 N   0  0  0  0  0  0  0  0  0  0  0  0
   14.6761   36.2307   34.9181 C   0  0  0  0  0  0  0  0  0  0  0  0
   13.8218   37.0451   35.5783 N   0  0  0  0  0  0  0  0  0  0  0  0
   16.1642   34.7600   33.1548 C   0  0  0  0  0  0  0  0  0  0  0  0
   15.6528   35.3507   35.4131 C   0  0  0  0  0  0  0  0  0  0  0  0
   16.3795   34.6315   34.5043 N   0  0  0  0  0  0  0  0  0  0  0  0
   15.9001   35.1933   36.8090 N   0  0  0  0  0  0  0  0  0  0  0  0
    9.0098   45.4349   33.6669 H   0  0  0  0  0  0  0  0  0  0  0  0
   11.9348   45.6932   33.0922 H   0  0  0  0  0  0  0  0  0  0  0  0
   11.1134   46.1992   34.4880 H   0  0  0  0  0  0  0  0  0  0  0  0
   10.7304   44.8921   31.1673 H   0  0  0  0  0  0  0  0  0  0  0  0
    9.3508   43.8342   31.4762 H   0  0  0  0  0  0  0  0  0  0  0  0
    7.0106   44.7164   31.5827 H   0  0  0  0  0  0  0  0  0  0  0  0
   10.3473   47.1895   30.4189 H   0  0  0  0  0  0  0  0  0  0  0  0
    5.4636   46.3049   30.5012 H   0  0  0  0  0  0  0  0  0  0  0  0
    8.8156   48.7697   29.3611 H   0  0  0  0  0  0  0  0  0  0  0  0
    7.0920   50.3257   28.9826 H   0  0  0  0  0  0  0  0  0  0  0  0
    5.4974   50.2150   28.2113 H   0  0  0  0  0  0  0  0  0  0  0  0
    8.7803   50.4840   27.3333 H   0  0  0  0  0  0  0  0  0  0  0  0
    6.6207   47.0332   24.4485 H   0  0  0  0  0  0  0  0  0  0  0  0
   10.3285   49.5868   22.9259 H   0  0  0  0  0  0  0  0  0  0  0  0
   11.1771   48.2769   23.8769 H   0  0  0  0  0  0  0  0  0  0  0  0
    9.8226   40.7225   31.7629 H   0  0  0  0  0  0  0  0  0  0  0  0
   11.3831   41.5437   31.4675 H   0  0  0  0  0  0  0  0  0  0  0  0
   11.6978   39.5037   30.3478 H   0  0  0  0  0  0  0  0  0  0  0  0
   10.1084   38.2786   32.6626 H   0  0  0  0  0  0  0  0  0  0  0  0
   13.6638   37.4471   31.2214 H   0  0  0  0  0  0  0  0  0  0  0  0
    8.9763   37.4190   30.9532 H   0  0  0  0  0  0  0  0  0  0  0  0
   11.2821   36.3053   32.5171 H   0  0  0  0  0  0  0  0  0  0  0  0
   10.8658   35.6935   30.4652 H   0  0  0  0  0  0  0  0  0  0  0  0
   12.3293   38.3523   34.7444 H   0  0  0  0  0  0  0  0  0  0  0  0
   16.7561   34.1778   32.4621 H   0  0  0  0  0  0  0  0  0  0  0  0
   16.6345   34.5300   37.1416 H   0  0  0  0  0  0  0  0  0  0  0  0
   15.3533   35.7361   37.5138 H   0  0  0  0  0  0  0  0  0  0  0  0
  1  2  2  0
  1  3  1  0
  3  4  1  0
  4  5  1  0
  6  1  1  0
  7  6  1  0
  6  8  1  0
  8  9  1  0
  9 10  2  0
 11  9  1  0
 10 12  1  0
 13 11  2  0
 12 14  2  0
 14 13  1  0
 14 15  1  0
 15 16  1  0
 16 17  1  0
 17 18  2  0
 19 17  1  0
 18 20  1  0
 21 19  2  0
 19 22  1  0
 20 23  1  0
 20 24  2  0
 24 21  1  0
 22 25  1  0
 22 26  2  0
 23 27  1  0
 24 28  1  0
 27 28  1  0
  4 29  2  0
  4 30  1  0
 31 30  1  0
 31 32  1  0
 32 33  1  0
 32 34  1  0
 33 35  1  0
 34 36  1  0
 34 37  1  0
 37 35  1  0
 35 38  1  0
 37 39  1  0
 40 38  1  0
 41 38  1  0
 42 40  2  0
 40 43  1  0
 44 41  2  0
 45 42  1  0
 43 46  2  0
 43 44  1  0
 47 45  2  0
 47 46  1  0
 46 48  1  0
  6 49  1  1
  7 50  1  0
  7 51  1  0
  8 52  1  0
  8 53  1  0
 10 54  1  0
 11 55  1  0
 12 56  1  0
 13 57  1  0
 16 58  1  0
 16 59  1  0
 18 60  1  0
 21 61  1  0
 27 62  1  0
 27 63  1  0
 31 64  1  0
 31 65  1  0
 32 66  1  0
 34 67  1  0
 35 68  1  0
 36 69  1  0
 37 70  1  0
 39 71  1  0
 41 72  1  0
 45 73  1  0
 48 74  1  0
 48 75  1  0
M  CHG  3   5  -1  22   1  25  -1
M  END
>  <EmbedRMS>  (20) 
0.0834655888017

$$$$

     RDKit          3D

 75 80  0  0  0  0  0  0  0  0999 V2000
   10.2835   43.7661   33.8256 C   0  0  0  0  0  0  0  0  0  0  0  0
   11.4102   43.5931   34.3753 O   0  0  0  0  0  0  0  0  0  0  0  0
    9.3639   42.7253   33.7347 O   0  0  0  0  0  0  0  0  0  0  0  0
    9.8907   41.2265   34.2938 P   0  0  0  0  0  0  0  0  0  0  0  0
   10.3733   41.4558   35.8835 O   0  0  0  0  0  0  0  0  0  0  0  0
    9.9546   45.0693   33.2033 C   0  0  1  0  0  0  0  0  0  0  0  0
   11.0272   46.0321   33.4755 N   0  0  0  0  0  0  0  0  0  0  0  0
    9.7468   44.8477   31.6873 C   0  0  0  0  0  0  0  0  0  0  0  0
    8.7924   45.8400   31.0834 C   0  0  0  0  0  0  0  0  0  0  0  0
    7.4056   45.6019   31.0999 C   0  0  0  0  0  0  0  0  0  0  0  0
    9.2819   46.9881   30.4431 C   0  0  0  0  0  0  0  0  0  0  0  0
    6.5269   46.5045   30.4860 C   0  0  0  0  0  0  0  0  0  0  0  0
    8.4026   47.8909   29.8339 C   0  0  0  0  0  0  0  0  0  0  0  0
    7.0147   47.6508   29.8433 C   0  0  0  0  0  0  0  0  0  0  0  0
    6.0882   48.5174   29.2424 O   0  0  0  0  0  0  0  0  0  0  0  0
    6.3957   49.5515   28.3059 C   0  0  0  0  0  0  0  0  0  0  0  0
    6.8131   48.9676   26.9752 C   0  0  0  0  0  0  0  0  0  0  0  0
    8.1622   49.1177   26.5732 C   0  0  0  0  0  0  0  0  0  0  0  0
    5.8818   48.3178   26.0917 C   0  0  0  0  0  0  0  0  0  0  0  0
    8.5509   48.6037   25.3443 C   0  0  0  0  0  0  0  0  0  0  0  0
    6.3401   47.8240   24.8471 C   0  0  0  0  0  0  0  0  0  0  0  0
    4.4795   48.1921   26.4012 N   0  0  0  0  0  0  0  0  0  0  0  0
    9.8031   48.6275   24.7608 O   0  0  0  0  0  0  0  0  0  0  0  0
    7.6794   47.9825   24.5189 C   0  0  0  0  0  0  0  0  0  0  0  0
    3.5593   48.0991   25.3821 O   0  0  0  0  0  0  0  0  0  0  0  0
    4.0865   48.0283   27.5732 O   0  0  0  0  0  0  0  0  0  0  0  0
    9.7097   47.9754   23.4870 C   0  0  0  0  0  0  0  0  0  0  0  0
    8.3362   47.5796   23.3720 O   0  0  0  0  0  0  0  0  0  0  0  0
    8.8126   40.1847   34.2122 O   0  0  0  0  0  0  0  0  0  0  0  0
   11.2418   40.7943   33.3694 O   0  0  0  0  0  0  0  0  0  0  0  0
   10.9178   40.6904   31.9970 C   0  0  0  0  0  0  0  0  0  0  0  0
   11.5181   39.3814   31.4408 C   0  0  0  0  0  0  0  0  0  0  0  0
   12.7497   39.0870   32.0745 O   0  0  0  0  0  0  0  0  0  0  0  0
   10.6045   38.1891   31.6655 C   0  0  0  0  0  0  0  0  0  0  0  0
   12.9344   37.6801   32.0290 C   0  0  0  0  0  0  0  0  0  0  0  0
    9.6418   38.0758   30.6440 O   0  0  0  0  0  0  0  0  0  0  0  0
   11.5741   37.0170   31.7045 C   0  0  0  0  0  0  0  0  0  0  0  0
   13.4851   37.2126   33.3241 N   0  0  0  0  0  0  0  0  0  0  0  0
   11.6079   36.3407   30.4680 O   0  0  0  0  0  0  0  0  0  0  0  0
   14.4801   36.3321   33.5727 C   0  0  0  0  0  0  0  0  0  0  0  0
   13.1140   37.6277   34.5693 C   0  0  0  0  0  0  0  0  0  0  0  0
   15.2073   35.6155   32.6739 N   0  0  0  0  0  0  0  0  0  0  0  0
   14.6758   36.2306   34.9182 C   0  0  0  0  0  0  0  0  0  0  0  0
   13.8217   37.0451   35.5785 N   0  0  0  0  0  0  0  0  0  0  0  0
   16.1639   34.7602   33.1546 C   0  0  0  0  0  0  0  0  0  0  0  0
   15.6526   35.3506   35.4130 C   0  0  0  0  0  0  0  0  0  0  0  0
   16.3794   34.6316   34.5041 N   0  0  0  0  0  0  0  0  0  0  0  0
   15.9000   35.1933   36.8089 N   0  0  0  0  0  0  0  0  0  0  0  0
    9.0119   45.4316   33.6710 H   0  0  0  0  0  0  0  0  0  0  0  0
   10.7257   46.9687   33.1213 H   0  0  0  0  0  0  0  0  0  0  0  0
   11.8905   45.7659   32.9468 H   0  0  0  0  0  0  0  0  0  0  0  0
   10.7232   44.8813   31.1554 H   0  0  0  0  0  0  0  0  0  0  0  0
    9.3419   43.8325   31.4760 H   0  0  0  0  0  0  0  0  0  0  0  0
    7.0082   44.7177   31.5829 H   0  0  0  0  0  0  0  0  0  0  0  0
   10.3461   47.1886   30.4182 H   0  0  0  0  0  0  0  0  0  0  0  0
    5.4623   46.3085   30.5041 H   0  0  0  0  0  0  0  0  0  0  0  0
    8.8144   48.7766   29.3768 H   0  0  0  0  0  0  0  0  0  0  0  0
    7.1709   50.2260   28.7281 H   0  0  0  0  0  0  0  0  0  0  0  0
    5.4947   50.1821   28.1555 H   0  0  0  0  0  0  0  0  0  0  0  0
    8.8881   49.6290   27.1914 H   0  0  0  0  0  0  0  0  0  0  0  0
    5.6726   47.3271   24.1553 H   0  0  0  0  0  0  0  0  0  0  0  0
    9.9742   48.6827   22.6732 H   0  0  0  0  0  0  0  0  0  0  0  0
   10.3691   47.0825   23.4634 H   0  0  0  0  0  0  0  0  0  0  0  0
    9.8289   40.7385   31.7617 H   0  0  0  0  0  0  0  0  0  0  0  0
   11.3945   41.5459   31.4722 H   0  0  0  0  0  0  0  0  0  0  0  0
   11.6994   39.5069   30.3484 H   0  0  0  0  0  0  0  0  0  0  0  0
   10.1090   38.2635   32.6632 H   0  0  0  0  0  0  0  0  0  0  0  0
   13.6662   37.4515   31.2224 H   0  0  0  0  0  0  0  0  0  0  0  0
    8.9009   38.6925   30.8792 H   0  0  0  0  0  0  0  0  0  0  0  0
   11.2650   36.3083   32.5087 H   0  0  0  0  0  0  0  0  0  0  0  0
   12.1372   35.5140   30.6163 H   0  0  0  0  0  0  0  0  0  0  0  0
   12.3297   38.3530   34.7450 H   0  0  0  0  0  0  0  0  0  0  0  0
   16.7558   34.1781   32.4619 H   0  0  0  0  0  0  0  0  0  0  0  0
   16.6346   34.5300   37.1414 H   0  0  0  0  0  0  0  0  0  0  0  0
   15.3533   35.7360   37.5138 H   0  0  0  0  0  0  0  0  0  0  0  0
  1  2  2  0
  1  3  1  0
  3  4  1  0
  4  5  1  0
  6  1  1  0
  7  6  1  0
  6  8  1  0
  8  9  1  0
  9 10  2  0
 11  9  1  0
 10 12  1  0
 13 11  2  0
 12 14  2  0
 14 13  1  0
 14 15  1  0
 15 16  1  0
 16 17  1  0
 17 18  2  0
 19 17  1  0
 18 20  1  0
 21 19  2  0
 19 22  1  0
 20 23  1  0
 20 24  2  0
 24 21  1  0
 22 25  1  0
 22 26  2  0
 23 27  1  0
 24 28  1  0
 27 28  1  0
  4 29  2  0
  4 30  1  0
 31 30  1  0
 31 32  1  0
 32 33  1  0
 32 34  1  0
 33 35  1  0
 34 36  1  0
 34 37  1  0
 37 35  1  0
 35 38  1  0
 37 39  1  0
 40 38  1  0
 41 38  1  0
 42 40  2  0
 40 43  1  0
 44 41  2  0
 45 42  1  0
 43 46  2  0
 43 44  1  0
 47 45  2  0
 47 46  1  0
 46 48  1  0
  6 49  1  1
  7 50  1  0
  7 51  1  0
  8 52  1  0
  8 53  1  0
 10 54  1  0
 11 55  1  0
 12 56  1  0
 13 57  1  0
 16 58  1  0
 16 59  1  0
 18 60  1  0
 21 61  1  0
 27 62  1  0
 27 63  1  0
 31 64  1  0
 31 65  1  0
 32 66  1  0
 34 67  1  0
 35 68  1  0
 36 69  1  0
 37 70  1  0
 39 71  1  0
 41 72  1  0
 45 73  1  0
 48 74  1  0
 48 75  1  0
M  CHG  3   5  -1  22   1  25  -1
M  END
>  <EmbedRMS>  (21) 
0.0828591147804

$$$$

     RDKit          3D

 75 80  0  0  0  0  0  0  0  0999 V2000
   10.2803   43.7665   33.8250 C   0  0  0  0  0  0  0  0  0  0  0  0
   11.4110   43.5919   34.3666 O   0  0  0  0  0  0  0  0  0  0  0  0
    9.3616   42.7252   33.7348 O   0  0  0  0  0  0  0  0  0  0  0  0
    9.8898   41.2268   34.2939 P   0  0  0  0  0  0  0  0  0  0  0  0
   10.3738   41.4566   35.8831 O   0  0  0  0  0  0  0  0  0  0  0  0
    9.9459   45.0737   33.2112 C   0  0  1  0  0  0  0  0  0  0  0  0
   11.0266   46.0293   33.4709 N   0  0  0  0  0  0  0  0  0  0  0  0
    9.7540   44.8542   31.6949 C   0  0  0  0  0  0  0  0  0  0  0  0
    8.7958   45.8411   31.0847 C   0  0  0  0  0  0  0  0  0  0  0  0
    7.4090   45.5999   31.1009 C   0  0  0  0  0  0  0  0  0  0  0  0
    9.2824   46.9877   30.4392 C   0  0  0  0  0  0  0  0  0  0  0  0
    6.5264   46.4989   30.4859 C   0  0  0  0  0  0  0  0  0  0  0  0
    8.3995   47.8872   29.8307 C   0  0  0  0  0  0  0  0  0  0  0  0
    7.0179   47.6550   29.8476 C   0  0  0  0  0  0  0  0  0  0  0  0
    6.1788   48.5930   29.2250 O   0  0  0  0  0  0  0  0  0  0  0  0
    4.7508   48.5379   29.1943 C   0  0  0  0  0  0  0  0  0  0  0  0
    4.1572   48.7733   30.5668 C   0  0  0  0  0  0  0  0  0  0  0  0
    4.7265   49.7841   31.3785 C   0  0  0  0  0  0  0  0  0  0  0  0
    2.9815   48.0887   31.0215 C   0  0  0  0  0  0  0  0  0  0  0  0
    4.1391   50.0587   32.6066 C   0  0  0  0  0  0  0  0  0  0  0  0
    2.4186   48.4223   32.2735 C   0  0  0  0  0  0  0  0  0  0  0  0
    2.3276   47.0918   30.2236 N   0  0  0  0  0  0  0  0  0  0  0  0
    4.5261   50.9847   33.5561 O   0  0  0  0  0  0  0  0  0  0  0  0
    3.0342   49.4064   33.0354 C   0  0  0  0  0  0  0  0  0  0  0  0
    0.9557   47.1009   30.1224 O   0  0  0  0  0  0  0  0  0  0  0  0
    2.9491   46.0717   29.8635 O   0  0  0  0  0  0  0  0  0  0  0  0
    3.6051   50.9051   34.6526 C   0  0  0  0  0  0  0  0  0  0  0  0
    2.6682   49.8857   34.2784 O   0  0  0  0  0  0  0  0  0  0  0  0
    8.8122   40.1845   34.2134 O   0  0  0  0  0  0  0  0  0  0  0  0
   11.2400   40.7954   33.3680 O   0  0  0  0  0  0  0  0  0  0  0  0
   10.9124   40.6877   31.9967 C   0  0  0  0  0  0  0  0  0  0  0  0
   11.5169   39.3811   31.4420 C   0  0  0  0  0  0  0  0  0  0  0  0
   12.7500   39.0881   32.0760 O   0  0  0  0  0  0  0  0  0  0  0  0
   10.6042   38.1893   31.6659 C   0  0  0  0  0  0  0  0  0  0  0  0
   12.9395   37.6814   32.0280 C   0  0  0  0  0  0  0  0  0  0  0  0
    9.6353   38.0951   30.6499 O   0  0  0  0  0  0  0  0  0  0  0  0
   11.5803   37.0191   31.6934 C   0  0  0  0  0  0  0  0  0  0  0  0
   13.4851   37.2119   33.3244 N   0  0  0  0  0  0  0  0  0  0  0  0
   11.6118   36.3189   30.4673 O   0  0  0  0  0  0  0  0  0  0  0  0
   14.4801   36.3316   33.5732 C   0  0  0  0  0  0  0  0  0  0  0  0
   13.1139   37.6277   34.5692 C   0  0  0  0  0  0  0  0  0  0  0  0
   15.2076   35.6154   32.6744 N   0  0  0  0  0  0  0  0  0  0  0  0
   14.6756   36.2303   34.9186 C   0  0  0  0  0  0  0  0  0  0  0  0
   13.8215   37.0450   35.5786 N   0  0  0  0  0  0  0  0  0  0  0  0
   16.1643   34.7602   33.1551 C   0  0  0  0  0  0  0  0  0  0  0  0
   15.6526   35.3505   35.4134 C   0  0  0  0  0  0  0  0  0  0  0  0
   16.3796   34.6316   34.5045 N   0  0  0  0  0  0  0  0  0  0  0  0
   15.9001   35.1933   36.8093 N   0  0  0  0  0  0  0  0  0  0  0  0
    8.9994   45.4383   33.6720 H   0  0  0  0  0  0  0  0  0  0  0  0
   10.7764   46.9370   33.0159 H   0  0  0  0  0  0  0  0  0  0  0  0
   11.0501   46.2278   34.4983 H   0  0  0  0  0  0  0  0  0  0  0  0
   10.7412   44.9080   31.1836 H   0  0  0  0  0  0  0  0  0  0  0  0
    9.3646   43.8354   31.4712 H   0  0  0  0  0  0  0  0  0  0  0  0
    7.0147   44.7151   31.5855 H   0  0  0  0  0  0  0  0  0  0  0  0
   10.3463   47.1877   30.4049 H   0  0  0  0  0  0  0  0  0  0  0  0
    5.4697   46.2843   30.5157 H   0  0  0  0  0  0  0  0  0  0  0  0
    8.7913   48.7698   29.3412 H   0  0  0  0  0  0  0  0  0  0  0  0
    4.3931   49.3512   28.5290 H   0  0  0  0  0  0  0  0  0  0  0  0
    4.4311   47.5858   28.7312 H   0  0  0  0  0  0  0  0  0  0  0  0
    5.5955   50.3455   31.0594 H   0  0  0  0  0  0  0  0  0  0  0  0
    1.5314   47.9233   32.6419 H   0  0  0  0  0  0  0  0  0  0  0  0
    4.1382   50.6132   35.5816 H   0  0  0  0  0  0  0  0  0  0  0  0
    3.0825   51.8754   34.7863 H   0  0  0  0  0  0  0  0  0  0  0  0
   11.3807   41.5456   31.4682 H   0  0  0  0  0  0  0  0  0  0  0  0
    9.8215   40.7221   31.7644 H   0  0  0  0  0  0  0  0  0  0  0  0
   11.6986   39.5087   30.3499 H   0  0  0  0  0  0  0  0  0  0  0  0
   10.1108   38.2737   32.6630 H   0  0  0  0  0  0  0  0  0  0  0  0
   13.6783   37.4562   31.2271 H   0  0  0  0  0  0  0  0  0  0  0  0
    9.0020   37.3860   30.9348 H   0  0  0  0  0  0  0  0  0  0  0  0
   11.2808   36.3052   32.4921 H   0  0  0  0  0  0  0  0  0  0  0  0
   11.8819   36.9600   29.7584 H   0  0  0  0  0  0  0  0  0  0  0  0
   12.3303   38.3538   34.7446 H   0  0  0  0  0  0  0  0  0  0  0  0
   16.7564   34.1783   32.4624 H   0  0  0  0  0  0  0  0  0  0  0  0
   16.6347   34.5301   37.1418 H   0  0  0  0  0  0  0  0  0  0  0  0
   15.3532   35.7359   37.5142 H   0  0  0  0  0  0  0  0  0  0  0  0
  1  2  2  0
  1  3  1  0
  3  4  1  0
  4  5  1  0
  6  1  1  0
  7  6  1  0
  6  8  1  0
  8  9  1  0
  9 10  2  0
 11  9  1  0
 10 12  1  0
 13 11  2  0
 12 14  2  0
 14 13  1  0
 14 15  1  0
 15 16  1  0
 16 17  1  0
 17 18  2  0
 19 17  1  0
 18 20  1  0
 21 19  2  0
 19 22  1  0
 20 23  1  0
 20 24  2  0
 24 21  1  0
 22 25  1  0
 22 26  2  0
 23 27  1  0
 24 28  1  0
 27 28  1  0
  4 29  2  0
  4 30  1  0
 31 30  1  0
 31 32  1  0
 32 33  1  0
 32 34  1  0
 33 35  1  0
 34 36  1  0
 34 37  1  0
 37 35  1  0
 35 38  1  0
 37 39  1  0
 40 38  1  0
 41 38  1  0
 42 40  2  0
 40 43  1  0
 44 41  2  0
 45 42  1  0
 43 46  2  0
 43 44  1  0
 47 45  2  0
 47 46  1  0
 46 48  1  0
  6 49  1  1
  7 50  1  0
  7 51  1  0
  8 52  1  0
  8 53  1  0
 10 54  1  0
 11 55  1  0
 12 56  1  0
 13 57  1  0
 16 58  1  0
 16 59  1  0
 18 60  1  0
 21 61  1  0
 27 62  1  0
 27 63  1  0
 31 64  1  0
 31 65  1  0
 32 66  1  0
 34 67  1  0
 35 68  1  0
 36 69  1  0
 37 70  1  0
 39 71  1  0
 41 72  1  0
 45 73  1  0
 48 74  1  0
 48 75  1  0
M  CHG  3   5  -1  22   1  25  -1
M  END
>  <EmbedRMS>  (22) 
0.0813840460953

$$$$

     RDKit          3D

 75 80  0  0  0  0  0  0  0  0999 V2000
   10.2835   43.7661   33.8256 C   0  0  0  0  0  0  0  0  0  0  0  0
   11.4102   43.5930   34.3752 O   0  0  0  0  0  0  0  0  0  0  0  0
    9.3638   42.7255   33.7350 O   0  0  0  0  0  0  0  0  0  0  0  0
    9.8903   41.2268   34.2946 P   0  0  0  0  0  0  0  0  0  0  0  0
   10.3728   41.4561   35.8842 O   0  0  0  0  0  0  0  0  0  0  0  0
    9.9548   45.0695   33.2035 C   0  0  1  0  0  0  0  0  0  0  0  0
   11.0274   46.0322   33.4759 N   0  0  0  0  0  0  0  0  0  0  0  0
    9.7471   44.8483   31.6875 C   0  0  0  0  0  0  0  0  0  0  0  0
    8.7925   45.8408   31.0844 C   0  0  0  0  0  0  0  0  0  0  0  0
    7.4058   45.6012   31.0996 C   0  0  0  0  0  0  0  0  0  0  0  0
    9.2817   46.9881   30.4424 C   0  0  0  0  0  0  0  0  0  0  0  0
    6.5248   46.5016   30.4853 C   0  0  0  0  0  0  0  0  0  0  0  0
    8.4002   47.8883   29.8327 C   0  0  0  0  0  0  0  0  0  0  0  0
    7.0185   47.6556   29.8449 C   0  0  0  0  0  0  0  0  0  0  0  0
    6.1821   48.5881   29.2106 O   0  0  0  0  0  0  0  0  0  0  0  0
    4.7618   48.4823   29.0896 C   0  0  0  0  0  0  0  0  0  0  0  0
    4.3669   47.3561   28.1584 C   0  0  0  0  0  0  0  0  0  0  0  0
    5.1100   47.1813   26.9659 C   0  0  0  0  0  0  0  0  0  0  0  0
    3.2095   46.5406   28.3888 C   0  0  0  0  0  0  0  0  0  0  0  0
    4.7056   46.2008   26.0693 C   0  0  0  0  0  0  0  0  0  0  0  0
    2.8369   45.5697   27.4326 C   0  0  0  0  0  0  0  0  0  0  0  0
    2.3856   46.7037   29.5518 N   0  0  0  0  0  0  0  0  0  0  0  0
    5.2793   45.8514   24.8620 O   0  0  0  0  0  0  0  0  0  0  0  0
    3.6174   45.4289   26.2929 C   0  0  0  0  0  0  0  0  0  0  0  0
    1.0167   46.6937   29.4164 O   0  0  0  0  0  0  0  0  0  0  0  0
    2.8768   46.5697   30.6908 O   0  0  0  0  0  0  0  0  0  0  0  0
    4.5012   44.7892   24.2936 C   0  0  0  0  0  0  0  0  0  0  0  0
    3.4494   44.5512   25.2392 O   0  0  0  0  0  0  0  0  0  0  0  0
    8.8125   40.1848   34.2125 O   0  0  0  0  0  0  0  0  0  0  0  0
   11.2416   40.7948   33.3707 O   0  0  0  0  0  0  0  0  0  0  0  0
   10.9179   40.6922   31.9984 C   0  0  0  0  0  0  0  0  0  0  0  0
   11.5175   39.3838   31.4423 C   0  0  0  0  0  0  0  0  0  0  0  0
   12.7508   39.0887   32.0752 O   0  0  0  0  0  0  0  0  0  0  0  0
   10.6027   38.1916   31.6658 C   0  0  0  0  0  0  0  0  0  0  0  0
   12.9384   37.6818   32.0278 C   0  0  0  0  0  0  0  0  0  0  0  0
    9.6371   38.0806   30.6470 O   0  0  0  0  0  0  0  0  0  0  0  0
   11.5780   37.0215   31.6935 C   0  0  0  0  0  0  0  0  0  0  0  0
   13.4844   37.2119   33.3242 N   0  0  0  0  0  0  0  0  0  0  0  0
   11.6095   36.3201   30.4679 O   0  0  0  0  0  0  0  0  0  0  0  0
   14.4797   36.3318   33.5730 C   0  0  0  0  0  0  0  0  0  0  0  0
   13.1135   37.6278   34.5691 C   0  0  0  0  0  0  0  0  0  0  0  0
   15.2073   35.6155   32.6742 N   0  0  0  0  0  0  0  0  0  0  0  0
   14.6754   36.2305   34.9184 C   0  0  0  0  0  0  0  0  0  0  0  0
   13.8213   37.0452   35.5785 N   0  0  0  0  0  0  0  0  0  0  0  0
   16.1640   34.7604   33.1549 C   0  0  0  0  0  0  0  0  0  0  0  0
   15.6524   35.3507   35.4132 C   0  0  0  0  0  0  0  0  0  0  0  0
   16.3794   34.6318   34.5044 N   0  0  0  0  0  0  0  0  0  0  0  0
   15.8999   35.1934   36.8091 N   0  0  0  0  0  0  0  0  0  0  0  0
    9.0121   45.4317   33.6712 H   0  0  0  0  0  0  0  0  0  0  0  0
   11.8908   45.7658   32.9474 H   0  0  0  0  0  0  0  0  0  0  0  0
   10.7261   46.9687   33.1214 H   0  0  0  0  0  0  0  0  0  0  0  0
    9.3424   43.8330   31.4758 H   0  0  0  0  0  0  0  0  0  0  0  0
   10.7235   44.8823   31.1556 H   0  0  0  0  0  0  0  0  0  0  0  0
    7.0099   44.7160   31.5822 H   0  0  0  0  0  0  0  0  0  0  0  0
   10.3459   47.1866   30.4106 H   0  0  0  0  0  0  0  0  0  0  0  0
    5.4678   46.2885   30.5147 H   0  0  0  0  0  0  0  0  0  0  0  0
    8.7935   48.7696   29.3419 H   0  0  0  0  0  0  0  0  0  0  0  0
    4.3863   49.4296   28.6499 H   0  0  0  0  0  0  0  0  0  0  0  0
    4.3136   48.4010   30.0975 H   0  0  0  0  0  0  0  0  0  0  0  0
    5.9719   47.7961   26.7393 H   0  0  0  0  0  0  0  0  0  0  0  0
    1.9680   44.9409   27.5791 H   0  0  0  0  0  0  0  0  0  0  0  0
    5.1238   43.8777   24.1756 H   0  0  0  0  0  0  0  0  0  0  0  0
    4.0753   45.1048   23.3181 H   0  0  0  0  0  0  0  0  0  0  0  0
    9.8291   40.7409   31.7626 H   0  0  0  0  0  0  0  0  0  0  0  0
   11.3952   41.5478   31.4744 H   0  0  0  0  0  0  0  0  0  0  0  0
   11.6981   39.5115   30.3500 H   0  0  0  0  0  0  0  0  0  0  0  0
   10.1117   38.2604   32.6660 H   0  0  0  0  0  0  0  0  0  0  0  0
   13.6767   37.4556   31.2267 H   0  0  0  0  0  0  0  0  0  0  0  0
    8.8961   38.6952   30.8871 H   0  0  0  0  0  0  0  0  0  0  0  0
   11.2791   36.3073   32.4923 H   0  0  0  0  0  0  0  0  0  0  0  0
   11.8828   36.9598   29.7588 H   0  0  0  0  0  0  0  0  0  0  0  0
   12.3300   38.3538   34.7446 H   0  0  0  0  0  0  0  0  0  0  0  0
   16.7561   34.1784   32.4622 H   0  0  0  0  0  0  0  0  0  0  0  0
   15.3531   35.7360   37.5140 H   0  0  0  0  0  0  0  0  0  0  0  0
   16.6347   34.5303   37.1416 H   0  0  0  0  0  0  0  0  0  0  0  0
  1  2  2  0
  1  3  1  0
  3  4  1  0
  4  5  1  0
  6  1  1  0
  7  6  1  0
  6  8  1  0
  8  9  1  0
  9 10  2  0
 11  9  1  0
 10 12  1  0
 13 11  2  0
 12 14  2  0
 14 13  1  0
 14 15  1  0
 15 16  1  0
 16 17  1  0
 17 18  2  0
 19 17  1  0
 18 20  1  0
 21 19  2  0
 19 22  1  0
 20 23  1  0
 20 24  2  0
 24 21  1  0
 22 25  1  0
 22 26  2  0
 23 27  1  0
 24 28  1  0
 27 28  1  0
  4 29  2  0
  4 30  1  0
 31 30  1  0
 31 32  1  0
 32 33  1  0
 32 34  1  0
 33 35  1  0
 34 36  1  0
 34 37  1  0
 37 35  1  0
 35 38  1  0
 37 39  1  0
 40 38  1  0
 41 38  1  0
 42 40  2  0
 40 43  1  0
 44 41  2  0
 45 42  1  0
 43 46  2  0
 43 44  1  0
 47 45  2  0
 47 46  1  0
 46 48  1  0
  6 49  1  1
  7 50  1  0
  7 51  1  0
  8 52  1  0
  8 53  1  0
 10 54  1  0
 11 55  1  0
 12 56  1  0
 13 57  1  0
 16 58  1  0
 16 59  1  0
 18 60  1  0
 21 61  1  0
 27 62  1  0
 27 63  1  0
 31 64  1  0
 31 65  1  0
 32 66  1  0
 34 67  1  0
 35 68  1  0
 36 69  1  0
 37 70  1  0
 39 71  1  0
 41 72  1  0
 45 73  1  0
 48 74  1  0
 48 75  1  0
M  CHG  3   5  -1  22   1  25  -1
M  END
>  <EmbedRMS>  (23) 
0.0819700053043

$$$$

     RDKit          3D

 75 80  0  0  0  0  0  0  0  0999 V2000
   10.2833   43.7662   33.8257 C   0  0  0  0  0  0  0  0  0  0  0  0
   11.4101   43.5930   34.3752 O   0  0  0  0  0  0  0  0  0  0  0  0
    9.3635   42.7257   33.7353 O   0  0  0  0  0  0  0  0  0  0  0  0
    9.8902   41.2269   34.2942 P   0  0  0  0  0  0  0  0  0  0  0  0
   10.3739   41.4560   35.8835 O   0  0  0  0  0  0  0  0  0  0  0  0
    9.9546   45.0695   33.2035 C   0  0  1  0  0  0  0  0  0  0  0  0
   11.0274   46.0322   33.4755 N   0  0  0  0  0  0  0  0  0  0  0  0
    9.7466   44.8480   31.6875 C   0  0  0  0  0  0  0  0  0  0  0  0
    8.7924   45.8406   31.0841 C   0  0  0  0  0  0  0  0  0  0  0  0
    7.4055   45.6018   31.0995 C   0  0  0  0  0  0  0  0  0  0  0  0
    9.2823   46.9879   30.4426 C   0  0  0  0  0  0  0  0  0  0  0  0
    6.5265   46.5036   30.4846 C   0  0  0  0  0  0  0  0  0  0  0  0
    8.4032   47.8903   29.8326 C   0  0  0  0  0  0  0  0  0  0  0  0
    7.0141   47.6520   29.8458 C   0  0  0  0  0  0  0  0  0  0  0  0
    6.0899   48.5201   29.2419 O   0  0  0  0  0  0  0  0  0  0  0  0
    6.4276   49.6748   28.4715 C   0  0  0  0  0  0  0  0  0  0  0  0
    7.0607   49.2778   27.1567 C   0  0  0  0  0  0  0  0  0  0  0  0
    6.4464   48.2511   26.4018 C   0  0  0  0  0  0  0  0  0  0  0  0
    8.2720   49.8750   26.6785 C   0  0  0  0  0  0  0  0  0  0  0  0
    7.0720   47.8196   25.2393 C   0  0  0  0  0  0  0  0  0  0  0  0
    8.8724   49.3837   25.4964 C   0  0  0  0  0  0  0  0  0  0  0  0
    8.8793   50.9859   27.3552 N   0  0  0  0  0  0  0  0  0  0  0  0
    6.6688   46.8306   24.3629 O   0  0  0  0  0  0  0  0  0  0  0  0
    8.2370   48.3574   24.8092 C   0  0  0  0  0  0  0  0  0  0  0  0
    8.1156   52.0724   27.7147 O   0  0  0  0  0  0  0  0  0  0  0  0
   10.1229   51.0778   27.4122 O   0  0  0  0  0  0  0  0  0  0  0  0
    7.6443   46.7435   23.3151 C   0  0  0  0  0  0  0  0  0  0  0  0
    8.6278   47.7361   23.6387 O   0  0  0  0  0  0  0  0  0  0  0  0
    8.8121   40.1851   34.2131 O   0  0  0  0  0  0  0  0  0  0  0  0
   11.2402   40.7951   33.3682 O   0  0  0  0  0  0  0  0  0  0  0  0
   10.9126   40.6877   31.9968 C   0  0  0  0  0  0  0  0  0  0  0  0
   11.5170   39.3811   31.4420 C   0  0  0  0  0  0  0  0  0  0  0  0
   12.7500   39.0881   32.0759 O   0  0  0  0  0  0  0  0  0  0  0  0
   10.6043   38.1893   31.6659 C   0  0  0  0  0  0  0  0  0  0  0  0
   12.9395   37.6813   32.0280 C   0  0  0  0  0  0  0  0  0  0  0  0
    9.6353   38.0951   30.6499 O   0  0  0  0  0  0  0  0  0  0  0  0
   11.5804   37.0191   31.6934 C   0  0  0  0  0  0  0  0  0  0  0  0
   13.4851   37.2118   33.3244 N   0  0  0  0  0  0  0  0  0  0  0  0
   11.6118   36.3189   30.4673 O   0  0  0  0  0  0  0  0  0  0  0  0
   14.4801   36.3316   33.5732 C   0  0  0  0  0  0  0  0  0  0  0  0
   13.1139   37.6277   34.5692 C   0  0  0  0  0  0  0  0  0  0  0  0
   15.2076   35.6154   32.6744 N   0  0  0  0  0  0  0  0  0  0  0  0
   14.6756   36.2303   34.9186 C   0  0  0  0  0  0  0  0  0  0  0  0
   13.8215   37.0451   35.5786 N   0  0  0  0  0  0  0  0  0  0  0  0
   16.1642   34.7602   33.1551 C   0  0  0  0  0  0  0  0  0  0  0  0
   15.6526   35.3505   35.4134 C   0  0  0  0  0  0  0  0  0  0  0  0
   16.3796   34.6316   34.5045 N   0  0  0  0  0  0  0  0  0  0  0  0
   15.9000   35.1933   36.8093 N   0  0  0  0  0  0  0  0  0  0  0  0
    9.0121   45.4319   33.6713 H   0  0  0  0  0  0  0  0  0  0  0  0
   10.7260   46.9688   33.1212 H   0  0  0  0  0  0  0  0  0  0  0  0
   11.8906   45.7658   32.9468 H   0  0  0  0  0  0  0  0  0  0  0  0
    9.3415   43.8328   31.4762 H   0  0  0  0  0  0  0  0  0  0  0  0
   10.7230   44.8813   31.1555 H   0  0  0  0  0  0  0  0  0  0  0  0
    7.0083   44.7171   31.5818 H   0  0  0  0  0  0  0  0  0  0  0  0
   10.3468   47.1857   30.4130 H   0  0  0  0  0  0  0  0  0  0  0  0
    5.4621   46.3069   30.5018 H   0  0  0  0  0  0  0  0  0  0  0  0
    8.8163   48.7671   29.3555 H   0  0  0  0  0  0  0  0  0  0  0  0
    7.0710   50.3378   29.0830 H   0  0  0  0  0  0  0  0  0  0  0  0
    5.4925   50.2307   28.2514 H   0  0  0  0  0  0  0  0  0  0  0  0
    5.5230   47.7869   26.7250 H   0  0  0  0  0  0  0  0  0  0  0  0
    9.7904   49.8089   25.1114 H   0  0  0  0  0  0  0  0  0  0  0  0
    8.1074   45.7346   23.3044 H   0  0  0  0  0  0  0  0  0  0  0  0
    7.1766   46.9730   22.3348 H   0  0  0  0  0  0  0  0  0  0  0  0
   11.3808   41.5456   31.4686 H   0  0  0  0  0  0  0  0  0  0  0  0
    9.8216   40.7222   31.7647 H   0  0  0  0  0  0  0  0  0  0  0  0
   11.6986   39.5089   30.3499 H   0  0  0  0  0  0  0  0  0  0  0  0
   10.1109   38.2737   32.6630 H   0  0  0  0  0  0  0  0  0  0  0  0
   13.6783   37.4562   31.2271 H   0  0  0  0  0  0  0  0  0  0  0  0
    9.0020   37.3860   30.9348 H   0  0  0  0  0  0  0  0  0  0  0  0
   11.2807   36.3053   32.4921 H   0  0  0  0  0  0  0  0  0  0  0  0
   11.8819   36.9600   29.7584 H   0  0  0  0  0  0  0  0  0  0  0  0
   12.3303   38.3538   34.7445 H   0  0  0  0  0  0  0  0  0  0  0  0
   16.7563   34.1783   32.4623 H   0  0  0  0  0  0  0  0  0  0  0  0
   15.3532   35.7359   37.5142 H   0  0  0  0  0  0  0  0  0  0  0  0
   16.6347   34.5301   37.1418 H   0  0  0  0  0  0  0  0  0  0  0  0
  1  2  2  0
  1  3  1  0
  3  4  1  0
  4  5  1  0
  6  1  1  0
  7  6  1  0
  6  8  1  0
  8  9  1  0
  9 10  2  0
 11  9  1  0
 10 12  1  0
 13 11  2  0
 12 14  2  0
 14 13  1  0
 14 15  1  0
 15 16  1  0
 16 17  1  0
 17 18  2  0
 19 17  1  0
 18 20  1  0
 21 19  2  0
 19 22  1  0
 20 23  1  0
 20 24  2  0
 24 21  1  0
 22 25  1  0
 22 26  2  0
 23 27  1  0
 24 28  1  0
 27 28  1  0
  4 29  2  0
  4 30  1  0
 31 30  1  0
 31 32  1  0
 32 33  1  0
 32 34  1  0
 33 35  1  0
 34 36  1  0
 34 37  1  0
 37 35  1  0
 35 38  1  0
 37 39  1  0
 40 38  1  0
 41 38  1  0
 42 40  2  0
 40 43  1  0
 44 41  2  0
 45 42  1  0
 43 46  2  0
 43 44  1  0
 47 45  2  0
 47 46  1  0
 46 48  1  0
  6 49  1  1
  7 50  1  0
  7 51  1  0
  8 52  1  0
  8 53  1  0
 10 54  1  0
 11 55  1  0
 12 56  1  0
 13 57  1  0
 16 58  1  0
 16 59  1  0
 18 60  1  0
 21 61  1  0
 27 62  1  0
 27 63  1  0
 31 64  1  0
 31 65  1  0
 32 66  1  0
 34 67  1  0
 35 68  1  0
 36 69  1  0
 37 70  1  0
 39 71  1  0
 41 72  1  0
 45 73  1  0
 48 74  1  0
 48 75  1  0
M  CHG  3   5  -1  22   1  25  -1
M  END
>  <EmbedRMS>  (24) 
0.0815764643942

$$$$

     RDKit          3D

 75 80  0  0  0  0  0  0  0  0999 V2000
   10.2838   43.7626   33.8275 C   0  0  0  0  0  0  0  0  0  0  0  0
   11.4102   43.5863   34.3767 O   0  0  0  0  0  0  0  0  0  0  0  0
    9.3631   42.7235   33.7352 O   0  0  0  0  0  0  0  0  0  0  0  0
    9.8894   41.2249   34.2943 P   0  0  0  0  0  0  0  0  0  0  0  0
   10.3727   41.4547   35.8838 O   0  0  0  0  0  0  0  0  0  0  0  0
    9.9548   45.0700   33.2062 C   0  0  1  0  0  0  0  0  0  0  0  0
   11.0198   46.0480   33.4570 N   0  0  0  0  0  0  0  0  0  0  0  0
    9.7506   44.8509   31.6920 C   0  0  0  0  0  0  0  0  0  0  0  0
    8.7946   45.8413   31.0860 C   0  0  0  0  0  0  0  0  0  0  0  0
    7.4077   45.6013   31.1013 C   0  0  0  0  0  0  0  0  0  0  0  0
    9.2827   46.9897   30.4455 C   0  0  0  0  0  0  0  0  0  0  0  0
    6.5258   46.5016   30.4874 C   0  0  0  0  0  0  0  0  0  0  0  0
    8.4006   47.8891   29.8353 C   0  0  0  0  0  0  0  0  0  0  0  0
    7.0195   47.6524   29.8415 C   0  0  0  0  0  0  0  0  0  0  0  0
    6.1852   48.5851   29.2056 O   0  0  0  0  0  0  0  0  0  0  0  0
    4.8176   48.3766   28.8488 C   0  0  0  0  0  0  0  0  0  0  0  0
    4.7014   47.3891   27.7099 C   0  0  0  0  0  0  0  0  0  0  0  0
    4.1292   46.1226   27.9800 C   0  0  0  0  0  0  0  0  0  0  0  0
    5.1021   47.7101   26.3656 C   0  0  0  0  0  0  0  0  0  0  0  0
    4.0002   45.2154   26.9381 C   0  0  0  0  0  0  0  0  0  0  0  0
    4.9349   46.7428   25.3459 C   0  0  0  0  0  0  0  0  0  0  0  0
    5.6241   49.0033   26.0005 N   0  0  0  0  0  0  0  0  0  0  0  0
    3.4850   43.9340   26.9742 O   0  0  0  0  0  0  0  0  0  0  0  0
    4.3879   45.5112   25.6777 C   0  0  0  0  0  0  0  0  0  0  0  0
    5.4785   49.4609   24.7108 O   0  0  0  0  0  0  0  0  0  0  0  0
    6.3250   49.6668   26.7904 O   0  0  0  0  0  0  0  0  0  0  0  0
    3.5576   43.3908   25.6491 C   0  0  0  0  0  0  0  0  0  0  0  0
    4.1399   44.4312   24.8524 O   0  0  0  0  0  0  0  0  0  0  0  0
    8.8114   40.1833   34.2130 O   0  0  0  0  0  0  0  0  0  0  0  0
   11.2402   40.7929   33.3695 O   0  0  0  0  0  0  0  0  0  0  0  0
   10.9151   40.6903   31.9974 C   0  0  0  0  0  0  0  0  0  0  0  0
   11.5252   39.3885   31.4374 C   0  0  0  0  0  0  0  0  0  0  0  0
   12.7500   39.0873   32.0798 O   0  0  0  0  0  0  0  0  0  0  0  0
   10.6092   38.1925   31.6469 C   0  0  0  0  0  0  0  0  0  0  0  0
   12.9331   37.6791   32.0294 C   0  0  0  0  0  0  0  0  0  0  0  0
    9.6122   38.0895   30.6540 O   0  0  0  0  0  0  0  0  0  0  0  0
   11.5742   37.0144   31.7024 C   0  0  0  0  0  0  0  0  0  0  0  0
   13.4844   37.2107   33.3241 N   0  0  0  0  0  0  0  0  0  0  0  0
   11.6297   36.3238   30.4741 O   0  0  0  0  0  0  0  0  0  0  0  0
   14.4801   36.3312   33.5726 C   0  0  0  0  0  0  0  0  0  0  0  0
   13.1139   37.6267   34.5692 C   0  0  0  0  0  0  0  0  0  0  0  0
   15.2075   35.6150   32.6739 N   0  0  0  0  0  0  0  0  0  0  0  0
   14.6761   36.2302   34.9181 C   0  0  0  0  0  0  0  0  0  0  0  0
   13.8221   37.0448   35.5784 N   0  0  0  0  0  0  0  0  0  0  0  0
   16.1644   34.7601   33.1547 C   0  0  0  0  0  0  0  0  0  0  0  0
   15.6529   35.3505   35.4131 C   0  0  0  0  0  0  0  0  0  0  0  0
   16.3797   34.6315   34.5042 N   0  0  0  0  0  0  0  0  0  0  0  0
   15.9004   35.1934   36.8090 N   0  0  0  0  0  0  0  0  0  0  0  0
    9.0099   45.4350   33.6667 H   0  0  0  0  0  0  0  0  0  0  0  0
   11.9350   45.6934   33.0927 H   0  0  0  0  0  0  0  0  0  0  0  0
   11.1131   46.1992   34.4883 H   0  0  0  0  0  0  0  0  0  0  0  0
    9.3516   43.8343   31.4758 H   0  0  0  0  0  0  0  0  0  0  0  0
   10.7311   44.8926   31.1675 H   0  0  0  0  0  0  0  0  0  0  0  0
    7.0120   44.7193   31.5898 H   0  0  0  0  0  0  0  0  0  0  0  0
   10.3465   47.1908   30.4172 H   0  0  0  0  0  0  0  0  0  0  0  0
    5.4679   46.2996   30.5412 H   0  0  0  0  0  0  0  0  0  0  0  0
    8.7933   48.7713   29.3457 H   0  0  0  0  0  0  0  0  0  0  0  0
    4.3751   49.3443   28.5327 H   0  0  0  0  0  0  0  0  0  0  0  0
    4.2391   48.0555   29.7411 H   0  0  0  0  0  0  0  0  0  0  0  0
    3.7832   45.8522   28.9687 H   0  0  0  0  0  0  0  0  0  0  0  0
    5.2255   46.9431   24.3228 H   0  0  0  0  0  0  0  0  0  0  0  0
    2.5402   43.1475   25.2772 H   0  0  0  0  0  0  0  0  0  0  0  0
    4.2071   42.4906   25.6382 H   0  0  0  0  0  0  0  0  0  0  0  0
   11.3807   41.5528   31.4741 H   0  0  0  0  0  0  0  0  0  0  0  0
    9.8244   40.7218   31.7638 H   0  0  0  0  0  0  0  0  0  0  0  0
   11.7266   39.5311   30.3511 H   0  0  0  0  0  0  0  0  0  0  0  0
   10.1107   38.2745   32.6385 H   0  0  0  0  0  0  0  0  0  0  0  0
   13.6651   37.4517   31.2226 H   0  0  0  0  0  0  0  0  0  0  0  0
   10.0514   38.1141   29.7644 H   0  0  0  0  0  0  0  0  0  0  0  0
   11.2761   36.3140   32.5189 H   0  0  0  0  0  0  0  0  0  0  0  0
   10.8592   35.6977   30.4640 H   0  0  0  0  0  0  0  0  0  0  0  0
   12.3296   38.3518   34.7448 H   0  0  0  0  0  0  0  0  0  0  0  0
   16.7564   34.1780   32.4621 H   0  0  0  0  0  0  0  0  0  0  0  0
   16.6349   34.5301   37.1416 H   0  0  0  0  0  0  0  0  0  0  0  0
   15.3534   35.7360   37.5138 H   0  0  0  0  0  0  0  0  0  0  0  0
  1  2  2  0
  1  3  1  0
  3  4  1  0
  4  5  1  0
  6  1  1  0
  7  6  1  0
  6  8  1  0
  8  9  1  0
  9 10  2  0
 11  9  1  0
 10 12  1  0
 13 11  2  0
 12 14  2  0
 14 13  1  0
 14 15  1  0
 15 16  1  0
 16 17  1  0
 17 18  2  0
 19 17  1  0
 18 20  1  0
 21 19  2  0
 19 22  1  0
 20 23  1  0
 20 24  2  0
 24 21  1  0
 22 25  1  0
 22 26  2  0
 23 27  1  0
 24 28  1  0
 27 28  1  0
  4 29  2  0
  4 30  1  0
 31 30  1  0
 31 32  1  0
 32 33  1  0
 32 34  1  0
 33 35  1  0
 34 36  1  0
 34 37  1  0
 37 35  1  0
 35 38  1  0
 37 39  1  0
 40 38  1  0
 41 38  1  0
 42 40  2  0
 40 43  1  0
 44 41  2  0
 45 42  1  0
 43 46  2  0
 43 44  1  0
 47 45  2  0
 47 46  1  0
 46 48  1  0
  6 49  1  1
  7 50  1  0
  7 51  1  0
  8 52  1  0
  8 53  1  0
 10 54  1  0
 11 55  1  0
 12 56  1  0
 13 57  1  0
 16 58  1  0
 16 59  1  0
 18 60  1  0
 21 61  1  0
 27 62  1  0
 27 63  1  0
 31 64  1  0
 31 65  1  0
 32 66  1  0
 34 67  1  0
 35 68  1  0
 36 69  1  0
 37 70  1  0
 39 71  1  0
 41 72  1  0
 45 73  1  0
 48 74  1  0
 48 75  1  0
M  CHG  3   5  -1  22   1  25  -1
M  END
>  <EmbedRMS>  (25) 
0.0827330381785

$$$$

     RDKit          3D

 75 80  0  0  0  0  0  0  0  0999 V2000
   10.2835   43.7661   33.8256 C   0  0  0  0  0  0  0  0  0  0  0  0
   11.4102   43.5930   34.3753 O   0  0  0  0  0  0  0  0  0  0  0  0
    9.3640   42.7253   33.7346 O   0  0  0  0  0  0  0  0  0  0  0  0
    9.8908   41.2265   34.2938 P   0  0  0  0  0  0  0  0  0  0  0  0
   10.3732   41.4559   35.8835 O   0  0  0  0  0  0  0  0  0  0  0  0
    9.9547   45.0695   33.2036 C   0  0  1  0  0  0  0  0  0  0  0  0
   11.0272   46.0323   33.4760 N   0  0  0  0  0  0  0  0  0  0  0  0
    9.7471   44.8484   31.6876 C   0  0  0  0  0  0  0  0  0  0  0  0
    8.7925   45.8410   31.0845 C   0  0  0  0  0  0  0  0  0  0  0  0
    7.4059   45.6007   31.0991 C   0  0  0  0  0  0  0  0  0  0  0  0
    9.2817   46.9877   30.4415 C   0  0  0  0  0  0  0  0  0  0  0  0
    6.5247   46.5004   30.4842 C   0  0  0  0  0  0  0  0  0  0  0  0
    8.4005   47.8879   29.8316 C   0  0  0  0  0  0  0  0  0  0  0  0
    7.0186   47.6575   29.8477 C   0  0  0  0  0  0  0  0  0  0  0  0
    6.1802   48.5967   29.2252 O   0  0  0  0  0  0  0  0  0  0  0  0
    4.7521   48.5623   29.2415 C   0  0  0  0  0  0  0  0  0  0  0  0
    4.2231   48.8552   30.6281 C   0  0  0  0  0  0  0  0  0  0  0  0
    4.7727   49.9512   31.3341 C   0  0  0  0  0  0  0  0  0  0  0  0
    3.2242   48.0420   31.2577 C   0  0  0  0  0  0  0  0  0  0  0  0
    4.3596   50.1706   32.6417 C   0  0  0  0  0  0  0  0  0  0  0  0
    2.8556   48.3025   32.5968 C   0  0  0  0  0  0  0  0  0  0  0  0
    2.5643   46.9770   30.5569 N   0  0  0  0  0  0  0  0  0  0  0  0
    4.7691   51.1571   33.5181 O   0  0  0  0  0  0  0  0  0  0  0  0
    3.4466   49.3772   33.2486 C   0  0  0  0  0  0  0  0  0  0  0  0
    2.2148   45.8297   31.2308 O   0  0  0  0  0  0  0  0  0  0  0  0
    2.0903   47.1755   29.4194 O   0  0  0  0  0  0  0  0  0  0  0  0
    4.0665   50.9698   34.7544 C   0  0  0  0  0  0  0  0  0  0  0  0
    3.2325   49.8232   34.5386 O   0  0  0  0  0  0  0  0  0  0  0  0
    8.8127   40.1848   34.2122 O   0  0  0  0  0  0  0  0  0  0  0  0
   11.2420   40.7941   33.3697 O   0  0  0  0  0  0  0  0  0  0  0  0
   10.9187   40.6911   31.9971 C   0  0  0  0  0  0  0  0  0  0  0  0
   11.5172   39.3815   31.4407 C   0  0  0  0  0  0  0  0  0  0  0  0
   12.7493   39.0855   32.0728 O   0  0  0  0  0  0  0  0  0  0  0  0
   10.6023   38.1908   31.6665 C   0  0  0  0  0  0  0  0  0  0  0  0
   12.9319   37.6781   32.0281 C   0  0  0  0  0  0  0  0  0  0  0  0
    9.6392   38.0798   30.6452 O   0  0  0  0  0  0  0  0  0  0  0  0
   11.5715   37.0165   31.7056 C   0  0  0  0  0  0  0  0  0  0  0  0
   13.4846   37.2121   33.3235 N   0  0  0  0  0  0  0  0  0  0  0  0
   11.6187   36.3383   30.4695 O   0  0  0  0  0  0  0  0  0  0  0  0
   14.4801   36.3321   33.5724 C   0  0  0  0  0  0  0  0  0  0  0  0
   13.1137   37.6276   34.5688 C   0  0  0  0  0  0  0  0  0  0  0  0
   15.2073   35.6153   32.6738 N   0  0  0  0  0  0  0  0  0  0  0  0
   14.6759   36.2308   34.9179 C   0  0  0  0  0  0  0  0  0  0  0  0
   13.8216   37.0452   35.5781 N   0  0  0  0  0  0  0  0  0  0  0  0
   16.1640   34.7602   33.1546 C   0  0  0  0  0  0  0  0  0  0  0  0
   15.6526   35.3508   35.4129 C   0  0  0  0  0  0  0  0  0  0  0  0
   16.3794   34.6317   34.5041 N   0  0  0  0  0  0  0  0  0  0  0  0
   15.8999   35.1935   36.8088 N   0  0  0  0  0  0  0  0  0  0  0  0
    9.0120   45.4316   33.6713 H   0  0  0  0  0  0  0  0  0  0  0  0
   11.8907   45.7661   32.9476 H   0  0  0  0  0  0  0  0  0  0  0  0
   10.7258   46.9689   33.1217 H   0  0  0  0  0  0  0  0  0  0  0  0
   10.7236   44.8825   31.1558 H   0  0  0  0  0  0  0  0  0  0  0  0
    9.3425   43.8331   31.4758 H   0  0  0  0  0  0  0  0  0  0  0  0
    7.0102   44.7147   31.5803 H   0  0  0  0  0  0  0  0  0  0  0  0
   10.3460   47.1860   30.4096 H   0  0  0  0  0  0  0  0  0  0  0  0
    5.4670   46.2821   30.5082 H   0  0  0  0  0  0  0  0  0  0  0  0
    8.7937   48.7705   29.3432 H   0  0  0  0  0  0  0  0  0  0  0  0
    4.3783   49.3504   28.5551 H   0  0  0  0  0  0  0  0  0  0  0  0
    4.4133   47.5868   28.8406 H   0  0  0  0  0  0  0  0  0  0  0  0
    5.5180   50.5961   30.8856 H   0  0  0  0  0  0  0  0  0  0  0  0
    2.1104   47.7029   33.1034 H   0  0  0  0  0  0  0  0  0  0  0  0
    4.7843   50.7719   35.5778 H   0  0  0  0  0  0  0  0  0  0  0  0
    3.4430   51.8601   34.9803 H   0  0  0  0  0  0  0  0  0  0  0  0
    9.8299   40.7410   31.7613 H   0  0  0  0  0  0  0  0  0  0  0  0
   11.3968   41.5460   31.4728 H   0  0  0  0  0  0  0  0  0  0  0  0
   11.6975   39.5067   30.3481 H   0  0  0  0  0  0  0  0  0  0  0  0
   10.1077   38.2648   32.6645 H   0  0  0  0  0  0  0  0  0  0  0  0
   13.6621   37.4467   31.2209 H   0  0  0  0  0  0  0  0  0  0  0  0
    8.8975   38.6944   30.8831 H   0  0  0  0  0  0  0  0  0  0  0  0
   11.2806   36.3073   32.5170 H   0  0  0  0  0  0  0  0  0  0  0  0
   10.8492   35.7110   30.4586 H   0  0  0  0  0  0  0  0  0  0  0  0
   12.3290   38.3524   34.7444 H   0  0  0  0  0  0  0  0  0  0  0  0
   16.7559   34.1780   32.4619 H   0  0  0  0  0  0  0  0  0  0  0  0
   16.6344   34.5301   37.1414 H   0  0  0  0  0  0  0  0  0  0  0  0
   15.3532   35.7362   37.5137 H   0  0  0  0  0  0  0  0  0  0  0  0
  1  2  2  0
  1  3  1  0
  3  4  1  0
  4  5  1  0
  6  1  1  0
  7  6  1  0
  6  8  1  0
  8  9  1  0
  9 10  2  0
 11  9  1  0
 10 12  1  0
 13 11  2  0
 12 14  2  0
 14 13  1  0
 14 15  1  0
 15 16  1  0
 16 17  1  0
 17 18  2  0
 19 17  1  0
 18 20  1  0
 21 19  2  0
 19 22  1  0
 20 23  1  0
 20 24  2  0
 24 21  1  0
 22 25  1  0
 22 26  2  0
 23 27  1  0
 24 28  1  0
 27 28  1  0
  4 29  2  0
  4 30  1  0
 31 30  1  0
 31 32  1  0
 32 33  1  0
 32 34  1  0
 33 35  1  0
 34 36  1  0
 34 37  1  0
 37 35  1  0
 35 38  1  0
 37 39  1  0
 40 38  1  0
 41 38  1  0
 42 40  2  0
 40 43  1  0
 44 41  2  0
 45 42  1  0
 43 46  2  0
 43 44  1  0
 47 45  2  0
 47 46  1  0
 46 48  1  0
  6 49  1  1
  7 50  1  0
  7 51  1  0
  8 52  1  0
  8 53  1  0
 10 54  1  0
 11 55  1  0
 12 56  1  0
 13 57  1  0
 16 58  1  0
 16 59  1  0
 18 60  1  0
 21 61  1  0
 27 62  1  0
 27 63  1  0
 31 64  1  0
 31 65  1  0
 32 66  1  0
 34 67  1  0
 35 68  1  0
 36 69  1  0
 37 70  1  0
 39 71  1  0
 41 72  1  0
 45 73  1  0
 48 74  1  0
 48 75  1  0
M  CHG  3   5  -1  22   1  25  -1
M  END
>  <EmbedRMS>  (26) 
0.082931484346

$$$$

     RDKit          3D

 75 80  0  0  0  0  0  0  0  0999 V2000
   10.2804   43.7664   33.8249 C   0  0  0  0  0  0  0  0  0  0  0  0
   11.4110   43.5919   34.3666 O   0  0  0  0  0  0  0  0  0  0  0  0
    9.3619   42.7249   33.7345 O   0  0  0  0  0  0  0  0  0  0  0  0
    9.8900   41.2266   34.2940 P   0  0  0  0  0  0  0  0  0  0  0  0
   10.3734   41.4566   35.8833 O   0  0  0  0  0  0  0  0  0  0  0  0
    9.9459   45.0735   33.2111 C   0  0  1  0  0  0  0  0  0  0  0  0
   11.0267   46.0291   33.4705 N   0  0  0  0  0  0  0  0  0  0  0  0
    9.7536   44.8537   31.6948 C   0  0  0  0  0  0  0  0  0  0  0  0
    8.7956   45.8408   31.0844 C   0  0  0  0  0  0  0  0  0  0  0  0
    7.4086   45.6008   31.1013 C   0  0  0  0  0  0  0  0  0  0  0  0
    9.2829   46.9880   30.4403 C   0  0  0  0  0  0  0  0  0  0  0  0
    6.5281   46.5017   30.4865 C   0  0  0  0  0  0  0  0  0  0  0  0
    8.4022   47.8897   29.8315 C   0  0  0  0  0  0  0  0  0  0  0  0
    7.0139   47.6498   29.8456 C   0  0  0  0  0  0  0  0  0  0  0  0
    6.0876   48.5154   29.2425 O   0  0  0  0  0  0  0  0  0  0  0  0
    6.4165   49.6350   28.4189 C   0  0  0  0  0  0  0  0  0  0  0  0
    7.0156   49.1834   27.1066 C   0  0  0  0  0  0  0  0  0  0  0  0
    8.2719   49.7106   26.7249 C   0  0  0  0  0  0  0  0  0  0  0  0
    6.3708   48.2147   26.2655 C   0  0  0  0  0  0  0  0  0  0  0  0
    8.8565   49.2472   25.5539 C   0  0  0  0  0  0  0  0  0  0  0  0
    7.0232   47.7721   25.0914 C   0  0  0  0  0  0  0  0  0  0  0  0
    5.0811   47.6631   26.5869 N   0  0  0  0  0  0  0  0  0  0  0  0
   10.0686   49.6084   24.9977 O   0  0  0  0  0  0  0  0  0  0  0  0
    8.2605   48.3166   24.7738 C   0  0  0  0  0  0  0  0  0  0  0  0
    4.7545   46.3934   26.1692 O   0  0  0  0  0  0  0  0  0  0  0  0
    4.1897   48.3755   27.0917 O   0  0  0  0  0  0  0  0  0  0  0  0
   10.2430   48.8550   23.7900 C   0  0  0  0  0  0  0  0  0  0  0  0
    9.0654   48.0431   23.6847 O   0  0  0  0  0  0  0  0  0  0  0  0
    8.8124   40.1844   34.2133 O   0  0  0  0  0  0  0  0  0  0  0  0
   11.2405   40.7942   33.3692 O   0  0  0  0  0  0  0  0  0  0  0  0
   10.9150   40.6905   31.9972 C   0  0  0  0  0  0  0  0  0  0  0  0
   11.5252   39.3886   31.4375 C   0  0  0  0  0  0  0  0  0  0  0  0
   12.7499   39.0874   32.0799 O   0  0  0  0  0  0  0  0  0  0  0  0
   10.6092   38.1926   31.6470 C   0  0  0  0  0  0  0  0  0  0  0  0
   12.9332   37.6793   32.0294 C   0  0  0  0  0  0  0  0  0  0  0  0
    9.6122   38.0894   30.6542 O   0  0  0  0  0  0  0  0  0  0  0  0
   11.5743   37.0145   31.7024 C   0  0  0  0  0  0  0  0  0  0  0  0
   13.4844   37.2108   33.3241 N   0  0  0  0  0  0  0  0  0  0  0  0
   11.6297   36.3239   30.4740 O   0  0  0  0  0  0  0  0  0  0  0  0
   14.4802   36.3313   33.5727 C   0  0  0  0  0  0  0  0  0  0  0  0
   13.1138   37.6267   34.5692 C   0  0  0  0  0  0  0  0  0  0  0  0
   15.2075   35.6149   32.6739 N   0  0  0  0  0  0  0  0  0  0  0  0
   14.6761   36.2303   34.9181 C   0  0  0  0  0  0  0  0  0  0  0  0
   13.8220   37.0447   35.5785 N   0  0  0  0  0  0  0  0  0  0  0  0
   16.1643   34.7600   33.1547 C   0  0  0  0  0  0  0  0  0  0  0  0
   15.6529   35.3505   35.4130 C   0  0  0  0  0  0  0  0  0  0  0  0
   16.3798   34.6315   34.5042 N   0  0  0  0  0  0  0  0  0  0  0  0
   15.9003   35.1932   36.8090 N   0  0  0  0  0  0  0  0  0  0  0  0
    8.9995   45.4381   33.6721 H   0  0  0  0  0  0  0  0  0  0  0  0
   11.0504   46.2277   34.4979 H   0  0  0  0  0  0  0  0  0  0  0  0
   10.7764   46.9368   33.0156 H   0  0  0  0  0  0  0  0  0  0  0  0
    9.3637   43.8351   31.4713 H   0  0  0  0  0  0  0  0  0  0  0  0
   10.7407   44.9069   31.1833 H   0  0  0  0  0  0  0  0  0  0  0  0
    7.0129   44.7167   31.5858 H   0  0  0  0  0  0  0  0  0  0  0  0
   10.3469   47.1879   30.4092 H   0  0  0  0  0  0  0  0  0  0  0  0
    5.4638   46.3040   30.5047 H   0  0  0  0  0  0  0  0  0  0  0  0
    8.8135   48.7689   29.3583 H   0  0  0  0  0  0  0  0  0  0  0  0
    5.4922   50.2120   28.2119 H   0  0  0  0  0  0  0  0  0  0  0  0
    7.0918   50.3220   28.9737 H   0  0  0  0  0  0  0  0  0  0  0  0
    8.7863   50.4470   27.3293 H   0  0  0  0  0  0  0  0  0  0  0  0
    6.5716   47.0385   24.4362 H   0  0  0  0  0  0  0  0  0  0  0  0
   11.1456   48.2130   23.8647 H   0  0  0  0  0  0  0  0  0  0  0  0
   10.3163   49.5384   22.9182 H   0  0  0  0  0  0  0  0  0  0  0  0
   11.3800   41.5528   31.4730 H   0  0  0  0  0  0  0  0  0  0  0  0
    9.8241   40.7215   31.7641 H   0  0  0  0  0  0  0  0  0  0  0  0
   11.7266   39.5310   30.3513 H   0  0  0  0  0  0  0  0  0  0  0  0
   10.1110   38.2747   32.6387 H   0  0  0  0  0  0  0  0  0  0  0  0
   13.6652   37.4520   31.2226 H   0  0  0  0  0  0  0  0  0  0  0  0
   10.0511   38.1143   29.7645 H   0  0  0  0  0  0  0  0  0  0  0  0
   11.2762   36.3141   32.5189 H   0  0  0  0  0  0  0  0  0  0  0  0
   10.8593   35.6978   30.4640 H   0  0  0  0  0  0  0  0  0  0  0  0
   12.3295   38.3518   34.7449 H   0  0  0  0  0  0  0  0  0  0  0  0
   16.7564   34.1779   32.4620 H   0  0  0  0  0  0  0  0  0  0  0  0
   16.6349   34.5300   37.1415 H   0  0  0  0  0  0  0  0  0  0  0  0
   15.3534   35.7359   37.5138 H   0  0  0  0  0  0  0  0  0  0  0  0
  1  2  2  0
  1  3  1  0
  3  4  1  0
  4  5  1  0
  6  1  1  0
  7  6  1  0
  6  8  1  0
  8  9  1  0
  9 10  2  0
 11  9  1  0
 10 12  1  0
 13 11  2  0
 12 14  2  0
 14 13  1  0
 14 15  1  0
 15 16  1  0
 16 17  1  0
 17 18  2  0
 19 17  1  0
 18 20  1  0
 21 19  2  0
 19 22  1  0
 20 23  1  0
 20 24  2  0
 24 21  1  0
 22 25  1  0
 22 26  2  0
 23 27  1  0
 24 28  1  0
 27 28  1  0
  4 29  2  0
  4 30  1  0
 31 30  1  0
 31 32  1  0
 32 33  1  0
 32 34  1  0
 33 35  1  0
 34 36  1  0
 34 37  1  0
 37 35  1  0
 35 38  1  0
 37 39  1  0
 40 38  1  0
 41 38  1  0
 42 40  2  0
 40 43  1  0
 44 41  2  0
 45 42  1  0
 43 46  2  0
 43 44  1  0
 47 45  2  0
 47 46  1  0
 46 48  1  0
  6 49  1  1
  7 50  1  0
  7 51  1  0
  8 52  1  0
  8 53  1  0
 10 54  1  0
 11 55  1  0
 12 56  1  0
 13 57  1  0
 16 58  1  0
 16 59  1  0
 18 60  1  0
 21 61  1  0
 27 62  1  0
 27 63  1  0
 31 64  1  0
 31 65  1  0
 32 66  1  0
 34 67  1  0
 35 68  1  0
 36 69  1  0
 37 70  1  0
 39 71  1  0
 41 72  1  0
 45 73  1  0
 48 74  1  0
 48 75  1  0
M  CHG  3   5  -1  22   1  25  -1
M  END
>  <EmbedRMS>  (27) 
0.0816556174502

$$$$

     RDKit          3D

 75 80  0  0  0  0  0  0  0  0999 V2000
   10.2839   43.7627   33.8277 C   0  0  0  0  0  0  0  0  0  0  0  0
   11.4103   43.5864   34.3767 O   0  0  0  0  0  0  0  0  0  0  0  0
    9.3631   42.7236   33.7355 O   0  0  0  0  0  0  0  0  0  0  0  0
    9.8895   41.2250   34.2948 P   0  0  0  0  0  0  0  0  0  0  0  0
   10.3720   41.4547   35.8844 O   0  0  0  0  0  0  0  0  0  0  0  0
    9.9548   45.0700   33.2065 C   0  0  1  0  0  0  0  0  0  0  0  0
   11.0197   46.0482   33.4572 N   0  0  0  0  0  0  0  0  0  0  0  0
    9.7505   44.8512   31.6924 C   0  0  0  0  0  0  0  0  0  0  0  0
    8.7944   45.8421   31.0873 C   0  0  0  0  0  0  0  0  0  0  0  0
    7.4077   45.6002   31.0999 C   0  0  0  0  0  0  0  0  0  0  0  0
    9.2827   46.9889   30.4438 C   0  0  0  0  0  0  0  0  0  0  0  0
    6.5259   46.4991   30.4841 C   0  0  0  0  0  0  0  0  0  0  0  0
    8.4010   47.8875   29.8320 C   0  0  0  0  0  0  0  0  0  0  0  0
    7.0191   47.6567   29.8485 C   0  0  0  0  0  0  0  0  0  0  0  0
    6.1816   48.5955   29.2255 O   0  0  0  0  0  0  0  0  0  0  0  0
    4.7546   48.5985   29.2864 C   0  0  0  0  0  0  0  0  0  0  0  0
    4.2729   48.9189   30.6828 C   0  0  0  0  0  0  0  0  0  0  0  0
    3.3603   48.0309   31.2995 C   0  0  0  0  0  0  0  0  0  0  0  0
    4.7443   50.0637   31.4078 C   0  0  0  0  0  0  0  0  0  0  0  0
    2.9694   48.2856   32.6072 C   0  0  0  0  0  0  0  0  0  0  0  0
    4.3193   50.2631   32.7428 C   0  0  0  0  0  0  0  0  0  0  0  0
    5.6520   51.0122   30.8188 N   0  0  0  0  0  0  0  0  0  0  0  0
    2.1059   47.5574   33.4028 O   0  0  0  0  0  0  0  0  0  0  0  0
    3.4311   49.3522   33.2994 C   0  0  0  0  0  0  0  0  0  0  0  0
    5.5078   51.4007   29.5074 O   0  0  0  0  0  0  0  0  0  0  0  0
    6.4773   51.6157   31.5354 O   0  0  0  0  0  0  0  0  0  0  0  0
    2.0208   48.2110   34.6766 C   0  0  0  0  0  0  0  0  0  0  0  0
    2.8821   49.3525   34.5673 O   0  0  0  0  0  0  0  0  0  0  0  0
    8.8117   40.1832   34.2124 O   0  0  0  0  0  0  0  0  0  0  0  0
   11.2411   40.7939   33.3709 O   0  0  0  0  0  0  0  0  0  0  0  0
   10.9179   40.6920   31.9985 C   0  0  0  0  0  0  0  0  0  0  0  0
   11.5175   39.3837   31.4422 C   0  0  0  0  0  0  0  0  0  0  0  0
   12.7508   39.0887   32.0751 O   0  0  0  0  0  0  0  0  0  0  0  0
   10.6028   38.1915   31.6658 C   0  0  0  0  0  0  0  0  0  0  0  0
   12.9385   37.6818   32.0278 C   0  0  0  0  0  0  0  0  0  0  0  0
    9.6371   38.0805   30.6470 O   0  0  0  0  0  0  0  0  0  0  0  0
   11.5780   37.0215   31.6934 C   0  0  0  0  0  0  0  0  0  0  0  0
   13.4844   37.2119   33.3242 N   0  0  0  0  0  0  0  0  0  0  0  0
   11.6095   36.3201   30.4678 O   0  0  0  0  0  0  0  0  0  0  0  0
   14.4797   36.3318   33.5730 C   0  0  0  0  0  0  0  0  0  0  0  0
   13.1135   37.6278   34.5691 C   0  0  0  0  0  0  0  0  0  0  0  0
   15.2073   35.6155   32.6742 N   0  0  0  0  0  0  0  0  0  0  0  0
   14.6754   36.2305   34.9184 C   0  0  0  0  0  0  0  0  0  0  0  0
   13.8213   37.0452   35.5785 N   0  0  0  0  0  0  0  0  0  0  0  0
   16.1640   34.7604   33.1549 C   0  0  0  0  0  0  0  0  0  0  0  0
   15.6524   35.3507   35.4132 C   0  0  0  0  0  0  0  0  0  0  0  0
   16.3794   34.6318   34.5044 N   0  0  0  0  0  0  0  0  0  0  0  0
   15.8999   35.1934   36.8091 N   0  0  0  0  0  0  0  0  0  0  0  0
    9.0098   45.4349   33.6671 H   0  0  0  0  0  0  0  0  0  0  0  0
   11.1131   46.1994   34.4885 H   0  0  0  0  0  0  0  0  0  0  0  0
   11.9349   45.6934   33.0931 H   0  0  0  0  0  0  0  0  0  0  0  0
    9.3518   43.8346   31.4760 H   0  0  0  0  0  0  0  0  0  0  0  0
   10.7309   44.8933   31.1678 H   0  0  0  0  0  0  0  0  0  0  0  0
    7.0128   44.7132   31.5799 H   0  0  0  0  0  0  0  0  0  0  0  0
   10.3467   47.1890   30.4139 H   0  0  0  0  0  0  0  0  0  0  0  0
    5.4692   46.2775   30.5031 H   0  0  0  0  0  0  0  0  0  0  0  0
    8.7935   48.7706   29.3439 H   0  0  0  0  0  0  0  0  0  0  0  0
    4.3629   47.6241   28.9219 H   0  0  0  0  0  0  0  0  0  0  0  0
    4.3668   49.3672   28.5875 H   0  0  0  0  0  0  0  0  0  0  0  0
    2.9788   47.1592   30.7829 H   0  0  0  0  0  0  0  0  0  0  0  0
    4.6584   51.1116   33.3229 H   0  0  0  0  0  0  0  0  0  0  0  0
    0.9774   48.5357   34.8727 H   0  0  0  0  0  0  0  0  0  0  0  0
    2.3810   47.5348   35.4800 H   0  0  0  0  0  0  0  0  0  0  0  0
    9.8292   40.7410   31.7624 H   0  0  0  0  0  0  0  0  0  0  0  0
   11.3955   41.5477   31.4751 H   0  0  0  0  0  0  0  0  0  0  0  0
   11.6981   39.5116   30.3500 H   0  0  0  0  0  0  0  0  0  0  0  0
   10.1117   38.2603   32.6660 H   0  0  0  0  0  0  0  0  0  0  0  0
   13.6767   37.4555   31.2267 H   0  0  0  0  0  0  0  0  0  0  0  0
    8.8961   38.6951   30.8872 H   0  0  0  0  0  0  0  0  0  0  0  0
   11.2792   36.3072   32.4922 H   0  0  0  0  0  0  0  0  0  0  0  0
   11.8828   36.9598   29.7588 H   0  0  0  0  0  0  0  0  0  0  0  0
   12.3300   38.3539   34.7446 H   0  0  0  0  0  0  0  0  0  0  0  0
   16.7562   34.1785   32.4622 H   0  0  0  0  0  0  0  0  0  0  0  0
   16.6347   34.5303   37.1416 H   0  0  0  0  0  0  0  0  0  0  0  0
   15.3531   35.7360   37.5140 H   0  0  0  0  0  0  0  0  0  0  0  0
  1  2  2  0
  1  3  1  0
  3  4  1  0
  4  5  1  0
  6  1  1  0
  7  6  1  0
  6  8  1  0
  8  9  1  0
  9 10  2  0
 11  9  1  0
 10 12  1  0
 13 11  2  0
 12 14  2  0
 14 13  1  0
 14 15  1  0
 15 16  1  0
 16 17  1  0
 17 18  2  0
 19 17  1  0
 18 20  1  0
 21 19  2  0
 19 22  1  0
 20 23  1  0
 20 24  2  0
 24 21  1  0
 22 25  1  0
 22 26  2  0
 23 27  1  0
 24 28  1  0
 27 28  1  0
  4 29  2  0
  4 30  1  0
 31 30  1  0
 31 32  1  0
 32 33  1  0
 32 34  1  0
 33 35  1  0
 34 36  1  0
 34 37  1  0
 37 35  1  0
 35 38  1  0
 37 39  1  0
 40 38  1  0
 41 38  1  0
 42 40  2  0
 40 43  1  0
 44 41  2  0
 45 42  1  0
 43 46  2  0
 43 44  1  0
 47 45  2  0
 47 46  1  0
 46 48  1  0
  6 49  1  1
  7 50  1  0
  7 51  1  0
  8 52  1  0
  8 53  1  0
 10 54  1  0
 11 55  1  0
 12 56  1  0
 13 57  1  0
 16 58  1  0
 16 59  1  0
 18 60  1  0
 21 61  1  0
 27 62  1  0
 27 63  1  0
 31 64  1  0
 31 65  1  0
 32 66  1  0
 34 67  1  0
 35 68  1  0
 36 69  1  0
 37 70  1  0
 39 71  1  0
 41 72  1  0
 45 73  1  0
 48 74  1  0
 48 75  1  0
M  CHG  3   5  -1  22   1  25  -1
M  END
>  <EmbedRMS>  (28) 
0.0828595529958

$$$$

     RDKit          3D

 75 80  0  0  0  0  0  0  0  0999 V2000
   10.2804   43.7665   33.8251 C   0  0  0  0  0  0  0  0  0  0  0  0
   11.4111   43.5920   34.3667 O   0  0  0  0  0  0  0  0  0  0  0  0
    9.3619   42.7250   33.7345 O   0  0  0  0  0  0  0  0  0  0  0  0
    9.8903   41.2266   34.2931 P   0  0  0  0  0  0  0  0  0  0  0  0
   10.3745   41.4564   35.8823 O   0  0  0  0  0  0  0  0  0  0  0  0
    9.9459   45.0738   33.2115 C   0  0  1  0  0  0  0  0  0  0  0  0
   11.0267   46.0293   33.4708 N   0  0  0  0  0  0  0  0  0  0  0  0
    9.7535   44.8542   31.6953 C   0  0  0  0  0  0  0  0  0  0  0  0
    8.7954   45.8417   31.0858 C   0  0  0  0  0  0  0  0  0  0  0  0
    7.4089   45.5997   31.0995 C   0  0  0  0  0  0  0  0  0  0  0  0
    9.2825   46.9876   30.4393 C   0  0  0  0  0  0  0  0  0  0  0  0
    6.5287   46.4992   30.4826 C   0  0  0  0  0  0  0  0  0  0  0  0
    8.4017   47.8880   29.8286 C   0  0  0  0  0  0  0  0  0  0  0  0
    7.0132   47.6538   29.8523 C   0  0  0  0  0  0  0  0  0  0  0  0
    6.0847   48.5232   29.2592 O   0  0  0  0  0  0  0  0  0  0  0  0
    6.3322   49.8785   28.8821 C   0  0  0  0  0  0  0  0  0  0  0  0
    6.4754   50.7573   30.1029 C   0  0  0  0  0  0  0  0  0  0  0  0
    7.7595   51.2597   30.4230 C   0  0  0  0  0  0  0  0  0  0  0  0
    5.3485   51.1367   30.9094 C   0  0  0  0  0  0  0  0  0  0  0  0
    7.8922   52.0877   31.5290 C   0  0  0  0  0  0  0  0  0  0  0  0
    5.5479   51.9935   32.0187 C   0  0  0  0  0  0  0  0  0  0  0  0
    4.0075   50.7121   30.5988 N   0  0  0  0  0  0  0  0  0  0  0  0
    9.0375   52.6792   32.0265 O   0  0  0  0  0  0  0  0  0  0  0  0
    6.8339   52.4377   32.2940 C   0  0  0  0  0  0  0  0  0  0  0  0
    3.7520   49.4391   30.1474 O   0  0  0  0  0  0  0  0  0  0  0  0
    3.0400   51.4488   30.8822 O   0  0  0  0  0  0  0  0  0  0  0  0
    8.6724   53.4481   33.1809 C   0  0  0  0  0  0  0  0  0  0  0  0
    7.2562   53.2668   33.3155 O   0  0  0  0  0  0  0  0  0  0  0  0
    8.8124   40.1845   34.2131 O   0  0  0  0  0  0  0  0  0  0  0  0
   11.2402   40.7950   33.3665 O   0  0  0  0  0  0  0  0  0  0  0  0
   10.9124   40.6860   31.9951 C   0  0  0  0  0  0  0  0  0  0  0  0
   11.5175   39.3786   31.4405 C   0  0  0  0  0  0  0  0  0  0  0  0
   12.7490   39.0864   32.0752 O   0  0  0  0  0  0  0  0  0  0  0  0
   10.6061   38.1868   31.6656 C   0  0  0  0  0  0  0  0  0  0  0  0
   12.9356   37.6796   32.0292 C   0  0  0  0  0  0  0  0  0  0  0  0
    9.6399   38.0903   30.6472 O   0  0  0  0  0  0  0  0  0  0  0  0
   11.5765   37.0145   31.7044 C   0  0  0  0  0  0  0  0  0  0  0  0
   13.4858   37.2124   33.3244 N   0  0  0  0  0  0  0  0  0  0  0  0
   11.6101   36.3396   30.4673 O   0  0  0  0  0  0  0  0  0  0  0  0
   14.4804   36.3318   33.5730 C   0  0  0  0  0  0  0  0  0  0  0  0
   13.1144   37.6276   34.5693 C   0  0  0  0  0  0  0  0  0  0  0  0
   15.2075   35.6152   32.6741 N   0  0  0  0  0  0  0  0  0  0  0  0
   14.6760   36.2303   34.9184 C   0  0  0  0  0  0  0  0  0  0  0  0
   13.8219   37.0449   35.5787 N   0  0  0  0  0  0  0  0  0  0  0  0
   16.1641   34.7599   33.1548 C   0  0  0  0  0  0  0  0  0  0  0  0
   15.6527   35.3503   35.4132 C   0  0  0  0  0  0  0  0  0  0  0  0
   16.3795   34.6313   34.5043 N   0  0  0  0  0  0  0  0  0  0  0  0
   15.9001   35.1931   36.8091 N   0  0  0  0  0  0  0  0  0  0  0  0
    8.9997   45.4384   33.6728 H   0  0  0  0  0  0  0  0  0  0  0  0
   11.0504   46.2280   34.4982 H   0  0  0  0  0  0  0  0  0  0  0  0
   10.7766   46.9370   33.0156 H   0  0  0  0  0  0  0  0  0  0  0  0
   10.7405   44.9075   31.1838 H   0  0  0  0  0  0  0  0  0  0  0  0
    9.3635   43.8356   31.4717 H   0  0  0  0  0  0  0  0  0  0  0  0
    7.0134   44.7147   31.5826 H   0  0  0  0  0  0  0  0  0  0  0  0
   10.3472   47.1827   30.3995 H   0  0  0  0  0  0  0  0  0  0  0  0
    5.4643   46.3019   30.5017 H   0  0  0  0  0  0  0  0  0  0  0  0
    8.8164   48.7445   29.3209 H   0  0  0  0  0  0  0  0  0  0  0  0
    5.4805   50.2444   28.2715 H   0  0  0  0  0  0  0  0  0  0  0  0
    7.2237   49.9339   28.2218 H   0  0  0  0  0  0  0  0  0  0  0  0
    8.6291   51.0253   29.8240 H   0  0  0  0  0  0  0  0  0  0  0  0
    4.7243   52.3009   32.6502 H   0  0  0  0  0  0  0  0  0  0  0  0
    9.1954   53.0618   34.0808 H   0  0  0  0  0  0  0  0  0  0  0  0
    8.9075   54.5208   33.0181 H   0  0  0  0  0  0  0  0  0  0  0  0
    9.8213   40.7200   31.7634 H   0  0  0  0  0  0  0  0  0  0  0  0
   11.3802   41.5437   31.4660 H   0  0  0  0  0  0  0  0  0  0  0  0
   11.6998   39.5040   30.3481 H   0  0  0  0  0  0  0  0  0  0  0  0
   10.1087   38.2767   32.6604 H   0  0  0  0  0  0  0  0  0  0  0  0
   13.6680   37.4521   31.2229 H   0  0  0  0  0  0  0  0  0  0  0  0
    9.0017   37.3868   30.9350 H   0  0  0  0  0  0  0  0  0  0  0  0
   11.2666   36.3062   32.5084 H   0  0  0  0  0  0  0  0  0  0  0  0
   12.1389   35.5126   30.6151 H   0  0  0  0  0  0  0  0  0  0  0  0
   12.3302   38.3530   34.7448 H   0  0  0  0  0  0  0  0  0  0  0  0
   16.7560   34.1778   32.4621 H   0  0  0  0  0  0  0  0  0  0  0  0
   15.3534   35.7360   37.5139 H   0  0  0  0  0  0  0  0  0  0  0  0
   16.6347   34.5299   37.1417 H   0  0  0  0  0  0  0  0  0  0  0  0
  1  2  2  0
  1  3  1  0
  3  4  1  0
  4  5  1  0
  6  1  1  0
  7  6  1  0
  6  8  1  0
  8  9  1  0
  9 10  2  0
 11  9  1  0
 10 12  1  0
 13 11  2  0
 12 14  2  0
 14 13  1  0
 14 15  1  0
 15 16  1  0
 16 17  1  0
 17 18  2  0
 19 17  1  0
 18 20  1  0
 21 19  2  0
 19 22  1  0
 20 23  1  0
 20 24  2  0
 24 21  1  0
 22 25  1  0
 22 26  2  0
 23 27  1  0
 24 28  1  0
 27 28  1  0
  4 29  2  0
  4 30  1  0
 31 30  1  0
 31 32  1  0
 32 33  1  0
 32 34  1  0
 33 35  1  0
 34 36  1  0
 34 37  1  0
 37 35  1  0
 35 38  1  0
 37 39  1  0
 40 38  1  0
 41 38  1  0
 42 40  2  0
 40 43  1  0
 44 41  2  0
 45 42  1  0
 43 46  2  0
 43 44  1  0
 47 45  2  0
 47 46  1  0
 46 48  1  0
  6 49  1  1
  7 50  1  0
  7 51  1  0
  8 52  1  0
  8 53  1  0
 10 54  1  0
 11 55  1  0
 12 56  1  0
 13 57  1  0
 16 58  1  0
 16 59  1  0
 18 60  1  0
 21 61  1  0
 27 62  1  0
 27 63  1  0
 31 64  1  0
 31 65  1  0
 32 66  1  0
 34 67  1  0
 35 68  1  0
 36 69  1  0
 37 70  1  0
 39 71  1  0
 41 72  1  0
 45 73  1  0
 48 74  1  0
 48 75  1  0
M  CHG  3   5  -1  22   1  25  -1
M  END
>  <EmbedRMS>  (29) 
0.0822094357558

$$$$

     RDKit          3D

 75 80  0  0  0  0  0  0  0  0999 V2000
   10.2803   43.7665   33.8251 C   0  0  0  0  0  0  0  0  0  0  0  0
   11.4110   43.5919   34.3667 O   0  0  0  0  0  0  0  0  0  0  0  0
    9.3618   42.7250   33.7345 O   0  0  0  0  0  0  0  0  0  0  0  0
    9.8902   41.2265   34.2931 P   0  0  0  0  0  0  0  0  0  0  0  0
   10.3743   41.4562   35.8824 O   0  0  0  0  0  0  0  0  0  0  0  0
    9.9458   45.0737   33.2113 C   0  0  1  0  0  0  0  0  0  0  0  0
   11.0266   46.0293   33.4706 N   0  0  0  0  0  0  0  0  0  0  0  0
    9.7534   44.8539   31.6951 C   0  0  0  0  0  0  0  0  0  0  0  0
    8.7954   45.8413   31.0852 C   0  0  0  0  0  0  0  0  0  0  0  0
    7.4087   45.6001   31.1000 C   0  0  0  0  0  0  0  0  0  0  0  0
    9.2830   46.9873   30.4393 C   0  0  0  0  0  0  0  0  0  0  0  0
    6.5283   46.5004   30.4841 C   0  0  0  0  0  0  0  0  0  0  0  0
    8.4025   47.8883   29.8293 C   0  0  0  0  0  0  0  0  0  0  0  0
    7.0135   47.6528   29.8508 C   0  0  0  0  0  0  0  0  0  0  0  0
    6.0864   48.5265   29.2609 O   0  0  0  0  0  0  0  0  0  0  0  0
    6.3896   49.8161   28.7268 C   0  0  0  0  0  0  0  0  0  0  0  0
    6.7775   50.7788   29.8258 C   0  0  0  0  0  0  0  0  0  0  0  0
    8.0107   51.4635   29.7148 C   0  0  0  0  0  0  0  0  0  0  0  0
    5.9575   50.9837   30.9866 C   0  0  0  0  0  0  0  0  0  0  0  0
    8.4024   52.2953   30.7552 C   0  0  0  0  0  0  0  0  0  0  0  0
    6.4174   51.8335   32.0192 C   0  0  0  0  0  0  0  0  0  0  0  0
    4.6819   50.3364   31.1436 N   0  0  0  0  0  0  0  0  0  0  0  0
    9.5568   53.0461   30.8664 O   0  0  0  0  0  0  0  0  0  0  0  0
    7.6415   52.4696   31.8599 C   0  0  0  0  0  0  0  0  0  0  0  0
    4.2082   50.0499   32.4033 O   0  0  0  0  0  0  0  0  0  0  0  0
    3.9201   50.1811   30.1676 O   0  0  0  0  0  0  0  0  0  0  0  0
    9.5161   53.7363   32.1229 C   0  0  0  0  0  0  0  0  0  0  0  0
    8.2762   53.3401   32.7249 O   0  0  0  0  0  0  0  0  0  0  0  0
    8.8123   40.1844   34.2130 O   0  0  0  0  0  0  0  0  0  0  0  0
   11.2401   40.7949   33.3666 O   0  0  0  0  0  0  0  0  0  0  0  0
   10.9124   40.6859   31.9952 C   0  0  0  0  0  0  0  0  0  0  0  0
   11.5175   39.3786   31.4405 C   0  0  0  0  0  0  0  0  0  0  0  0
   12.7490   39.0864   32.0753 O   0  0  0  0  0  0  0  0  0  0  0  0
   10.6060   38.1867   31.6656 C   0  0  0  0  0  0  0  0  0  0  0  0
   12.9355   37.6796   32.0292 C   0  0  0  0  0  0  0  0  0  0  0  0
    9.6399   38.0903   30.6471 O   0  0  0  0  0  0  0  0  0  0  0  0
   11.5765   37.0145   31.7044 C   0  0  0  0  0  0  0  0  0  0  0  0
   13.4858   37.2125   33.3244 N   0  0  0  0  0  0  0  0  0  0  0  0
   11.6101   36.3397   30.4673 O   0  0  0  0  0  0  0  0  0  0  0  0
   14.4805   36.3319   33.5729 C   0  0  0  0  0  0  0  0  0  0  0  0
   13.1143   37.6277   34.5694 C   0  0  0  0  0  0  0  0  0  0  0  0
   15.2076   35.6153   32.6741 N   0  0  0  0  0  0  0  0  0  0  0  0
   14.6760   36.2304   34.9184 C   0  0  0  0  0  0  0  0  0  0  0  0
   13.8219   37.0449   35.5786 N   0  0  0  0  0  0  0  0  0  0  0  0
   16.1641   34.7600   33.1548 C   0  0  0  0  0  0  0  0  0  0  0  0
   15.6528   35.3505   35.4132 C   0  0  0  0  0  0  0  0  0  0  0  0
   16.3795   34.6314   34.5043 N   0  0  0  0  0  0  0  0  0  0  0  0
   15.9002   35.1932   36.8091 N   0  0  0  0  0  0  0  0  0  0  0  0
    8.9995   45.4383   33.6725 H   0  0  0  0  0  0  0  0  0  0  0  0
   11.0503   46.2279   34.4980 H   0  0  0  0  0  0  0  0  0  0  0  0
   10.7763   46.9369   33.0156 H   0  0  0  0  0  0  0  0  0  0  0  0
    9.3634   43.8353   31.4717 H   0  0  0  0  0  0  0  0  0  0  0  0
   10.7405   44.9070   31.1836 H   0  0  0  0  0  0  0  0  0  0  0  0
    7.0130   44.7156   31.5839 H   0  0  0  0  0  0  0  0  0  0  0  0
   10.3474   47.1844   30.4034 H   0  0  0  0  0  0  0  0  0  0  0  0
    5.4637   46.3044   30.5050 H   0  0  0  0  0  0  0  0  0  0  0  0
    8.8155   48.7551   29.3353 H   0  0  0  0  0  0  0  0  0  0  0  0
    7.1815   49.7232   27.9522 H   0  0  0  0  0  0  0  0  0  0  0  0
    5.4928   50.2085   28.2053 H   0  0  0  0  0  0  0  0  0  0  0  0
    8.6536   51.3397   28.8525 H   0  0  0  0  0  0  0  0  0  0  0  0
    5.8305   52.0071   32.9118 H   0  0  0  0  0  0  0  0  0  0  0  0
    9.5288   54.8342   31.9586 H   0  0  0  0  0  0  0  0  0  0  0  0
   10.3691   53.4232   32.7608 H   0  0  0  0  0  0  0  0  0  0  0  0
   11.3801   41.5436   31.4660 H   0  0  0  0  0  0  0  0  0  0  0  0
    9.8214   40.7199   31.7634 H   0  0  0  0  0  0  0  0  0  0  0  0
   11.6999   39.5040   30.3482 H   0  0  0  0  0  0  0  0  0  0  0  0
   10.1085   38.2766   32.6603 H   0  0  0  0  0  0  0  0  0  0  0  0
   13.6679   37.4521   31.2229 H   0  0  0  0  0  0  0  0  0  0  0  0
    9.0016   37.3867   30.9349 H   0  0  0  0  0  0  0  0  0  0  0  0
   11.2666   36.3062   32.5084 H   0  0  0  0  0  0  0  0  0  0  0  0
   12.1389   35.5126   30.6150 H   0  0  0  0  0  0  0  0  0  0  0  0
   12.3300   38.3529   34.7450 H   0  0  0  0  0  0  0  0  0  0  0  0
   16.7560   34.1779   32.4621 H   0  0  0  0  0  0  0  0  0  0  0  0
   15.3534   35.7359   37.5140 H   0  0  0  0  0  0  0  0  0  0  0  0
   16.6347   34.5299   37.1416 H   0  0  0  0  0  0  0  0  0  0  0  0
  1  2  2  0
  1  3  1  0
  3  4  1  0
  4  5  1  0
  6  1  1  0
  7  6  1  0
  6  8  1  0
  8  9  1  0
  9 10  2  0
 11  9  1  0
 10 12  1  0
 13 11  2  0
 12 14  2  0
 14 13  1  0
 14 15  1  0
 15 16  1  0
 16 17  1  0
 17 18  2  0
 19 17  1  0
 18 20  1  0
 21 19  2  0
 19 22  1  0
 20 23  1  0
 20 24  2  0
 24 21  1  0
 22 25  1  0
 22 26  2  0
 23 27  1  0
 24 28  1  0
 27 28  1  0
  4 29  2  0
  4 30  1  0
 31 30  1  0
 31 32  1  0
 32 33  1  0
 32 34  1  0
 33 35  1  0
 34 36  1  0
 34 37  1  0
 37 35  1  0
 35 38  1  0
 37 39  1  0
 40 38  1  0
 41 38  1  0
 42 40  2  0
 40 43  1  0
 44 41  2  0
 45 42  1  0
 43 46  2  0
 43 44  1  0
 47 45  2  0
 47 46  1  0
 46 48  1  0
  6 49  1  1
  7 50  1  0
  7 51  1  0
  8 52  1  0
  8 53  1  0
 10 54  1  0
 11 55  1  0
 12 56  1  0
 13 57  1  0
 16 58  1  0
 16 59  1  0
 18 60  1  0
 21 61  1  0
 27 62  1  0
 27 63  1  0
 31 64  1  0
 31 65  1  0
 32 66  1  0
 34 67  1  0
 35 68  1  0
 36 69  1  0
 37 70  1  0
 39 71  1  0
 41 72  1  0
 45 73  1  0
 48 74  1  0
 48 75  1  0
M  CHG  3   5  -1  22   1  25  -1
M  END
>  <EmbedRMS>  (30) 
0.0822242768947

$$$$

     RDKit          3D

 75 80  0  0  0  0  0  0  0  0999 V2000
   10.2835   43.7662   33.8258 C   0  0  0  0  0  0  0  0  0  0  0  0
   11.4102   43.5931   34.3753 O   0  0  0  0  0  0  0  0  0  0  0  0
    9.3638   42.7255   33.7352 O   0  0  0  0  0  0  0  0  0  0  0  0
    9.8904   41.2268   34.2946 P   0  0  0  0  0  0  0  0  0  0  0  0
   10.3729   41.4561   35.8843 O   0  0  0  0  0  0  0  0  0  0  0  0
    9.9546   45.0695   33.2036 C   0  0  1  0  0  0  0  0  0  0  0  0
   11.0272   46.0323   33.4756 N   0  0  0  0  0  0  0  0  0  0  0  0
    9.7465   44.8480   31.6878 C   0  0  0  0  0  0  0  0  0  0  0  0
    8.7923   45.8408   31.0846 C   0  0  0  0  0  0  0  0  0  0  0  0
    7.4055   45.6012   31.0984 C   0  0  0  0  0  0  0  0  0  0  0  0
    9.2824   46.9873   30.4419 C   0  0  0  0  0  0  0  0  0  0  0  0
    6.5267   46.5028   30.4831 C   0  0  0  0  0  0  0  0  0  0  0  0
    8.4035   47.8892   29.8308 C   0  0  0  0  0  0  0  0  0  0  0  0
    7.0139   47.6543   29.8496 C   0  0  0  0  0  0  0  0  0  0  0  0
    6.0889   48.5301   29.2583 O   0  0  0  0  0  0  0  0  0  0  0  0
    6.4111   49.7905   28.6679 C   0  0  0  0  0  0  0  0  0  0  0  0
    6.8379   50.7857   29.7244 C   0  0  0  0  0  0  0  0  0  0  0  0
    6.0539   50.8908   30.8974 C   0  0  0  0  0  0  0  0  0  0  0  0
    8.0208   51.5852   29.5942 C   0  0  0  0  0  0  0  0  0  0  0  0
    6.4903   51.7330   31.9119 C   0  0  0  0  0  0  0  0  0  0  0  0
    8.4250   52.4116   30.6669 C   0  0  0  0  0  0  0  0  0  0  0  0
    8.8013   51.5902   28.3895 N   0  0  0  0  0  0  0  0  0  0  0  0
    5.9028   51.9768   33.1384 O   0  0  0  0  0  0  0  0  0  0  0  0
    7.6291   52.4561   31.8043 C   0  0  0  0  0  0  0  0  0  0  0  0
   10.1696   51.7126   28.4627 O   0  0  0  0  0  0  0  0  0  0  0  0
    8.2425   51.7305   27.2822 O   0  0  0  0  0  0  0  0  0  0  0  0
    6.7270   52.9140   33.8450 C   0  0  0  0  0  0  0  0  0  0  0  0
    7.8178   53.1940   32.9570 O   0  0  0  0  0  0  0  0  0  0  0  0
    8.8125   40.1848   34.2126 O   0  0  0  0  0  0  0  0  0  0  0  0
   11.2416   40.7948   33.3707 O   0  0  0  0  0  0  0  0  0  0  0  0
   10.9180   40.6922   31.9985 C   0  0  0  0  0  0  0  0  0  0  0  0
   11.5175   39.3838   31.4423 C   0  0  0  0  0  0  0  0  0  0  0  0
   12.7508   39.0887   32.0752 O   0  0  0  0  0  0  0  0  0  0  0  0
   10.6028   38.1916   31.6659 C   0  0  0  0  0  0  0  0  0  0  0  0
   12.9385   37.6819   32.0278 C   0  0  0  0  0  0  0  0  0  0  0  0
    9.6371   38.0806   30.6470 O   0  0  0  0  0  0  0  0  0  0  0  0
   11.5780   37.0215   31.6935 C   0  0  0  0  0  0  0  0  0  0  0  0
   13.4844   37.2119   33.3242 N   0  0  0  0  0  0  0  0  0  0  0  0
   11.6095   36.3202   30.4679 O   0  0  0  0  0  0  0  0  0  0  0  0
   14.4797   36.3318   33.5730 C   0  0  0  0  0  0  0  0  0  0  0  0
   13.1135   37.6278   34.5691 C   0  0  0  0  0  0  0  0  0  0  0  0
   15.2073   35.6155   32.6742 N   0  0  0  0  0  0  0  0  0  0  0  0
   14.6754   36.2305   34.9184 C   0  0  0  0  0  0  0  0  0  0  0  0
   13.8213   37.0452   35.5785 N   0  0  0  0  0  0  0  0  0  0  0  0
   16.1640   34.7604   33.1549 C   0  0  0  0  0  0  0  0  0  0  0  0
   15.6524   35.3507   35.4132 C   0  0  0  0  0  0  0  0  0  0  0  0
   16.3794   34.6318   34.5044 N   0  0  0  0  0  0  0  0  0  0  0  0
   15.8999   35.1934   36.8091 N   0  0  0  0  0  0  0  0  0  0  0  0
    9.0120   45.4317   33.6715 H   0  0  0  0  0  0  0  0  0  0  0  0
   10.7256   46.9689   33.1213 H   0  0  0  0  0  0  0  0  0  0  0  0
   11.8904   45.7661   32.9468 H   0  0  0  0  0  0  0  0  0  0  0  0
    9.3412   43.8329   31.4765 H   0  0  0  0  0  0  0  0  0  0  0  0
   10.7228   44.8812   31.1558 H   0  0  0  0  0  0  0  0  0  0  0  0
    7.0083   44.7163   31.5803 H   0  0  0  0  0  0  0  0  0  0  0  0
   10.3472   47.1834   30.4097 H   0  0  0  0  0  0  0  0  0  0  0  0
    5.4620   46.3076   30.5026 H   0  0  0  0  0  0  0  0  0  0  0  0
    8.8177   48.7591   29.3423 H   0  0  0  0  0  0  0  0  0  0  0  0
    7.1752   49.6321   27.8816 H   0  0  0  0  0  0  0  0  0  0  0  0
    5.5001   50.1836   28.1704 H   0  0  0  0  0  0  0  0  0  0  0  0
    5.1465   50.3138   31.0246 H   0  0  0  0  0  0  0  0  0  0  0  0
    9.3168   53.0218   30.6036 H   0  0  0  0  0  0  0  0  0  0  0  0
    6.1573   53.8430   34.0569 H   0  0  0  0  0  0  0  0  0  0  0  0
    7.1051   52.4604   34.7851 H   0  0  0  0  0  0  0  0  0  0  0  0
    9.8292   40.7410   31.7627 H   0  0  0  0  0  0  0  0  0  0  0  0
   11.3953   41.5478   31.4745 H   0  0  0  0  0  0  0  0  0  0  0  0
   11.6982   39.5116   30.3501 H   0  0  0  0  0  0  0  0  0  0  0  0
   10.1117   38.2604   32.6661 H   0  0  0  0  0  0  0  0  0  0  0  0
   13.6767   37.4556   31.2267 H   0  0  0  0  0  0  0  0  0  0  0  0
    8.8961   38.6951   30.8872 H   0  0  0  0  0  0  0  0  0  0  0  0
   11.2791   36.3073   32.4922 H   0  0  0  0  0  0  0  0  0  0  0  0
   11.8829   36.9598   29.7589 H   0  0  0  0  0  0  0  0  0  0  0  0
   12.3300   38.3539   34.7446 H   0  0  0  0  0  0  0  0  0  0  0  0
   16.7561   34.1785   32.4621 H   0  0  0  0  0  0  0  0  0  0  0  0
   15.3531   35.7360   37.5140 H   0  0  0  0  0  0  0  0  0  0  0  0
   16.6347   34.5303   37.1416 H   0  0  0  0  0  0  0  0  0  0  0  0
  1  2  2  0
  1  3  1  0
  3  4  1  0
  4  5  1  0
  6  1  1  0
  7  6  1  0
  6  8  1  0
  8  9  1  0
  9 10  2  0
 11  9  1  0
 10 12  1  0
 13 11  2  0
 12 14  2  0
 14 13  1  0
 14 15  1  0
 15 16  1  0
 16 17  1  0
 17 18  2  0
 19 17  1  0
 18 20  1  0
 21 19  2  0
 19 22  1  0
 20 23  1  0
 20 24  2  0
 24 21  1  0
 22 25  1  0
 22 26  2  0
 23 27  1  0
 24 28  1  0
 27 28  1  0
  4 29  2  0
  4 30  1  0
 31 30  1  0
 31 32  1  0
 32 33  1  0
 32 34  1  0
 33 35  1  0
 34 36  1  0
 34 37  1  0
 37 35  1  0
 35 38  1  0
 37 39  1  0
 40 38  1  0
 41 38  1  0
 42 40  2  0
 40 43  1  0
 44 41  2  0
 45 42  1  0
 43 46  2  0
 43 44  1  0
 47 45  2  0
 47 46  1  0
 46 48  1  0
  6 49  1  1
  7 50  1  0
  7 51  1  0
  8 52  1  0
  8 53  1  0
 10 54  1  0
 11 55  1  0
 12 56  1  0
 13 57  1  0
 16 58  1  0
 16 59  1  0
 18 60  1  0
 21 61  1  0
 27 62  1  0
 27 63  1  0
 31 64  1  0
 31 65  1  0
 32 66  1  0
 34 67  1  0
 35 68  1  0
 36 69  1  0
 37 70  1  0
 39 71  1  0
 41 72  1  0
 45 73  1  0
 48 74  1  0
 48 75  1  0
M  CHG  3   5  -1  22   1  25  -1
M  END
>  <EmbedRMS>  (31) 
0.0819807412786

$$$$

     RDKit          3D

 75 80  0  0  0  0  0  0  0  0999 V2000
   10.2834   43.7662   33.8257 C   0  0  0  0  0  0  0  0  0  0  0  0
   11.4101   43.5930   34.3752 O   0  0  0  0  0  0  0  0  0  0  0  0
    9.3635   42.7257   33.7352 O   0  0  0  0  0  0  0  0  0  0  0  0
    9.8899   41.2270   34.2948 P   0  0  0  0  0  0  0  0  0  0  0  0
   10.3732   41.4562   35.8841 O   0  0  0  0  0  0  0  0  0  0  0  0
    9.9546   45.0695   33.2034 C   0  0  1  0  0  0  0  0  0  0  0  0
   11.0274   46.0321   33.4755 N   0  0  0  0  0  0  0  0  0  0  0  0
    9.7466   44.8479   31.6875 C   0  0  0  0  0  0  0  0  0  0  0  0
    8.7923   45.8405   31.0840 C   0  0  0  0  0  0  0  0  0  0  0  0
    7.4055   45.6018   31.0995 C   0  0  0  0  0  0  0  0  0  0  0  0
    9.2822   46.9880   30.4428 C   0  0  0  0  0  0  0  0  0  0  0  0
    6.5267   46.5038   30.4848 C   0  0  0  0  0  0  0  0  0  0  0  0
    8.4031   47.8906   29.8330 C   0  0  0  0  0  0  0  0  0  0  0  0
    7.0144   47.6516   29.8452 C   0  0  0  0  0  0  0  0  0  0  0  0
    6.0897   48.5183   29.2409 O   0  0  0  0  0  0  0  0  0  0  0  0
    6.4214   49.6421   28.4242 C   0  0  0  0  0  0  0  0  0  0  0  0
    7.0309   49.1987   27.1142 C   0  0  0  0  0  0  0  0  0  0  0  0
    8.2793   49.7457   26.7342 C   0  0  0  0  0  0  0  0  0  0  0  0
    6.4046   48.2178   26.2751 C   0  0  0  0  0  0  0  0  0  0  0  0
    8.8737   49.2901   25.5651 C   0  0  0  0  0  0  0  0  0  0  0  0
    7.0660   47.7840   25.1018 C   0  0  0  0  0  0  0  0  0  0  0  0
    5.1234   47.6494   26.6009 N   0  0  0  0  0  0  0  0  0  0  0  0
   10.0807   49.6704   25.0106 O   0  0  0  0  0  0  0  0  0  0  0  0
    8.2946   48.3485   24.7854 C   0  0  0  0  0  0  0  0  0  0  0  0
    4.1188   48.4334   27.1181 O   0  0  0  0  0  0  0  0  0  0  0  0
    4.8559   46.4772   26.2647 O   0  0  0  0  0  0  0  0  0  0  0  0
   10.2697   48.9181   23.8043 C   0  0  0  0  0  0  0  0  0  0  0  0
    9.1060   48.0866   23.6982 O   0  0  0  0  0  0  0  0  0  0  0  0
    8.8121   40.1850   34.2133 O   0  0  0  0  0  0  0  0  0  0  0  0
   11.2403   40.7947   33.3700 O   0  0  0  0  0  0  0  0  0  0  0  0
   10.9144   40.6914   31.9982 C   0  0  0  0  0  0  0  0  0  0  0  0
   11.5270   39.3912   31.4385 C   0  0  0  0  0  0  0  0  0  0  0  0
   12.7520   39.0911   32.0836 O   0  0  0  0  0  0  0  0  0  0  0  0
   10.6113   38.1932   31.6451 C   0  0  0  0  0  0  0  0  0  0  0  0
   12.9413   37.6838   32.0297 C   0  0  0  0  0  0  0  0  0  0  0  0
    9.6064   38.0878   30.6599 O   0  0  0  0  0  0  0  0  0  0  0  0
   11.5822   37.0197   31.6877 C   0  0  0  0  0  0  0  0  0  0  0  0
   13.4840   37.2104   33.3254 N   0  0  0  0  0  0  0  0  0  0  0  0
   11.6179   36.3072   30.4690 O   0  0  0  0  0  0  0  0  0  0  0  0
   14.4797   36.3309   33.5738 C   0  0  0  0  0  0  0  0  0  0  0  0
   13.1137   37.6269   34.5702 C   0  0  0  0  0  0  0  0  0  0  0  0
   15.2074   35.6152   32.6747 N   0  0  0  0  0  0  0  0  0  0  0  0
   14.6756   36.2298   34.9190 C   0  0  0  0  0  0  0  0  0  0  0  0
   13.8217   37.0446   35.5793 N   0  0  0  0  0  0  0  0  0  0  0  0
   16.1643   34.7603   33.1551 C   0  0  0  0  0  0  0  0  0  0  0  0
   15.6528   35.3503   35.4136 C   0  0  0  0  0  0  0  0  0  0  0  0
   16.3798   34.6316   34.5046 N   0  0  0  0  0  0  0  0  0  0  0  0
   15.9004   35.1931   36.8094 N   0  0  0  0  0  0  0  0  0  0  0  0
    9.0120   45.4318   33.6712 H   0  0  0  0  0  0  0  0  0  0  0  0
   10.7259   46.9687   33.1212 H   0  0  0  0  0  0  0  0  0  0  0  0
   11.8906   45.7658   32.9468 H   0  0  0  0  0  0  0  0  0  0  0  0
   10.7230   44.8813   31.1555 H   0  0  0  0  0  0  0  0  0  0  0  0
    9.3415   43.8328   31.4762 H   0  0  0  0  0  0  0  0  0  0  0  0
    7.0082   44.7172   31.5818 H   0  0  0  0  0  0  0  0  0  0  0  0
   10.3466   47.1864   30.4144 H   0  0  0  0  0  0  0  0  0  0  0  0
    5.4622   46.3070   30.5015 H   0  0  0  0  0  0  0  0  0  0  0  0
    8.8156   48.7696   29.3606 H   0  0  0  0  0  0  0  0  0  0  0  0
    7.0912   50.3282   28.9866 H   0  0  0  0  0  0  0  0  0  0  0  0
    5.4974   50.2179   28.2134 H   0  0  0  0  0  0  0  0  0  0  0  0
    8.7802   50.4913   27.3386 H   0  0  0  0  0  0  0  0  0  0  0  0
    6.6274   47.0414   24.4478 H   0  0  0  0  0  0  0  0  0  0  0  0
   10.3334   49.6013   22.9316 H   0  0  0  0  0  0  0  0  0  0  0  0
   11.1827   48.2913   23.8818 H   0  0  0  0  0  0  0  0  0  0  0  0
   11.3776   41.5549   31.4744 H   0  0  0  0  0  0  0  0  0  0  0  0
    9.8234   40.7201   31.7654 H   0  0  0  0  0  0  0  0  0  0  0  0
   11.7311   39.5362   30.3532 H   0  0  0  0  0  0  0  0  0  0  0  0
   10.1203   38.2696   32.6410 H   0  0  0  0  0  0  0  0  0  0  0  0
   13.6850   37.4639   31.2321 H   0  0  0  0  0  0  0  0  0  0  0  0
   10.0250   38.1792   29.7654 H   0  0  0  0  0  0  0  0  0  0  0  0
   11.2757   36.3135   32.4907 H   0  0  0  0  0  0  0  0  0  0  0  0
   11.9837   36.9111   29.7708 H   0  0  0  0  0  0  0  0  0  0  0  0
   12.3307   38.3537   34.7457 H   0  0  0  0  0  0  0  0  0  0  0  0
   16.7566   34.1786   32.4623 H   0  0  0  0  0  0  0  0  0  0  0  0
   16.6353   34.5301   37.1419 H   0  0  0  0  0  0  0  0  0  0  0  0
   15.3535   35.7355   37.5144 H   0  0  0  0  0  0  0  0  0  0  0  0
  1  2  2  0
  1  3  1  0
  3  4  1  0
  4  5  1  0
  6  1  1  0
  7  6  1  0
  6  8  1  0
  8  9  1  0
  9 10  2  0
 11  9  1  0
 10 12  1  0
 13 11  2  0
 12 14  2  0
 14 13  1  0
 14 15  1  0
 15 16  1  0
 16 17  1  0
 17 18  2  0
 19 17  1  0
 18 20  1  0
 21 19  2  0
 19 22  1  0
 20 23  1  0
 20 24  2  0
 24 21  1  0
 22 25  1  0
 22 26  2  0
 23 27  1  0
 24 28  1  0
 27 28  1  0
  4 29  2  0
  4 30  1  0
 31 30  1  0
 31 32  1  0
 32 33  1  0
 32 34  1  0
 33 35  1  0
 34 36  1  0
 34 37  1  0
 37 35  1  0
 35 38  1  0
 37 39  1  0
 40 38  1  0
 41 38  1  0
 42 40  2  0
 40 43  1  0
 44 41  2  0
 45 42  1  0
 43 46  2  0
 43 44  1  0
 47 45  2  0
 47 46  1  0
 46 48  1  0
  6 49  1  1
  7 50  1  0
  7 51  1  0
  8 52  1  0
  8 53  1  0
 10 54  1  0
 11 55  1  0
 12 56  1  0
 13 57  1  0
 16 58  1  0
 16 59  1  0
 18 60  1  0
 21 61  1  0
 27 62  1  0
 27 63  1  0
 31 64  1  0
 31 65  1  0
 32 66  1  0
 34 67  1  0
 35 68  1  0
 36 69  1  0
 37 70  1  0
 39 71  1  0
 41 72  1  0
 45 73  1  0
 48 74  1  0
 48 75  1  0
M  CHG  3   5  -1  22   1  25  -1
M  END
>  <EmbedRMS>  (32) 
0.0808441901469

$$$$

     RDKit          3D

 75 80  0  0  0  0  0  0  0  0999 V2000
   10.2804   43.7663   33.8249 C   0  0  0  0  0  0  0  0  0  0  0  0
   11.4111   43.5919   34.3667 O   0  0  0  0  0  0  0  0  0  0  0  0
    9.3621   42.7247   33.7342 O   0  0  0  0  0  0  0  0  0  0  0  0
    9.8904   41.2264   34.2936 P   0  0  0  0  0  0  0  0  0  0  0  0
   10.3731   41.4565   35.8832 O   0  0  0  0  0  0  0  0  0  0  0  0
    9.9459   45.0735   33.2110 C   0  0  1  0  0  0  0  0  0  0  0  0
   11.0266   46.0291   33.4705 N   0  0  0  0  0  0  0  0  0  0  0  0
    9.7537   44.8536   31.6946 C   0  0  0  0  0  0  0  0  0  0  0  0
    8.7956   45.8404   31.0839 C   0  0  0  0  0  0  0  0  0  0  0  0
    7.4087   45.6009   31.1017 C   0  0  0  0  0  0  0  0  0  0  0  0
    9.2826   46.9881   30.4407 C   0  0  0  0  0  0  0  0  0  0  0  0
    6.5283   46.5024   30.4875 C   0  0  0  0  0  0  0  0  0  0  0  0
    8.4017   47.8901   29.8325 C   0  0  0  0  0  0  0  0  0  0  0  0
    7.0143   47.6489   29.8436 C   0  0  0  0  0  0  0  0  0  0  0  0
    6.0863   48.5140   29.2429 O   0  0  0  0  0  0  0  0  0  0  0  0
    6.3919   49.5471   28.3048 C   0  0  0  0  0  0  0  0  0  0  0  0
    6.8103   48.9620   26.9749 C   0  0  0  0  0  0  0  0  0  0  0  0
    8.1588   49.1151   26.5722 C   0  0  0  0  0  0  0  0  0  0  0  0
    5.8804   48.3080   26.0929 C   0  0  0  0  0  0  0  0  0  0  0  0
    8.5486   48.5999   25.3441 C   0  0  0  0  0  0  0  0  0  0  0  0
    6.3399   47.8131   24.8491 C   0  0  0  0  0  0  0  0  0  0  0  0
    4.4785   48.1793   26.4027 N   0  0  0  0  0  0  0  0  0  0  0  0
    9.8006   48.6261   24.7602 O   0  0  0  0  0  0  0  0  0  0  0  0
    7.6786   47.9746   24.5202 C   0  0  0  0  0  0  0  0  0  0  0  0
    3.5585   48.0808   25.3840 O   0  0  0  0  0  0  0  0  0  0  0  0
    4.0859   48.0181   27.5753 O   0  0  0  0  0  0  0  0  0  0  0  0
    9.7086   47.9712   23.4877 C   0  0  0  0  0  0  0  0  0  0  0  0
    8.3361   47.5714   23.3739 O   0  0  0  0  0  0  0  0  0  0  0  0
    8.8129   40.1841   34.2124 O   0  0  0  0  0  0  0  0  0  0  0  0
   11.2419   40.7944   33.3695 O   0  0  0  0  0  0  0  0  0  0  0  0
   10.9186   40.6911   31.9969 C   0  0  0  0  0  0  0  0  0  0  0  0
   11.5172   39.3814   31.4407 C   0  0  0  0  0  0  0  0  0  0  0  0
   12.7492   39.0856   32.0729 O   0  0  0  0  0  0  0  0  0  0  0  0
   10.6023   38.1908   31.6665 C   0  0  0  0  0  0  0  0  0  0  0  0
   12.9319   37.6781   32.0281 C   0  0  0  0  0  0  0  0  0  0  0  0
    9.6392   38.0797   30.6452 O   0  0  0  0  0  0  0  0  0  0  0  0
   11.5715   37.0165   31.7056 C   0  0  0  0  0  0  0  0  0  0  0  0
   13.4846   37.2121   33.3235 N   0  0  0  0  0  0  0  0  0  0  0  0
   11.6187   36.3383   30.4695 O   0  0  0  0  0  0  0  0  0  0  0  0
   14.4801   36.3321   33.5724 C   0  0  0  0  0  0  0  0  0  0  0  0
   13.1137   37.6275   34.5688 C   0  0  0  0  0  0  0  0  0  0  0  0
   15.2073   35.6153   32.6738 N   0  0  0  0  0  0  0  0  0  0  0  0
   14.6759   36.2308   34.9179 C   0  0  0  0  0  0  0  0  0  0  0  0
   13.8216   37.0452   35.5781 N   0  0  0  0  0  0  0  0  0  0  0  0
   16.1640   34.7602   33.1546 C   0  0  0  0  0  0  0  0  0  0  0  0
   15.6526   35.3508   35.4129 C   0  0  0  0  0  0  0  0  0  0  0  0
   16.3794   34.6317   34.5041 N   0  0  0  0  0  0  0  0  0  0  0  0
   15.8999   35.1934   36.8088 N   0  0  0  0  0  0  0  0  0  0  0  0
    8.9994   45.4380   33.6719 H   0  0  0  0  0  0  0  0  0  0  0  0
   10.7761   46.9368   33.0157 H   0  0  0  0  0  0  0  0  0  0  0  0
   11.0503   46.2275   34.4979 H   0  0  0  0  0  0  0  0  0  0  0  0
    9.3641   43.8349   31.4712 H   0  0  0  0  0  0  0  0  0  0  0  0
   10.7409   44.9070   31.1832 H   0  0  0  0  0  0  0  0  0  0  0  0
    7.0129   44.7172   31.5868 H   0  0  0  0  0  0  0  0  0  0  0  0
   10.3463   47.1902   30.4131 H   0  0  0  0  0  0  0  0  0  0  0  0
    5.4639   46.3053   30.5069 H   0  0  0  0  0  0  0  0  0  0  0  0
    8.8123   48.7757   29.3742 H   0  0  0  0  0  0  0  0  0  0  0  0
    5.4897   50.1759   28.1534 H   0  0  0  0  0  0  0  0  0  0  0  0
    7.1660   50.2236   28.7259 H   0  0  0  0  0  0  0  0  0  0  0  0
    8.8835   49.6296   27.1891 H   0  0  0  0  0  0  0  0  0  0  0  0
    5.6735   47.3129   24.1584 H   0  0  0  0  0  0  0  0  0  0  0  0
   10.3704   47.0801   23.4656 H   0  0  0  0  0  0  0  0  0  0  0  0
    9.9709   48.6776   22.6724 H   0  0  0  0  0  0  0  0  0  0  0  0
   11.3967   41.5459   31.4725 H   0  0  0  0  0  0  0  0  0  0  0  0
    9.8298   40.7409   31.7611 H   0  0  0  0  0  0  0  0  0  0  0  0
   11.6975   39.5066   30.3481 H   0  0  0  0  0  0  0  0  0  0  0  0
   10.1077   38.2648   32.6646 H   0  0  0  0  0  0  0  0  0  0  0  0
   13.6621   37.4468   31.2209 H   0  0  0  0  0  0  0  0  0  0  0  0
    8.8974   38.6943   30.8832 H   0  0  0  0  0  0  0  0  0  0  0  0
   11.2806   36.3073   32.5170 H   0  0  0  0  0  0  0  0  0  0  0  0
   10.8492   35.7110   30.4586 H   0  0  0  0  0  0  0  0  0  0  0  0
   12.3290   38.3523   34.7444 H   0  0  0  0  0  0  0  0  0  0  0  0
   16.7559   34.1780   32.4619 H   0  0  0  0  0  0  0  0  0  0  0  0
   15.3532   35.7362   37.5137 H   0  0  0  0  0  0  0  0  0  0  0  0
   16.6345   34.5301   37.1414 H   0  0  0  0  0  0  0  0  0  0  0  0
  1  2  2  0
  1  3  1  0
  3  4  1  0
  4  5  1  0
  6  1  1  0
  7  6  1  0
  6  8  1  0
  8  9  1  0
  9 10  2  0
 11  9  1  0
 10 12  1  0
 13 11  2  0
 12 14  2  0
 14 13  1  0
 14 15  1  0
 15 16  1  0
 16 17  1  0
 17 18  2  0
 19 17  1  0
 18 20  1  0
 21 19  2  0
 19 22  1  0
 20 23  1  0
 20 24  2  0
 24 21  1  0
 22 25  1  0
 22 26  2  0
 23 27  1  0
 24 28  1  0
 27 28  1  0
  4 29  2  0
  4 30  1  0
 31 30  1  0
 31 32  1  0
 32 33  1  0
 32 34  1  0
 33 35  1  0
 34 36  1  0
 34 37  1  0
 37 35  1  0
 35 38  1  0
 37 39  1  0
 40 38  1  0
 41 38  1  0
 42 40  2  0
 40 43  1  0
 44 41  2  0
 45 42  1  0
 43 46  2  0
 43 44  1  0
 47 45  2  0
 47 46  1  0
 46 48  1  0
  6 49  1  1
  7 50  1  0
  7 51  1  0
  8 52  1  0
  8 53  1  0
 10 54  1  0
 11 55  1  0
 12 56  1  0
 13 57  1  0
 16 58  1  0
 16 59  1  0
 18 60  1  0
 21 61  1  0
 27 62  1  0
 27 63  1  0
 31 64  1  0
 31 65  1  0
 32 66  1  0
 34 67  1  0
 35 68  1  0
 36 69  1  0
 37 70  1  0
 39 71  1  0
 41 72  1  0
 45 73  1  0
 48 74  1  0
 48 75  1  0
M  CHG  3   5  -1  22   1  25  -1
M  END
>  <EmbedRMS>  (33) 
0.0827967398635

$$$$

     RDKit          3D

 75 80  0  0  0  0  0  0  0  0999 V2000
   10.2838   43.7627   33.8276 C   0  0  0  0  0  0  0  0  0  0  0  0
   11.4103   43.5862   34.3766 O   0  0  0  0  0  0  0  0  0  0  0  0
    9.3628   42.7238   33.7356 O   0  0  0  0  0  0  0  0  0  0  0  0
    9.8890   41.2252   34.2949 P   0  0  0  0  0  0  0  0  0  0  0  0
   10.3723   41.4548   35.8843 O   0  0  0  0  0  0  0  0  0  0  0  0
    9.9550   45.0700   33.2065 C   0  0  1  0  0  0  0  0  0  0  0  0
   11.0199   46.0481   33.4571 N   0  0  0  0  0  0  0  0  0  0  0  0
    9.7505   44.8513   31.6924 C   0  0  0  0  0  0  0  0  0  0  0  0
    8.7943   45.8422   31.0875 C   0  0  0  0  0  0  0  0  0  0  0  0
    7.4076   45.6003   31.1002 C   0  0  0  0  0  0  0  0  0  0  0  0
    9.2826   46.9893   30.4446 C   0  0  0  0  0  0  0  0  0  0  0  0
    6.5256   46.4994   30.4849 C   0  0  0  0  0  0  0  0  0  0  0  0
    8.4010   47.8879   29.8323 C   0  0  0  0  0  0  0  0  0  0  0  0
    7.0194   47.6558   29.8464 C   0  0  0  0  0  0  0  0  0  0  0  0
    6.1812   48.5859   29.2077 O   0  0  0  0  0  0  0  0  0  0  0  0
    4.7519   48.5470   29.2132 C   0  0  0  0  0  0  0  0  0  0  0  0
    4.1732   47.5796   28.1957 C   0  0  0  0  0  0  0  0  0  0  0  0
    5.0301   46.8029   27.3719 C   0  0  0  0  0  0  0  0  0  0  0  0
    2.7530   47.4887   28.0037 C   0  0  0  0  0  0  0  0  0  0  0  0
    4.4611   45.9675   26.4203 C   0  0  0  0  0  0  0  0  0  0  0  0
    2.2349   46.6281   27.0075 C   0  0  0  0  0  0  0  0  0  0  0  0
    1.8321   48.2789   28.7770 N   0  0  0  0  0  0  0  0  0  0  0  0
    5.0969   45.1283   25.5254 O   0  0  0  0  0  0  0  0  0  0  0  0
    3.1235   45.8833   26.2460 C   0  0  0  0  0  0  0  0  0  0  0  0
    1.9842   48.4039   30.1378 O   0  0  0  0  0  0  0  0  0  0  0  0
    0.7824   48.7036   28.2511 O   0  0  0  0  0  0  0  0  0  0  0  0
    4.0904   44.4736   24.7412 C   0  0  0  0  0  0  0  0  0  0  0  0
    2.8446   44.9852   25.2338 O   0  0  0  0  0  0  0  0  0  0  0  0
    8.8112   40.1834   34.2131 O   0  0  0  0  0  0  0  0  0  0  0  0
   11.2398   40.7938   33.3702 O   0  0  0  0  0  0  0  0  0  0  0  0
   10.9144   40.6912   31.9983 C   0  0  0  0  0  0  0  0  0  0  0  0
   11.5270   39.3911   31.4385 C   0  0  0  0  0  0  0  0  0  0  0  0
   12.7520   39.0911   32.0835 O   0  0  0  0  0  0  0  0  0  0  0  0
   10.6113   38.1931   31.6451 C   0  0  0  0  0  0  0  0  0  0  0  0
   12.9413   37.6837   32.0297 C   0  0  0  0  0  0  0  0  0  0  0  0
    9.6064   38.0877   30.6599 O   0  0  0  0  0  0  0  0  0  0  0  0
   11.5822   37.0197   31.6876 C   0  0  0  0  0  0  0  0  0  0  0  0
   13.4840   37.2104   33.3254 N   0  0  0  0  0  0  0  0  0  0  0  0
   11.6179   36.3071   30.4690 O   0  0  0  0  0  0  0  0  0  0  0  0
   14.4797   36.3309   33.5738 C   0  0  0  0  0  0  0  0  0  0  0  0
   13.1136   37.6269   34.5702 C   0  0  0  0  0  0  0  0  0  0  0  0
   15.2074   35.6152   32.6747 N   0  0  0  0  0  0  0  0  0  0  0  0
   14.6756   36.2298   34.9190 C   0  0  0  0  0  0  0  0  0  0  0  0
   13.8217   37.0445   35.5793 N   0  0  0  0  0  0  0  0  0  0  0  0
   16.1643   34.7603   33.1551 C   0  0  0  0  0  0  0  0  0  0  0  0
   15.6528   35.3503   35.4136 C   0  0  0  0  0  0  0  0  0  0  0  0
   16.3798   34.6316   34.5046 N   0  0  0  0  0  0  0  0  0  0  0  0
   15.9004   35.1930   36.8094 N   0  0  0  0  0  0  0  0  0  0  0  0
    9.0100   45.4349   33.6671 H   0  0  0  0  0  0  0  0  0  0  0  0
   11.1134   46.1992   34.4885 H   0  0  0  0  0  0  0  0  0  0  0  0
   11.9350   45.6933   33.0928 H   0  0  0  0  0  0  0  0  0  0  0  0
    9.3517   43.8347   31.4759 H   0  0  0  0  0  0  0  0  0  0  0  0
   10.7308   44.8934   31.1676 H   0  0  0  0  0  0  0  0  0  0  0  0
    7.0129   44.7127   31.5793 H   0  0  0  0  0  0  0  0  0  0  0  0
   10.3467   47.1891   30.4143 H   0  0  0  0  0  0  0  0  0  0  0  0
    5.4681   46.2760   30.5004 H   0  0  0  0  0  0  0  0  0  0  0  0
    8.7942   48.7686   29.3404 H   0  0  0  0  0  0  0  0  0  0  0  0
    4.3857   49.5656   28.9663 H   0  0  0  0  0  0  0  0  0  0  0  0
    4.4005   48.3046   30.2363 H   0  0  0  0  0  0  0  0  0  0  0  0
    6.1068   46.8487   27.4461 H   0  0  0  0  0  0  0  0  0  0  0  0
    1.1696   46.5376   26.8386 H   0  0  0  0  0  0  0  0  0  0  0  0
    4.1401   43.3749   24.8924 H   0  0  0  0  0  0  0  0  0  0  0  0
    4.2126   44.7301   23.6680 H   0  0  0  0  0  0  0  0  0  0  0  0
    9.8235   40.7202   31.7651 H   0  0  0  0  0  0  0  0  0  0  0  0
   11.3780   41.5548   31.4751 H   0  0  0  0  0  0  0  0  0  0  0  0
   11.7311   39.5363   30.3531 H   0  0  0  0  0  0  0  0  0  0  0  0
   10.1203   38.2695   32.6410 H   0  0  0  0  0  0  0  0  0  0  0  0
   13.6850   37.4638   31.2321 H   0  0  0  0  0  0  0  0  0  0  0  0
   10.0250   38.1791   29.7654 H   0  0  0  0  0  0  0  0  0  0  0  0
   11.2757   36.3135   32.4907 H   0  0  0  0  0  0  0  0  0  0  0  0
   11.9838   36.9111   29.7708 H   0  0  0  0  0  0  0  0  0  0  0  0
   12.3307   38.3536   34.7457 H   0  0  0  0  0  0  0  0  0  0  0  0
   16.7566   34.1787   32.4623 H   0  0  0  0  0  0  0  0  0  0  0  0
   16.6353   34.5301   37.1419 H   0  0  0  0  0  0  0  0  0  0  0  0
   15.3535   35.7355   37.5144 H   0  0  0  0  0  0  0  0  0  0  0  0
  1  2  2  0
  1  3  1  0
  3  4  1  0
  4  5  1  0
  6  1  1  0
  7  6  1  0
  6  8  1  0
  8  9  1  0
  9 10  2  0
 11  9  1  0
 10 12  1  0
 13 11  2  0
 12 14  2  0
 14 13  1  0
 14 15  1  0
 15 16  1  0
 16 17  1  0
 17 18  2  0
 19 17  1  0
 18 20  1  0
 21 19  2  0
 19 22  1  0
 20 23  1  0
 20 24  2  0
 24 21  1  0
 22 25  1  0
 22 26  2  0
 23 27  1  0
 24 28  1  0
 27 28  1  0
  4 29  2  0
  4 30  1  0
 31 30  1  0
 31 32  1  0
 32 33  1  0
 32 34  1  0
 33 35  1  0
 34 36  1  0
 34 37  1  0
 37 35  1  0
 35 38  1  0
 37 39  1  0
 40 38  1  0
 41 38  1  0
 42 40  2  0
 40 43  1  0
 44 41  2  0
 45 42  1  0
 43 46  2  0
 43 44  1  0
 47 45  2  0
 47 46  1  0
 46 48  1  0
  6 49  1  1
  7 50  1  0
  7 51  1  0
  8 52  1  0
  8 53  1  0
 10 54  1  0
 11 55  1  0
 12 56  1  0
 13 57  1  0
 16 58  1  0
 16 59  1  0
 18 60  1  0
 21 61  1  0
 27 62  1  0
 27 63  1  0
 31 64  1  0
 31 65  1  0
 32 66  1  0
 34 67  1  0
 35 68  1  0
 36 69  1  0
 37 70  1  0
 39 71  1  0
 41 72  1  0
 45 73  1  0
 48 74  1  0
 48 75  1  0
M  CHG  3   5  -1  22   1  25  -1
M  END
>  <EmbedRMS>  (34) 
0.08171875424

$$$$

     RDKit          3D

 75 80  0  0  0  0  0  0  0  0999 V2000
   10.2838   43.7628   33.8276 C   0  0  0  0  0  0  0  0  0  0  0  0
   11.4102   43.5863   34.3766 O   0  0  0  0  0  0  0  0  0  0  0  0
    9.3628   42.7240   33.7357 O   0  0  0  0  0  0  0  0  0  0  0  0
    9.8890   41.2253   34.2947 P   0  0  0  0  0  0  0  0  0  0  0  0
   10.3723   41.4549   35.8841 O   0  0  0  0  0  0  0  0  0  0  0  0
    9.9549   45.0701   33.2063 C   0  0  1  0  0  0  0  0  0  0  0  0
   11.0200   46.0482   33.4570 N   0  0  0  0  0  0  0  0  0  0  0  0
    9.7507   44.8511   31.6922 C   0  0  0  0  0  0  0  0  0  0  0  0
    8.7944   45.8417   31.0868 C   0  0  0  0  0  0  0  0  0  0  0  0
    7.4076   45.6003   31.1001 C   0  0  0  0  0  0  0  0  0  0  0  0
    9.2825   46.9891   30.4444 C   0  0  0  0  0  0  0  0  0  0  0  0
    6.5262   46.4999   30.4848 C   0  0  0  0  0  0  0  0  0  0  0  0
    8.4006   47.8880   29.8332 C   0  0  0  0  0  0  0  0  0  0  0  0
    7.0189   47.6557   29.8471 C   0  0  0  0  0  0  0  0  0  0  0  0
    6.1814   48.5937   29.2222 O   0  0  0  0  0  0  0  0  0  0  0  0
    4.7543   48.5319   29.1754 C   0  0  0  0  0  0  0  0  0  0  0  0
    4.1424   48.7547   30.5416 C   0  0  0  0  0  0  0  0  0  0  0  0
    4.7067   49.7466   31.3794 C   0  0  0  0  0  0  0  0  0  0  0  0
    2.9538   48.0741   30.9634 C   0  0  0  0  0  0  0  0  0  0  0  0
    4.1024   50.0033   32.6033 C   0  0  0  0  0  0  0  0  0  0  0  0
    2.3728   48.3889   32.2127 C   0  0  0  0  0  0  0  0  0  0  0  0
    2.3145   47.0927   30.1352 N   0  0  0  0  0  0  0  0  0  0  0  0
    4.4844   50.9055   33.5772 O   0  0  0  0  0  0  0  0  0  0  0  0
    2.9850   49.3531   33.0026 C   0  0  0  0  0  0  0  0  0  0  0  0
    2.9942   45.9538   29.7706 O   0  0  0  0  0  0  0  0  0  0  0  0
    1.0773   47.1333   29.9717 O   0  0  0  0  0  0  0  0  0  0  0  0
    3.5474   50.8115   34.6588 C   0  0  0  0  0  0  0  0  0  0  0  0
    2.6055   49.8103   34.2497 O   0  0  0  0  0  0  0  0  0  0  0  0
    8.8113   40.1835   34.2128 O   0  0  0  0  0  0  0  0  0  0  0  0
   11.2398   40.7941   33.3700 O   0  0  0  0  0  0  0  0  0  0  0  0
   10.9146   40.6913   31.9981 C   0  0  0  0  0  0  0  0  0  0  0  0
   11.5270   39.3911   31.4384 C   0  0  0  0  0  0  0  0  0  0  0  0
   12.7519   39.0910   32.0838 O   0  0  0  0  0  0  0  0  0  0  0  0
   10.6113   38.1930   31.6451 C   0  0  0  0  0  0  0  0  0  0  0  0
   12.9412   37.6837   32.0298 C   0  0  0  0  0  0  0  0  0  0  0  0
    9.6065   38.0874   30.6599 O   0  0  0  0  0  0  0  0  0  0  0  0
   11.5822   37.0196   31.6878 C   0  0  0  0  0  0  0  0  0  0  0  0
   13.4840   37.2104   33.3255 N   0  0  0  0  0  0  0  0  0  0  0  0
   11.6181   36.3071   30.4691 O   0  0  0  0  0  0  0  0  0  0  0  0
   14.4796   36.3308   33.5738 C   0  0  0  0  0  0  0  0  0  0  0  0
   13.1138   37.6270   34.5703 C   0  0  0  0  0  0  0  0  0  0  0  0
   15.2072   35.6151   32.6746 N   0  0  0  0  0  0  0  0  0  0  0  0
   14.6756   36.2298   34.9190 C   0  0  0  0  0  0  0  0  0  0  0  0
   13.8218   37.0446   35.5793 N   0  0  0  0  0  0  0  0  0  0  0  0
   16.1644   34.7603   33.1551 C   0  0  0  0  0  0  0  0  0  0  0  0
   15.6528   35.3503   35.4137 C   0  0  0  0  0  0  0  0  0  0  0  0
   16.3799   34.6317   34.5045 N   0  0  0  0  0  0  0  0  0  0  0  0
   15.9002   35.1926   36.8096 N   0  0  0  0  0  0  0  0  0  0  0  0
    9.0098   45.4351   33.6666 H   0  0  0  0  0  0  0  0  0  0  0  0
   11.1136   46.1993   34.4883 H   0  0  0  0  0  0  0  0  0  0  0  0
   11.9351   45.6933   33.0928 H   0  0  0  0  0  0  0  0  0  0  0  0
    9.3524   43.8343   31.4755 H   0  0  0  0  0  0  0  0  0  0  0  0
   10.7312   44.8937   31.1678 H   0  0  0  0  0  0  0  0  0  0  0  0
    7.0122   44.7149   31.5827 H   0  0  0  0  0  0  0  0  0  0  0  0
   10.3465   47.1896   30.4149 H   0  0  0  0  0  0  0  0  0  0  0  0
    5.4694   46.2861   30.5137 H   0  0  0  0  0  0  0  0  0  0  0  0
    8.7934   48.7709   29.3452 H   0  0  0  0  0  0  0  0  0  0  0  0
    4.3996   49.3467   28.5105 H   0  0  0  0  0  0  0  0  0  0  0  0
    4.4442   47.5796   28.7058 H   0  0  0  0  0  0  0  0  0  0  0  0
    5.5864   50.3049   31.0849 H   0  0  0  0  0  0  0  0  0  0  0  0
    1.4756   47.8903   32.5572 H   0  0  0  0  0  0  0  0  0  0  0  0
    3.0336   51.7843   34.8070 H   0  0  0  0  0  0  0  0  0  0  0  0
    4.0645   50.4934   35.5882 H   0  0  0  0  0  0  0  0  0  0  0  0
   11.3783   41.5548   31.4747 H   0  0  0  0  0  0  0  0  0  0  0  0
    9.8237   40.7200   31.7648 H   0  0  0  0  0  0  0  0  0  0  0  0
   11.7316   39.5360   30.3531 H   0  0  0  0  0  0  0  0  0  0  0  0
   10.1201   38.2696   32.6409 H   0  0  0  0  0  0  0  0  0  0  0  0
   13.6849   37.4639   31.2321 H   0  0  0  0  0  0  0  0  0  0  0  0
   10.0251   38.1790   29.7655 H   0  0  0  0  0  0  0  0  0  0  0  0
   11.2760   36.3132   32.4909 H   0  0  0  0  0  0  0  0  0  0  0  0
   11.9838   36.9112   29.7709 H   0  0  0  0  0  0  0  0  0  0  0  0
   12.3311   38.3541   34.7460 H   0  0  0  0  0  0  0  0  0  0  0  0
   16.7566   34.1787   32.4621 H   0  0  0  0  0  0  0  0  0  0  0  0
   16.6354   34.5301   37.1422 H   0  0  0  0  0  0  0  0  0  0  0  0
   15.3538   35.7353   37.5148 H   0  0  0  0  0  0  0  0  0  0  0  0
  1  2  2  0
  1  3  1  0
  3  4  1  0
  4  5  1  0
  6  1  1  0
  7  6  1  0
  6  8  1  0
  8  9  1  0
  9 10  2  0
 11  9  1  0
 10 12  1  0
 13 11  2  0
 12 14  2  0
 14 13  1  0
 14 15  1  0
 15 16  1  0
 16 17  1  0
 17 18  2  0
 19 17  1  0
 18 20  1  0
 21 19  2  0
 19 22  1  0
 20 23  1  0
 20 24  2  0
 24 21  1  0
 22 25  1  0
 22 26  2  0
 23 27  1  0
 24 28  1  0
 27 28  1  0
  4 29  2  0
  4 30  1  0
 31 30  1  0
 31 32  1  0
 32 33  1  0
 32 34  1  0
 33 35  1  0
 34 36  1  0
 34 37  1  0
 37 35  1  0
 35 38  1  0
 37 39  1  0
 40 38  1  0
 41 38  1  0
 42 40  2  0
 40 43  1  0
 44 41  2  0
 45 42  1  0
 43 46  2  0
 43 44  1  0
 47 45  2  0
 47 46  1  0
 46 48  1  0
  6 49  1  1
  7 50  1  0
  7 51  1  0
  8 52  1  0
  8 53  1  0
 10 54  1  0
 11 55  1  0
 12 56  1  0
 13 57  1  0
 16 58  1  0
 16 59  1  0
 18 60  1  0
 21 61  1  0
 27 62  1  0
 27 63  1  0
 31 64  1  0
 31 65  1  0
 32 66  1  0
 34 67  1  0
 35 68  1  0
 36 69  1  0
 37 70  1  0
 39 71  1  0
 41 72  1  0
 45 73  1  0
 48 74  1  0
 48 75  1  0
M  CHG  3   5  -1  22   1  25  -1
M  END
>  <EmbedRMS>  (35) 
0.0817117000473

$$$$

     RDKit          3D

 75 80  0  0  0  0  0  0  0  0999 V2000
   10.2835   43.7661   33.8257 C   0  0  0  0  0  0  0  0  0  0  0  0
   11.4102   43.5931   34.3753 O   0  0  0  0  0  0  0  0  0  0  0  0
    9.3640   42.7253   33.7348 O   0  0  0  0  0  0  0  0  0  0  0  0
    9.8907   41.2265   34.2939 P   0  0  0  0  0  0  0  0  0  0  0  0
   10.3733   41.4558   35.8835 O   0  0  0  0  0  0  0  0  0  0  0  0
    9.9546   45.0695   33.2036 C   0  0  1  0  0  0  0  0  0  0  0  0
   11.0272   46.0323   33.4757 N   0  0  0  0  0  0  0  0  0  0  0  0
    9.7465   44.8480   31.6878 C   0  0  0  0  0  0  0  0  0  0  0  0
    8.7923   45.8408   31.0846 C   0  0  0  0  0  0  0  0  0  0  0  0
    7.4055   45.6012   31.0984 C   0  0  0  0  0  0  0  0  0  0  0  0
    9.2824   46.9874   30.4420 C   0  0  0  0  0  0  0  0  0  0  0  0
    6.5267   46.5028   30.4831 C   0  0  0  0  0  0  0  0  0  0  0  0
    8.4035   47.8892   29.8309 C   0  0  0  0  0  0  0  0  0  0  0  0
    7.0139   47.6542   29.8494 C   0  0  0  0  0  0  0  0  0  0  0  0
    6.0888   48.5295   29.2574 O   0  0  0  0  0  0  0  0  0  0  0  0
    6.4106   49.7896   28.6662 C   0  0  0  0  0  0  0  0  0  0  0  0
    6.8358   50.7859   29.7216 C   0  0  0  0  0  0  0  0  0  0  0  0
    6.0536   50.8912   30.8958 C   0  0  0  0  0  0  0  0  0  0  0  0
    8.0166   51.5861   29.5881 C   0  0  0  0  0  0  0  0  0  0  0  0
    6.4897   51.7363   31.9080 C   0  0  0  0  0  0  0  0  0  0  0  0
    8.4207   52.4172   30.6583 C   0  0  0  0  0  0  0  0  0  0  0  0
    8.7881   51.5895   28.3774 N   0  0  0  0  0  0  0  0  0  0  0  0
    5.9037   51.9813   33.1348 O   0  0  0  0  0  0  0  0  0  0  0  0
    7.6266   52.4620   31.7970 C   0  0  0  0  0  0  0  0  0  0  0  0
    8.1611   51.7504   27.1634 O   0  0  0  0  0  0  0  0  0  0  0  0
   10.0320   51.6807   28.4303 O   0  0  0  0  0  0  0  0  0  0  0  0
    6.7266   52.9222   33.8381 C   0  0  0  0  0  0  0  0  0  0  0  0
    7.8153   53.2030   32.9477 O   0  0  0  0  0  0  0  0  0  0  0  0
    8.8126   40.1848   34.2122 O   0  0  0  0  0  0  0  0  0  0  0  0
   11.2418   40.7943   33.3694 O   0  0  0  0  0  0  0  0  0  0  0  0
   10.9179   40.6904   31.9970 C   0  0  0  0  0  0  0  0  0  0  0  0
   11.5181   39.3814   31.4408 C   0  0  0  0  0  0  0  0  0  0  0  0
   12.7497   39.0870   32.0745 O   0  0  0  0  0  0  0  0  0  0  0  0
   10.6045   38.1892   31.6655 C   0  0  0  0  0  0  0  0  0  0  0  0
   12.9344   37.6801   32.0290 C   0  0  0  0  0  0  0  0  0  0  0  0
    9.6418   38.0758   30.6441 O   0  0  0  0  0  0  0  0  0  0  0  0
   11.5741   37.0170   31.7045 C   0  0  0  0  0  0  0  0  0  0  0  0
   13.4851   37.2126   33.3241 N   0  0  0  0  0  0  0  0  0  0  0  0
   11.6079   36.3407   30.4680 O   0  0  0  0  0  0  0  0  0  0  0  0
   14.4801   36.3321   33.5727 C   0  0  0  0  0  0  0  0  0  0  0  0
   13.1140   37.6277   34.5693 C   0  0  0  0  0  0  0  0  0  0  0  0
   15.2073   35.6155   32.6739 N   0  0  0  0  0  0  0  0  0  0  0  0
   14.6758   36.2306   34.9182 C   0  0  0  0  0  0  0  0  0  0  0  0
   13.8217   37.0451   35.5785 N   0  0  0  0  0  0  0  0  0  0  0  0
   16.1639   34.7602   33.1546 C   0  0  0  0  0  0  0  0  0  0  0  0
   15.6526   35.3506   35.4130 C   0  0  0  0  0  0  0  0  0  0  0  0
   16.3794   34.6316   34.5041 N   0  0  0  0  0  0  0  0  0  0  0  0
   15.9001   35.1933   36.8089 N   0  0  0  0  0  0  0  0  0  0  0  0
    9.0120   45.4317   33.6715 H   0  0  0  0  0  0  0  0  0  0  0  0
   11.8904   45.7661   32.9469 H   0  0  0  0  0  0  0  0  0  0  0  0
   10.7256   46.9689   33.1214 H   0  0  0  0  0  0  0  0  0  0  0  0
    9.3413   43.8329   31.4764 H   0  0  0  0  0  0  0  0  0  0  0  0
   10.7229   44.8813   31.1558 H   0  0  0  0  0  0  0  0  0  0  0  0
    7.0083   44.7163   31.5803 H   0  0  0  0  0  0  0  0  0  0  0  0
   10.3471   47.1837   30.4098 H   0  0  0  0  0  0  0  0  0  0  0  0
    5.4620   46.3074   30.5024 H   0  0  0  0  0  0  0  0  0  0  0  0
    8.8176   48.7593   29.3425 H   0  0  0  0  0  0  0  0  0  0  0  0
    5.5000   50.1815   28.1671 H   0  0  0  0  0  0  0  0  0  0  0  0
    7.1768   49.6317   27.8817 H   0  0  0  0  0  0  0  0  0  0  0  0
    5.1476   50.3125   31.0253 H   0  0  0  0  0  0  0  0  0  0  0  0
    9.3106   53.0298   30.5917 H   0  0  0  0  0  0  0  0  0  0  0  0
    6.1548   53.8502   34.0488 H   0  0  0  0  0  0  0  0  0  0  0  0
    7.1073   52.4716   34.7786 H   0  0  0  0  0  0  0  0  0  0  0  0
    9.8290   40.7386   31.7617 H   0  0  0  0  0  0  0  0  0  0  0  0
   11.3946   41.5459   31.4723 H   0  0  0  0  0  0  0  0  0  0  0  0
   11.6994   39.5069   30.3484 H   0  0  0  0  0  0  0  0  0  0  0  0
   10.1090   38.2635   32.6632 H   0  0  0  0  0  0  0  0  0  0  0  0
   13.6662   37.4515   31.2224 H   0  0  0  0  0  0  0  0  0  0  0  0
    8.9010   38.6925   30.8793 H   0  0  0  0  0  0  0  0  0  0  0  0
   11.2650   36.3083   32.5087 H   0  0  0  0  0  0  0  0  0  0  0  0
   12.1372   35.5141   30.6163 H   0  0  0  0  0  0  0  0  0  0  0  0
   12.3297   38.3530   34.7450 H   0  0  0  0  0  0  0  0  0  0  0  0
   16.7558   34.1781   32.4619 H   0  0  0  0  0  0  0  0  0  0  0  0
   16.6346   34.5300   37.1414 H   0  0  0  0  0  0  0  0  0  0  0  0
   15.3533   35.7360   37.5138 H   0  0  0  0  0  0  0  0  0  0  0  0
  1  2  2  0
  1  3  1  0
  3  4  1  0
  4  5  1  0
  6  1  1  0
  7  6  1  0
  6  8  1  0
  8  9  1  0
  9 10  2  0
 11  9  1  0
 10 12  1  0
 13 11  2  0
 12 14  2  0
 14 13  1  0
 14 15  1  0
 15 16  1  0
 16 17  1  0
 17 18  2  0
 19 17  1  0
 18 20  1  0
 21 19  2  0
 19 22  1  0
 20 23  1  0
 20 24  2  0
 24 21  1  0
 22 25  1  0
 22 26  2  0
 23 27  1  0
 24 28  1  0
 27 28  1  0
  4 29  2  0
  4 30  1  0
 31 30  1  0
 31 32  1  0
 32 33  1  0
 32 34  1  0
 33 35  1  0
 34 36  1  0
 34 37  1  0
 37 35  1  0
 35 38  1  0
 37 39  1  0
 40 38  1  0
 41 38  1  0
 42 40  2  0
 40 43  1  0
 44 41  2  0
 45 42  1  0
 43 46  2  0
 43 44  1  0
 47 45  2  0
 47 46  1  0
 46 48  1  0
  6 49  1  1
  7 50  1  0
  7 51  1  0
  8 52  1  0
  8 53  1  0
 10 54  1  0
 11 55  1  0
 12 56  1  0
 13 57  1  0
 16 58  1  0
 16 59  1  0
 18 60  1  0
 21 61  1  0
 27 62  1  0
 27 63  1  0
 31 64  1  0
 31 65  1  0
 32 66  1  0
 34 67  1  0
 35 68  1  0
 36 69  1  0
 37 70  1  0
 39 71  1  0
 41 72  1  0
 45 73  1  0
 48 74  1  0
 48 75  1  0
M  CHG  3   5  -1  22   1  25  -1
M  END
>  <EmbedRMS>  (36) 
0.0828327322894

$$$$

     RDKit          3D

 75 80  0  0  0  0  0  0  0  0999 V2000
   10.2840   43.7626   33.8277 C   0  0  0  0  0  0  0  0  0  0  0  0
   11.4105   43.5863   34.3768 O   0  0  0  0  0  0  0  0  0  0  0  0
    9.3634   42.7234   33.7352 O   0  0  0  0  0  0  0  0  0  0  0  0
    9.8899   41.2246   34.2940 P   0  0  0  0  0  0  0  0  0  0  0  0
   10.3724   41.4544   35.8837 O   0  0  0  0  0  0  0  0  0  0  0  0
    9.9548   45.0699   33.2067 C   0  0  1  0  0  0  0  0  0  0  0  0
   11.0198   46.0481   33.4570 N   0  0  0  0  0  0  0  0  0  0  0  0
    9.7499   44.8510   31.6928 C   0  0  0  0  0  0  0  0  0  0  0  0
    8.7940   45.8423   31.0880 C   0  0  0  0  0  0  0  0  0  0  0  0
    7.4074   45.6005   31.0991 C   0  0  0  0  0  0  0  0  0  0  0  0
    9.2830   46.9883   30.4439 C   0  0  0  0  0  0  0  0  0  0  0  0
    6.5285   46.5009   30.4819 C   0  0  0  0  0  0  0  0  0  0  0  0
    8.4035   47.8883   29.8303 C   0  0  0  0  0  0  0  0  0  0  0  0
    7.0147   47.6548   29.8516 C   0  0  0  0  0  0  0  0  0  0  0  0
    6.0875   48.5253   29.2575 O   0  0  0  0  0  0  0  0  0  0  0  0
    6.3473   49.8684   28.8459 C   0  0  0  0  0  0  0  0  0  0  0  0
    6.5379   50.7720   30.0430 C   0  0  0  0  0  0  0  0  0  0  0  0
    7.8300   51.2976   30.2849 C   0  0  0  0  0  0  0  0  0  0  0  0
    5.4496   51.1507   30.9044 C   0  0  0  0  0  0  0  0  0  0  0  0
    8.0112   52.1437   31.3697 C   0  0  0  0  0  0  0  0  0  0  0  0
    5.6990   52.0259   31.9882 C   0  0  0  0  0  0  0  0  0  0  0  0
    4.0951   50.7125   30.6786 N   0  0  0  0  0  0  0  0  0  0  0  0
    9.1736   52.7575   31.7952 O   0  0  0  0  0  0  0  0  0  0  0  0
    6.9917   52.4907   32.1864 C   0  0  0  0  0  0  0  0  0  0  0  0
    3.0438   51.4831   31.1198 O   0  0  0  0  0  0  0  0  0  0  0  0
    3.8488   49.5823   30.2127 O   0  0  0  0  0  0  0  0  0  0  0  0
    8.8616   53.5380   32.9571 C   0  0  0  0  0  0  0  0  0  0  0  0
    7.4575   53.3401   33.1716 O   0  0  0  0  0  0  0  0  0  0  0  0
    8.8119   40.1831   34.2121 O   0  0  0  0  0  0  0  0  0  0  0  0
   11.2416   40.7932   33.3699 O   0  0  0  0  0  0  0  0  0  0  0  0
   10.9186   40.6909   31.9972 C   0  0  0  0  0  0  0  0  0  0  0  0
   11.5172   39.3814   31.4407 C   0  0  0  0  0  0  0  0  0  0  0  0
   12.7493   39.0855   32.0728 O   0  0  0  0  0  0  0  0  0  0  0  0
   10.6023   38.1907   31.6665 C   0  0  0  0  0  0  0  0  0  0  0  0
   12.9319   37.6781   32.0281 C   0  0  0  0  0  0  0  0  0  0  0  0
    9.6392   38.0797   30.6451 O   0  0  0  0  0  0  0  0  0  0  0  0
   11.5715   37.0165   31.7056 C   0  0  0  0  0  0  0  0  0  0  0  0
   13.4846   37.2121   33.3235 N   0  0  0  0  0  0  0  0  0  0  0  0
   11.6187   36.3383   30.4694 O   0  0  0  0  0  0  0  0  0  0  0  0
   14.4801   36.3320   33.5724 C   0  0  0  0  0  0  0  0  0  0  0  0
   13.1137   37.6275   34.5687 C   0  0  0  0  0  0  0  0  0  0  0  0
   15.2073   35.6153   32.6738 N   0  0  0  0  0  0  0  0  0  0  0  0
   14.6759   36.2308   34.9179 C   0  0  0  0  0  0  0  0  0  0  0  0
   13.8216   37.0452   35.5780 N   0  0  0  0  0  0  0  0  0  0  0  0
   16.1640   34.7602   33.1546 C   0  0  0  0  0  0  0  0  0  0  0  0
   15.6526   35.3508   35.4129 C   0  0  0  0  0  0  0  0  0  0  0  0
   16.3794   34.6317   34.5041 N   0  0  0  0  0  0  0  0  0  0  0  0
   15.8999   35.1934   36.8088 N   0  0  0  0  0  0  0  0  0  0  0  0
    9.0099   45.4348   33.6677 H   0  0  0  0  0  0  0  0  0  0  0  0
   11.9348   45.6933   33.0925 H   0  0  0  0  0  0  0  0  0  0  0  0
   11.1135   46.1994   34.4882 H   0  0  0  0  0  0  0  0  0  0  0  0
   10.7301   44.8922   31.1678 H   0  0  0  0  0  0  0  0  0  0  0  0
    9.3504   43.8346   31.4767 H   0  0  0  0  0  0  0  0  0  0  0  0
    7.0107   44.7150   31.5802 H   0  0  0  0  0  0  0  0  0  0  0  0
   10.3479   47.1835   30.4089 H   0  0  0  0  0  0  0  0  0  0  0  0
    5.4640   46.3040   30.4994 H   0  0  0  0  0  0  0  0  0  0  0  0
    8.8193   48.7451   29.3244 H   0  0  0  0  0  0  0  0  0  0  0  0
    5.4861   50.2368   28.2502 H   0  0  0  0  0  0  0  0  0  0  0  0
    7.2219   49.8919   28.1612 H   0  0  0  0  0  0  0  0  0  0  0  0
    8.6695   51.0657   29.6431 H   0  0  0  0  0  0  0  0  0  0  0  0
    4.9085   52.3330   32.6606 H   0  0  0  0  0  0  0  0  0  0  0  0
    9.0727   54.6112   32.7668 H   0  0  0  0  0  0  0  0  0  0  0  0
    9.4383   53.1717   33.8321 H   0  0  0  0  0  0  0  0  0  0  0  0
   11.3971   41.5459   31.4735 H   0  0  0  0  0  0  0  0  0  0  0  0
    9.8300   40.7410   31.7611 H   0  0  0  0  0  0  0  0  0  0  0  0
   11.6974   39.5067   30.3481 H   0  0  0  0  0  0  0  0  0  0  0  0
   10.1076   38.2647   32.6645 H   0  0  0  0  0  0  0  0  0  0  0  0
   13.6621   37.4467   31.2208 H   0  0  0  0  0  0  0  0  0  0  0  0
    8.8975   38.6943   30.8831 H   0  0  0  0  0  0  0  0  0  0  0  0
   11.2806   36.3073   32.5170 H   0  0  0  0  0  0  0  0  0  0  0  0
   10.8493   35.7110   30.4585 H   0  0  0  0  0  0  0  0  0  0  0  0
   12.3290   38.3524   34.7444 H   0  0  0  0  0  0  0  0  0  0  0  0
   16.7560   34.1780   32.4620 H   0  0  0  0  0  0  0  0  0  0  0  0
   15.3532   35.7362   37.5137 H   0  0  0  0  0  0  0  0  0  0  0  0
   16.6344   34.5301   37.1414 H   0  0  0  0  0  0  0  0  0  0  0  0
  1  2  2  0
  1  3  1  0
  3  4  1  0
  4  5  1  0
  6  1  1  0
  7  6  1  0
  6  8  1  0
  8  9  1  0
  9 10  2  0
 11  9  1  0
 10 12  1  0
 13 11  2  0
 12 14  2  0
 14 13  1  0
 14 15  1  0
 15 16  1  0
 16 17  1  0
 17 18  2  0
 19 17  1  0
 18 20  1  0
 21 19  2  0
 19 22  1  0
 20 23  1  0
 20 24  2  0
 24 21  1  0
 22 25  1  0
 22 26  2  0
 23 27  1  0
 24 28  1  0
 27 28  1  0
  4 29  2  0
  4 30  1  0
 31 30  1  0
 31 32  1  0
 32 33  1  0
 32 34  1  0
 33 35  1  0
 34 36  1  0
 34 37  1  0
 37 35  1  0
 35 38  1  0
 37 39  1  0
 40 38  1  0
 41 38  1  0
 42 40  2  0
 40 43  1  0
 44 41  2  0
 45 42  1  0
 43 46  2  0
 43 44  1  0
 47 45  2  0
 47 46  1  0
 46 48  1  0
  6 49  1  1
  7 50  1  0
  7 51  1  0
  8 52  1  0
  8 53  1  0
 10 54  1  0
 11 55  1  0
 12 56  1  0
 13 57  1  0
 16 58  1  0
 16 59  1  0
 18 60  1  0
 21 61  1  0
 27 62  1  0
 27 63  1  0
 31 64  1  0
 31 65  1  0
 32 66  1  0
 34 67  1  0
 35 68  1  0
 36 69  1  0
 37 70  1  0
 39 71  1  0
 41 72  1  0
 45 73  1  0
 48 74  1  0
 48 75  1  0
M  CHG  3   5  -1  22   1  25  -1
M  END
>  <EmbedRMS>  (37) 
0.0838202614522

$$$$

     RDKit          3D

 75 80  0  0  0  0  0  0  0  0999 V2000
   10.2834   43.7662   33.8257 C   0  0  0  0  0  0  0  0  0  0  0  0
   11.4102   43.5930   34.3752 O   0  0  0  0  0  0  0  0  0  0  0  0
    9.3635   42.7257   33.7353 O   0  0  0  0  0  0  0  0  0  0  0  0
    9.8899   41.2270   34.2948 P   0  0  0  0  0  0  0  0  0  0  0  0
   10.3732   41.4562   35.8841 O   0  0  0  0  0  0  0  0  0  0  0  0
    9.9547   45.0695   33.2035 C   0  0  1  0  0  0  0  0  0  0  0  0
   11.0274   46.0321   33.4756 N   0  0  0  0  0  0  0  0  0  0  0  0
    9.7466   44.8481   31.6877 C   0  0  0  0  0  0  0  0  0  0  0  0
    8.7923   45.8408   31.0843 C   0  0  0  0  0  0  0  0  0  0  0  0
    7.4054   45.6015   31.0990 C   0  0  0  0  0  0  0  0  0  0  0  0
    9.2824   46.9879   30.4423 C   0  0  0  0  0  0  0  0  0  0  0  0
    6.5264   46.5031   30.4839 C   0  0  0  0  0  0  0  0  0  0  0  0
    8.4032   47.8902   29.8316 C   0  0  0  0  0  0  0  0  0  0  0  0
    7.0143   47.6526   29.8476 C   0  0  0  0  0  0  0  0  0  0  0  0
    6.0935   48.5237   29.2476 O   0  0  0  0  0  0  0  0  0  0  0  0
    6.4459   49.7205   28.5587 C   0  0  0  0  0  0  0  0  0  0  0  0
    5.1989   50.3776   28.0281 C   0  0  0  0  0  0  0  0  0  0  0  0
    4.6601   51.4705   28.7470 C   0  0  0  0  0  0  0  0  0  0  0  0
    4.5648   49.9467   26.8138 C   0  0  0  0  0  0  0  0  0  0  0  0
    3.5357   52.1073   28.2389 C   0  0  0  0  0  0  0  0  0  0  0  0
    3.4294   50.6453   26.3406 C   0  0  0  0  0  0  0  0  0  0  0  0
    5.0584   48.8331   26.0459 N   0  0  0  0  0  0  0  0  0  0  0  0
    2.8484   53.1852   28.7631 O   0  0  0  0  0  0  0  0  0  0  0  0
    2.9482   51.7140   27.0856 C   0  0  0  0  0  0  0  0  0  0  0  0
    4.8378   48.7847   24.6885 O   0  0  0  0  0  0  0  0  0  0  0  0
    5.5400   47.8293   26.6091 O   0  0  0  0  0  0  0  0  0  0  0  0
    1.7589   53.4866   27.8806 C   0  0  0  0  0  0  0  0  0  0  0  0
    1.8596   52.5234   26.8228 O   0  0  0  0  0  0  0  0  0  0  0  0
    8.8121   40.1850   34.2133 O   0  0  0  0  0  0  0  0  0  0  0  0
   11.2403   40.7947   33.3700 O   0  0  0  0  0  0  0  0  0  0  0  0
   10.9144   40.6914   31.9982 C   0  0  0  0  0  0  0  0  0  0  0  0
   11.5270   39.3912   31.4385 C   0  0  0  0  0  0  0  0  0  0  0  0
   12.7520   39.0911   32.0836 O   0  0  0  0  0  0  0  0  0  0  0  0
   10.6113   38.1932   31.6451 C   0  0  0  0  0  0  0  0  0  0  0  0
   12.9413   37.6838   32.0297 C   0  0  0  0  0  0  0  0  0  0  0  0
    9.6064   38.0878   30.6599 O   0  0  0  0  0  0  0  0  0  0  0  0
   11.5822   37.0197   31.6877 C   0  0  0  0  0  0  0  0  0  0  0  0
   13.4840   37.2104   33.3254 N   0  0  0  0  0  0  0  0  0  0  0  0
   11.6179   36.3072   30.4691 O   0  0  0  0  0  0  0  0  0  0  0  0
   14.4797   36.3309   33.5738 C   0  0  0  0  0  0  0  0  0  0  0  0
   13.1136   37.6269   34.5702 C   0  0  0  0  0  0  0  0  0  0  0  0
   15.2074   35.6152   32.6747 N   0  0  0  0  0  0  0  0  0  0  0  0
   14.6756   36.2298   34.9190 C   0  0  0  0  0  0  0  0  0  0  0  0
   13.8217   37.0445   35.5793 N   0  0  0  0  0  0  0  0  0  0  0  0
   16.1643   34.7603   33.1551 C   0  0  0  0  0  0  0  0  0  0  0  0
   15.6528   35.3503   35.4136 C   0  0  0  0  0  0  0  0  0  0  0  0
   16.3798   34.6316   34.5046 N   0  0  0  0  0  0  0  0  0  0  0  0
   15.9004   35.1930   36.8094 N   0  0  0  0  0  0  0  0  0  0  0  0
    9.0121   45.4319   33.6714 H   0  0  0  0  0  0  0  0  0  0  0  0
   10.7261   46.9688   33.1213 H   0  0  0  0  0  0  0  0  0  0  0  0
   11.8906   45.7657   32.9469 H   0  0  0  0  0  0  0  0  0  0  0  0
   10.7229   44.8814   31.1556 H   0  0  0  0  0  0  0  0  0  0  0  0
    9.3414   43.8329   31.4763 H   0  0  0  0  0  0  0  0  0  0  0  0
    7.0083   44.7166   31.5810 H   0  0  0  0  0  0  0  0  0  0  0  0
   10.3470   47.1850   30.4116 H   0  0  0  0  0  0  0  0  0  0  0  0
    5.4618   46.3069   30.5015 H   0  0  0  0  0  0  0  0  0  0  0  0
    8.8142   48.7658   29.3482 H   0  0  0  0  0  0  0  0  0  0  0  0
    7.1440   49.5006   27.7226 H   0  0  0  0  0  0  0  0  0  0  0  0
    6.9732   50.4020   29.2620 H   0  0  0  0  0  0  0  0  0  0  0  0
    5.1070   51.8184   29.6699 H   0  0  0  0  0  0  0  0  0  0  0  0
    2.9260   50.3541   25.4278 H   0  0  0  0  0  0  0  0  0  0  0  0
    1.8665   54.5142   27.4745 H   0  0  0  0  0  0  0  0  0  0  0  0
    0.7910   53.3720   28.4122 H   0  0  0  0  0  0  0  0  0  0  0  0
    9.8234   40.7201   31.7654 H   0  0  0  0  0  0  0  0  0  0  0  0
   11.3776   41.5549   31.4744 H   0  0  0  0  0  0  0  0  0  0  0  0
   11.7311   39.5362   30.3532 H   0  0  0  0  0  0  0  0  0  0  0  0
   10.1202   38.2696   32.6410 H   0  0  0  0  0  0  0  0  0  0  0  0
   13.6850   37.4639   31.2321 H   0  0  0  0  0  0  0  0  0  0  0  0
   10.0251   38.1792   29.7654 H   0  0  0  0  0  0  0  0  0  0  0  0
   11.2757   36.3135   32.4908 H   0  0  0  0  0  0  0  0  0  0  0  0
   11.9838   36.9111   29.7708 H   0  0  0  0  0  0  0  0  0  0  0  0
   12.3306   38.3536   34.7457 H   0  0  0  0  0  0  0  0  0  0  0  0
   16.7566   34.1787   32.4623 H   0  0  0  0  0  0  0  0  0  0  0  0
   16.6353   34.5301   37.1419 H   0  0  0  0  0  0  0  0  0  0  0  0
   15.3535   35.7355   37.5144 H   0  0  0  0  0  0  0  0  0  0  0  0
  1  2  2  0
  1  3  1  0
  3  4  1  0
  4  5  1  0
  6  1  1  0
  7  6  1  0
  6  8  1  0
  8  9  1  0
  9 10  2  0
 11  9  1  0
 10 12  1  0
 13 11  2  0
 12 14  2  0
 14 13  1  0
 14 15  1  0
 15 16  1  0
 16 17  1  0
 17 18  2  0
 19 17  1  0
 18 20  1  0
 21 19  2  0
 19 22  1  0
 20 23  1  0
 20 24  2  0
 24 21  1  0
 22 25  1  0
 22 26  2  0
 23 27  1  0
 24 28  1  0
 27 28  1  0
  4 29  2  0
  4 30  1  0
 31 30  1  0
 31 32  1  0
 32 33  1  0
 32 34  1  0
 33 35  1  0
 34 36  1  0
 34 37  1  0
 37 35  1  0
 35 38  1  0
 37 39  1  0
 40 38  1  0
 41 38  1  0
 42 40  2  0
 40 43  1  0
 44 41  2  0
 45 42  1  0
 43 46  2  0
 43 44  1  0
 47 45  2  0
 47 46  1  0
 46 48  1  0
  6 49  1  1
  7 50  1  0
  7 51  1  0
  8 52  1  0
  8 53  1  0
 10 54  1  0
 11 55  1  0
 12 56  1  0
 13 57  1  0
 16 58  1  0
 16 59  1  0
 18 60  1  0
 21 61  1  0
 27 62  1  0
 27 63  1  0
 31 64  1  0
 31 65  1  0
 32 66  1  0
 34 67  1  0
 35 68  1  0
 36 69  1  0
 37 70  1  0
 39 71  1  0
 41 72  1  0
 45 73  1  0
 48 74  1  0
 48 75  1  0
M  CHG  3   5  -1  22   1  25  -1
M  END
>  <EmbedRMS>  (38) 
0.0808334566217

$$$$

     RDKit          3D

 75 80  0  0  0  0  0  0  0  0999 V2000
   10.2838   43.7627   33.8277 C   0  0  0  0  0  0  0  0  0  0  0  0
   11.4103   43.5864   34.3766 O   0  0  0  0  0  0  0  0  0  0  0  0
    9.3628   42.7238   33.7358 O   0  0  0  0  0  0  0  0  0  0  0  0
    9.8893   41.2251   34.2943 P   0  0  0  0  0  0  0  0  0  0  0  0
   10.3731   41.4545   35.8837 O   0  0  0  0  0  0  0  0  0  0  0  0
    9.9548   45.0700   33.2063 C   0  0  1  0  0  0  0  0  0  0  0  0
   11.0198   46.0481   33.4567 N   0  0  0  0  0  0  0  0  0  0  0  0
    9.7501   44.8507   31.6923 C   0  0  0  0  0  0  0  0  0  0  0  0
    8.7942   45.8416   31.0867 C   0  0  0  0  0  0  0  0  0  0  0  0
    7.4073   45.6013   31.1004 C   0  0  0  0  0  0  0  0  0  0  0  0
    9.2832   46.9892   30.4451 C   0  0  0  0  0  0  0  0  0  0  0  0
    6.5278   46.5023   30.4848 C   0  0  0  0  0  0  0  0  0  0  0  0
    8.4037   47.8903   29.8334 C   0  0  0  0  0  0  0  0  0  0  0  0
    7.0147   47.6509   29.8459 C   0  0  0  0  0  0  0  0  0  0  0  0
    6.0903   48.5179   29.2408 O   0  0  0  0  0  0  0  0  0  0  0  0
    6.4277   49.6727   28.4704 C   0  0  0  0  0  0  0  0  0  0  0  0
    7.0627   49.2754   27.1562 C   0  0  0  0  0  0  0  0  0  0  0  0
    6.4474   48.2492   26.4012 C   0  0  0  0  0  0  0  0  0  0  0  0
    8.2758   49.8708   26.6773 C   0  0  0  0  0  0  0  0  0  0  0  0
    7.0736   47.8155   25.2399 C   0  0  0  0  0  0  0  0  0  0  0  0
    8.8767   49.3763   25.4978 C   0  0  0  0  0  0  0  0  0  0  0  0
    8.8919   50.9784   27.3514 N   0  0  0  0  0  0  0  0  0  0  0  0
    6.6697   46.8263   24.3640 O   0  0  0  0  0  0  0  0  0  0  0  0
    8.2402   48.3505   24.8109 C   0  0  0  0  0  0  0  0  0  0  0  0
   10.2636   51.0785   27.3874 O   0  0  0  0  0  0  0  0  0  0  0  0
    8.2069   51.9663   27.6872 O   0  0  0  0  0  0  0  0  0  0  0  0
    7.6466   46.7360   23.3178 C   0  0  0  0  0  0  0  0  0  0  0  0
    8.6315   47.7270   23.6417 O   0  0  0  0  0  0  0  0  0  0  0  0
    8.8113   40.1835   34.2130 O   0  0  0  0  0  0  0  0  0  0  0  0
   11.2397   40.7943   33.3684 O   0  0  0  0  0  0  0  0  0  0  0  0
   10.9125   40.6875   31.9969 C   0  0  0  0  0  0  0  0  0  0  0  0
   11.5169   39.3810   31.4420 C   0  0  0  0  0  0  0  0  0  0  0  0
   12.7500   39.0880   32.0758 O   0  0  0  0  0  0  0  0  0  0  0  0
   10.6043   38.1892   31.6658 C   0  0  0  0  0  0  0  0  0  0  0  0
   12.9395   37.6813   32.0279 C   0  0  0  0  0  0  0  0  0  0  0  0
    9.6353   38.0951   30.6499 O   0  0  0  0  0  0  0  0  0  0  0  0
   11.5804   37.0190   31.6934 C   0  0  0  0  0  0  0  0  0  0  0  0
   13.4851   37.2118   33.3244 N   0  0  0  0  0  0  0  0  0  0  0  0
   11.6118   36.3188   30.4673 O   0  0  0  0  0  0  0  0  0  0  0  0
   14.4801   36.3316   33.5732 C   0  0  0  0  0  0  0  0  0  0  0  0
   13.1139   37.6277   34.5692 C   0  0  0  0  0  0  0  0  0  0  0  0
   15.2076   35.6154   32.6744 N   0  0  0  0  0  0  0  0  0  0  0  0
   14.6756   36.2303   34.9186 C   0  0  0  0  0  0  0  0  0  0  0  0
   13.8215   37.0450   35.5786 N   0  0  0  0  0  0  0  0  0  0  0  0
   16.1643   34.7602   33.1551 C   0  0  0  0  0  0  0  0  0  0  0  0
   15.6526   35.3505   35.4134 C   0  0  0  0  0  0  0  0  0  0  0  0
   16.3796   34.6316   34.5046 N   0  0  0  0  0  0  0  0  0  0  0  0
   15.9001   35.1933   36.8093 N   0  0  0  0  0  0  0  0  0  0  0  0
    9.0099   45.4350   33.6670 H   0  0  0  0  0  0  0  0  0  0  0  0
   11.9348   45.6932   33.0922 H   0  0  0  0  0  0  0  0  0  0  0  0
   11.1135   46.1992   34.4880 H   0  0  0  0  0  0  0  0  0  0  0  0
    9.3508   43.8342   31.4763 H   0  0  0  0  0  0  0  0  0  0  0  0
   10.7304   44.8921   31.1674 H   0  0  0  0  0  0  0  0  0  0  0  0
    7.0107   44.7163   31.5826 H   0  0  0  0  0  0  0  0  0  0  0  0
   10.3475   47.1888   30.4177 H   0  0  0  0  0  0  0  0  0  0  0  0
    5.4635   46.3046   30.5013 H   0  0  0  0  0  0  0  0  0  0  0  0
    8.8163   48.7674   29.3565 H   0  0  0  0  0  0  0  0  0  0  0  0
    7.0683   50.3368   29.0834 H   0  0  0  0  0  0  0  0  0  0  0  0
    5.4921   50.2272   28.2487 H   0  0  0  0  0  0  0  0  0  0  0  0
    5.5230   47.7867   26.7238 H   0  0  0  0  0  0  0  0  0  0  0  0
    9.7962   49.7987   25.1136 H   0  0  0  0  0  0  0  0  0  0  0  0
    7.1807   46.9653   22.3366 H   0  0  0  0  0  0  0  0  0  0  0  0
    8.1077   45.7262   23.3090 H   0  0  0  0  0  0  0  0  0  0  0  0
   11.3811   41.5456   31.4692 H   0  0  0  0  0  0  0  0  0  0  0  0
    9.8216   40.7222   31.7644 H   0  0  0  0  0  0  0  0  0  0  0  0
   11.6986   39.5089   30.3498 H   0  0  0  0  0  0  0  0  0  0  0  0
   10.1109   38.2736   32.6629 H   0  0  0  0  0  0  0  0  0  0  0  0
   13.6783   37.4561   31.2271 H   0  0  0  0  0  0  0  0  0  0  0  0
    9.0020   37.3859   30.9347 H   0  0  0  0  0  0  0  0  0  0  0  0
   11.2808   36.3052   32.4921 H   0  0  0  0  0  0  0  0  0  0  0  0
   11.8819   36.9599   29.7584 H   0  0  0  0  0  0  0  0  0  0  0  0
   12.3303   38.3537   34.7445 H   0  0  0  0  0  0  0  0  0  0  0  0
   16.7564   34.1783   32.4624 H   0  0  0  0  0  0  0  0  0  0  0  0
   15.3532   35.7359   37.5142 H   0  0  0  0  0  0  0  0  0  0  0  0
   16.6348   34.5301   37.1418 H   0  0  0  0  0  0  0  0  0  0  0  0
  1  2  2  0
  1  3  1  0
  3  4  1  0
  4  5  1  0
  6  1  1  0
  7  6  1  0
  6  8  1  0
  8  9  1  0
  9 10  2  0
 11  9  1  0
 10 12  1  0
 13 11  2  0
 12 14  2  0
 14 13  1  0
 14 15  1  0
 15 16  1  0
 16 17  1  0
 17 18  2  0
 19 17  1  0
 18 20  1  0
 21 19  2  0
 19 22  1  0
 20 23  1  0
 20 24  2  0
 24 21  1  0
 22 25  1  0
 22 26  2  0
 23 27  1  0
 24 28  1  0
 27 28  1  0
  4 29  2  0
  4 30  1  0
 31 30  1  0
 31 32  1  0
 32 33  1  0
 32 34  1  0
 33 35  1  0
 34 36  1  0
 34 37  1  0
 37 35  1  0
 35 38  1  0
 37 39  1  0
 40 38  1  0
 41 38  1  0
 42 40  2  0
 40 43  1  0
 44 41  2  0
 45 42  1  0
 43 46  2  0
 43 44  1  0
 47 45  2  0
 47 46  1  0
 46 48  1  0
  6 49  1  1
  7 50  1  0
  7 51  1  0
  8 52  1  0
  8 53  1  0
 10 54  1  0
 11 55  1  0
 12 56  1  0
 13 57  1  0
 16 58  1  0
 16 59  1  0
 18 60  1  0
 21 61  1  0
 27 62  1  0
 27 63  1  0
 31 64  1  0
 31 65  1  0
 32 66  1  0
 34 67  1  0
 35 68  1  0
 36 69  1  0
 37 70  1  0
 39 71  1  0
 41 72  1  0
 45 73  1  0
 48 74  1  0
 48 75  1  0
M  CHG  3   5  -1  22   1  25  -1
M  END
>  <EmbedRMS>  (39) 
0.0824799824907

$$$$

     RDKit          3D

 75 80  0  0  0  0  0  0  0  0999 V2000
   10.2834   43.7662   33.8257 C   0  0  0  0  0  0  0  0  0  0  0  0
   11.4102   43.5930   34.3752 O   0  0  0  0  0  0  0  0  0  0  0  0
    9.3637   42.7255   33.7350 O   0  0  0  0  0  0  0  0  0  0  0  0
    9.8903   41.2267   34.2942 P   0  0  0  0  0  0  0  0  0  0  0  0
   10.3735   41.4561   35.8836 O   0  0  0  0  0  0  0  0  0  0  0  0
    9.9545   45.0695   33.2037 C   0  0  1  0  0  0  0  0  0  0  0  0
   11.0272   46.0322   33.4756 N   0  0  0  0  0  0  0  0  0  0  0  0
    9.7464   44.8479   31.6879 C   0  0  0  0  0  0  0  0  0  0  0  0
    8.7922   45.8408   31.0847 C   0  0  0  0  0  0  0  0  0  0  0  0
    7.4055   45.6013   31.0985 C   0  0  0  0  0  0  0  0  0  0  0  0
    9.2825   46.9870   30.4416 C   0  0  0  0  0  0  0  0  0  0  0  0
    6.5268   46.5029   30.4830 C   0  0  0  0  0  0  0  0  0  0  0  0
    8.4036   47.8888   29.8304 C   0  0  0  0  0  0  0  0  0  0  0  0
    7.0141   47.6548   29.8503 C   0  0  0  0  0  0  0  0  0  0  0  0
    6.0887   48.5301   29.2598 O   0  0  0  0  0  0  0  0  0  0  0  0
    6.3955   49.8164   28.7197 C   0  0  0  0  0  0  0  0  0  0  0  0
    6.7907   50.7823   29.8135 C   0  0  0  0  0  0  0  0  0  0  0  0
    8.0257   51.4627   29.6948 C   0  0  0  0  0  0  0  0  0  0  0  0
    5.9760   50.9948   30.9767 C   0  0  0  0  0  0  0  0  0  0  0  0
    8.4245   52.2973   30.7302 C   0  0  0  0  0  0  0  0  0  0  0  0
    6.4429   51.8475   32.0039 C   0  0  0  0  0  0  0  0  0  0  0  0
    4.6987   50.3526   31.1416 N   0  0  0  0  0  0  0  0  0  0  0  0
    9.5820   53.0446   30.8338 O   0  0  0  0  0  0  0  0  0  0  0  0
    7.6685   52.4787   31.8372 C   0  0  0  0  0  0  0  0  0  0  0  0
    4.2278   50.0756   32.4045 O   0  0  0  0  0  0  0  0  0  0  0  0
    3.9337   50.1928   30.1687 O   0  0  0  0  0  0  0  0  0  0  0  0
    9.5486   53.7401   32.0876 C   0  0  0  0  0  0  0  0  0  0  0  0
    8.3097   53.3507   32.6961 O   0  0  0  0  0  0  0  0  0  0  0  0
    8.8122   40.1849   34.2130 O   0  0  0  0  0  0  0  0  0  0  0  0
   11.2407   40.7940   33.3693 O   0  0  0  0  0  0  0  0  0  0  0  0
   10.9151   40.6906   31.9973 C   0  0  0  0  0  0  0  0  0  0  0  0
   11.5252   39.3886   31.4375 C   0  0  0  0  0  0  0  0  0  0  0  0
   12.7499   39.0874   32.0798 O   0  0  0  0  0  0  0  0  0  0  0  0
   10.6092   38.1926   31.6469 C   0  0  0  0  0  0  0  0  0  0  0  0
   12.9331   37.6793   32.0294 C   0  0  0  0  0  0  0  0  0  0  0  0
    9.6121   38.0894   30.6542 O   0  0  0  0  0  0  0  0  0  0  0  0
   11.5743   37.0145   31.7024 C   0  0  0  0  0  0  0  0  0  0  0  0
   13.4845   37.2109   33.3241 N   0  0  0  0  0  0  0  0  0  0  0  0
   11.6298   36.3239   30.4740 O   0  0  0  0  0  0  0  0  0  0  0  0
   14.4802   36.3313   33.5727 C   0  0  0  0  0  0  0  0  0  0  0  0
   13.1139   37.6267   34.5693 C   0  0  0  0  0  0  0  0  0  0  0  0
   15.2075   35.6150   32.6739 N   0  0  0  0  0  0  0  0  0  0  0  0
   14.6761   36.2302   34.9182 C   0  0  0  0  0  0  0  0  0  0  0  0
   13.8220   37.0447   35.5785 N   0  0  0  0  0  0  0  0  0  0  0  0
   16.1644   34.7600   33.1547 C   0  0  0  0  0  0  0  0  0  0  0  0
   15.6530   35.3505   35.4131 C   0  0  0  0  0  0  0  0  0  0  0  0
   16.3799   34.6315   34.5042 N   0  0  0  0  0  0  0  0  0  0  0  0
   15.9003   35.1931   36.8090 N   0  0  0  0  0  0  0  0  0  0  0  0
    9.0121   45.4318   33.6717 H   0  0  0  0  0  0  0  0  0  0  0  0
   11.8903   45.7659   32.9466 H   0  0  0  0  0  0  0  0  0  0  0  0
   10.7256   46.9688   33.1213 H   0  0  0  0  0  0  0  0  0  0  0  0
   10.7228   44.8811   31.1560 H   0  0  0  0  0  0  0  0  0  0  0  0
    9.3409   43.8329   31.4767 H   0  0  0  0  0  0  0  0  0  0  0  0
    7.0081   44.7167   31.5806 H   0  0  0  0  0  0  0  0  0  0  0  0
   10.3474   47.1822   30.4081 H   0  0  0  0  0  0  0  0  0  0  0  0
    5.4620   46.3079   30.5026 H   0  0  0  0  0  0  0  0  0  0  0  0
    8.8182   48.7550   29.3370 H   0  0  0  0  0  0  0  0  0  0  0  0
    7.1847   49.7170   27.9431 H   0  0  0  0  0  0  0  0  0  0  0  0
    5.4986   50.2104   28.1995 H   0  0  0  0  0  0  0  0  0  0  0  0
    8.6647   51.3331   28.8305 H   0  0  0  0  0  0  0  0  0  0  0  0
    5.8601   52.0269   32.8981 H   0  0  0  0  0  0  0  0  0  0  0  0
   10.4030   53.4265   32.7236 H   0  0  0  0  0  0  0  0  0  0  0  0
    9.5645   54.8373   31.9188 H   0  0  0  0  0  0  0  0  0  0  0  0
    9.8242   40.7217   31.7642 H   0  0  0  0  0  0  0  0  0  0  0  0
   11.3803   41.5529   31.4732 H   0  0  0  0  0  0  0  0  0  0  0  0
   11.7267   39.5311   30.3512 H   0  0  0  0  0  0  0  0  0  0  0  0
   10.1109   38.2748   32.6387 H   0  0  0  0  0  0  0  0  0  0  0  0
   13.6651   37.4521   31.2225 H   0  0  0  0  0  0  0  0  0  0  0  0
   10.0511   38.1141   29.7645 H   0  0  0  0  0  0  0  0  0  0  0  0
   11.2764   36.3141   32.5190 H   0  0  0  0  0  0  0  0  0  0  0  0
   10.8594   35.6977   30.4639 H   0  0  0  0  0  0  0  0  0  0  0  0
   12.3294   38.3518   34.7452 H   0  0  0  0  0  0  0  0  0  0  0  0
   16.7564   34.1779   32.4620 H   0  0  0  0  0  0  0  0  0  0  0  0
   15.3535   35.7359   37.5139 H   0  0  0  0  0  0  0  0  0  0  0  0
   16.6350   34.5300   37.1417 H   0  0  0  0  0  0  0  0  0  0  0  0
  1  2  2  0
  1  3  1  0
  3  4  1  0
  4  5  1  0
  6  1  1  0
  7  6  1  0
  6  8  1  0
  8  9  1  0
  9 10  2  0
 11  9  1  0
 10 12  1  0
 13 11  2  0
 12 14  2  0
 14 13  1  0
 14 15  1  0
 15 16  1  0
 16 17  1  0
 17 18  2  0
 19 17  1  0
 18 20  1  0
 21 19  2  0
 19 22  1  0
 20 23  1  0
 20 24  2  0
 24 21  1  0
 22 25  1  0
 22 26  2  0
 23 27  1  0
 24 28  1  0
 27 28  1  0
  4 29  2  0
  4 30  1  0
 31 30  1  0
 31 32  1  0
 32 33  1  0
 32 34  1  0
 33 35  1  0
 34 36  1  0
 34 37  1  0
 37 35  1  0
 35 38  1  0
 37 39  1  0
 40 38  1  0
 41 38  1  0
 42 40  2  0
 40 43  1  0
 44 41  2  0
 45 42  1  0
 43 46  2  0
 43 44  1  0
 47 45  2  0
 47 46  1  0
 46 48  1  0
  6 49  1  1
  7 50  1  0
  7 51  1  0
  8 52  1  0
  8 53  1  0
 10 54  1  0
 11 55  1  0
 12 56  1  0
 13 57  1  0
 16 58  1  0
 16 59  1  0
 18 60  1  0
 21 61  1  0
 27 62  1  0
 27 63  1  0
 31 64  1  0
 31 65  1  0
 32 66  1  0
 34 67  1  0
 35 68  1  0
 36 69  1  0
 37 70  1  0
 39 71  1  0
 41 72  1  0
 45 73  1  0
 48 74  1  0
 48 75  1  0
M  CHG  3   5  -1  22   1  25  -1
M  END
>  <EmbedRMS>  (40) 
0.0817960019333

$$$$

     RDKit          3D

 75 80  0  0  0  0  0  0  0  0999 V2000
   10.2803   43.7665   33.8249 C   0  0  0  0  0  0  0  0  0  0  0  0
   11.4110   43.5919   34.3666 O   0  0  0  0  0  0  0  0  0  0  0  0
    9.3616   42.7251   33.7348 O   0  0  0  0  0  0  0  0  0  0  0  0
    9.8896   41.2269   34.2945 P   0  0  0  0  0  0  0  0  0  0  0  0
   10.3731   41.4568   35.8837 O   0  0  0  0  0  0  0  0  0  0  0  0
    9.9460   45.0736   33.2110 C   0  0  1  0  0  0  0  0  0  0  0  0
   11.0267   46.0292   33.4707 N   0  0  0  0  0  0  0  0  0  0  0  0
    9.7541   44.8541   31.6947 C   0  0  0  0  0  0  0  0  0  0  0  0
    8.7958   45.8409   31.0844 C   0  0  0  0  0  0  0  0  0  0  0  0
    7.4089   45.6003   31.1016 C   0  0  0  0  0  0  0  0  0  0  0  0
    9.2824   46.9883   30.4401 C   0  0  0  0  0  0  0  0  0  0  0  0
    6.5259   46.4996   30.4877 C   0  0  0  0  0  0  0  0  0  0  0  0
    8.3995   47.8880   29.8320 C   0  0  0  0  0  0  0  0  0  0  0  0
    7.0185   47.6530   29.8440 C   0  0  0  0  0  0  0  0  0  0  0  0
    6.1810   48.5840   29.2093 O   0  0  0  0  0  0  0  0  0  0  0  0
    4.7780   48.4227   28.9954 C   0  0  0  0  0  0  0  0  0  0  0  0
    4.5057   47.3247   27.9932 C   0  0  0  0  0  0  0  0  0  0  0  0
    3.6157   46.2870   28.3579 C   0  0  0  0  0  0  0  0  0  0  0  0
    5.1507   47.2845   26.7122 C   0  0  0  0  0  0  0  0  0  0  0  0
    3.4161   45.2417   27.4662 C   0  0  0  0  0  0  0  0  0  0  0  0
    4.9167   46.1860   25.8515 C   0  0  0  0  0  0  0  0  0  0  0  0
    6.0437   48.3271   26.2809 N   0  0  0  0  0  0  0  0  0  0  0  0
    2.6097   44.1295   27.6132 O   0  0  0  0  0  0  0  0  0  0  0  0
    4.0415   45.1914   26.2678 C   0  0  0  0  0  0  0  0  0  0  0  0
    5.7617   49.6469   26.5455 O   0  0  0  0  0  0  0  0  0  0  0  0
    6.9969   48.0589   25.5205 O   0  0  0  0  0  0  0  0  0  0  0  0
    2.7380   43.3306   26.4291 C   0  0  0  0  0  0  0  0  0  0  0  0
    3.6614   44.0453   25.5964 O   0  0  0  0  0  0  0  0  0  0  0  0
    8.8122   40.1844   34.2135 O   0  0  0  0  0  0  0  0  0  0  0  0
   11.2401   40.7949   33.3698 O   0  0  0  0  0  0  0  0  0  0  0  0
   10.9143   40.6914   31.9980 C   0  0  0  0  0  0  0  0  0  0  0  0
   11.5269   39.3912   31.4385 C   0  0  0  0  0  0  0  0  0  0  0  0
   12.7519   39.0911   32.0837 O   0  0  0  0  0  0  0  0  0  0  0  0
   10.6113   38.1932   31.6451 C   0  0  0  0  0  0  0  0  0  0  0  0
   12.9413   37.6838   32.0297 C   0  0  0  0  0  0  0  0  0  0  0  0
    9.6064   38.0878   30.6599 O   0  0  0  0  0  0  0  0  0  0  0  0
   11.5822   37.0197   31.6877 C   0  0  0  0  0  0  0  0  0  0  0  0
   13.4840   37.2105   33.3254 N   0  0  0  0  0  0  0  0  0  0  0  0
   11.6179   36.3072   30.4690 O   0  0  0  0  0  0  0  0  0  0  0  0
   14.4797   36.3309   33.5738 C   0  0  0  0  0  0  0  0  0  0  0  0
   13.1136   37.6269   34.5702 C   0  0  0  0  0  0  0  0  0  0  0  0
   15.2074   35.6152   32.6747 N   0  0  0  0  0  0  0  0  0  0  0  0
   14.6756   36.2298   34.9190 C   0  0  0  0  0  0  0  0  0  0  0  0
   13.8217   37.0445   35.5793 N   0  0  0  0  0  0  0  0  0  0  0  0
   16.1643   34.7603   33.1551 C   0  0  0  0  0  0  0  0  0  0  0  0
   15.6528   35.3503   35.4136 C   0  0  0  0  0  0  0  0  0  0  0  0
   16.3798   34.6316   34.5046 N   0  0  0  0  0  0  0  0  0  0  0  0
   15.9004   35.1930   36.8094 N   0  0  0  0  0  0  0  0  0  0  0  0
    8.9995   45.4382   33.6719 H   0  0  0  0  0  0  0  0  0  0  0  0
   11.0501   46.2277   34.4981 H   0  0  0  0  0  0  0  0  0  0  0  0
   10.7765   46.9369   33.0157 H   0  0  0  0  0  0  0  0  0  0  0  0
   10.7412   44.9078   31.1834 H   0  0  0  0  0  0  0  0  0  0  0  0
    9.3646   43.8353   31.4710 H   0  0  0  0  0  0  0  0  0  0  0  0
    7.0146   44.7169   31.5888 H   0  0  0  0  0  0  0  0  0  0  0  0
   10.3462   47.1883   30.4060 H   0  0  0  0  0  0  0  0  0  0  0  0
    5.4674   46.2898   30.5289 H   0  0  0  0  0  0  0  0  0  0  0  0
    8.7915   48.7691   29.3399 H   0  0  0  0  0  0  0  0  0  0  0  0
    4.3621   49.3745   28.6071 H   0  0  0  0  0  0  0  0  0  0  0  0
    4.2707   48.2378   29.9671 H   0  0  0  0  0  0  0  0  0  0  0  0
    3.1066   46.2851   29.3135 H   0  0  0  0  0  0  0  0  0  0  0  0
    5.3902   46.1182   24.8805 H   0  0  0  0  0  0  0  0  0  0  0  0
    1.7558   43.2377   25.9201 H   0  0  0  0  0  0  0  0  0  0  0  0
    3.1466   42.3301   26.6833 H   0  0  0  0  0  0  0  0  0  0  0  0
   11.3776   41.5548   31.4741 H   0  0  0  0  0  0  0  0  0  0  0  0
    9.8234   40.7201   31.7651 H   0  0  0  0  0  0  0  0  0  0  0  0
   11.7311   39.5361   30.3532 H   0  0  0  0  0  0  0  0  0  0  0  0
   10.1202   38.2696   32.6410 H   0  0  0  0  0  0  0  0  0  0  0  0
   13.6850   37.4639   31.2321 H   0  0  0  0  0  0  0  0  0  0  0  0
   10.0250   38.1792   29.7654 H   0  0  0  0  0  0  0  0  0  0  0  0
   11.2757   36.3135   32.4907 H   0  0  0  0  0  0  0  0  0  0  0  0
   11.9838   36.9111   29.7708 H   0  0  0  0  0  0  0  0  0  0  0  0
   12.3307   38.3537   34.7457 H   0  0  0  0  0  0  0  0  0  0  0  0
   16.7566   34.1786   32.4623 H   0  0  0  0  0  0  0  0  0  0  0  0
   16.6353   34.5301   37.1419 H   0  0  0  0  0  0  0  0  0  0  0  0
   15.3535   35.7355   37.5144 H   0  0  0  0  0  0  0  0  0  0  0  0
  1  2  2  0
  1  3  1  0
  3  4  1  0
  4  5  1  0
  6  1  1  0
  7  6  1  0
  6  8  1  0
  8  9  1  0
  9 10  2  0
 11  9  1  0
 10 12  1  0
 13 11  2  0
 12 14  2  0
 14 13  1  0
 14 15  1  0
 15 16  1  0
 16 17  1  0
 17 18  2  0
 19 17  1  0
 18 20  1  0
 21 19  2  0
 19 22  1  0
 20 23  1  0
 20 24  2  0
 24 21  1  0
 22 25  1  0
 22 26  2  0
 23 27  1  0
 24 28  1  0
 27 28  1  0
  4 29  2  0
  4 30  1  0
 31 30  1  0
 31 32  1  0
 32 33  1  0
 32 34  1  0
 33 35  1  0
 34 36  1  0
 34 37  1  0
 37 35  1  0
 35 38  1  0
 37 39  1  0
 40 38  1  0
 41 38  1  0
 42 40  2  0
 40 43  1  0
 44 41  2  0
 45 42  1  0
 43 46  2  0
 43 44  1  0
 47 45  2  0
 47 46  1  0
 46 48  1  0
  6 49  1  1
  7 50  1  0
  7 51  1  0
  8 52  1  0
  8 53  1  0
 10 54  1  0
 11 55  1  0
 12 56  1  0
 13 57  1  0
 16 58  1  0
 16 59  1  0
 18 60  1  0
 21 61  1  0
 27 62  1  0
 27 63  1  0
 31 64  1  0
 31 65  1  0
 32 66  1  0
 34 67  1  0
 35 68  1  0
 36 69  1  0
 37 70  1  0
 39 71  1  0
 41 72  1  0
 45 73  1  0
 48 74  1  0
 48 75  1  0
M  CHG  3   5  -1  22   1  25  -1
M  END
>  <EmbedRMS>  (41) 
0.0806563865478

$$$$

     RDKit          3D

 75 80  0  0  0  0  0  0  0  0999 V2000
   10.2834   43.7661   33.8256 C   0  0  0  0  0  0  0  0  0  0  0  0
   11.4102   43.5930   34.3752 O   0  0  0  0  0  0  0  0  0  0  0  0
    9.3637   42.7255   33.7349 O   0  0  0  0  0  0  0  0  0  0  0  0
    9.8903   41.2267   34.2942 P   0  0  0  0  0  0  0  0  0  0  0  0
   10.3735   41.4561   35.8837 O   0  0  0  0  0  0  0  0  0  0  0  0
    9.9546   45.0694   33.2034 C   0  0  1  0  0  0  0  0  0  0  0  0
   11.0273   46.0321   33.4756 N   0  0  0  0  0  0  0  0  0  0  0  0
    9.7467   44.8479   31.6875 C   0  0  0  0  0  0  0  0  0  0  0  0
    8.7924   45.8405   31.0840 C   0  0  0  0  0  0  0  0  0  0  0  0
    7.4055   45.6018   31.0996 C   0  0  0  0  0  0  0  0  0  0  0  0
    9.2822   46.9879   30.4427 C   0  0  0  0  0  0  0  0  0  0  0  0
    6.5267   46.5039   30.4851 C   0  0  0  0  0  0  0  0  0  0  0  0
    8.4030   47.8905   29.8329 C   0  0  0  0  0  0  0  0  0  0  0  0
    7.0144   47.6516   29.8451 C   0  0  0  0  0  0  0  0  0  0  0  0
    6.0896   48.5181   29.2409 O   0  0  0  0  0  0  0  0  0  0  0  0
    6.4206   49.6369   28.4170 C   0  0  0  0  0  0  0  0  0  0  0  0
    7.0209   49.1840   27.1057 C   0  0  0  0  0  0  0  0  0  0  0  0
    8.2782   49.7096   26.7253 C   0  0  0  0  0  0  0  0  0  0  0  0
    6.3762   48.2153   26.2644 C   0  0  0  0  0  0  0  0  0  0  0  0
    8.8639   49.2448   25.5555 C   0  0  0  0  0  0  0  0  0  0  0  0
    7.0296   47.7713   25.0914 C   0  0  0  0  0  0  0  0  0  0  0  0
    5.0855   47.6653   26.5845 N   0  0  0  0  0  0  0  0  0  0  0  0
   10.0771   49.6043   25.0008 O   0  0  0  0  0  0  0  0  0  0  0  0
    8.2680   48.3143   24.7752 C   0  0  0  0  0  0  0  0  0  0  0  0
    4.7581   46.3956   26.1671 O   0  0  0  0  0  0  0  0  0  0  0  0
    4.1941   48.3789   27.0876 O   0  0  0  0  0  0  0  0  0  0  0  0
   10.2524   48.8499   23.7937 C   0  0  0  0  0  0  0  0  0  0  0  0
    9.0741   48.0392   23.6874 O   0  0  0  0  0  0  0  0  0  0  0  0
    8.8122   40.1850   34.2131 O   0  0  0  0  0  0  0  0  0  0  0  0
   11.2407   40.7940   33.3693 O   0  0  0  0  0  0  0  0  0  0  0  0
   10.9151   40.6905   31.9974 C   0  0  0  0  0  0  0  0  0  0  0  0
   11.5252   39.3886   31.4375 C   0  0  0  0  0  0  0  0  0  0  0  0
   12.7500   39.0874   32.0799 O   0  0  0  0  0  0  0  0  0  0  0  0
   10.6092   38.1926   31.6470 C   0  0  0  0  0  0  0  0  0  0  0  0
   12.9332   37.6793   32.0294 C   0  0  0  0  0  0  0  0  0  0  0  0
    9.6122   38.0895   30.6543 O   0  0  0  0  0  0  0  0  0  0  0  0
   11.5743   37.0145   31.7024 C   0  0  0  0  0  0  0  0  0  0  0  0
   13.4844   37.2107   33.3241 N   0  0  0  0  0  0  0  0  0  0  0  0
   11.6298   36.3239   30.4740 O   0  0  0  0  0  0  0  0  0  0  0  0
   14.4802   36.3313   33.5727 C   0  0  0  0  0  0  0  0  0  0  0  0
   13.1138   37.6266   34.5692 C   0  0  0  0  0  0  0  0  0  0  0  0
   15.2075   35.6149   32.6739 N   0  0  0  0  0  0  0  0  0  0  0  0
   14.6761   36.2303   34.9181 C   0  0  0  0  0  0  0  0  0  0  0  0
   13.8220   37.0447   35.5785 N   0  0  0  0  0  0  0  0  0  0  0  0
   16.1643   34.7600   33.1547 C   0  0  0  0  0  0  0  0  0  0  0  0
   15.6529   35.3505   35.4130 C   0  0  0  0  0  0  0  0  0  0  0  0
   16.3798   34.6315   34.5042 N   0  0  0  0  0  0  0  0  0  0  0  0
   15.9003   35.1932   36.8090 N   0  0  0  0  0  0  0  0  0  0  0  0
    9.0120   45.4317   33.6712 H   0  0  0  0  0  0  0  0  0  0  0  0
   11.8906   45.7659   32.9469 H   0  0  0  0  0  0  0  0  0  0  0  0
   10.7258   46.9687   33.1212 H   0  0  0  0  0  0  0  0  0  0  0  0
    9.3417   43.8328   31.4760 H   0  0  0  0  0  0  0  0  0  0  0  0
   10.7231   44.8814   31.1555 H   0  0  0  0  0  0  0  0  0  0  0  0
    7.0082   44.7172   31.5820 H   0  0  0  0  0  0  0  0  0  0  0  0
   10.3466   47.1864   30.4143 H   0  0  0  0  0  0  0  0  0  0  0  0
    5.4622   46.3072   30.5019 H   0  0  0  0  0  0  0  0  0  0  0  0
    8.8156   48.7696   29.3608 H   0  0  0  0  0  0  0  0  0  0  0  0
    7.0958   50.3236   28.9722 H   0  0  0  0  0  0  0  0  0  0  0  0
    5.4970   50.2146   28.2086 H   0  0  0  0  0  0  0  0  0  0  0  0
    8.7926   50.4458   27.3299 H   0  0  0  0  0  0  0  0  0  0  0  0
    6.5782   47.0377   24.4362 H   0  0  0  0  0  0  0  0  0  0  0  0
   11.1542   48.2070   23.8701 H   0  0  0  0  0  0  0  0  0  0  0  0
   10.3276   49.5327   22.9216 H   0  0  0  0  0  0  0  0  0  0  0  0
    9.8242   40.7216   31.7643 H   0  0  0  0  0  0  0  0  0  0  0  0
   11.3802   41.5529   31.4733 H   0  0  0  0  0  0  0  0  0  0  0  0
   11.7266   39.5311   30.3513 H   0  0  0  0  0  0  0  0  0  0  0  0
   10.1110   38.2747   32.6387 H   0  0  0  0  0  0  0  0  0  0  0  0
   13.6652   37.4519   31.2226 H   0  0  0  0  0  0  0  0  0  0  0  0
   10.0511   38.1143   29.7645 H   0  0  0  0  0  0  0  0  0  0  0  0
   11.2762   36.3141   32.5189 H   0  0  0  0  0  0  0  0  0  0  0  0
   10.8593   35.6978   30.4639 H   0  0  0  0  0  0  0  0  0  0  0  0
   12.3295   38.3518   34.7449 H   0  0  0  0  0  0  0  0  0  0  0  0
   16.7564   34.1780   32.4620 H   0  0  0  0  0  0  0  0  0  0  0  0
   15.3534   35.7359   37.5138 H   0  0  0  0  0  0  0  0  0  0  0  0
   16.6349   34.5300   37.1415 H   0  0  0  0  0  0  0  0  0  0  0  0
  1  2  2  0
  1  3  1  0
  3  4  1  0
  4  5  1  0
  6  1  1  0
  7  6  1  0
  6  8  1  0
  8  9  1  0
  9 10  2  0
 11  9  1  0
 10 12  1  0
 13 11  2  0
 12 14  2  0
 14 13  1  0
 14 15  1  0
 15 16  1  0
 16 17  1  0
 17 18  2  0
 19 17  1  0
 18 20  1  0
 21 19  2  0
 19 22  1  0
 20 23  1  0
 20 24  2  0
 24 21  1  0
 22 25  1  0
 22 26  2  0
 23 27  1  0
 24 28  1  0
 27 28  1  0
  4 29  2  0
  4 30  1  0
 31 30  1  0
 31 32  1  0
 32 33  1  0
 32 34  1  0
 33 35  1  0
 34 36  1  0
 34 37  1  0
 37 35  1  0
 35 38  1  0
 37 39  1  0
 40 38  1  0
 41 38  1  0
 42 40  2  0
 40 43  1  0
 44 41  2  0
 45 42  1  0
 43 46  2  0
 43 44  1  0
 47 45  2  0
 47 46  1  0
 46 48  1  0
  6 49  1  1
  7 50  1  0
  7 51  1  0
  8 52  1  0
  8 53  1  0
 10 54  1  0
 11 55  1  0
 12 56  1  0
 13 57  1  0
 16 58  1  0
 16 59  1  0
 18 60  1  0
 21 61  1  0
 27 62  1  0
 27 63  1  0
 31 64  1  0
 31 65  1  0
 32 66  1  0
 34 67  1  0
 35 68  1  0
 36 69  1  0
 37 70  1  0
 39 71  1  0
 41 72  1  0
 45 73  1  0
 48 74  1  0
 48 75  1  0
M  CHG  3   5  -1  22   1  25  -1
M  END
>  <EmbedRMS>  (42) 
0.0818346990929

$$$$

     RDKit          3D

 75 80  0  0  0  0  0  0  0  0999 V2000
   10.2834   43.7662   33.8257 C   0  0  0  0  0  0  0  0  0  0  0  0
   11.4102   43.5930   34.3752 O   0  0  0  0  0  0  0  0  0  0  0  0
    9.3636   42.7255   33.7349 O   0  0  0  0  0  0  0  0  0  0  0  0
    9.8905   41.2266   34.2934 P   0  0  0  0  0  0  0  0  0  0  0  0
   10.3743   41.4557   35.8827 O   0  0  0  0  0  0  0  0  0  0  0  0
    9.9546   45.0695   33.2036 C   0  0  1  0  0  0  0  0  0  0  0  0
   11.0274   46.0321   33.4757 N   0  0  0  0  0  0  0  0  0  0  0  0
    9.7466   44.8481   31.6877 C   0  0  0  0  0  0  0  0  0  0  0  0
    8.7923   45.8409   31.0844 C   0  0  0  0  0  0  0  0  0  0  0  0
    7.4054   45.6015   31.0991 C   0  0  0  0  0  0  0  0  0  0  0  0
    9.2824   46.9880   30.4423 C   0  0  0  0  0  0  0  0  0  0  0  0
    6.5264   46.5032   30.4840 C   0  0  0  0  0  0  0  0  0  0  0  0
    8.4032   47.8902   29.8315 C   0  0  0  0  0  0  0  0  0  0  0  0
    7.0144   47.6525   29.8474 C   0  0  0  0  0  0  0  0  0  0  0  0
    6.0936   48.5230   29.2468 O   0  0  0  0  0  0  0  0  0  0  0  0
    6.4459   49.7155   28.5494 C   0  0  0  0  0  0  0  0  0  0  0  0
    5.2018   50.3641   27.9971 C   0  0  0  0  0  0  0  0  0  0  0  0
    4.8954   51.6851   28.4024 C   0  0  0  0  0  0  0  0  0  0  0  0
    4.3063   49.6700   27.1136 C   0  0  0  0  0  0  0  0  0  0  0  0
    3.7231   52.2658   27.9372 C   0  0  0  0  0  0  0  0  0  0  0  0
    3.1207   50.3115   26.6849 C   0  0  0  0  0  0  0  0  0  0  0  0
    4.5632   48.3266   26.6630 N   0  0  0  0  0  0  0  0  0  0  0  0
    3.2262   53.5277   28.2012 O   0  0  0  0  0  0  0  0  0  0  0  0
    2.8725   51.6076   27.1170 C   0  0  0  0  0  0  0  0  0  0  0  0
    3.5126   47.5002   26.3364 O   0  0  0  0  0  0  0  0  0  0  0  0
    5.7240   47.9465   26.4083 O   0  0  0  0  0  0  0  0  0  0  0  0
    1.9835   53.6694   27.4995 C   0  0  0  0  0  0  0  0  0  0  0  0
    1.7954   52.4204   26.8203 O   0  0  0  0  0  0  0  0  0  0  0  0
    8.8122   40.1851   34.2128 O   0  0  0  0  0  0  0  0  0  0  0  0
   11.2403   40.7946   33.3668 O   0  0  0  0  0  0  0  0  0  0  0  0
   10.9126   40.6859   31.9954 C   0  0  0  0  0  0  0  0  0  0  0  0
   11.5175   39.3787   31.4405 C   0  0  0  0  0  0  0  0  0  0  0  0
   12.7490   39.0864   32.0752 O   0  0  0  0  0  0  0  0  0  0  0  0
   10.6061   38.1868   31.6656 C   0  0  0  0  0  0  0  0  0  0  0  0
   12.9356   37.6796   32.0292 C   0  0  0  0  0  0  0  0  0  0  0  0
    9.6399   38.0903   30.6471 O   0  0  0  0  0  0  0  0  0  0  0  0
   11.5765   37.0145   31.7044 C   0  0  0  0  0  0  0  0  0  0  0  0
   13.4858   37.2125   33.3244 N   0  0  0  0  0  0  0  0  0  0  0  0
   11.6101   36.3397   30.4673 O   0  0  0  0  0  0  0  0  0  0  0  0
   14.4805   36.3319   33.5729 C   0  0  0  0  0  0  0  0  0  0  0  0
   13.1143   37.6276   34.5694 C   0  0  0  0  0  0  0  0  0  0  0  0
   15.2076   35.6153   32.6741 N   0  0  0  0  0  0  0  0  0  0  0  0
   14.6760   36.2304   34.9184 C   0  0  0  0  0  0  0  0  0  0  0  0
   13.8219   37.0449   35.5786 N   0  0  0  0  0  0  0  0  0  0  0  0
   16.1641   34.7600   33.1548 C   0  0  0  0  0  0  0  0  0  0  0  0
   15.6528   35.3505   35.4132 C   0  0  0  0  0  0  0  0  0  0  0  0
   16.3795   34.6314   34.5043 N   0  0  0  0  0  0  0  0  0  0  0  0
   15.9002   35.1931   36.8091 N   0  0  0  0  0  0  0  0  0  0  0  0
    9.0121   45.4318   33.6714 H   0  0  0  0  0  0  0  0  0  0  0  0
   10.7260   46.9687   33.1214 H   0  0  0  0  0  0  0  0  0  0  0  0
   11.8906   45.7658   32.9470 H   0  0  0  0  0  0  0  0  0  0  0  0
    9.3414   43.8330   31.4763 H   0  0  0  0  0  0  0  0  0  0  0  0
   10.7229   44.8814   31.1557 H   0  0  0  0  0  0  0  0  0  0  0  0
    7.0082   44.7167   31.5811 H   0  0  0  0  0  0  0  0  0  0  0  0
   10.3470   47.1851   30.4117 H   0  0  0  0  0  0  0  0  0  0  0  0
    5.4618   46.3069   30.5013 H   0  0  0  0  0  0  0  0  0  0  0  0
    8.8141   48.7659   29.3482 H   0  0  0  0  0  0  0  0  0  0  0  0
    7.1446   49.4869   27.7176 H   0  0  0  0  0  0  0  0  0  0  0  0
    6.9722   50.4005   29.2499 H   0  0  0  0  0  0  0  0  0  0  0  0
    5.5439   52.2412   29.0676 H   0  0  0  0  0  0  0  0  0  0  0  0
    2.4199   49.8203   26.0224 H   0  0  0  0  0  0  0  0  0  0  0  0
    1.1548   53.8437   28.2175 H   0  0  0  0  0  0  0  0  0  0  0  0
    2.0497   54.4990   26.7648 H   0  0  0  0  0  0  0  0  0  0  0  0
    9.8215   40.7200   31.7636 H   0  0  0  0  0  0  0  0  0  0  0  0
   11.3803   41.5437   31.4664 H   0  0  0  0  0  0  0  0  0  0  0  0
   11.6999   39.5041   30.3482 H   0  0  0  0  0  0  0  0  0  0  0  0
   10.1085   38.2766   32.6603 H   0  0  0  0  0  0  0  0  0  0  0  0
   13.6680   37.4520   31.2229 H   0  0  0  0  0  0  0  0  0  0  0  0
    9.0016   37.3868   30.9349 H   0  0  0  0  0  0  0  0  0  0  0  0
   11.2666   36.3062   32.5083 H   0  0  0  0  0  0  0  0  0  0  0  0
   12.1389   35.5126   30.6150 H   0  0  0  0  0  0  0  0  0  0  0  0
   12.3300   38.3529   34.7449 H   0  0  0  0  0  0  0  0  0  0  0  0
   16.7560   34.1779   32.4620 H   0  0  0  0  0  0  0  0  0  0  0  0
   15.3534   35.7359   37.5140 H   0  0  0  0  0  0  0  0  0  0  0  0
   16.6347   34.5298   37.1416 H   0  0  0  0  0  0  0  0  0  0  0  0
  1  2  2  0
  1  3  1  0
  3  4  1  0
  4  5  1  0
  6  1  1  0
  7  6  1  0
  6  8  1  0
  8  9  1  0
  9 10  2  0
 11  9  1  0
 10 12  1  0
 13 11  2  0
 12 14  2  0
 14 13  1  0
 14 15  1  0
 15 16  1  0
 16 17  1  0
 17 18  2  0
 19 17  1  0
 18 20  1  0
 21 19  2  0
 19 22  1  0
 20 23  1  0
 20 24  2  0
 24 21  1  0
 22 25  1  0
 22 26  2  0
 23 27  1  0
 24 28  1  0
 27 28  1  0
  4 29  2  0
  4 30  1  0
 31 30  1  0
 31 32  1  0
 32 33  1  0
 32 34  1  0
 33 35  1  0
 34 36  1  0
 34 37  1  0
 37 35  1  0
 35 38  1  0
 37 39  1  0
 40 38  1  0
 41 38  1  0
 42 40  2  0
 40 43  1  0
 44 41  2  0
 45 42  1  0
 43 46  2  0
 43 44  1  0
 47 45  2  0
 47 46  1  0
 46 48  1  0
  6 49  1  1
  7 50  1  0
  7 51  1  0
  8 52  1  0
  8 53  1  0
 10 54  1  0
 11 55  1  0
 12 56  1  0
 13 57  1  0
 16 58  1  0
 16 59  1  0
 18 60  1  0
 21 61  1  0
 27 62  1  0
 27 63  1  0
 31 64  1  0
 31 65  1  0
 32 66  1  0
 34 67  1  0
 35 68  1  0
 36 69  1  0
 37 70  1  0
 39 71  1  0
 41 72  1  0
 45 73  1  0
 48 74  1  0
 48 75  1  0
M  CHG  3   5  -1  22   1  25  -1
M  END
>  <EmbedRMS>  (43) 
0.082399526245

$$$$

     RDKit          3D

 75 80  0  0  0  0  0  0  0  0999 V2000
   10.2834   43.7662   33.8257 C   0  0  0  0  0  0  0  0  0  0  0  0
   11.4102   43.5931   34.3752 O   0  0  0  0  0  0  0  0  0  0  0  0
    9.3638   42.7255   33.7349 O   0  0  0  0  0  0  0  0  0  0  0  0
    9.8907   41.2266   34.2933 P   0  0  0  0  0  0  0  0  0  0  0  0
   10.3743   41.4557   35.8828 O   0  0  0  0  0  0  0  0  0  0  0  0
    9.9546   45.0696   33.2037 C   0  0  1  0  0  0  0  0  0  0  0  0
   11.0273   46.0323   33.4757 N   0  0  0  0  0  0  0  0  0  0  0  0
    9.7465   44.8481   31.6878 C   0  0  0  0  0  0  0  0  0  0  0  0
    8.7923   45.8410   31.0848 C   0  0  0  0  0  0  0  0  0  0  0  0
    7.4055   45.6011   31.0983 C   0  0  0  0  0  0  0  0  0  0  0  0
    9.2823   46.9874   30.4418 C   0  0  0  0  0  0  0  0  0  0  0  0
    6.5268   46.5026   30.4827 C   0  0  0  0  0  0  0  0  0  0  0  0
    8.4033   47.8891   29.8306 C   0  0  0  0  0  0  0  0  0  0  0  0
    7.0140   47.6545   29.8501 C   0  0  0  0  0  0  0  0  0  0  0  0
    6.0883   48.5291   29.2590 O   0  0  0  0  0  0  0  0  0  0  0  0
    6.3950   49.8155   28.7194 C   0  0  0  0  0  0  0  0  0  0  0  0
    6.7900   50.7812   29.8128 C   0  0  0  0  0  0  0  0  0  0  0  0
    8.0165   51.4752   29.6862 C   0  0  0  0  0  0  0  0  0  0  0  0
    5.9843   50.9784   30.9835 C   0  0  0  0  0  0  0  0  0  0  0  0
    8.4148   52.3104   30.7214 C   0  0  0  0  0  0  0  0  0  0  0  0
    6.4498   51.8332   32.0106 C   0  0  0  0  0  0  0  0  0  0  0  0
    4.7168   50.3180   31.1505 N   0  0  0  0  0  0  0  0  0  0  0  0
    9.5646   53.0703   30.8178 O   0  0  0  0  0  0  0  0  0  0  0  0
    7.6666   52.4791   31.8357 C   0  0  0  0  0  0  0  0  0  0  0  0
    3.8532   50.1777   30.0894 O   0  0  0  0  0  0  0  0  0  0  0  0
    4.3169   50.0125   32.2930 O   0  0  0  0  0  0  0  0  0  0  0  0
    9.5343   53.7607   32.0745 C   0  0  0  0  0  0  0  0  0  0  0  0
    8.3053   53.3549   32.6923 O   0  0  0  0  0  0  0  0  0  0  0  0
    8.8123   40.1851   34.2127 O   0  0  0  0  0  0  0  0  0  0  0  0
   11.2407   40.7945   33.3670 O   0  0  0  0  0  0  0  0  0  0  0  0
   10.9135   40.6866   31.9954 C   0  0  0  0  0  0  0  0  0  0  0  0
   11.5167   39.3787   31.4404 C   0  0  0  0  0  0  0  0  0  0  0  0
   12.7486   39.0849   32.0735 O   0  0  0  0  0  0  0  0  0  0  0  0
   10.6039   38.1884   31.6669 C   0  0  0  0  0  0  0  0  0  0  0  0
   12.9329   37.6776   32.0284 C   0  0  0  0  0  0  0  0  0  0  0  0
    9.6374   38.0939   30.6484 O   0  0  0  0  0  0  0  0  0  0  0  0
   11.5737   37.0141   31.7055 C   0  0  0  0  0  0  0  0  0  0  0  0
   13.4853   37.2120   33.3238 N   0  0  0  0  0  0  0  0  0  0  0  0
   11.6210   36.3379   30.4683 O   0  0  0  0  0  0  0  0  0  0  0  0
   14.4804   36.3319   33.5726 C   0  0  0  0  0  0  0  0  0  0  0  0
   13.1141   37.6275   34.5689 C   0  0  0  0  0  0  0  0  0  0  0  0
   15.2075   35.6152   32.6740 N   0  0  0  0  0  0  0  0  0  0  0  0
   14.6761   36.2306   34.9181 C   0  0  0  0  0  0  0  0  0  0  0  0
   13.8218   37.0451   35.5783 N   0  0  0  0  0  0  0  0  0  0  0  0
   16.1642   34.7600   33.1548 C   0  0  0  0  0  0  0  0  0  0  0  0
   15.6527   35.3507   35.4131 C   0  0  0  0  0  0  0  0  0  0  0  0
   16.3795   34.6315   34.5043 N   0  0  0  0  0  0  0  0  0  0  0  0
   15.9000   35.1933   36.8090 N   0  0  0  0  0  0  0  0  0  0  0  0
    9.0120   45.4318   33.6716 H   0  0  0  0  0  0  0  0  0  0  0  0
   11.8905   45.7661   32.9469 H   0  0  0  0  0  0  0  0  0  0  0  0
   10.7257   46.9689   33.1214 H   0  0  0  0  0  0  0  0  0  0  0  0
   10.7229   44.8814   31.1558 H   0  0  0  0  0  0  0  0  0  0  0  0
    9.3413   43.8330   31.4764 H   0  0  0  0  0  0  0  0  0  0  0  0
    7.0083   44.7163   31.5802 H   0  0  0  0  0  0  0  0  0  0  0  0
   10.3471   47.1830   30.4086 H   0  0  0  0  0  0  0  0  0  0  0  0
    5.4621   46.3076   30.5023 H   0  0  0  0  0  0  0  0  0  0  0  0
    8.8175   48.7563   29.3381 H   0  0  0  0  0  0  0  0  0  0  0  0
    7.1845   49.7165   27.9431 H   0  0  0  0  0  0  0  0  0  0  0  0
    5.4987   50.2095   28.1986 H   0  0  0  0  0  0  0  0  0  0  0  0
    8.6493   51.3558   28.8159 H   0  0  0  0  0  0  0  0  0  0  0  0
    5.8725   52.0014   32.9106 H   0  0  0  0  0  0  0  0  0  0  0  0
   10.3977   53.4547   32.7017 H   0  0  0  0  0  0  0  0  0  0  0  0
    9.5362   54.8586   31.9097 H   0  0  0  0  0  0  0  0  0  0  0  0
    9.8226   40.7225   31.7631 H   0  0  0  0  0  0  0  0  0  0  0  0
   11.3828   41.5438   31.4669 H   0  0  0  0  0  0  0  0  0  0  0  0
   11.6979   39.5037   30.3478 H   0  0  0  0  0  0  0  0  0  0  0  0
   10.1084   38.2787   32.6626 H   0  0  0  0  0  0  0  0  0  0  0  0
   13.6638   37.4472   31.2214 H   0  0  0  0  0  0  0  0  0  0  0  0
    8.9763   37.4191   30.9532 H   0  0  0  0  0  0  0  0  0  0  0  0
   11.2821   36.3054   32.5172 H   0  0  0  0  0  0  0  0  0  0  0  0
   10.8658   35.6935   30.4653 H   0  0  0  0  0  0  0  0  0  0  0  0
   12.3293   38.3523   34.7444 H   0  0  0  0  0  0  0  0  0  0  0  0
   16.7561   34.1778   32.4621 H   0  0  0  0  0  0  0  0  0  0  0  0
   16.6345   34.5300   37.1416 H   0  0  0  0  0  0  0  0  0  0  0  0
   15.3533   35.7361   37.5138 H   0  0  0  0  0  0  0  0  0  0  0  0
  1  2  2  0
  1  3  1  0
  3  4  1  0
  4  5  1  0
  6  1  1  0
  7  6  1  0
  6  8  1  0
  8  9  1  0
  9 10  2  0
 11  9  1  0
 10 12  1  0
 13 11  2  0
 12 14  2  0
 14 13  1  0
 14 15  1  0
 15 16  1  0
 16 17  1  0
 17 18  2  0
 19 17  1  0
 18 20  1  0
 21 19  2  0
 19 22  1  0
 20 23  1  0
 20 24  2  0
 24 21  1  0
 22 25  1  0
 22 26  2  0
 23 27  1  0
 24 28  1  0
 27 28  1  0
  4 29  2  0
  4 30  1  0
 31 30  1  0
 31 32  1  0
 32 33  1  0
 32 34  1  0
 33 35  1  0
 34 36  1  0
 34 37  1  0
 37 35  1  0
 35 38  1  0
 37 39  1  0
 40 38  1  0
 41 38  1  0
 42 40  2  0
 40 43  1  0
 44 41  2  0
 45 42  1  0
 43 46  2  0
 43 44  1  0
 47 45  2  0
 47 46  1  0
 46 48  1  0
  6 49  1  1
  7 50  1  0
  7 51  1  0
  8 52  1  0
  8 53  1  0
 10 54  1  0
 11 55  1  0
 12 56  1  0
 13 57  1  0
 16 58  1  0
 16 59  1  0
 18 60  1  0
 21 61  1  0
 27 62  1  0
 27 63  1  0
 31 64  1  0
 31 65  1  0
 32 66  1  0
 34 67  1  0
 35 68  1  0
 36 69  1  0
 37 70  1  0
 39 71  1  0
 41 72  1  0
 45 73  1  0
 48 74  1  0
 48 75  1  0
M  CHG  3   5  -1  22   1  25  -1
M  END
>  <EmbedRMS>  (44) 
0.0825601230406

$$$$

     RDKit          3D

 75 80  0  0  0  0  0  0  0  0999 V2000
   10.2834   43.7662   33.8256 C   0  0  0  0  0  0  0  0  0  0  0  0
   11.4102   43.5930   34.3752 O   0  0  0  0  0  0  0  0  0  0  0  0
    9.3636   42.7255   33.7350 O   0  0  0  0  0  0  0  0  0  0  0  0
    9.8902   41.2267   34.2942 P   0  0  0  0  0  0  0  0  0  0  0  0
   10.3736   41.4560   35.8836 O   0  0  0  0  0  0  0  0  0  0  0  0
    9.9546   45.0694   33.2034 C   0  0  1  0  0  0  0  0  0  0  0  0
   11.0274   46.0321   33.4755 N   0  0  0  0  0  0  0  0  0  0  0  0
    9.7466   44.8479   31.6875 C   0  0  0  0  0  0  0  0  0  0  0  0
    8.7924   45.8405   31.0840 C   0  0  0  0  0  0  0  0  0  0  0  0
    7.4055   45.6018   31.0996 C   0  0  0  0  0  0  0  0  0  0  0  0
    9.2822   46.9880   30.4427 C   0  0  0  0  0  0  0  0  0  0  0  0
    6.5266   46.5038   30.4849 C   0  0  0  0  0  0  0  0  0  0  0  0
    8.4030   47.8905   29.8329 C   0  0  0  0  0  0  0  0  0  0  0  0
    7.0144   47.6516   29.8452 C   0  0  0  0  0  0  0  0  0  0  0  0
    6.0897   48.5183   29.2411 O   0  0  0  0  0  0  0  0  0  0  0  0
    6.4213   49.6406   28.4223 C   0  0  0  0  0  0  0  0  0  0  0  0
    7.0284   49.1945   27.1121 C   0  0  0  0  0  0  0  0  0  0  0  0
    8.2771   49.7389   26.7298 C   0  0  0  0  0  0  0  0  0  0  0  0
    6.3995   48.2133   26.2753 C   0  0  0  0  0  0  0  0  0  0  0  0
    8.8692   49.2809   25.5604 C   0  0  0  0  0  0  0  0  0  0  0  0
    7.0585   47.7770   25.1016 C   0  0  0  0  0  0  0  0  0  0  0  0
    5.1179   47.6473   26.6036 N   0  0  0  0  0  0  0  0  0  0  0  0
   10.0760   49.6585   25.0037 O   0  0  0  0  0  0  0  0  0  0  0  0
    8.2876   48.3392   24.7827 C   0  0  0  0  0  0  0  0  0  0  0  0
    4.1151   48.4335   27.1211 O   0  0  0  0  0  0  0  0  0  0  0  0
    4.8483   46.4750   26.2696 O   0  0  0  0  0  0  0  0  0  0  0  0
   10.2622   48.9043   23.7982 C   0  0  0  0  0  0  0  0  0  0  0  0
    9.0971   48.0746   23.6948 O   0  0  0  0  0  0  0  0  0  0  0  0
    8.8121   40.1850   34.2131 O   0  0  0  0  0  0  0  0  0  0  0  0
   11.2404   40.7941   33.3690 O   0  0  0  0  0  0  0  0  0  0  0  0
   10.9144   40.6898   31.9972 C   0  0  0  0  0  0  0  0  0  0  0  0
   11.5261   39.3885   31.4376 C   0  0  0  0  0  0  0  0  0  0  0  0
   12.7504   39.0888   32.0816 O   0  0  0  0  0  0  0  0  0  0  0  0
   10.6115   38.1910   31.6460 C   0  0  0  0  0  0  0  0  0  0  0  0
   12.9357   37.6812   32.0303 C   0  0  0  0  0  0  0  0  0  0  0  0
    9.6146   38.0859   30.6534 O   0  0  0  0  0  0  0  0  0  0  0  0
   11.5769   37.0148   31.7012 C   0  0  0  0  0  0  0  0  0  0  0  0
   13.4849   37.2112   33.3247 N   0  0  0  0  0  0  0  0  0  0  0  0
   11.6193   36.3261   30.4724 O   0  0  0  0  0  0  0  0  0  0  0  0
   14.4802   36.3313   33.5730 C   0  0  0  0  0  0  0  0  0  0  0  0
   13.1141   37.6268   34.5698 C   0  0  0  0  0  0  0  0  0  0  0  0
   15.2075   35.6151   32.6741 N   0  0  0  0  0  0  0  0  0  0  0  0
   14.6761   36.2300   34.9184 C   0  0  0  0  0  0  0  0  0  0  0  0
   13.8220   37.0445   35.5789 N   0  0  0  0  0  0  0  0  0  0  0  0
   16.1642   34.7600   33.1547 C   0  0  0  0  0  0  0  0  0  0  0  0
   15.6529   35.3503   35.4131 C   0  0  0  0  0  0  0  0  0  0  0  0
   16.3797   34.6314   34.5042 N   0  0  0  0  0  0  0  0  0  0  0  0
   15.9004   35.1930   36.8090 N   0  0  0  0  0  0  0  0  0  0  0  0
    9.0121   45.4317   33.6712 H   0  0  0  0  0  0  0  0  0  0  0  0
   11.8906   45.7658   32.9468 H   0  0  0  0  0  0  0  0  0  0  0  0
   10.7259   46.9687   33.1212 H   0  0  0  0  0  0  0  0  0  0  0  0
    9.3415   43.8328   31.4761 H   0  0  0  0  0  0  0  0  0  0  0  0
   10.7230   44.8813   31.1555 H   0  0  0  0  0  0  0  0  0  0  0  0
    7.0082   44.7172   31.5819 H   0  0  0  0  0  0  0  0  0  0  0  0
   10.3466   47.1864   30.4143 H   0  0  0  0  0  0  0  0  0  0  0  0
    5.4622   46.3071   30.5017 H   0  0  0  0  0  0  0  0  0  0  0  0
    8.8156   48.7695   29.3603 H   0  0  0  0  0  0  0  0  0  0  0  0
    5.4976   50.2172   28.2120 H   0  0  0  0  0  0  0  0  0  0  0  0
    7.0926   50.3269   28.9827 H   0  0  0  0  0  0  0  0  0  0  0  0
    8.7801   50.4846   27.3325 H   0  0  0  0  0  0  0  0  0  0  0  0
    6.6179   47.0342   24.4492 H   0  0  0  0  0  0  0  0  0  0  0  0
   10.3257   49.5863   22.9245 H   0  0  0  0  0  0  0  0  0  0  0  0
   11.1743   48.2762   23.8751 H   0  0  0  0  0  0  0  0  0  0  0  0
   11.3779   41.5526   31.4726 H   0  0  0  0  0  0  0  0  0  0  0  0
    9.8233   40.7192   31.7646 H   0  0  0  0  0  0  0  0  0  0  0  0
   11.7283   39.5312   30.3515 H   0  0  0  0  0  0  0  0  0  0  0  0
   10.1127   38.2734   32.6376 H   0  0  0  0  0  0  0  0  0  0  0  0
   13.6692   37.4566   31.2242 H   0  0  0  0  0  0  0  0  0  0  0  0
   10.0533   38.1118   29.7636 H   0  0  0  0  0  0  0  0  0  0  0  0
   11.2607   36.3148   32.5102 H   0  0  0  0  0  0  0  0  0  0  0  0
   12.1496   35.5023   30.6324 H   0  0  0  0  0  0  0  0  0  0  0  0
   12.3301   38.3524   34.7455 H   0  0  0  0  0  0  0  0  0  0  0  0
   16.7562   34.1781   32.4619 H   0  0  0  0  0  0  0  0  0  0  0  0
   16.6351   34.5298   37.1416 H   0  0  0  0  0  0  0  0  0  0  0  0
   15.3536   35.7357   37.5139 H   0  0  0  0  0  0  0  0  0  0  0  0
  1  2  2  0
  1  3  1  0
  3  4  1  0
  4  5  1  0
  6  1  1  0
  7  6  1  0
  6  8  1  0
  8  9  1  0
  9 10  2  0
 11  9  1  0
 10 12  1  0
 13 11  2  0
 12 14  2  0
 14 13  1  0
 14 15  1  0
 15 16  1  0
 16 17  1  0
 17 18  2  0
 19 17  1  0
 18 20  1  0
 21 19  2  0
 19 22  1  0
 20 23  1  0
 20 24  2  0
 24 21  1  0
 22 25  1  0
 22 26  2  0
 23 27  1  0
 24 28  1  0
 27 28  1  0
  4 29  2  0
  4 30  1  0
 31 30  1  0
 31 32  1  0
 32 33  1  0
 32 34  1  0
 33 35  1  0
 34 36  1  0
 34 37  1  0
 37 35  1  0
 35 38  1  0
 37 39  1  0
 40 38  1  0
 41 38  1  0
 42 40  2  0
 40 43  1  0
 44 41  2  0
 45 42  1  0
 43 46  2  0
 43 44  1  0
 47 45  2  0
 47 46  1  0
 46 48  1  0
  6 49  1  1
  7 50  1  0
  7 51  1  0
  8 52  1  0
  8 53  1  0
 10 54  1  0
 11 55  1  0
 12 56  1  0
 13 57  1  0
 16 58  1  0
 16 59  1  0
 18 60  1  0
 21 61  1  0
 27 62  1  0
 27 63  1  0
 31 64  1  0
 31 65  1  0
 32 66  1  0
 34 67  1  0
 35 68  1  0
 36 69  1  0
 37 70  1  0
 39 71  1  0
 41 72  1  0
 45 73  1  0
 48 74  1  0
 48 75  1  0
M  CHG  3   5  -1  22   1  25  -1
M  END
>  <EmbedRMS>  (45) 
0.0816381489366

$$$$

     RDKit          3D

 75 80  0  0  0  0  0  0  0  0999 V2000
   10.2836   43.7661   33.8257 C   0  0  0  0  0  0  0  0  0  0  0  0
   11.4103   43.5930   34.3753 O   0  0  0  0  0  0  0  0  0  0  0  0
    9.3641   42.7253   33.7347 O   0  0  0  0  0  0  0  0  0  0  0  0
    9.8908   41.2265   34.2938 P   0  0  0  0  0  0  0  0  0  0  0  0
   10.3733   41.4559   35.8835 O   0  0  0  0  0  0  0  0  0  0  0  0
    9.9546   45.0695   33.2038 C   0  0  1  0  0  0  0  0  0  0  0  0
   11.0273   46.0322   33.4758 N   0  0  0  0  0  0  0  0  0  0  0  0
    9.7465   44.8482   31.6879 C   0  0  0  0  0  0  0  0  0  0  0  0
    8.7922   45.8411   31.0850 C   0  0  0  0  0  0  0  0  0  0  0  0
    7.4055   45.6012   31.0993 C   0  0  0  0  0  0  0  0  0  0  0  0
    9.2818   46.9873   30.4415 C   0  0  0  0  0  0  0  0  0  0  0  0
    6.5245   46.5010   30.4839 C   0  0  0  0  0  0  0  0  0  0  0  0
    8.4009   47.8873   29.8310 C   0  0  0  0  0  0  0  0  0  0  0  0
    7.0189   47.6577   29.8476 C   0  0  0  0  0  0  0  0  0  0  0  0
    6.1827   48.5964   29.2225 O   0  0  0  0  0  0  0  0  0  0  0  0
    4.7560   48.6056   29.2878 C   0  0  0  0  0  0  0  0  0  0  0  0
    4.2813   48.9462   30.6818 C   0  0  0  0  0  0  0  0  0  0  0  0
    3.3841   48.0587   31.3214 C   0  0  0  0  0  0  0  0  0  0  0  0
    4.7417   50.1122   31.3823 C   0  0  0  0  0  0  0  0  0  0  0  0
    2.9976   48.3338   32.6261 C   0  0  0  0  0  0  0  0  0  0  0  0
    4.3224   50.3308   32.7150 C   0  0  0  0  0  0  0  0  0  0  0  0
    5.6342   51.0644   30.7758 N   0  0  0  0  0  0  0  0  0  0  0  0
    2.1479   47.6106   33.4409 O   0  0  0  0  0  0  0  0  0  0  0  0
    3.4494   49.4196   33.2945 C   0  0  0  0  0  0  0  0  0  0  0  0
    6.5002   51.7897   31.5613 O   0  0  0  0  0  0  0  0  0  0  0  0
    5.5212   51.3685   29.5710 O   0  0  0  0  0  0  0  0  0  0  0  0
    2.0613   48.2880   34.7019 C   0  0  0  0  0  0  0  0  0  0  0  0
    2.9075   49.4378   34.5653 O   0  0  0  0  0  0  0  0  0  0  0  0
    8.8126   40.1848   34.2122 O   0  0  0  0  0  0  0  0  0  0  0  0
   11.2420   40.7941   33.3696 O   0  0  0  0  0  0  0  0  0  0  0  0
   10.9186   40.6911   31.9970 C   0  0  0  0  0  0  0  0  0  0  0  0
   11.5172   39.3814   31.4407 C   0  0  0  0  0  0  0  0  0  0  0  0
   12.7493   39.0856   32.0729 O   0  0  0  0  0  0  0  0  0  0  0  0
   10.6024   38.1907   31.6665 C   0  0  0  0  0  0  0  0  0  0  0  0
   12.9320   37.6781   32.0281 C   0  0  0  0  0  0  0  0  0  0  0  0
    9.6392   38.0797   30.6452 O   0  0  0  0  0  0  0  0  0  0  0  0
   11.5716   37.0165   31.7056 C   0  0  0  0  0  0  0  0  0  0  0  0
   13.4847   37.2122   33.3235 N   0  0  0  0  0  0  0  0  0  0  0  0
   11.6188   36.3383   30.4694 O   0  0  0  0  0  0  0  0  0  0  0  0
   14.4801   36.3321   33.5724 C   0  0  0  0  0  0  0  0  0  0  0  0
   13.1137   37.6276   34.5688 C   0  0  0  0  0  0  0  0  0  0  0  0
   15.2073   35.6154   32.6737 N   0  0  0  0  0  0  0  0  0  0  0  0
   14.6758   36.2307   34.9179 C   0  0  0  0  0  0  0  0  0  0  0  0
   13.8216   37.0452   35.5780 N   0  0  0  0  0  0  0  0  0  0  0  0
   16.1640   34.7602   33.1545 C   0  0  0  0  0  0  0  0  0  0  0  0
   15.6526   35.3508   35.4129 C   0  0  0  0  0  0  0  0  0  0  0  0
   16.3795   34.6318   34.5040 N   0  0  0  0  0  0  0  0  0  0  0  0
   15.8999   35.1933   36.8089 N   0  0  0  0  0  0  0  0  0  0  0  0
    9.0120   45.4316   33.6717 H   0  0  0  0  0  0  0  0  0  0  0  0
   10.7258   46.9688   33.1215 H   0  0  0  0  0  0  0  0  0  0  0  0
   11.8905   45.7659   32.9471 H   0  0  0  0  0  0  0  0  0  0  0  0
   10.7229   44.8818   31.1559 H   0  0  0  0  0  0  0  0  0  0  0  0
    9.3415   43.8331   31.4762 H   0  0  0  0  0  0  0  0  0  0  0  0
    7.0096   44.7148   31.5797 H   0  0  0  0  0  0  0  0  0  0  0  0
   10.3462   47.1852   30.4094 H   0  0  0  0  0  0  0  0  0  0  0  0
    5.4676   46.2808   30.5039 H   0  0  0  0  0  0  0  0  0  0  0  0
    8.7943   48.7695   29.3419 H   0  0  0  0  0  0  0  0  0  0  0  0
    4.3691   49.3674   28.5805 H   0  0  0  0  0  0  0  0  0  0  0  0
    4.3587   47.6287   28.9364 H   0  0  0  0  0  0  0  0  0  0  0  0
    3.0103   47.1727   30.8240 H   0  0  0  0  0  0  0  0  0  0  0  0
    4.6527   51.1946   33.2772 H   0  0  0  0  0  0  0  0  0  0  0  0
    1.0150   48.6033   34.8975 H   0  0  0  0  0  0  0  0  0  0  0  0
    2.4344   47.6324   35.5165 H   0  0  0  0  0  0  0  0  0  0  0  0
   11.3968   41.5459   31.4727 H   0  0  0  0  0  0  0  0  0  0  0  0
    9.8298   40.7409   31.7613 H   0  0  0  0  0  0  0  0  0  0  0  0
   11.6976   39.5066   30.3481 H   0  0  0  0  0  0  0  0  0  0  0  0
   10.1078   38.2647   32.6646 H   0  0  0  0  0  0  0  0  0  0  0  0
   13.6623   37.4469   31.2210 H   0  0  0  0  0  0  0  0  0  0  0  0
    8.8972   38.6939   30.8834 H   0  0  0  0  0  0  0  0  0  0  0  0
   11.2807   36.3073   32.5170 H   0  0  0  0  0  0  0  0  0  0  0  0
   10.8494   35.7110   30.4584 H   0  0  0  0  0  0  0  0  0  0  0  0
   12.3288   38.3522   34.7446 H   0  0  0  0  0  0  0  0  0  0  0  0
   16.7560   34.1781   32.4618 H   0  0  0  0  0  0  0  0  0  0  0  0
   16.6346   34.5301   37.1414 H   0  0  0  0  0  0  0  0  0  0  0  0
   15.3533   35.7363   37.5138 H   0  0  0  0  0  0  0  0  0  0  0  0
  1  2  2  0
  1  3  1  0
  3  4  1  0
  4  5  1  0
  6  1  1  0
  7  6  1  0
  6  8  1  0
  8  9  1  0
  9 10  2  0
 11  9  1  0
 10 12  1  0
 13 11  2  0
 12 14  2  0
 14 13  1  0
 14 15  1  0
 15 16  1  0
 16 17  1  0
 17 18  2  0
 19 17  1  0
 18 20  1  0
 21 19  2  0
 19 22  1  0
 20 23  1  0
 20 24  2  0
 24 21  1  0
 22 25  1  0
 22 26  2  0
 23 27  1  0
 24 28  1  0
 27 28  1  0
  4 29  2  0
  4 30  1  0
 31 30  1  0
 31 32  1  0
 32 33  1  0
 32 34  1  0
 33 35  1  0
 34 36  1  0
 34 37  1  0
 37 35  1  0
 35 38  1  0
 37 39  1  0
 40 38  1  0
 41 38  1  0
 42 40  2  0
 40 43  1  0
 44 41  2  0
 45 42  1  0
 43 46  2  0
 43 44  1  0
 47 45  2  0
 47 46  1  0
 46 48  1  0
  6 49  1  1
  7 50  1  0
  7 51  1  0
  8 52  1  0
  8 53  1  0
 10 54  1  0
 11 55  1  0
 12 56  1  0
 13 57  1  0
 16 58  1  0
 16 59  1  0
 18 60  1  0
 21 61  1  0
 27 62  1  0
 27 63  1  0
 31 64  1  0
 31 65  1  0
 32 66  1  0
 34 67  1  0
 35 68  1  0
 36 69  1  0
 37 70  1  0
 39 71  1  0
 41 72  1  0
 45 73  1  0
 48 74  1  0
 48 75  1  0
M  CHG  3   5  -1  22   1  25  -1
M  END
>  <EmbedRMS>  (46) 
0.0829156742936

$$$$

     RDKit          3D

 75 80  0  0  0  0  0  0  0  0999 V2000
   10.2804   43.7663   33.8251 C   0  0  0  0  0  0  0  0  0  0  0  0
   11.4109   43.5920   34.3672 O   0  0  0  0  0  0  0  0  0  0  0  0
    9.3621   42.7247   33.7344 O   0  0  0  0  0  0  0  0  0  0  0  0
    9.8906   41.2264   34.2936 P   0  0  0  0  0  0  0  0  0  0  0  0
   10.3732   41.4563   35.8831 O   0  0  0  0  0  0  0  0  0  0  0  0
    9.9461   45.0735   33.2111 C   0  0  1  0  0  0  0  0  0  0  0  0
   11.0268   46.0290   33.4708 N   0  0  0  0  0  0  0  0  0  0  0  0
    9.7541   44.8541   31.6947 C   0  0  0  0  0  0  0  0  0  0  0  0
    8.7958   45.8412   31.0848 C   0  0  0  0  0  0  0  0  0  0  0  0
    7.4089   45.6010   31.1031 C   0  0  0  0  0  0  0  0  0  0  0  0
    9.2822   46.9886   30.4405 C   0  0  0  0  0  0  0  0  0  0  0  0
    6.5260   46.5000   30.4888 C   0  0  0  0  0  0  0  0  0  0  0  0
    8.3994   47.8877   29.8313 C   0  0  0  0  0  0  0  0  0  0  0  0
    7.0186   47.6512   29.8414 C   0  0  0  0  0  0  0  0  0  0  0  0
    6.1815   48.5759   29.1968 O   0  0  0  0  0  0  0  0  0  0  0  0
    4.7808   48.4071   28.9739 C   0  0  0  0  0  0  0  0  0  0  0  0
    4.5184   47.2869   27.9935 C   0  0  0  0  0  0  0  0  0  0  0  0
    3.6269   46.2566   28.3741 C   0  0  0  0  0  0  0  0  0  0  0  0
    5.1770   47.2167   26.7209 C   0  0  0  0  0  0  0  0  0  0  0  0
    3.4409   45.1879   27.5078 C   0  0  0  0  0  0  0  0  0  0  0  0
    4.9558   46.0959   25.8860 C   0  0  0  0  0  0  0  0  0  0  0  0
    6.0718   48.2506   26.2733 N   0  0  0  0  0  0  0  0  0  0  0  0
    2.6377   44.0765   27.6752 O   0  0  0  0  0  0  0  0  0  0  0  0
    4.0797   45.1090   26.3182 C   0  0  0  0  0  0  0  0  0  0  0  0
    5.7854   49.5756   26.5048 O   0  0  0  0  0  0  0  0  0  0  0  0
    7.0332   47.9665   25.5292 O   0  0  0  0  0  0  0  0  0  0  0  0
    2.7829   43.2469   26.5146 C   0  0  0  0  0  0  0  0  0  0  0  0
    3.7116   43.9440   25.6733 O   0  0  0  0  0  0  0  0  0  0  0  0
    8.8133   40.1839   34.2122 O   0  0  0  0  0  0  0  0  0  0  0  0
   11.2421   40.7947   33.3694 O   0  0  0  0  0  0  0  0  0  0  0  0
   10.9185   40.6911   31.9969 C   0  0  0  0  0  0  0  0  0  0  0  0
   11.5171   39.3815   31.4407 C   0  0  0  0  0  0  0  0  0  0  0  0
   12.7492   39.0857   32.0729 O   0  0  0  0  0  0  0  0  0  0  0  0
   10.6022   38.1908   31.6664 C   0  0  0  0  0  0  0  0  0  0  0  0
   12.9318   37.6782   32.0282 C   0  0  0  0  0  0  0  0  0  0  0  0
    9.6393   38.0797   30.6450 O   0  0  0  0  0  0  0  0  0  0  0  0
   11.5715   37.0167   31.7055 C   0  0  0  0  0  0  0  0  0  0  0  0
   13.4847   37.2123   33.3236 N   0  0  0  0  0  0  0  0  0  0  0  0
   11.6186   36.3384   30.4694 O   0  0  0  0  0  0  0  0  0  0  0  0
   14.4800   36.3321   33.5723 C   0  0  0  0  0  0  0  0  0  0  0  0
   13.1137   37.6276   34.5688 C   0  0  0  0  0  0  0  0  0  0  0  0
   15.2073   35.6154   32.6737 N   0  0  0  0  0  0  0  0  0  0  0  0
   14.6757   36.2307   34.9179 C   0  0  0  0  0  0  0  0  0  0  0  0
   13.8215   37.0451   35.5781 N   0  0  0  0  0  0  0  0  0  0  0  0
   16.1640   34.7602   33.1545 C   0  0  0  0  0  0  0  0  0  0  0  0
   15.6525   35.3507   35.4129 C   0  0  0  0  0  0  0  0  0  0  0  0
   16.3794   34.6317   34.5040 N   0  0  0  0  0  0  0  0  0  0  0  0
   15.8998   35.1934   36.8088 N   0  0  0  0  0  0  0  0  0  0  0  0
    8.9997   45.4383   33.6719 H   0  0  0  0  0  0  0  0  0  0  0  0
   10.7765   46.9368   33.0161 H   0  0  0  0  0  0  0  0  0  0  0  0
   11.0504   46.2274   34.4982 H   0  0  0  0  0  0  0  0  0  0  0  0
   10.7412   44.9083   31.1833 H   0  0  0  0  0  0  0  0  0  0  0  0
    9.3648   43.8353   31.4707 H   0  0  0  0  0  0  0  0  0  0  0  0
    7.0147   44.7184   31.5919 H   0  0  0  0  0  0  0  0  0  0  0  0
   10.3459   47.1890   30.4066 H   0  0  0  0  0  0  0  0  0  0  0  0
    5.4675   46.2913   30.5317 H   0  0  0  0  0  0  0  0  0  0  0  0
    8.7916   48.7676   29.3371 H   0  0  0  0  0  0  0  0  0  0  0  0
    4.3665   49.3496   28.5620 H   0  0  0  0  0  0  0  0  0  0  0  0
    4.2664   48.2414   29.9454 H   0  0  0  0  0  0  0  0  0  0  0  0
    3.1079   46.2768   29.3239 H   0  0  0  0  0  0  0  0  0  0  0  0
    5.4402   46.0050   24.9224 H   0  0  0  0  0  0  0  0  0  0  0  0
    3.1939   42.2557   26.8000 H   0  0  0  0  0  0  0  0  0  0  0  0
    1.8070   43.1352   25.9977 H   0  0  0  0  0  0  0  0  0  0  0  0
   11.3966   41.5459   31.4724 H   0  0  0  0  0  0  0  0  0  0  0  0
    9.8298   40.7409   31.7611 H   0  0  0  0  0  0  0  0  0  0  0  0
   11.6975   39.5068   30.3480 H   0  0  0  0  0  0  0  0  0  0  0  0
   10.1075   38.2648   32.6643 H   0  0  0  0  0  0  0  0  0  0  0  0
   13.6621   37.4469   31.2210 H   0  0  0  0  0  0  0  0  0  0  0  0
    8.8974   38.6942   30.8830 H   0  0  0  0  0  0  0  0  0  0  0  0
   11.2807   36.3076   32.5170 H   0  0  0  0  0  0  0  0  0  0  0  0
   10.8492   35.7111   30.4585 H   0  0  0  0  0  0  0  0  0  0  0  0
   12.3287   38.3521   34.7446 H   0  0  0  0  0  0  0  0  0  0  0  0
   16.7559   34.1781   32.4617 H   0  0  0  0  0  0  0  0  0  0  0  0
   15.3531   35.7363   37.5137 H   0  0  0  0  0  0  0  0  0  0  0  0
   16.6343   34.5302   37.1416 H   0  0  0  0  0  0  0  0  0  0  0  0
  1  2  2  0
  1  3  1  0
  3  4  1  0
  4  5  1  0
  6  1  1  0
  7  6  1  0
  6  8  1  0
  8  9  1  0
  9 10  2  0
 11  9  1  0
 10 12  1  0
 13 11  2  0
 12 14  2  0
 14 13  1  0
 14 15  1  0
 15 16  1  0
 16 17  1  0
 17 18  2  0
 19 17  1  0
 18 20  1  0
 21 19  2  0
 19 22  1  0
 20 23  1  0
 20 24  2  0
 24 21  1  0
 22 25  1  0
 22 26  2  0
 23 27  1  0
 24 28  1  0
 27 28  1  0
  4 29  2  0
  4 30  1  0
 31 30  1  0
 31 32  1  0
 32 33  1  0
 32 34  1  0
 33 35  1  0
 34 36  1  0
 34 37  1  0
 37 35  1  0
 35 38  1  0
 37 39  1  0
 40 38  1  0
 41 38  1  0
 42 40  2  0
 40 43  1  0
 44 41  2  0
 45 42  1  0
 43 46  2  0
 43 44  1  0
 47 45  2  0
 47 46  1  0
 46 48  1  0
  6 49  1  1
  7 50  1  0
  7 51  1  0
  8 52  1  0
  8 53  1  0
 10 54  1  0
 11 55  1  0
 12 56  1  0
 13 57  1  0
 16 58  1  0
 16 59  1  0
 18 60  1  0
 21 61  1  0
 27 62  1  0
 27 63  1  0
 31 64  1  0
 31 65  1  0
 32 66  1  0
 34 67  1  0
 35 68  1  0
 36 69  1  0
 37 70  1  0
 39 71  1  0
 41 72  1  0
 45 73  1  0
 48 74  1  0
 48 75  1  0
M  CHG  3   5  -1  22   1  25  -1
M  END
>  <EmbedRMS>  (47) 
0.0827775185186

$$$$

     RDKit          3D

 75 80  0  0  0  0  0  0  0  0999 V2000
   10.2835   43.7662   33.8257 C   0  0  0  0  0  0  0  0  0  0  0  0
   11.4102   43.5931   34.3752 O   0  0  0  0  0  0  0  0  0  0  0  0
    9.3638   42.7255   33.7349 O   0  0  0  0  0  0  0  0  0  0  0  0
    9.8907   41.2266   34.2933 P   0  0  0  0  0  0  0  0  0  0  0  0
   10.3743   41.4557   35.8828 O   0  0  0  0  0  0  0  0  0  0  0  0
    9.9546   45.0695   33.2037 C   0  0  1  0  0  0  0  0  0  0  0  0
   11.0272   46.0323   33.4757 N   0  0  0  0  0  0  0  0  0  0  0  0
    9.7465   44.8481   31.6878 C   0  0  0  0  0  0  0  0  0  0  0  0
    8.7922   45.8409   31.0847 C   0  0  0  0  0  0  0  0  0  0  0  0
    7.4055   45.6011   31.0983 C   0  0  0  0  0  0  0  0  0  0  0  0
    9.2823   46.9874   30.4418 C   0  0  0  0  0  0  0  0  0  0  0  0
    6.5268   46.5026   30.4827 C   0  0  0  0  0  0  0  0  0  0  0  0
    8.4033   47.8891   29.8306 C   0  0  0  0  0  0  0  0  0  0  0  0
    7.0140   47.6546   29.8501 C   0  0  0  0  0  0  0  0  0  0  0  0
    6.0884   48.5293   29.2592 O   0  0  0  0  0  0  0  0  0  0  0  0
    6.3950   49.8162   28.7207 C   0  0  0  0  0  0  0  0  0  0  0  0
    6.7895   50.7810   29.8152 C   0  0  0  0  0  0  0  0  0  0  0  0
    8.0161   51.4750   29.6898 C   0  0  0  0  0  0  0  0  0  0  0  0
    5.9832   50.9772   30.9856 C   0  0  0  0  0  0  0  0  0  0  0  0
    8.4140   52.3092   30.7259 C   0  0  0  0  0  0  0  0  0  0  0  0
    6.4484   51.8310   32.0137 C   0  0  0  0  0  0  0  0  0  0  0  0
    4.7156   50.3168   31.1515 N   0  0  0  0  0  0  0  0  0  0  0  0
    9.5638   53.0689   30.8236 O   0  0  0  0  0  0  0  0  0  0  0  0
    7.6653   52.4770   31.8400 C   0  0  0  0  0  0  0  0  0  0  0  0
    3.8525   50.1774   30.0898 O   0  0  0  0  0  0  0  0  0  0  0  0
    4.3152   50.0101   32.2935 O   0  0  0  0  0  0  0  0  0  0  0  0
    9.5330   53.7582   32.0809 C   0  0  0  0  0  0  0  0  0  0  0  0
    8.3036   53.3520   32.6978 O   0  0  0  0  0  0  0  0  0  0  0  0
    8.8123   40.1851   34.2127 O   0  0  0  0  0  0  0  0  0  0  0  0
   11.2407   40.7945   33.3670 O   0  0  0  0  0  0  0  0  0  0  0  0
   10.9134   40.6866   31.9954 C   0  0  0  0  0  0  0  0  0  0  0  0
   11.5167   39.3787   31.4404 C   0  0  0  0  0  0  0  0  0  0  0  0
   12.7486   39.0849   32.0735 O   0  0  0  0  0  0  0  0  0  0  0  0
   10.6039   38.1884   31.6669 C   0  0  0  0  0  0  0  0  0  0  0  0
   12.9329   37.6776   32.0284 C   0  0  0  0  0  0  0  0  0  0  0  0
    9.6374   38.0938   30.6484 O   0  0  0  0  0  0  0  0  0  0  0  0
   11.5737   37.0141   31.7055 C   0  0  0  0  0  0  0  0  0  0  0  0
   13.4853   37.2120   33.3238 N   0  0  0  0  0  0  0  0  0  0  0  0
   11.6210   36.3379   30.4683 O   0  0  0  0  0  0  0  0  0  0  0  0
   14.4804   36.3319   33.5726 C   0  0  0  0  0  0  0  0  0  0  0  0
   13.1141   37.6275   34.5689 C   0  0  0  0  0  0  0  0  0  0  0  0
   15.2075   35.6152   32.6740 N   0  0  0  0  0  0  0  0  0  0  0  0
   14.6761   36.2306   34.9181 C   0  0  0  0  0  0  0  0  0  0  0  0
   13.8218   37.0451   35.5783 N   0  0  0  0  0  0  0  0  0  0  0  0
   16.1642   34.7600   33.1548 C   0  0  0  0  0  0  0  0  0  0  0  0
   15.6527   35.3507   35.4131 C   0  0  0  0  0  0  0  0  0  0  0  0
   16.3795   34.6315   34.5043 N   0  0  0  0  0  0  0  0  0  0  0  0
   15.9001   35.1933   36.8090 N   0  0  0  0  0  0  0  0  0  0  0  0
    9.0120   45.4318   33.6716 H   0  0  0  0  0  0  0  0  0  0  0  0
   11.8905   45.7661   32.9469 H   0  0  0  0  0  0  0  0  0  0  0  0
   10.7257   46.9689   33.1214 H   0  0  0  0  0  0  0  0  0  0  0  0
    9.3412   43.8330   31.4765 H   0  0  0  0  0  0  0  0  0  0  0  0
   10.7228   44.8814   31.1558 H   0  0  0  0  0  0  0  0  0  0  0  0
    7.0082   44.7163   31.5802 H   0  0  0  0  0  0  0  0  0  0  0  0
   10.3471   47.1830   30.4086 H   0  0  0  0  0  0  0  0  0  0  0  0
    5.4621   46.3076   30.5022 H   0  0  0  0  0  0  0  0  0  0  0  0
    8.8175   48.7564   29.3382 H   0  0  0  0  0  0  0  0  0  0  0  0
    7.1847   49.7180   27.9446 H   0  0  0  0  0  0  0  0  0  0  0  0
    5.4988   50.2105   28.2000 H   0  0  0  0  0  0  0  0  0  0  0  0
    8.6493   51.3564   28.8196 H   0  0  0  0  0  0  0  0  0  0  0  0
    5.8706   51.9985   32.9136 H   0  0  0  0  0  0  0  0  0  0  0  0
    9.5351   54.8562   31.9171 H   0  0  0  0  0  0  0  0  0  0  0  0
   10.3961   53.4514   32.7082 H   0  0  0  0  0  0  0  0  0  0  0  0
   11.3828   41.5438   31.4669 H   0  0  0  0  0  0  0  0  0  0  0  0
    9.8225   40.7225   31.7631 H   0  0  0  0  0  0  0  0  0  0  0  0
   11.6979   39.5037   30.3478 H   0  0  0  0  0  0  0  0  0  0  0  0
   10.1084   38.2787   32.6627 H   0  0  0  0  0  0  0  0  0  0  0  0
   13.6638   37.4472   31.2214 H   0  0  0  0  0  0  0  0  0  0  0  0
    8.9763   37.4191   30.9532 H   0  0  0  0  0  0  0  0  0  0  0  0
   11.2821   36.3054   32.5171 H   0  0  0  0  0  0  0  0  0  0  0  0
   10.8658   35.6935   30.4652 H   0  0  0  0  0  0  0  0  0  0  0  0
   12.3293   38.3523   34.7444 H   0  0  0  0  0  0  0  0  0  0  0  0
   16.7561   34.1778   32.4621 H   0  0  0  0  0  0  0  0  0  0  0  0
   16.6345   34.5300   37.1416 H   0  0  0  0  0  0  0  0  0  0  0  0
   15.3533   35.7361   37.5139 H   0  0  0  0  0  0  0  0  0  0  0  0
  1  2  2  0
  1  3  1  0
  3  4  1  0
  4  5  1  0
  6  1  1  0
  7  6  1  0
  6  8  1  0
  8  9  1  0
  9 10  2  0
 11  9  1  0
 10 12  1  0
 13 11  2  0
 12 14  2  0
 14 13  1  0
 14 15  1  0
 15 16  1  0
 16 17  1  0
 17 18  2  0
 19 17  1  0
 18 20  1  0
 21 19  2  0
 19 22  1  0
 20 23  1  0
 20 24  2  0
 24 21  1  0
 22 25  1  0
 22 26  2  0
 23 27  1  0
 24 28  1  0
 27 28  1  0
  4 29  2  0
  4 30  1  0
 31 30  1  0
 31 32  1  0
 32 33  1  0
 32 34  1  0
 33 35  1  0
 34 36  1  0
 34 37  1  0
 37 35  1  0
 35 38  1  0
 37 39  1  0
 40 38  1  0
 41 38  1  0
 42 40  2  0
 40 43  1  0
 44 41  2  0
 45 42  1  0
 43 46  2  0
 43 44  1  0
 47 45  2  0
 47 46  1  0
 46 48  1  0
  6 49  1  1
  7 50  1  0
  7 51  1  0
  8 52  1  0
  8 53  1  0
 10 54  1  0
 11 55  1  0
 12 56  1  0
 13 57  1  0
 16 58  1  0
 16 59  1  0
 18 60  1  0
 21 61  1  0
 27 62  1  0
 27 63  1  0
 31 64  1  0
 31 65  1  0
 32 66  1  0
 34 67  1  0
 35 68  1  0
 36 69  1  0
 37 70  1  0
 39 71  1  0
 41 72  1  0
 45 73  1  0
 48 74  1  0
 48 75  1  0
M  CHG  3   5  -1  22   1  25  -1
M  END
>  <EmbedRMS>  (48) 
0.0825593575391

$$$$

     RDKit          3D

 75 80  0  0  0  0  0  0  0  0999 V2000
   10.2805   43.7663   33.8249 C   0  0  0  0  0  0  0  0  0  0  0  0
   11.4111   43.5918   34.3667 O   0  0  0  0  0  0  0  0  0  0  0  0
    9.3621   42.7248   33.7343 O   0  0  0  0  0  0  0  0  0  0  0  0
    9.8903   41.2264   34.2936 P   0  0  0  0  0  0  0  0  0  0  0  0
   10.3732   41.4564   35.8831 O   0  0  0  0  0  0  0  0  0  0  0  0
    9.9460   45.0736   33.2112 C   0  0  1  0  0  0  0  0  0  0  0  0
   11.0267   46.0292   33.4709 N   0  0  0  0  0  0  0  0  0  0  0  0
    9.7540   44.8542   31.6948 C   0  0  0  0  0  0  0  0  0  0  0  0
    8.7956   45.8412   31.0848 C   0  0  0  0  0  0  0  0  0  0  0  0
    7.4087   45.5999   31.1011 C   0  0  0  0  0  0  0  0  0  0  0  0
    9.2824   46.9881   30.4395 C   0  0  0  0  0  0  0  0  0  0  0  0
    6.5256   46.4989   30.4864 C   0  0  0  0  0  0  0  0  0  0  0  0
    8.3998   47.8877   29.8308 C   0  0  0  0  0  0  0  0  0  0  0  0
    7.0186   47.6543   29.8466 C   0  0  0  0  0  0  0  0  0  0  0  0
    6.1780   48.5864   29.2213 O   0  0  0  0  0  0  0  0  0  0  0  0
    4.7564   48.4892   29.1769 C   0  0  0  0  0  0  0  0  0  0  0  0
    4.1892   49.6943   28.4700 C   0  0  0  0  0  0  0  0  0  0  0  0
    3.4059   49.4865   27.3097 C   0  0  0  0  0  0  0  0  0  0  0  0
    4.4543   51.0350   28.9133 C   0  0  0  0  0  0  0  0  0  0  0  0
    2.9259   50.5960   26.6268 C   0  0  0  0  0  0  0  0  0  0  0  0
    3.9479   52.1243   28.1664 C   0  0  0  0  0  0  0  0  0  0  0  0
    5.2412   51.3122   30.0870 N   0  0  0  0  0  0  0  0  0  0  0  0
    2.1526   50.6319   25.4823 O   0  0  0  0  0  0  0  0  0  0  0  0
    3.1872   51.8586   27.0355 C   0  0  0  0  0  0  0  0  0  0  0  0
    5.9509   52.4878   30.1749 O   0  0  0  0  0  0  0  0  0  0  0  0
    5.1667   50.5824   31.0963 O   0  0  0  0  0  0  0  0  0  0  0  0
    1.9131   52.0071   25.1533 C   0  0  0  0  0  0  0  0  0  0  0  0
    2.5915   52.7565   26.1706 O   0  0  0  0  0  0  0  0  0  0  0  0
    8.8128   40.1841   34.2125 O   0  0  0  0  0  0  0  0  0  0  0  0
   11.2416   40.7945   33.3692 O   0  0  0  0  0  0  0  0  0  0  0  0
   10.9178   40.6904   31.9968 C   0  0  0  0  0  0  0  0  0  0  0  0
   11.5181   39.3813   31.4408 C   0  0  0  0  0  0  0  0  0  0  0  0
   12.7497   39.0870   32.0746 O   0  0  0  0  0  0  0  0  0  0  0  0
   10.6045   38.1891   31.6655 C   0  0  0  0  0  0  0  0  0  0  0  0
   12.9344   37.6801   32.0290 C   0  0  0  0  0  0  0  0  0  0  0  0
    9.6418   38.0758   30.6441 O   0  0  0  0  0  0  0  0  0  0  0  0
   11.5741   37.0170   31.7045 C   0  0  0  0  0  0  0  0  0  0  0  0
   13.4851   37.2126   33.3241 N   0  0  0  0  0  0  0  0  0  0  0  0
   11.6079   36.3407   30.4680 O   0  0  0  0  0  0  0  0  0  0  0  0
   14.4801   36.3321   33.5727 C   0  0  0  0  0  0  0  0  0  0  0  0
   13.1140   37.6277   34.5693 C   0  0  0  0  0  0  0  0  0  0  0  0
   15.2073   35.6155   32.6739 N   0  0  0  0  0  0  0  0  0  0  0  0
   14.6758   36.2306   34.9182 C   0  0  0  0  0  0  0  0  0  0  0  0
   13.8217   37.0450   35.5785 N   0  0  0  0  0  0  0  0  0  0  0  0
   16.1639   34.7602   33.1546 C   0  0  0  0  0  0  0  0  0  0  0  0
   15.6526   35.3506   35.4130 C   0  0  0  0  0  0  0  0  0  0  0  0
   16.3794   34.6316   34.5041 N   0  0  0  0  0  0  0  0  0  0  0  0
   15.9000   35.1933   36.8089 N   0  0  0  0  0  0  0  0  0  0  0  0
    8.9996   45.4381   33.6722 H   0  0  0  0  0  0  0  0  0  0  0  0
   10.7764   46.9369   33.0159 H   0  0  0  0  0  0  0  0  0  0  0  0
   11.0502   46.2276   34.4983 H   0  0  0  0  0  0  0  0  0  0  0  0
   10.7411   44.9080   31.1835 H   0  0  0  0  0  0  0  0  0  0  0  0
    9.3646   43.8354   31.4710 H   0  0  0  0  0  0  0  0  0  0  0  0
    7.0146   44.7150   31.5857 H   0  0  0  0  0  0  0  0  0  0  0  0
   10.3463   47.1879   30.4054 H   0  0  0  0  0  0  0  0  0  0  0  0
    5.4660   46.2852   30.5152 H   0  0  0  0  0  0  0  0  0  0  0  0
    8.7914   48.7700   29.3406 H   0  0  0  0  0  0  0  0  0  0  0  0
    4.3387   48.4319   30.2039 H   0  0  0  0  0  0  0  0  0  0  0  0
    4.4757   47.5516   28.6488 H   0  0  0  0  0  0  0  0  0  0  0  0
    3.1845   48.4921   26.9430 H   0  0  0  0  0  0  0  0  0  0  0  0
    4.1290   53.1483   28.4663 H   0  0  0  0  0  0  0  0  0  0  0  0
    2.3387   52.2430   24.1555 H   0  0  0  0  0  0  0  0  0  0  0  0
    0.8246   52.2242   25.1791 H   0  0  0  0  0  0  0  0  0  0  0  0
    9.8289   40.7385   31.7615 H   0  0  0  0  0  0  0  0  0  0  0  0
   11.3944   41.5458   31.4719 H   0  0  0  0  0  0  0  0  0  0  0  0
   11.6994   39.5068   30.3484 H   0  0  0  0  0  0  0  0  0  0  0  0
   10.1090   38.2634   32.6632 H   0  0  0  0  0  0  0  0  0  0  0  0
   13.6662   37.4515   31.2224 H   0  0  0  0  0  0  0  0  0  0  0  0
    8.9008   38.6923   30.8794 H   0  0  0  0  0  0  0  0  0  0  0  0
   11.2650   36.3083   32.5087 H   0  0  0  0  0  0  0  0  0  0  0  0
   12.1372   35.5141   30.6163 H   0  0  0  0  0  0  0  0  0  0  0  0
   12.3297   38.3530   34.7450 H   0  0  0  0  0  0  0  0  0  0  0  0
   16.7558   34.1781   32.4619 H   0  0  0  0  0  0  0  0  0  0  0  0
   16.6346   34.5300   37.1414 H   0  0  0  0  0  0  0  0  0  0  0  0
   15.3533   35.7360   37.5138 H   0  0  0  0  0  0  0  0  0  0  0  0
  1  2  2  0
  1  3  1  0
  3  4  1  0
  4  5  1  0
  6  1  1  0
  7  6  1  0
  6  8  1  0
  8  9  1  0
  9 10  2  0
 11  9  1  0
 10 12  1  0
 13 11  2  0
 12 14  2  0
 14 13  1  0
 14 15  1  0
 15 16  1  0
 16 17  1  0
 17 18  2  0
 19 17  1  0
 18 20  1  0
 21 19  2  0
 19 22  1  0
 20 23  1  0
 20 24  2  0
 24 21  1  0
 22 25  1  0
 22 26  2  0
 23 27  1  0
 24 28  1  0
 27 28  1  0
  4 29  2  0
  4 30  1  0
 31 30  1  0
 31 32  1  0
 32 33  1  0
 32 34  1  0
 33 35  1  0
 34 36  1  0
 34 37  1  0
 37 35  1  0
 35 38  1  0
 37 39  1  0
 40 38  1  0
 41 38  1  0
 42 40  2  0
 40 43  1  0
 44 41  2  0
 45 42  1  0
 43 46  2  0
 43 44  1  0
 47 45  2  0
 47 46  1  0
 46 48  1  0
  6 49  1  1
  7 50  1  0
  7 51  1  0
  8 52  1  0
  8 53  1  0
 10 54  1  0
 11 55  1  0
 12 56  1  0
 13 57  1  0
 16 58  1  0
 16 59  1  0
 18 60  1  0
 21 61  1  0
 27 62  1  0
 27 63  1  0
 31 64  1  0
 31 65  1  0
 32 66  1  0
 34 67  1  0
 35 68  1  0
 36 69  1  0
 37 70  1  0
 39 71  1  0
 41 72  1  0
 45 73  1  0
 48 74  1  0
 48 75  1  0
M  CHG  3   5  -1  22   1  25  -1
M  END
>  <EmbedRMS>  (49) 
0.0826442784249

$$$$

     RDKit          3D

 75 80  0  0  0  0  0  0  0  0999 V2000
   10.2834   43.7662   33.8257 C   0  0  0  0  0  0  0  0  0  0  0  0
   11.4102   43.5930   34.3752 O   0  0  0  0  0  0  0  0  0  0  0  0
    9.3637   42.7255   33.7349 O   0  0  0  0  0  0  0  0  0  0  0  0
    9.8905   41.2266   34.2934 P   0  0  0  0  0  0  0  0  0  0  0  0
   10.3744   41.4557   35.8827 O   0  0  0  0  0  0  0  0  0  0  0  0
    9.9546   45.0695   33.2036 C   0  0  1  0  0  0  0  0  0  0  0  0
   11.0274   46.0321   33.4757 N   0  0  0  0  0  0  0  0  0  0  0  0
    9.7466   44.8481   31.6877 C   0  0  0  0  0  0  0  0  0  0  0  0
    8.7923   45.8409   31.0844 C   0  0  0  0  0  0  0  0  0  0  0  0
    7.4054   45.6015   31.0991 C   0  0  0  0  0  0  0  0  0  0  0  0
    9.2824   46.9880   30.4422 C   0  0  0  0  0  0  0  0  0  0  0  0
    6.5263   46.5031   30.4839 C   0  0  0  0  0  0  0  0  0  0  0  0
    8.4032   47.8902   29.8315 C   0  0  0  0  0  0  0  0  0  0  0  0
    7.0143   47.6527   29.8475 C   0  0  0  0  0  0  0  0  0  0  0  0
    6.0935   48.5243   29.2480 O   0  0  0  0  0  0  0  0  0  0  0  0
    6.4454   49.7259   28.5647 C   0  0  0  0  0  0  0  0  0  0  0  0
    5.2016   50.3753   28.0093 C   0  0  0  0  0  0  0  0  0  0  0  0
    4.3128   49.5724   27.2559 C   0  0  0  0  0  0  0  0  0  0  0  0
    4.8791   51.7530   28.2429 C   0  0  0  0  0  0  0  0  0  0  0  0
    3.1267   50.1388   26.8072 C   0  0  0  0  0  0  0  0  0  0  0  0
    3.6487   52.2696   27.7774 C   0  0  0  0  0  0  0  0  0  0  0  0
    5.7879   52.6405   28.9116 N   0  0  0  0  0  0  0  0  0  0  0  0
    2.1149   49.5475   26.0754 O   0  0  0  0  0  0  0  0  0  0  0  0
    2.8057   51.4284   27.0626 C   0  0  0  0  0  0  0  0  0  0  0  0
    5.2965   53.6209   29.7423 O   0  0  0  0  0  0  0  0  0  0  0  0
    6.9821   52.6984   28.5531 O   0  0  0  0  0  0  0  0  0  0  0  0
    1.0938   50.5308   25.8575 C   0  0  0  0  0  0  0  0  0  0  0  0
    1.5754   51.7171   26.5039 O   0  0  0  0  0  0  0  0  0  0  0  0
    8.8122   40.1850   34.2128 O   0  0  0  0  0  0  0  0  0  0  0  0
   11.2403   40.7946   33.3668 O   0  0  0  0  0  0  0  0  0  0  0  0
   10.9126   40.6859   31.9954 C   0  0  0  0  0  0  0  0  0  0  0  0
   11.5175   39.3787   31.4405 C   0  0  0  0  0  0  0  0  0  0  0  0
   12.7490   39.0864   32.0752 O   0  0  0  0  0  0  0  0  0  0  0  0
   10.6061   38.1868   31.6656 C   0  0  0  0  0  0  0  0  0  0  0  0
   12.9356   37.6796   32.0292 C   0  0  0  0  0  0  0  0  0  0  0  0
    9.6399   38.0903   30.6471 O   0  0  0  0  0  0  0  0  0  0  0  0
   11.5765   37.0145   31.7044 C   0  0  0  0  0  0  0  0  0  0  0  0
   13.4858   37.2125   33.3244 N   0  0  0  0  0  0  0  0  0  0  0  0
   11.6101   36.3397   30.4673 O   0  0  0  0  0  0  0  0  0  0  0  0
   14.4805   36.3319   33.5729 C   0  0  0  0  0  0  0  0  0  0  0  0
   13.1143   37.6276   34.5694 C   0  0  0  0  0  0  0  0  0  0  0  0
   15.2076   35.6153   32.6741 N   0  0  0  0  0  0  0  0  0  0  0  0
   14.6760   36.2304   34.9184 C   0  0  0  0  0  0  0  0  0  0  0  0
   13.8219   37.0449   35.5786 N   0  0  0  0  0  0  0  0  0  0  0  0
   16.1641   34.7600   33.1548 C   0  0  0  0  0  0  0  0  0  0  0  0
   15.6528   35.3505   35.4132 C   0  0  0  0  0  0  0  0  0  0  0  0
   16.3795   34.6314   34.5043 N   0  0  0  0  0  0  0  0  0  0  0  0
   15.9002   35.1932   36.8091 N   0  0  0  0  0  0  0  0  0  0  0  0
    9.0121   45.4318   33.6715 H   0  0  0  0  0  0  0  0  0  0  0  0
   11.8906   45.7658   32.9470 H   0  0  0  0  0  0  0  0  0  0  0  0
   10.7260   46.9687   33.1214 H   0  0  0  0  0  0  0  0  0  0  0  0
    9.3414   43.8330   31.4763 H   0  0  0  0  0  0  0  0  0  0  0  0
   10.7230   44.8814   31.1557 H   0  0  0  0  0  0  0  0  0  0  0  0
    7.0083   44.7167   31.5812 H   0  0  0  0  0  0  0  0  0  0  0  0
   10.3471   47.1849   30.4115 H   0  0  0  0  0  0  0  0  0  0  0  0
    5.4617   46.3071   30.5017 H   0  0  0  0  0  0  0  0  0  0  0  0
    8.8142   48.7655   29.3475 H   0  0  0  0  0  0  0  0  0  0  0  0
    7.1255   49.4866   27.7190 H   0  0  0  0  0  0  0  0  0  0  0  0
    6.9743   50.3876   29.2784 H   0  0  0  0  0  0  0  0  0  0  0  0
    4.5310   48.5327   27.0453 H   0  0  0  0  0  0  0  0  0  0  0  0
    3.3731   53.3034   27.9414 H   0  0  0  0  0  0  0  0  0  0  0  0
    0.1396   50.2027   26.3204 H   0  0  0  0  0  0  0  0  0  0  0  0
    0.9623   50.7134   24.7703 H   0  0  0  0  0  0  0  0  0  0  0  0
    9.8215   40.7200   31.7636 H   0  0  0  0  0  0  0  0  0  0  0  0
   11.3803   41.5437   31.4664 H   0  0  0  0  0  0  0  0  0  0  0  0
   11.6999   39.5041   30.3482 H   0  0  0  0  0  0  0  0  0  0  0  0
   10.1085   38.2766   32.6603 H   0  0  0  0  0  0  0  0  0  0  0  0
   13.6680   37.4520   31.2229 H   0  0  0  0  0  0  0  0  0  0  0  0
    9.0016   37.3868   30.9349 H   0  0  0  0  0  0  0  0  0  0  0  0
   11.2666   36.3062   32.5083 H   0  0  0  0  0  0  0  0  0  0  0  0
   12.1389   35.5126   30.6150 H   0  0  0  0  0  0  0  0  0  0  0  0
   12.3300   38.3529   34.7449 H   0  0  0  0  0  0  0  0  0  0  0  0
   16.7560   34.1779   32.4621 H   0  0  0  0  0  0  0  0  0  0  0  0
   15.3534   35.7359   37.5140 H   0  0  0  0  0  0  0  0  0  0  0  0
   16.6347   34.5298   37.1416 H   0  0  0  0  0  0  0  0  0  0  0  0
  1  2  2  0
  1  3  1  0
  3  4  1  0
  4  5  1  0
  6  1  1  0
  7  6  1  0
  6  8  1  0
  8  9  1  0
  9 10  2  0
 11  9  1  0
 10 12  1  0
 13 11  2  0
 12 14  2  0
 14 13  1  0
 14 15  1  0
 15 16  1  0
 16 17  1  0
 17 18  2  0
 19 17  1  0
 18 20  1  0
 21 19  2  0
 19 22  1  0
 20 23  1  0
 20 24  2  0
 24 21  1  0
 22 25  1  0
 22 26  2  0
 23 27  1  0
 24 28  1  0
 27 28  1  0
  4 29  2  0
  4 30  1  0
 31 30  1  0
 31 32  1  0
 32 33  1  0
 32 34  1  0
 33 35  1  0
 34 36  1  0
 34 37  1  0
 37 35  1  0
 35 38  1  0
 37 39  1  0
 40 38  1  0
 41 38  1  0
 42 40  2  0
 40 43  1  0
 44 41  2  0
 45 42  1  0
 43 46  2  0
 43 44  1  0
 47 45  2  0
 47 46  1  0
 46 48  1  0
  6 49  1  1
  7 50  1  0
  7 51  1  0
  8 52  1  0
  8 53  1  0
 10 54  1  0
 11 55  1  0
 12 56  1  0
 13 57  1  0
 16 58  1  0
 16 59  1  0
 18 60  1  0
 21 61  1  0
 27 62  1  0
 27 63  1  0
 31 64  1  0
 31 65  1  0
 32 66  1  0
 34 67  1  0
 35 68  1  0
 36 69  1  0
 37 70  1  0
 39 71  1  0
 41 72  1  0
 45 73  1  0
 48 74  1  0
 48 75  1  0
M  CHG  3   5  -1  22   1  25  -1
M  END
>  <EmbedRMS>  (50) 
0.0823970431222

$$$$

     RDKit          3D

 75 80  0  0  0  0  0  0  0  0999 V2000
   10.2834   43.7662   33.8256 C   0  0  0  0  0  0  0  0  0  0  0  0
   11.4101   43.5931   34.3752 O   0  0  0  0  0  0  0  0  0  0  0  0
    9.3637   42.7255   33.7348 O   0  0  0  0  0  0  0  0  0  0  0  0
    9.8906   41.2265   34.2933 P   0  0  0  0  0  0  0  0  0  0  0  0
   10.3743   41.4557   35.8827 O   0  0  0  0  0  0  0  0  0  0  0  0
    9.9546   45.0694   33.2033 C   0  0  1  0  0  0  0  0  0  0  0  0
   11.0273   46.0321   33.4755 N   0  0  0  0  0  0  0  0  0  0  0  0
    9.7468   44.8478   31.6873 C   0  0  0  0  0  0  0  0  0  0  0  0
    8.7925   45.8400   31.0833 C   0  0  0  0  0  0  0  0  0  0  0  0
    7.4056   45.6019   31.1000 C   0  0  0  0  0  0  0  0  0  0  0  0
    9.2819   46.9881   30.4431 C   0  0  0  0  0  0  0  0  0  0  0  0
    6.5269   46.5046   30.4863 C   0  0  0  0  0  0  0  0  0  0  0  0
    8.4025   47.8910   29.8339 C   0  0  0  0  0  0  0  0  0  0  0  0
    7.0147   47.6507   29.8431 C   0  0  0  0  0  0  0  0  0  0  0  0
    6.0881   48.5173   29.2425 O   0  0  0  0  0  0  0  0  0  0  0  0
    6.3918   49.5348   28.2872 C   0  0  0  0  0  0  0  0  0  0  0  0
    6.7748   48.9272   26.9577 C   0  0  0  0  0  0  0  0  0  0  0  0
    8.1259   49.0113   26.5440 C   0  0  0  0  0  0  0  0  0  0  0  0
    5.8066   48.3224   26.0853 C   0  0  0  0  0  0  0  0  0  0  0  0
    8.4780   48.4777   25.3120 C   0  0  0  0  0  0  0  0  0  0  0  0
    6.2272   47.8059   24.8361 C   0  0  0  0  0  0  0  0  0  0  0  0
    4.4061   48.2673   26.4174 N   0  0  0  0  0  0  0  0  0  0  0  0
    9.7243   48.4405   24.7168 O   0  0  0  0  0  0  0  0  0  0  0  0
    7.5695   47.8989   24.4951 C   0  0  0  0  0  0  0  0  0  0  0  0
    3.9903   47.9991   27.6998 O   0  0  0  0  0  0  0  0  0  0  0  0
    3.5491   48.3105   25.5104 O   0  0  0  0  0  0  0  0  0  0  0  0
    9.5875   47.7929   23.4446 C   0  0  0  0  0  0  0  0  0  0  0  0
    8.1953   47.4641   23.3426 O   0  0  0  0  0  0  0  0  0  0  0  0
    8.8123   40.1851   34.2127 O   0  0  0  0  0  0  0  0  0  0  0  0
   11.2407   40.7945   33.3670 O   0  0  0  0  0  0  0  0  0  0  0  0
   10.9134   40.6866   31.9954 C   0  0  0  0  0  0  0  0  0  0  0  0
   11.5167   39.3787   31.4404 C   0  0  0  0  0  0  0  0  0  0  0  0
   12.7486   39.0849   32.0734 O   0  0  0  0  0  0  0  0  0  0  0  0
   10.6039   38.1884   31.6669 C   0  0  0  0  0  0  0  0  0  0  0  0
   12.9329   37.6776   32.0284 C   0  0  0  0  0  0  0  0  0  0  0  0
    9.6374   38.0938   30.6484 O   0  0  0  0  0  0  0  0  0  0  0  0
   11.5737   37.0141   31.7055 C   0  0  0  0  0  0  0  0  0  0  0  0
   13.4853   37.2120   33.3238 N   0  0  0  0  0  0  0  0  0  0  0  0
   11.6210   36.3379   30.4683 O   0  0  0  0  0  0  0  0  0  0  0  0
   14.4804   36.3319   33.5726 C   0  0  0  0  0  0  0  0  0  0  0  0
   13.1140   37.6274   34.5689 C   0  0  0  0  0  0  0  0  0  0  0  0
   15.2076   35.6152   32.6740 N   0  0  0  0  0  0  0  0  0  0  0  0
   14.6761   36.2306   34.9181 C   0  0  0  0  0  0  0  0  0  0  0  0
   13.8218   37.0451   35.5783 N   0  0  0  0  0  0  0  0  0  0  0  0
   16.1642   34.7600   33.1548 C   0  0  0  0  0  0  0  0  0  0  0  0
   15.6527   35.3507   35.4131 C   0  0  0  0  0  0  0  0  0  0  0  0
   16.3795   34.6315   34.5043 N   0  0  0  0  0  0  0  0  0  0  0  0
   15.9000   35.1933   36.8090 N   0  0  0  0  0  0  0  0  0  0  0  0
    9.0119   45.4317   33.6709 H   0  0  0  0  0  0  0  0  0  0  0  0
   10.7258   46.9688   33.1213 H   0  0  0  0  0  0  0  0  0  0  0  0
   11.8905   45.7659   32.9468 H   0  0  0  0  0  0  0  0  0  0  0  0
   10.7233   44.8814   31.1554 H   0  0  0  0  0  0  0  0  0  0  0  0
    9.3420   43.8325   31.4759 H   0  0  0  0  0  0  0  0  0  0  0  0
    7.0082   44.7178   31.5831 H   0  0  0  0  0  0  0  0  0  0  0  0
   10.3460   47.1890   30.4186 H   0  0  0  0  0  0  0  0  0  0  0  0
    5.4623   46.3087   30.5045 H   0  0  0  0  0  0  0  0  0  0  0  0
    8.8143   48.7777   29.3788 H   0  0  0  0  0  0  0  0  0  0  0  0
    5.4965   50.1757   28.1462 H   0  0  0  0  0  0  0  0  0  0  0  0
    7.1845   50.2047   28.6832 H   0  0  0  0  0  0  0  0  0  0  0  0
    8.8806   49.4888   27.1542 H   0  0  0  0  0  0  0  0  0  0  0  0
    5.5278   47.3422   24.1523 H   0  0  0  0  0  0  0  0  0  0  0  0
    9.8784   48.4860   22.6275 H   0  0  0  0  0  0  0  0  0  0  0  0
   10.2025   46.8691   23.4157 H   0  0  0  0  0  0  0  0  0  0  0  0
    9.8225   40.7225   31.7631 H   0  0  0  0  0  0  0  0  0  0  0  0
   11.3827   41.5438   31.4669 H   0  0  0  0  0  0  0  0  0  0  0  0
   11.6979   39.5037   30.3478 H   0  0  0  0  0  0  0  0  0  0  0  0
   10.1084   38.2787   32.6626 H   0  0  0  0  0  0  0  0  0  0  0  0
   13.6638   37.4472   31.2214 H   0  0  0  0  0  0  0  0  0  0  0  0
    8.9763   37.4191   30.9532 H   0  0  0  0  0  0  0  0  0  0  0  0
   11.2821   36.3054   32.5172 H   0  0  0  0  0  0  0  0  0  0  0  0
   10.8658   35.6935   30.4652 H   0  0  0  0  0  0  0  0  0  0  0  0
   12.3293   38.3522   34.7445 H   0  0  0  0  0  0  0  0  0  0  0  0
   16.7561   34.1778   32.4621 H   0  0  0  0  0  0  0  0  0  0  0  0
   16.6345   34.5300   37.1416 H   0  0  0  0  0  0  0  0  0  0  0  0
   15.3533   35.7361   37.5138 H   0  0  0  0  0  0  0  0  0  0  0  0
  1  2  2  0
  1  3  1  0
  3  4  1  0
  4  5  1  0
  6  1  1  0
  7  6  1  0
  6  8  1  0
  8  9  1  0
  9 10  2  0
 11  9  1  0
 10 12  1  0
 13 11  2  0
 12 14  2  0
 14 13  1  0
 14 15  1  0
 15 16  1  0
 16 17  1  0
 17 18  2  0
 19 17  1  0
 18 20  1  0
 21 19  2  0
 19 22  1  0
 20 23  1  0
 20 24  2  0
 24 21  1  0
 22 25  1  0
 22 26  2  0
 23 27  1  0
 24 28  1  0
 27 28  1  0
  4 29  2  0
  4 30  1  0
 31 30  1  0
 31 32  1  0
 32 33  1  0
 32 34  1  0
 33 35  1  0
 34 36  1  0
 34 37  1  0
 37 35  1  0
 35 38  1  0
 37 39  1  0
 40 38  1  0
 41 38  1  0
 42 40  2  0
 40 43  1  0
 44 41  2  0
 45 42  1  0
 43 46  2  0
 43 44  1  0
 47 45  2  0
 47 46  1  0
 46 48  1  0
  6 49  1  1
  7 50  1  0
  7 51  1  0
  8 52  1  0
  8 53  1  0
 10 54  1  0
 11 55  1  0
 12 56  1  0
 13 57  1  0
 16 58  1  0
 16 59  1  0
 18 60  1  0
 21 61  1  0
 27 62  1  0
 27 63  1  0
 31 64  1  0
 31 65  1  0
 32 66  1  0
 34 67  1  0
 35 68  1  0
 36 69  1  0
 37 70  1  0
 39 71  1  0
 41 72  1  0
 45 73  1  0
 48 74  1  0
 48 75  1  0
M  CHG  3   5  -1  22   1  25  -1
M  END
>  <EmbedRMS>  (51) 
0.0825922585737

$$$$

     RDKit          3D

 75 80  0  0  0  0  0  0  0  0999 V2000
   10.2835   43.7662   33.8258 C   0  0  0  0  0  0  0  0  0  0  0  0
   11.4103   43.5930   34.3753 O   0  0  0  0  0  0  0  0  0  0  0  0
    9.3637   42.7255   33.7350 O   0  0  0  0  0  0  0  0  0  0  0  0
    9.8902   41.2267   34.2942 P   0  0  0  0  0  0  0  0  0  0  0  0
   10.3736   41.4560   35.8836 O   0  0  0  0  0  0  0  0  0  0  0  0
    9.9547   45.0695   33.2039 C   0  0  1  0  0  0  0  0  0  0  0  0
   11.0274   46.0323   33.4758 N   0  0  0  0  0  0  0  0  0  0  0  0
    9.7464   44.8482   31.6880 C   0  0  0  0  0  0  0  0  0  0  0  0
    8.7921   45.8413   31.0854 C   0  0  0  0  0  0  0  0  0  0  0  0
    7.4056   45.6010   31.0981 C   0  0  0  0  0  0  0  0  0  0  0  0
    9.2820   46.9871   30.4414 C   0  0  0  0  0  0  0  0  0  0  0  0
    6.5272   46.5021   30.4816 C   0  0  0  0  0  0  0  0  0  0  0  0
    8.4030   47.8884   29.8295 C   0  0  0  0  0  0  0  0  0  0  0  0
    7.0140   47.6558   29.8515 C   0  0  0  0  0  0  0  0  0  0  0  0
    6.0871   48.5274   29.2585 O   0  0  0  0  0  0  0  0  0  0  0  0
    6.3479   49.8700   28.8460 C   0  0  0  0  0  0  0  0  0  0  0  0
    6.5427   50.7738   30.0423 C   0  0  0  0  0  0  0  0  0  0  0  0
    7.8357   51.2995   30.2791 C   0  0  0  0  0  0  0  0  0  0  0  0
    5.4576   51.1529   30.9077 C   0  0  0  0  0  0  0  0  0  0  0  0
    8.0211   52.1460   31.3629 C   0  0  0  0  0  0  0  0  0  0  0  0
    5.7113   52.0283   31.9904 C   0  0  0  0  0  0  0  0  0  0  0  0
    4.1020   50.7153   30.6871 N   0  0  0  0  0  0  0  0  0  0  0  0
    9.1851   52.7601   31.7836 O   0  0  0  0  0  0  0  0  0  0  0  0
    7.0048   52.4932   32.1834 C   0  0  0  0  0  0  0  0  0  0  0  0
    3.0527   51.4849   31.1351 O   0  0  0  0  0  0  0  0  0  0  0  0
    3.8533   49.5867   30.2187 O   0  0  0  0  0  0  0  0  0  0  0  0
    8.8775   53.5413   32.9462 C   0  0  0  0  0  0  0  0  0  0  0  0
    7.4743   53.3431   33.1664 O   0  0  0  0  0  0  0  0  0  0  0  0
    8.8121   40.1850   34.2131 O   0  0  0  0  0  0  0  0  0  0  0  0
   11.2404   40.7941   33.3690 O   0  0  0  0  0  0  0  0  0  0  0  0
   10.9143   40.6898   31.9972 C   0  0  0  0  0  0  0  0  0  0  0  0
   11.5261   39.3885   31.4376 C   0  0  0  0  0  0  0  0  0  0  0  0
   12.7504   39.0888   32.0816 O   0  0  0  0  0  0  0  0  0  0  0  0
   10.6115   38.1910   31.6460 C   0  0  0  0  0  0  0  0  0  0  0  0
   12.9357   37.6812   32.0303 C   0  0  0  0  0  0  0  0  0  0  0  0
    9.6146   38.0859   30.6533 O   0  0  0  0  0  0  0  0  0  0  0  0
   11.5769   37.0148   31.7012 C   0  0  0  0  0  0  0  0  0  0  0  0
   13.4849   37.2112   33.3247 N   0  0  0  0  0  0  0  0  0  0  0  0
   11.6193   36.3261   30.4724 O   0  0  0  0  0  0  0  0  0  0  0  0
   14.4802   36.3313   33.5730 C   0  0  0  0  0  0  0  0  0  0  0  0
   13.1141   37.6268   34.5698 C   0  0  0  0  0  0  0  0  0  0  0  0
   15.2075   35.6151   32.6741 N   0  0  0  0  0  0  0  0  0  0  0  0
   14.6761   36.2300   34.9184 C   0  0  0  0  0  0  0  0  0  0  0  0
   13.8220   37.0445   35.5789 N   0  0  0  0  0  0  0  0  0  0  0  0
   16.1642   34.7600   33.1547 C   0  0  0  0  0  0  0  0  0  0  0  0
   15.6529   35.3503   35.4131 C   0  0  0  0  0  0  0  0  0  0  0  0
   16.3798   34.6314   34.5042 N   0  0  0  0  0  0  0  0  0  0  0  0
   15.9004   35.1930   36.8090 N   0  0  0  0  0  0  0  0  0  0  0  0
    9.0121   45.4318   33.6719 H   0  0  0  0  0  0  0  0  0  0  0  0
   10.7259   46.9688   33.1214 H   0  0  0  0  0  0  0  0  0  0  0  0
   11.8906   45.7659   32.9471 H   0  0  0  0  0  0  0  0  0  0  0  0
    9.3411   43.8332   31.4766 H   0  0  0  0  0  0  0  0  0  0  0  0
   10.7227   44.8815   31.1559 H   0  0  0  0  0  0  0  0  0  0  0  0
    7.0083   44.7158   31.5792 H   0  0  0  0  0  0  0  0  0  0  0  0
   10.3471   47.1806   30.4045 H   0  0  0  0  0  0  0  0  0  0  0  0
    5.4626   46.3063   30.4999 H   0  0  0  0  0  0  0  0  0  0  0  0
    8.8190   48.7451   29.3237 H   0  0  0  0  0  0  0  0  0  0  0  0
    7.2209   49.8918   28.1592 H   0  0  0  0  0  0  0  0  0  0  0  0
    5.4858   50.2395   28.2522 H   0  0  0  0  0  0  0  0  0  0  0  0
    8.6728   51.0674   29.6342 H   0  0  0  0  0  0  0  0  0  0  0  0
    4.9235   52.3357   32.6658 H   0  0  0  0  0  0  0  0  0  0  0  0
    9.4577   53.1756   33.8192 H   0  0  0  0  0  0  0  0  0  0  0  0
    9.0875   54.6144   32.7545 H   0  0  0  0  0  0  0  0  0  0  0  0
    9.8233   40.7191   31.7647 H   0  0  0  0  0  0  0  0  0  0  0  0
   11.3779   41.5526   31.4727 H   0  0  0  0  0  0  0  0  0  0  0  0
   11.7283   39.5312   30.3515 H   0  0  0  0  0  0  0  0  0  0  0  0
   10.1127   38.2734   32.6376 H   0  0  0  0  0  0  0  0  0  0  0  0
   13.6692   37.4566   31.2242 H   0  0  0  0  0  0  0  0  0  0  0  0
   10.0533   38.1118   29.7635 H   0  0  0  0  0  0  0  0  0  0  0  0
   11.2607   36.3148   32.5102 H   0  0  0  0  0  0  0  0  0  0  0  0
   12.1496   35.5023   30.6324 H   0  0  0  0  0  0  0  0  0  0  0  0
   12.3301   38.3524   34.7455 H   0  0  0  0  0  0  0  0  0  0  0  0
   16.7563   34.1781   32.4619 H   0  0  0  0  0  0  0  0  0  0  0  0
   16.6351   34.5298   37.1415 H   0  0  0  0  0  0  0  0  0  0  0  0
   15.3536   35.7357   37.5139 H   0  0  0  0  0  0  0  0  0  0  0  0
  1  2  2  0
  1  3  1  0
  3  4  1  0
  4  5  1  0
  6  1  1  0
  7  6  1  0
  6  8  1  0
  8  9  1  0
  9 10  2  0
 11  9  1  0
 10 12  1  0
 13 11  2  0
 12 14  2  0
 14 13  1  0
 14 15  1  0
 15 16  1  0
 16 17  1  0
 17 18  2  0
 19 17  1  0
 18 20  1  0
 21 19  2  0
 19 22  1  0
 20 23  1  0
 20 24  2  0
 24 21  1  0
 22 25  1  0
 22 26  2  0
 23 27  1  0
 24 28  1  0
 27 28  1  0
  4 29  2  0
  4 30  1  0
 31 30  1  0
 31 32  1  0
 32 33  1  0
 32 34  1  0
 33 35  1  0
 34 36  1  0
 34 37  1  0
 37 35  1  0
 35 38  1  0
 37 39  1  0
 40 38  1  0
 41 38  1  0
 42 40  2  0
 40 43  1  0
 44 41  2  0
 45 42  1  0
 43 46  2  0
 43 44  1  0
 47 45  2  0
 47 46  1  0
 46 48  1  0
  6 49  1  1
  7 50  1  0
  7 51  1  0
  8 52  1  0
  8 53  1  0
 10 54  1  0
 11 55  1  0
 12 56  1  0
 13 57  1  0
 16 58  1  0
 16 59  1  0
 18 60  1  0
 21 61  1  0
 27 62  1  0
 27 63  1  0
 31 64  1  0
 31 65  1  0
 32 66  1  0
 34 67  1  0
 35 68  1  0
 36 69  1  0
 37 70  1  0
 39 71  1  0
 41 72  1  0
 45 73  1  0
 48 74  1  0
 48 75  1  0
M  CHG  3   5  -1  22   1  25  -1
M  END
>  <EmbedRMS>  (52) 
0.0816173087712

$$$$

     RDKit          3D

 75 80  0  0  0  0  0  0  0  0999 V2000
   10.2804   43.7664   33.8249 C   0  0  0  0  0  0  0  0  0  0  0  0
   11.4111   43.5918   34.3666 O   0  0  0  0  0  0  0  0  0  0  0  0
    9.3619   42.7249   33.7344 O   0  0  0  0  0  0  0  0  0  0  0  0
    9.8899   41.2266   34.2940 P   0  0  0  0  0  0  0  0  0  0  0  0
   10.3734   41.4567   35.8833 O   0  0  0  0  0  0  0  0  0  0  0  0
    9.9460   45.0736   33.2111 C   0  0  1  0  0  0  0  0  0  0  0  0
   11.0267   46.0291   33.4708 N   0  0  0  0  0  0  0  0  0  0  0  0
    9.7540   44.8541   31.6948 C   0  0  0  0  0  0  0  0  0  0  0  0
    8.7957   45.8412   31.0848 C   0  0  0  0  0  0  0  0  0  0  0  0
    7.4089   45.6002   31.1013 C   0  0  0  0  0  0  0  0  0  0  0  0
    9.2823   46.9881   30.4399 C   0  0  0  0  0  0  0  0  0  0  0  0
    6.5263   46.4995   30.4868 C   0  0  0  0  0  0  0  0  0  0  0  0
    8.3994   47.8875   29.8312 C   0  0  0  0  0  0  0  0  0  0  0  0
    7.0181   47.6538   29.8455 C   0  0  0  0  0  0  0  0  0  0  0  0
    6.1800   48.5854   29.2119 O   0  0  0  0  0  0  0  0  0  0  0  0
    4.7588   48.4820   29.0994 C   0  0  0  0  0  0  0  0  0  0  0  0
    4.3544   47.3519   28.1777 C   0  0  0  0  0  0  0  0  0  0  0  0
    5.1015   47.1490   26.9922 C   0  0  0  0  0  0  0  0  0  0  0  0
    3.1827   46.5604   28.4119 C   0  0  0  0  0  0  0  0  0  0  0  0
    4.6869   46.1619   26.1075 C   0  0  0  0  0  0  0  0  0  0  0  0
    2.8006   45.5798   27.4687 C   0  0  0  0  0  0  0  0  0  0  0  0
    2.3600   46.7569   29.5704 N   0  0  0  0  0  0  0  0  0  0  0  0
    5.2621   45.7859   24.9088 O   0  0  0  0  0  0  0  0  0  0  0  0
    3.5855   45.4101   26.3358 C   0  0  0  0  0  0  0  0  0  0  0  0
    2.8897   46.5822   30.8274 O   0  0  0  0  0  0  0  0  0  0  0  0
    1.1196   46.8159   29.4436 O   0  0  0  0  0  0  0  0  0  0  0  0
    4.4709   44.7275   24.3514 C   0  0  0  0  0  0  0  0  0  0  0  0
    3.4102   44.5196   25.2941 O   0  0  0  0  0  0  0  0  0  0  0  0
    8.8123   40.1844   34.2133 O   0  0  0  0  0  0  0  0  0  0  0  0
   11.2405   40.7942   33.3691 O   0  0  0  0  0  0  0  0  0  0  0  0
   10.9150   40.6905   31.9972 C   0  0  0  0  0  0  0  0  0  0  0  0
   11.5252   39.3886   31.4375 C   0  0  0  0  0  0  0  0  0  0  0  0
   12.7499   39.0874   32.0799 O   0  0  0  0  0  0  0  0  0  0  0  0
   10.6092   38.1926   31.6469 C   0  0  0  0  0  0  0  0  0  0  0  0
   12.9332   37.6793   32.0294 C   0  0  0  0  0  0  0  0  0  0  0  0
    9.6121   38.0894   30.6542 O   0  0  0  0  0  0  0  0  0  0  0  0
   11.5743   37.0145   31.7024 C   0  0  0  0  0  0  0  0  0  0  0  0
   13.4844   37.2108   33.3241 N   0  0  0  0  0  0  0  0  0  0  0  0
   11.6297   36.3239   30.4740 O   0  0  0  0  0  0  0  0  0  0  0  0
   14.4802   36.3313   33.5727 C   0  0  0  0  0  0  0  0  0  0  0  0
   13.1138   37.6266   34.5692 C   0  0  0  0  0  0  0  0  0  0  0  0
   15.2075   35.6149   32.6739 N   0  0  0  0  0  0  0  0  0  0  0  0
   14.6761   36.2303   34.9182 C   0  0  0  0  0  0  0  0  0  0  0  0
   13.8220   37.0447   35.5785 N   0  0  0  0  0  0  0  0  0  0  0  0
   16.1643   34.7600   33.1547 C   0  0  0  0  0  0  0  0  0  0  0  0
   15.6529   35.3505   35.4130 C   0  0  0  0  0  0  0  0  0  0  0  0
   16.3798   34.6315   34.5042 N   0  0  0  0  0  0  0  0  0  0  0  0
   15.9003   35.1932   36.8090 N   0  0  0  0  0  0  0  0  0  0  0  0
    8.9996   45.4381   33.6721 H   0  0  0  0  0  0  0  0  0  0  0  0
   10.7765   46.9368   33.0159 H   0  0  0  0  0  0  0  0  0  0  0  0
   11.0503   46.2276   34.4982 H   0  0  0  0  0  0  0  0  0  0  0  0
    9.3644   43.8354   31.4710 H   0  0  0  0  0  0  0  0  0  0  0  0
   10.7411   44.9078   31.1834 H   0  0  0  0  0  0  0  0  0  0  0  0
    7.0146   44.7154   31.5858 H   0  0  0  0  0  0  0  0  0  0  0  0
   10.3462   47.1880   30.4054 H   0  0  0  0  0  0  0  0  0  0  0  0
    5.4696   46.2849   30.5167 H   0  0  0  0  0  0  0  0  0  0  0  0
    8.7915   48.7687   29.3393 H   0  0  0  0  0  0  0  0  0  0  0  0
    4.3164   48.4031   30.1103 H   0  0  0  0  0  0  0  0  0  0  0  0
    4.3818   49.4281   28.6583 H   0  0  0  0  0  0  0  0  0  0  0  0
    5.9744   47.7467   26.7622 H   0  0  0  0  0  0  0  0  0  0  0  0
    1.9210   44.9672   27.6197 H   0  0  0  0  0  0  0  0  0  0  0  0
    4.0555   45.0351   23.3689 H   0  0  0  0  0  0  0  0  0  0  0  0
    5.0801   43.8048   24.2506 H   0  0  0  0  0  0  0  0  0  0  0  0
   11.3800   41.5528   31.4730 H   0  0  0  0  0  0  0  0  0  0  0  0
    9.8241   40.7215   31.7641 H   0  0  0  0  0  0  0  0  0  0  0  0
   11.7266   39.5310   30.3513 H   0  0  0  0  0  0  0  0  0  0  0  0
   10.1110   38.2747   32.6387 H   0  0  0  0  0  0  0  0  0  0  0  0
   13.6652   37.4520   31.2226 H   0  0  0  0  0  0  0  0  0  0  0  0
   10.0511   38.1144   29.7645 H   0  0  0  0  0  0  0  0  0  0  0  0
   11.2762   36.3141   32.5189 H   0  0  0  0  0  0  0  0  0  0  0  0
   10.8593   35.6978   30.4640 H   0  0  0  0  0  0  0  0  0  0  0  0
   12.3294   38.3518   34.7450 H   0  0  0  0  0  0  0  0  0  0  0  0
   16.7564   34.1780   32.4620 H   0  0  0  0  0  0  0  0  0  0  0  0
   16.6348   34.5300   37.1416 H   0  0  0  0  0  0  0  0  0  0  0  0
   15.3534   35.7359   37.5138 H   0  0  0  0  0  0  0  0  0  0  0  0
  1  2  2  0
  1  3  1  0
  3  4  1  0
  4  5  1  0
  6  1  1  0
  7  6  1  0
  6  8  1  0
  8  9  1  0
  9 10  2  0
 11  9  1  0
 10 12  1  0
 13 11  2  0
 12 14  2  0
 14 13  1  0
 14 15  1  0
 15 16  1  0
 16 17  1  0
 17 18  2  0
 19 17  1  0
 18 20  1  0
 21 19  2  0
 19 22  1  0
 20 23  1  0
 20 24  2  0
 24 21  1  0
 22 25  1  0
 22 26  2  0
 23 27  1  0
 24 28  1  0
 27 28  1  0
  4 29  2  0
  4 30  1  0
 31 30  1  0
 31 32  1  0
 32 33  1  0
 32 34  1  0
 33 35  1  0
 34 36  1  0
 34 37  1  0
 37 35  1  0
 35 38  1  0
 37 39  1  0
 40 38  1  0
 41 38  1  0
 42 40  2  0
 40 43  1  0
 44 41  2  0
 45 42  1  0
 43 46  2  0
 43 44  1  0
 47 45  2  0
 47 46  1  0
 46 48  1  0
  6 49  1  1
  7 50  1  0
  7 51  1  0
  8 52  1  0
  8 53  1  0
 10 54  1  0
 11 55  1  0
 12 56  1  0
 13 57  1  0
 16 58  1  0
 16 59  1  0
 18 60  1  0
 21 61  1  0
 27 62  1  0
 27 63  1  0
 31 64  1  0
 31 65  1  0
 32 66  1  0
 34 67  1  0
 35 68  1  0
 36 69  1  0
 37 70  1  0
 39 71  1  0
 41 72  1  0
 45 73  1  0
 48 74  1  0
 48 75  1  0
M  CHG  3   5  -1  22   1  25  -1
M  END
>  <EmbedRMS>  (53) 
0.0816341867042

$$$$

     RDKit          3D

 75 80  0  0  0  0  0  0  0  0999 V2000
   10.2834   43.7662   33.8257 C   0  0  0  0  0  0  0  0  0  0  0  0
   11.4102   43.5930   34.3752 O   0  0  0  0  0  0  0  0  0  0  0  0
    9.3635   42.7257   33.7352 O   0  0  0  0  0  0  0  0  0  0  0  0
    9.8899   41.2270   34.2947 P   0  0  0  0  0  0  0  0  0  0  0  0
   10.3732   41.4563   35.8841 O   0  0  0  0  0  0  0  0  0  0  0  0
    9.9548   45.0696   33.2035 C   0  0  1  0  0  0  0  0  0  0  0  0
   11.0274   46.0322   33.4759 N   0  0  0  0  0  0  0  0  0  0  0  0
    9.7471   44.8484   31.6875 C   0  0  0  0  0  0  0  0  0  0  0  0
    8.7924   45.8409   31.0843 C   0  0  0  0  0  0  0  0  0  0  0  0
    7.4055   45.6009   31.0995 C   0  0  0  0  0  0  0  0  0  0  0  0
    9.2818   46.9881   30.4420 C   0  0  0  0  0  0  0  0  0  0  0  0
    6.5241   46.5011   30.4849 C   0  0  0  0  0  0  0  0  0  0  0  0
    8.4006   47.8886   29.8322 C   0  0  0  0  0  0  0  0  0  0  0  0
    7.0190   47.6561   29.8460 C   0  0  0  0  0  0  0  0  0  0  0  0
    6.1798   48.5882   29.2186 O   0  0  0  0  0  0  0  0  0  0  0  0
    4.7578   48.4823   29.1587 C   0  0  0  0  0  0  0  0  0  0  0  0
    4.1403   49.6486   28.4180 C   0  0  0  0  0  0  0  0  0  0  0  0
    4.9161   50.8050   28.1470 C   0  0  0  0  0  0  0  0  0  0  0  0
    2.7767   49.5982   27.9686 C   0  0  0  0  0  0  0  0  0  0  0  0
    4.3354   51.8397   27.4258 C   0  0  0  0  0  0  0  0  0  0  0  0
    2.2477   50.6792   27.2258 C   0  0  0  0  0  0  0  0  0  0  0  0
    1.9258   48.4688   28.2406 N   0  0  0  0  0  0  0  0  0  0  0  0
    4.8990   53.0424   27.0451 O   0  0  0  0  0  0  0  0  0  0  0  0
    3.0599   51.7779   26.9814 C   0  0  0  0  0  0  0  0  0  0  0  0
    0.8959   48.1629   27.3808 O   0  0  0  0  0  0  0  0  0  0  0  0
    1.9975   47.8612   29.3283 O   0  0  0  0  0  0  0  0  0  0  0  0
    3.9115   53.7820   26.3139 C   0  0  0  0  0  0  0  0  0  0  0  0
    2.7522   52.9380   26.2970 O   0  0  0  0  0  0  0  0  0  0  0  0
    8.8120   40.1850   34.2133 O   0  0  0  0  0  0  0  0  0  0  0  0
   11.2403   40.7947   33.3700 O   0  0  0  0  0  0  0  0  0  0  0  0
   10.9144   40.6914   31.9982 C   0  0  0  0  0  0  0  0  0  0  0  0
   11.5270   39.3912   31.4385 C   0  0  0  0  0  0  0  0  0  0  0  0
   12.7520   39.0911   32.0836 O   0  0  0  0  0  0  0  0  0  0  0  0
   10.6113   38.1932   31.6451 C   0  0  0  0  0  0  0  0  0  0  0  0
   12.9413   37.6838   32.0297 C   0  0  0  0  0  0  0  0  0  0  0  0
    9.6064   38.0878   30.6599 O   0  0  0  0  0  0  0  0  0  0  0  0
   11.5822   37.0197   31.6877 C   0  0  0  0  0  0  0  0  0  0  0  0
   13.4840   37.2104   33.3254 N   0  0  0  0  0  0  0  0  0  0  0  0
   11.6179   36.3072   30.4690 O   0  0  0  0  0  0  0  0  0  0  0  0
   14.4797   36.3309   33.5738 C   0  0  0  0  0  0  0  0  0  0  0  0
   13.1136   37.6269   34.5702 C   0  0  0  0  0  0  0  0  0  0  0  0
   15.2074   35.6152   32.6747 N   0  0  0  0  0  0  0  0  0  0  0  0
   14.6756   36.2298   34.9190 C   0  0  0  0  0  0  0  0  0  0  0  0
   13.8217   37.0445   35.5793 N   0  0  0  0  0  0  0  0  0  0  0  0
   16.1643   34.7603   33.1551 C   0  0  0  0  0  0  0  0  0  0  0  0
   15.6528   35.3503   35.4136 C   0  0  0  0  0  0  0  0  0  0  0  0
   16.3798   34.6316   34.5046 N   0  0  0  0  0  0  0  0  0  0  0  0
   15.9004   35.1930   36.8094 N   0  0  0  0  0  0  0  0  0  0  0  0
    9.0121   45.4318   33.6712 H   0  0  0  0  0  0  0  0  0  0  0  0
   11.8908   45.7658   32.9475 H   0  0  0  0  0  0  0  0  0  0  0  0
   10.7262   46.9688   33.1214 H   0  0  0  0  0  0  0  0  0  0  0  0
   10.7235   44.8824   31.1557 H   0  0  0  0  0  0  0  0  0  0  0  0
    9.3425   43.8331   31.4758 H   0  0  0  0  0  0  0  0  0  0  0  0
    7.0099   44.7156   31.5821 H   0  0  0  0  0  0  0  0  0  0  0  0
   10.3461   47.1864   30.4104 H   0  0  0  0  0  0  0  0  0  0  0  0
    5.4642   46.2888   30.5128 H   0  0  0  0  0  0  0  0  0  0  0  0
    8.7936   48.7707   29.3426 H   0  0  0  0  0  0  0  0  0  0  0  0
    4.5011   47.5409   28.6262 H   0  0  0  0  0  0  0  0  0  0  0  0
    4.3475   48.4551   30.1907 H   0  0  0  0  0  0  0  0  0  0  0  0
    5.9411   50.9031   28.4794 H   0  0  0  0  0  0  0  0  0  0  0  0
    1.2269   50.6725   26.8664 H   0  0  0  0  0  0  0  0  0  0  0  0
    3.6834   54.7361   26.8336 H   0  0  0  0  0  0  0  0  0  0  0  0
    4.2627   53.9714   25.2779 H   0  0  0  0  0  0  0  0  0  0  0  0
    9.8235   40.7201   31.7654 H   0  0  0  0  0  0  0  0  0  0  0  0
   11.3777   41.5549   31.4744 H   0  0  0  0  0  0  0  0  0  0  0  0
   11.7311   39.5363   30.3532 H   0  0  0  0  0  0  0  0  0  0  0  0
   10.1203   38.2696   32.6410 H   0  0  0  0  0  0  0  0  0  0  0  0
   13.6850   37.4639   31.2321 H   0  0  0  0  0  0  0  0  0  0  0  0
   10.0251   38.1793   29.7654 H   0  0  0  0  0  0  0  0  0  0  0  0
   11.2757   36.3135   32.4907 H   0  0  0  0  0  0  0  0  0  0  0  0
   11.9838   36.9111   29.7708 H   0  0  0  0  0  0  0  0  0  0  0  0
   12.3307   38.3536   34.7457 H   0  0  0  0  0  0  0  0  0  0  0  0
   16.7566   34.1787   32.4623 H   0  0  0  0  0  0  0  0  0  0  0  0
   15.3535   35.7355   37.5144 H   0  0  0  0  0  0  0  0  0  0  0  0
   16.6353   34.5301   37.1419 H   0  0  0  0  0  0  0  0  0  0  0  0
  1  2  2  0
  1  3  1  0
  3  4  1  0
  4  5  1  0
  6  1  1  0
  7  6  1  0
  6  8  1  0
  8  9  1  0
  9 10  2  0
 11  9  1  0
 10 12  1  0
 13 11  2  0
 12 14  2  0
 14 13  1  0
 14 15  1  0
 15 16  1  0
 16 17  1  0
 17 18  2  0
 19 17  1  0
 18 20  1  0
 21 19  2  0
 19 22  1  0
 20 23  1  0
 20 24  2  0
 24 21  1  0
 22 25  1  0
 22 26  2  0
 23 27  1  0
 24 28  1  0
 27 28  1  0
  4 29  2  0
  4 30  1  0
 31 30  1  0
 31 32  1  0
 32 33  1  0
 32 34  1  0
 33 35  1  0
 34 36  1  0
 34 37  1  0
 37 35  1  0
 35 38  1  0
 37 39  1  0
 40 38  1  0
 41 38  1  0
 42 40  2  0
 40 43  1  0
 44 41  2  0
 45 42  1  0
 43 46  2  0
 43 44  1  0
 47 45  2  0
 47 46  1  0
 46 48  1  0
  6 49  1  1
  7 50  1  0
  7 51  1  0
  8 52  1  0
  8 53  1  0
 10 54  1  0
 11 55  1  0
 12 56  1  0
 13 57  1  0
 16 58  1  0
 16 59  1  0
 18 60  1  0
 21 61  1  0
 27 62  1  0
 27 63  1  0
 31 64  1  0
 31 65  1  0
 32 66  1  0
 34 67  1  0
 35 68  1  0
 36 69  1  0
 37 70  1  0
 39 71  1  0
 41 72  1  0
 45 73  1  0
 48 74  1  0
 48 75  1  0
M  CHG  3   5  -1  22   1  25  -1
M  END
>  <EmbedRMS>  (54) 
0.0808164469289

$$$$

     RDKit          3D

 75 80  0  0  0  0  0  0  0  0999 V2000
   10.2839   43.7626   33.8276 C   0  0  0  0  0  0  0  0  0  0  0  0
   11.4104   43.5864   34.3767 O   0  0  0  0  0  0  0  0  0  0  0  0
    9.3631   42.7236   33.7356 O   0  0  0  0  0  0  0  0  0  0  0  0
    9.8895   41.2249   34.2948 P   0  0  0  0  0  0  0  0  0  0  0  0
   10.3720   41.4547   35.8844 O   0  0  0  0  0  0  0  0  0  0  0  0
    9.9548   45.0699   33.2063 C   0  0  1  0  0  0  0  0  0  0  0  0
   11.0198   46.0480   33.4567 N   0  0  0  0  0  0  0  0  0  0  0  0
    9.7501   44.8507   31.6923 C   0  0  0  0  0  0  0  0  0  0  0  0
    8.7942   45.8416   31.0867 C   0  0  0  0  0  0  0  0  0  0  0  0
    7.4073   45.6012   31.1004 C   0  0  0  0  0  0  0  0  0  0  0  0
    9.2833   46.9892   30.4451 C   0  0  0  0  0  0  0  0  0  0  0  0
    6.5278   46.5023   30.4848 C   0  0  0  0  0  0  0  0  0  0  0  0
    8.4037   47.8903   29.8335 C   0  0  0  0  0  0  0  0  0  0  0  0
    7.0147   47.6509   29.8459 C   0  0  0  0  0  0  0  0  0  0  0  0
    6.0902   48.5179   29.2409 O   0  0  0  0  0  0  0  0  0  0  0  0
    6.4274   49.6740   28.4723 C   0  0  0  0  0  0  0  0  0  0  0  0
    7.0639   49.2797   27.1584 C   0  0  0  0  0  0  0  0  0  0  0  0
    6.4546   48.2511   26.4020 C   0  0  0  0  0  0  0  0  0  0  0  0
    8.2738   49.8815   26.6824 C   0  0  0  0  0  0  0  0  0  0  0  0
    7.0837   47.8223   25.2404 C   0  0  0  0  0  0  0  0  0  0  0  0
    8.8779   49.3929   25.5010 C   0  0  0  0  0  0  0  0  0  0  0  0
    8.8758   50.9945   27.3605 N   0  0  0  0  0  0  0  0  0  0  0  0
    6.6855   46.8322   24.3629 O   0  0  0  0  0  0  0  0  0  0  0  0
    8.2474   48.3646   24.8124 C   0  0  0  0  0  0  0  0  0  0  0  0
    8.1074   52.0777   27.7198 O   0  0  0  0  0  0  0  0  0  0  0  0
   10.1191   51.0913   27.4189 O   0  0  0  0  0  0  0  0  0  0  0  0
    7.6631   46.7491   23.3168 C   0  0  0  0  0  0  0  0  0  0  0  0
    8.6424   47.7451   23.6423 O   0  0  0  0  0  0  0  0  0  0  0  0
    8.8117   40.1832   34.2125 O   0  0  0  0  0  0  0  0  0  0  0  0
   11.2411   40.7939   33.3709 O   0  0  0  0  0  0  0  0  0  0  0  0
   10.9179   40.6920   31.9985 C   0  0  0  0  0  0  0  0  0  0  0  0
   11.5175   39.3837   31.4422 C   0  0  0  0  0  0  0  0  0  0  0  0
   12.7508   39.0887   32.0751 O   0  0  0  0  0  0  0  0  0  0  0  0
   10.6028   38.1915   31.6658 C   0  0  0  0  0  0  0  0  0  0  0  0
   12.9385   37.6818   32.0278 C   0  0  0  0  0  0  0  0  0  0  0  0
    9.6371   38.0805   30.6470 O   0  0  0  0  0  0  0  0  0  0  0  0
   11.5780   37.0215   31.6934 C   0  0  0  0  0  0  0  0  0  0  0  0
   13.4844   37.2119   33.3242 N   0  0  0  0  0  0  0  0  0  0  0  0
   11.6095   36.3201   30.4679 O   0  0  0  0  0  0  0  0  0  0  0  0
   14.4797   36.3318   33.5730 C   0  0  0  0  0  0  0  0  0  0  0  0
   13.1135   37.6278   34.5691 C   0  0  0  0  0  0  0  0  0  0  0  0
   15.2073   35.6155   32.6742 N   0  0  0  0  0  0  0  0  0  0  0  0
   14.6754   36.2305   34.9184 C   0  0  0  0  0  0  0  0  0  0  0  0
   13.8213   37.0452   35.5785 N   0  0  0  0  0  0  0  0  0  0  0  0
   16.1640   34.7604   33.1549 C   0  0  0  0  0  0  0  0  0  0  0  0
   15.6524   35.3507   35.4132 C   0  0  0  0  0  0  0  0  0  0  0  0
   16.3794   34.6318   34.5044 N   0  0  0  0  0  0  0  0  0  0  0  0
   15.8999   35.1934   36.8091 N   0  0  0  0  0  0  0  0  0  0  0  0
    9.0099   45.4348   33.6670 H   0  0  0  0  0  0  0  0  0  0  0  0
   11.9348   45.6932   33.0922 H   0  0  0  0  0  0  0  0  0  0  0  0
   11.1135   46.1992   34.4880 H   0  0  0  0  0  0  0  0  0  0  0  0
    9.3508   43.8342   31.4763 H   0  0  0  0  0  0  0  0  0  0  0  0
   10.7303   44.8920   31.1674 H   0  0  0  0  0  0  0  0  0  0  0  0
    7.0107   44.7162   31.5825 H   0  0  0  0  0  0  0  0  0  0  0  0
   10.3475   47.1888   30.4177 H   0  0  0  0  0  0  0  0  0  0  0  0
    5.4635   46.3045   30.5012 H   0  0  0  0  0  0  0  0  0  0  0  0
    8.8163   48.7674   29.3566 H   0  0  0  0  0  0  0  0  0  0  0  0
    5.4917   50.2284   28.2509 H   0  0  0  0  0  0  0  0  0  0  0  0
    7.0685   50.3375   29.0858 H   0  0  0  0  0  0  0  0  0  0  0  0
    5.5324   47.7834   26.7235 H   0  0  0  0  0  0  0  0  0  0  0  0
    9.7949   49.8216   25.1176 H   0  0  0  0  0  0  0  0  0  0  0  0
    7.1961   46.9772   22.3358 H   0  0  0  0  0  0  0  0  0  0  0  0
    8.1299   45.7419   23.3065 H   0  0  0  0  0  0  0  0  0  0  0  0
    9.8292   40.7410   31.7624 H   0  0  0  0  0  0  0  0  0  0  0  0
   11.3955   41.5477   31.4751 H   0  0  0  0  0  0  0  0  0  0  0  0
   11.6981   39.5116   30.3500 H   0  0  0  0  0  0  0  0  0  0  0  0
   10.1117   38.2603   32.6660 H   0  0  0  0  0  0  0  0  0  0  0  0
   13.6767   37.4555   31.2267 H   0  0  0  0  0  0  0  0  0  0  0  0
    8.8961   38.6951   30.8872 H   0  0  0  0  0  0  0  0  0  0  0  0
   11.2792   36.3072   32.4922 H   0  0  0  0  0  0  0  0  0  0  0  0
   11.8828   36.9598   29.7588 H   0  0  0  0  0  0  0  0  0  0  0  0
   12.3300   38.3538   34.7446 H   0  0  0  0  0  0  0  0  0  0  0  0
   16.7562   34.1785   32.4622 H   0  0  0  0  0  0  0  0  0  0  0  0
   16.6347   34.5303   37.1416 H   0  0  0  0  0  0  0  0  0  0  0  0
   15.3531   35.7360   37.5140 H   0  0  0  0  0  0  0  0  0  0  0  0
  1  2  2  0
  1  3  1  0
  3  4  1  0
  4  5  1  0
  6  1  1  0
  7  6  1  0
  6  8  1  0
  8  9  1  0
  9 10  2  0
 11  9  1  0
 10 12  1  0
 13 11  2  0
 12 14  2  0
 14 13  1  0
 14 15  1  0
 15 16  1  0
 16 17  1  0
 17 18  2  0
 19 17  1  0
 18 20  1  0
 21 19  2  0
 19 22  1  0
 20 23  1  0
 20 24  2  0
 24 21  1  0
 22 25  1  0
 22 26  2  0
 23 27  1  0
 24 28  1  0
 27 28  1  0
  4 29  2  0
  4 30  1  0
 31 30  1  0
 31 32  1  0
 32 33  1  0
 32 34  1  0
 33 35  1  0
 34 36  1  0
 34 37  1  0
 37 35  1  0
 35 38  1  0
 37 39  1  0
 40 38  1  0
 41 38  1  0
 42 40  2  0
 40 43  1  0
 44 41  2  0
 45 42  1  0
 43 46  2  0
 43 44  1  0
 47 45  2  0
 47 46  1  0
 46 48  1  0
  6 49  1  1
  7 50  1  0
  7 51  1  0
  8 52  1  0
  8 53  1  0
 10 54  1  0
 11 55  1  0
 12 56  1  0
 13 57  1  0
 16 58  1  0
 16 59  1  0
 18 60  1  0
 21 61  1  0
 27 62  1  0
 27 63  1  0
 31 64  1  0
 31 65  1  0
 32 66  1  0
 34 67  1  0
 35 68  1  0
 36 69  1  0
 37 70  1  0
 39 71  1  0
 41 72  1  0
 45 73  1  0
 48 74  1  0
 48 75  1  0
M  CHG  3   5  -1  22   1  25  -1
M  END
>  <EmbedRMS>  (55) 
0.0828842256452

$$$$

     RDKit          3D

 75 80  0  0  0  0  0  0  0  0999 V2000
   10.2834   43.7662   33.8257 C   0  0  0  0  0  0  0  0  0  0  0  0
   11.4102   43.5931   34.3753 O   0  0  0  0  0  0  0  0  0  0  0  0
    9.3638   42.7255   33.7351 O   0  0  0  0  0  0  0  0  0  0  0  0
    9.8904   41.2268   34.2946 P   0  0  0  0  0  0  0  0  0  0  0  0
   10.3729   41.4561   35.8842 O   0  0  0  0  0  0  0  0  0  0  0  0
    9.9546   45.0695   33.2035 C   0  0  1  0  0  0  0  0  0  0  0  0
   11.0272   46.0323   33.4756 N   0  0  0  0  0  0  0  0  0  0  0  0
    9.7467   44.8479   31.6875 C   0  0  0  0  0  0  0  0  0  0  0  0
    8.7924   45.8404   31.0838 C   0  0  0  0  0  0  0  0  0  0  0  0
    7.4056   45.6013   31.0988 C   0  0  0  0  0  0  0  0  0  0  0  0
    9.2824   46.9878   30.4426 C   0  0  0  0  0  0  0  0  0  0  0  0
    6.5266   46.5034   30.4845 C   0  0  0  0  0  0  0  0  0  0  0  0
    8.4034   47.8902   29.8323 C   0  0  0  0  0  0  0  0  0  0  0  0
    7.0139   47.6526   29.8470 C   0  0  0  0  0  0  0  0  0  0  0  0
    6.0879   48.5299   29.2569 O   0  0  0  0  0  0  0  0  0  0  0  0
    6.4235   49.6925   28.4951 C   0  0  0  0  0  0  0  0  0  0  0  0
    6.7680   50.8957   29.3552 C   0  0  0  0  0  0  0  0  0  0  0  0
    6.7603   50.7945   30.7715 C   0  0  0  0  0  0  0  0  0  0  0  0
    7.0369   52.1699   28.7500 C   0  0  0  0  0  0  0  0  0  0  0  0
    7.0324   51.9306   31.5216 C   0  0  0  0  0  0  0  0  0  0  0  0
    7.2939   53.2939   29.5696 C   0  0  0  0  0  0  0  0  0  0  0  0
    7.0190   52.3491   27.3224 N   0  0  0  0  0  0  0  0  0  0  0  0
    7.0830   52.0591   32.8964 O   0  0  0  0  0  0  0  0  0  0  0  0
    7.2881   53.1267   30.9467 C   0  0  0  0  0  0  0  0  0  0  0  0
    7.6353   51.4422   26.4927 O   0  0  0  0  0  0  0  0  0  0  0  0
    6.6084   53.4227   26.8350 O   0  0  0  0  0  0  0  0  0  0  0  0
    7.3938   53.4253   33.2019 C   0  0  0  0  0  0  0  0  0  0  0  0
    7.5158   54.0723   31.9280 O   0  0  0  0  0  0  0  0  0  0  0  0
    8.8125   40.1848   34.2126 O   0  0  0  0  0  0  0  0  0  0  0  0
   11.2416   40.7948   33.3707 O   0  0  0  0  0  0  0  0  0  0  0  0
   10.9179   40.6922   31.9984 C   0  0  0  0  0  0  0  0  0  0  0  0
   11.5175   39.3838   31.4423 C   0  0  0  0  0  0  0  0  0  0  0  0
   12.7508   39.0887   32.0752 O   0  0  0  0  0  0  0  0  0  0  0  0
   10.6028   38.1916   31.6659 C   0  0  0  0  0  0  0  0  0  0  0  0
   12.9385   37.6818   32.0278 C   0  0  0  0  0  0  0  0  0  0  0  0
    9.6371   38.0806   30.6471 O   0  0  0  0  0  0  0  0  0  0  0  0
   11.5780   37.0215   31.6935 C   0  0  0  0  0  0  0  0  0  0  0  0
   13.4844   37.2119   33.3242 N   0  0  0  0  0  0  0  0  0  0  0  0
   11.6095   36.3202   30.4679 O   0  0  0  0  0  0  0  0  0  0  0  0
   14.4797   36.3318   33.5730 C   0  0  0  0  0  0  0  0  0  0  0  0
   13.1136   37.6278   34.5691 C   0  0  0  0  0  0  0  0  0  0  0  0
   15.2073   35.6155   32.6742 N   0  0  0  0  0  0  0  0  0  0  0  0
   14.6754   36.2305   34.9184 C   0  0  0  0  0  0  0  0  0  0  0  0
   13.8213   37.0452   35.5785 N   0  0  0  0  0  0  0  0  0  0  0  0
   16.1640   34.7604   33.1549 C   0  0  0  0  0  0  0  0  0  0  0  0
   15.6524   35.3507   35.4132 C   0  0  0  0  0  0  0  0  0  0  0  0
   16.3794   34.6318   34.5044 N   0  0  0  0  0  0  0  0  0  0  0  0
   15.9000   35.1934   36.8091 N   0  0  0  0  0  0  0  0  0  0  0  0
    9.0119   45.4318   33.6711 H   0  0  0  0  0  0  0  0  0  0  0  0
   11.8904   45.7662   32.9468 H   0  0  0  0  0  0  0  0  0  0  0  0
   10.7256   46.9689   33.1215 H   0  0  0  0  0  0  0  0  0  0  0  0
   10.7231   44.8813   31.1557 H   0  0  0  0  0  0  0  0  0  0  0  0
    9.3417   43.8327   31.4762 H   0  0  0  0  0  0  0  0  0  0  0  0
    7.0084   44.7169   31.5815 H   0  0  0  0  0  0  0  0  0  0  0  0
   10.3467   47.1868   30.4153 H   0  0  0  0  0  0  0  0  0  0  0  0
    5.4618   46.3087   30.5051 H   0  0  0  0  0  0  0  0  0  0  0  0
    8.8156   48.7724   29.3629 H   0  0  0  0  0  0  0  0  0  0  0  0
    7.2557   49.4454   27.8057 H   0  0  0  0  0  0  0  0  0  0  0  0
    5.5416   49.9551   27.8739 H   0  0  0  0  0  0  0  0  0  0  0  0
    6.5355   49.8726   31.2878 H   0  0  0  0  0  0  0  0  0  0  0  0
    7.4999   54.2675   29.1436 H   0  0  0  0  0  0  0  0  0  0  0  0
    6.5703   53.8847   33.7878 H   0  0  0  0  0  0  0  0  0  0  0  0
    8.3538   53.4861   33.7562 H   0  0  0  0  0  0  0  0  0  0  0  0
    9.8291   40.7409   31.7627 H   0  0  0  0  0  0  0  0  0  0  0  0
   11.3952   41.5477   31.4744 H   0  0  0  0  0  0  0  0  0  0  0  0
   11.6981   39.5115   30.3500 H   0  0  0  0  0  0  0  0  0  0  0  0
   10.1117   38.2604   32.6661 H   0  0  0  0  0  0  0  0  0  0  0  0
   13.6767   37.4556   31.2267 H   0  0  0  0  0  0  0  0  0  0  0  0
    8.8961   38.6952   30.8872 H   0  0  0  0  0  0  0  0  0  0  0  0
   11.2791   36.3072   32.4922 H   0  0  0  0  0  0  0  0  0  0  0  0
   11.8828   36.9598   29.7589 H   0  0  0  0  0  0  0  0  0  0  0  0
   12.3300   38.3539   34.7446 H   0  0  0  0  0  0  0  0  0  0  0  0
   16.7561   34.1785   32.4622 H   0  0  0  0  0  0  0  0  0  0  0  0
   16.6347   34.5303   37.1416 H   0  0  0  0  0  0  0  0  0  0  0  0
   15.3531   35.7360   37.5140 H   0  0  0  0  0  0  0  0  0  0  0  0
  1  2  2  0
  1  3  1  0
  3  4  1  0
  4  5  1  0
  6  1  1  0
  7  6  1  0
  6  8  1  0
  8  9  1  0
  9 10  2  0
 11  9  1  0
 10 12  1  0
 13 11  2  0
 12 14  2  0
 14 13  1  0
 14 15  1  0
 15 16  1  0
 16 17  1  0
 17 18  2  0
 19 17  1  0
 18 20  1  0
 21 19  2  0
 19 22  1  0
 20 23  1  0
 20 24  2  0
 24 21  1  0
 22 25  1  0
 22 26  2  0
 23 27  1  0
 24 28  1  0
 27 28  1  0
  4 29  2  0
  4 30  1  0
 31 30  1  0
 31 32  1  0
 32 33  1  0
 32 34  1  0
 33 35  1  0
 34 36  1  0
 34 37  1  0
 37 35  1  0
 35 38  1  0
 37 39  1  0
 40 38  1  0
 41 38  1  0
 42 40  2  0
 40 43  1  0
 44 41  2  0
 45 42  1  0
 43 46  2  0
 43 44  1  0
 47 45  2  0
 47 46  1  0
 46 48  1  0
  6 49  1  1
  7 50  1  0
  7 51  1  0
  8 52  1  0
  8 53  1  0
 10 54  1  0
 11 55  1  0
 12 56  1  0
 13 57  1  0
 16 58  1  0
 16 59  1  0
 18 60  1  0
 21 61  1  0
 27 62  1  0
 27 63  1  0
 31 64  1  0
 31 65  1  0
 32 66  1  0
 34 67  1  0
 35 68  1  0
 36 69  1  0
 37 70  1  0
 39 71  1  0
 41 72  1  0
 45 73  1  0
 48 74  1  0
 48 75  1  0
M  CHG  3   5  -1  22   1  25  -1
M  END
>  <EmbedRMS>  (56) 
0.081989102646

$$$$

     RDKit          3D

 75 80  0  0  0  0  0  0  0  0999 V2000
   10.2837   43.7628   33.8277 C   0  0  0  0  0  0  0  0  0  0  0  0
   11.4103   43.5863   34.3766 O   0  0  0  0  0  0  0  0  0  0  0  0
    9.3628   42.7238   33.7357 O   0  0  0  0  0  0  0  0  0  0  0  0
    9.8890   41.2252   34.2949 P   0  0  0  0  0  0  0  0  0  0  0  0
   10.3724   41.4548   35.8843 O   0  0  0  0  0  0  0  0  0  0  0  0
    9.9548   45.0701   33.2064 C   0  0  1  0  0  0  0  0  0  0  0  0
   11.0198   46.0482   33.4571 N   0  0  0  0  0  0  0  0  0  0  0  0
    9.7506   44.8511   31.6923 C   0  0  0  0  0  0  0  0  0  0  0  0
    8.7945   45.8418   31.0869 C   0  0  0  0  0  0  0  0  0  0  0  0
    7.4077   45.6004   31.1002 C   0  0  0  0  0  0  0  0  0  0  0  0
    9.2827   46.9890   30.4442 C   0  0  0  0  0  0  0  0  0  0  0  0
    6.5262   46.4998   30.4847 C   0  0  0  0  0  0  0  0  0  0  0  0
    8.4007   47.8879   29.8328 C   0  0  0  0  0  0  0  0  0  0  0  0
    7.0190   47.6557   29.8470 C   0  0  0  0  0  0  0  0  0  0  0  0
    6.1811   48.5937   29.2227 O   0  0  0  0  0  0  0  0  0  0  0  0
    4.7534   48.5343   29.1822 C   0  0  0  0  0  0  0  0  0  0  0  0
    4.1483   48.7599   30.5509 C   0  0  0  0  0  0  0  0  0  0  0  0
    4.7199   49.7507   31.3855 C   0  0  0  0  0  0  0  0  0  0  0  0
    2.9586   48.0845   30.9783 C   0  0  0  0  0  0  0  0  0  0  0  0
    4.1207   50.0121   32.6109 C   0  0  0  0  0  0  0  0  0  0  0  0
    2.3847   48.4025   32.2299 C   0  0  0  0  0  0  0  0  0  0  0  0
    2.3084   47.1085   30.1522 N   0  0  0  0  0  0  0  0  0  0  0  0
    4.5073   50.9174   33.5804 O   0  0  0  0  0  0  0  0  0  0  0  0
    3.0029   49.3662   33.0156 C   0  0  0  0  0  0  0  0  0  0  0  0
    2.9793   45.9679   29.7782 O   0  0  0  0  0  0  0  0  0  0  0  0
    1.0704   47.1550   30.0003 O   0  0  0  0  0  0  0  0  0  0  0  0
    3.5722   50.8308   34.6644 C   0  0  0  0  0  0  0  0  0  0  0  0
    2.6278   49.8292   34.2621 O   0  0  0  0  0  0  0  0  0  0  0  0
    8.8112   40.1834   34.2131 O   0  0  0  0  0  0  0  0  0  0  0  0
   11.2398   40.7938   33.3702 O   0  0  0  0  0  0  0  0  0  0  0  0
   10.9144   40.6912   31.9983 C   0  0  0  0  0  0  0  0  0  0  0  0
   11.5270   39.3911   31.4385 C   0  0  0  0  0  0  0  0  0  0  0  0
   12.7520   39.0911   32.0836 O   0  0  0  0  0  0  0  0  0  0  0  0
   10.6113   38.1931   31.6451 C   0  0  0  0  0  0  0  0  0  0  0  0
   12.9413   37.6837   32.0297 C   0  0  0  0  0  0  0  0  0  0  0  0
    9.6064   38.0877   30.6599 O   0  0  0  0  0  0  0  0  0  0  0  0
   11.5822   37.0197   31.6876 C   0  0  0  0  0  0  0  0  0  0  0  0
   13.4840   37.2104   33.3254 N   0  0  0  0  0  0  0  0  0  0  0  0
   11.6179   36.3071   30.4690 O   0  0  0  0  0  0  0  0  0  0  0  0
   14.4797   36.3309   33.5738 C   0  0  0  0  0  0  0  0  0  0  0  0
   13.1136   37.6269   34.5702 C   0  0  0  0  0  0  0  0  0  0  0  0
   15.2074   35.6152   32.6747 N   0  0  0  0  0  0  0  0  0  0  0  0
   14.6756   36.2298   34.9190 C   0  0  0  0  0  0  0  0  0  0  0  0
   13.8217   37.0445   35.5793 N   0  0  0  0  0  0  0  0  0  0  0  0
   16.1643   34.7603   33.1551 C   0  0  0  0  0  0  0  0  0  0  0  0
   15.6528   35.3503   35.4136 C   0  0  0  0  0  0  0  0  0  0  0  0
   16.3798   34.6316   34.5046 N   0  0  0  0  0  0  0  0  0  0  0  0
   15.9004   35.1930   36.8094 N   0  0  0  0  0  0  0  0  0  0  0  0
    9.0098   45.4350   33.6669 H   0  0  0  0  0  0  0  0  0  0  0  0
   11.1131   46.1994   34.4884 H   0  0  0  0  0  0  0  0  0  0  0  0
   11.9349   45.6934   33.0930 H   0  0  0  0  0  0  0  0  0  0  0  0
    9.3518   43.8345   31.4759 H   0  0  0  0  0  0  0  0  0  0  0  0
   10.7310   44.8931   31.1677 H   0  0  0  0  0  0  0  0  0  0  0  0
    7.0124   44.7150   31.5827 H   0  0  0  0  0  0  0  0  0  0  0  0
   10.3467   47.1893   30.4145 H   0  0  0  0  0  0  0  0  0  0  0  0
    5.4693   46.2857   30.5133 H   0  0  0  0  0  0  0  0  0  0  0  0
    8.7934   48.7709   29.3446 H   0  0  0  0  0  0  0  0  0  0  0  0
    4.3969   49.3485   28.5175 H   0  0  0  0  0  0  0  0  0  0  0  0
    4.4398   47.5815   28.7158 H   0  0  0  0  0  0  0  0  0  0  0  0
    5.5997   50.3062   31.0865 H   0  0  0  0  0  0  0  0  0  0  0  0
    1.4870   47.9081   32.5786 H   0  0  0  0  0  0  0  0  0  0  0  0
    4.0905   50.5169   35.5947 H   0  0  0  0  0  0  0  0  0  0  0  0
    3.0596   51.8050   34.8082 H   0  0  0  0  0  0  0  0  0  0  0  0
    9.8235   40.7202   31.7651 H   0  0  0  0  0  0  0  0  0  0  0  0
   11.3780   41.5548   31.4750 H   0  0  0  0  0  0  0  0  0  0  0  0
   11.7311   39.5363   30.3532 H   0  0  0  0  0  0  0  0  0  0  0  0
   10.1203   38.2695   32.6410 H   0  0  0  0  0  0  0  0  0  0  0  0
   13.6850   37.4638   31.2321 H   0  0  0  0  0  0  0  0  0  0  0  0
   10.0251   38.1792   29.7654 H   0  0  0  0  0  0  0  0  0  0  0  0
   11.2757   36.3135   32.4907 H   0  0  0  0  0  0  0  0  0  0  0  0
   11.9839   36.9110   29.7708 H   0  0  0  0  0  0  0  0  0  0  0  0
   12.3307   38.3536   34.7457 H   0  0  0  0  0  0  0  0  0  0  0  0
   16.7566   34.1787   32.4623 H   0  0  0  0  0  0  0  0  0  0  0  0
   15.3535   35.7355   37.5144 H   0  0  0  0  0  0  0  0  0  0  0  0
   16.6353   34.5301   37.1419 H   0  0  0  0  0  0  0  0  0  0  0  0
  1  2  2  0
  1  3  1  0
  3  4  1  0
  4  5  1  0
  6  1  1  0
  7  6  1  0
  6  8  1  0
  8  9  1  0
  9 10  2  0
 11  9  1  0
 10 12  1  0
 13 11  2  0
 12 14  2  0
 14 13  1  0
 14 15  1  0
 15 16  1  0
 16 17  1  0
 17 18  2  0
 19 17  1  0
 18 20  1  0
 21 19  2  0
 19 22  1  0
 20 23  1  0
 20 24  2  0
 24 21  1  0
 22 25  1  0
 22 26  2  0
 23 27  1  0
 24 28  1  0
 27 28  1  0
  4 29  2  0
  4 30  1  0
 31 30  1  0
 31 32  1  0
 32 33  1  0
 32 34  1  0
 33 35  1  0
 34 36  1  0
 34 37  1  0
 37 35  1  0
 35 38  1  0
 37 39  1  0
 40 38  1  0
 41 38  1  0
 42 40  2  0
 40 43  1  0
 44 41  2  0
 45 42  1  0
 43 46  2  0
 43 44  1  0
 47 45  2  0
 47 46  1  0
 46 48  1  0
  6 49  1  1
  7 50  1  0
  7 51  1  0
  8 52  1  0
  8 53  1  0
 10 54  1  0
 11 55  1  0
 12 56  1  0
 13 57  1  0
 16 58  1  0
 16 59  1  0
 18 60  1  0
 21 61  1  0
 27 62  1  0
 27 63  1  0
 31 64  1  0
 31 65  1  0
 32 66  1  0
 34 67  1  0
 35 68  1  0
 36 69  1  0
 37 70  1  0
 39 71  1  0
 41 72  1  0
 45 73  1  0
 48 74  1  0
 48 75  1  0
M  CHG  3   5  -1  22   1  25  -1
M  END
>  <EmbedRMS>  (57) 
0.0817332989444

$$$$

     RDKit          3D

 75 80  0  0  0  0  0  0  0  0999 V2000
   10.2803   43.7665   33.8249 C   0  0  0  0  0  0  0  0  0  0  0  0
   11.4110   43.5918   34.3666 O   0  0  0  0  0  0  0  0  0  0  0  0
    9.3616   42.7251   33.7347 O   0  0  0  0  0  0  0  0  0  0  0  0
    9.8895   41.2269   34.2945 P   0  0  0  0  0  0  0  0  0  0  0  0
   10.3731   41.4568   35.8837 O   0  0  0  0  0  0  0  0  0  0  0  0
    9.9460   45.0737   33.2110 C   0  0  1  0  0  0  0  0  0  0  0  0
   11.0267   46.0292   33.4708 N   0  0  0  0  0  0  0  0  0  0  0  0
    9.7541   44.8541   31.6947 C   0  0  0  0  0  0  0  0  0  0  0  0
    8.7958   45.8409   31.0844 C   0  0  0  0  0  0  0  0  0  0  0  0
    7.4090   45.6003   31.1018 C   0  0  0  0  0  0  0  0  0  0  0  0
    9.2823   46.9883   30.4401 C   0  0  0  0  0  0  0  0  0  0  0  0
    6.5259   46.4997   30.4879 C   0  0  0  0  0  0  0  0  0  0  0  0
    8.3995   47.8880   29.8320 C   0  0  0  0  0  0  0  0  0  0  0  0
    7.0184   47.6528   29.8438 C   0  0  0  0  0  0  0  0  0  0  0  0
    6.1810   48.5835   29.2085 O   0  0  0  0  0  0  0  0  0  0  0  0
    4.7786   48.4211   28.9915 C   0  0  0  0  0  0  0  0  0  0  0  0
    4.5101   47.3245   27.9863 C   0  0  0  0  0  0  0  0  0  0  0  0
    3.6342   46.2759   28.3539 C   0  0  0  0  0  0  0  0  0  0  0  0
    5.1440   47.2968   26.6981 C   0  0  0  0  0  0  0  0  0  0  0  0
    3.4389   45.2318   27.4598 C   0  0  0  0  0  0  0  0  0  0  0  0
    4.9155   46.1990   25.8364 C   0  0  0  0  0  0  0  0  0  0  0  0
    6.0225   48.3478   26.2573 N   0  0  0  0  0  0  0  0  0  0  0  0
    2.6462   44.1101   27.6091 O   0  0  0  0  0  0  0  0  0  0  0  0
    4.0551   45.1931   26.2562 C   0  0  0  0  0  0  0  0  0  0  0  0
    7.0373   48.0674   25.3713 O   0  0  0  0  0  0  0  0  0  0  0  0
    5.7790   49.5406   26.5312 O   0  0  0  0  0  0  0  0  0  0  0  0
    2.7739   43.3171   26.4210 C   0  0  0  0  0  0  0  0  0  0  0  0
    3.6823   44.0453   25.5835 O   0  0  0  0  0  0  0  0  0  0  0  0
    8.8122   40.1844   34.2135 O   0  0  0  0  0  0  0  0  0  0  0  0
   11.2401   40.7949   33.3698 O   0  0  0  0  0  0  0  0  0  0  0  0
   10.9143   40.6914   31.9980 C   0  0  0  0  0  0  0  0  0  0  0  0
   11.5269   39.3912   31.4385 C   0  0  0  0  0  0  0  0  0  0  0  0
   12.7519   39.0911   32.0837 O   0  0  0  0  0  0  0  0  0  0  0  0
   10.6113   38.1932   31.6451 C   0  0  0  0  0  0  0  0  0  0  0  0
   12.9413   37.6838   32.0297 C   0  0  0  0  0  0  0  0  0  0  0  0
    9.6064   38.0878   30.6599 O   0  0  0  0  0  0  0  0  0  0  0  0
   11.5822   37.0197   31.6876 C   0  0  0  0  0  0  0  0  0  0  0  0
   13.4840   37.2105   33.3254 N   0  0  0  0  0  0  0  0  0  0  0  0
   11.6179   36.3072   30.4690 O   0  0  0  0  0  0  0  0  0  0  0  0
   14.4797   36.3309   33.5738 C   0  0  0  0  0  0  0  0  0  0  0  0
   13.1136   37.6269   34.5702 C   0  0  0  0  0  0  0  0  0  0  0  0
   15.2074   35.6152   32.6747 N   0  0  0  0  0  0  0  0  0  0  0  0
   14.6756   36.2298   34.9190 C   0  0  0  0  0  0  0  0  0  0  0  0
   13.8217   37.0445   35.5793 N   0  0  0  0  0  0  0  0  0  0  0  0
   16.1643   34.7603   33.1551 C   0  0  0  0  0  0  0  0  0  0  0  0
   15.6528   35.3503   35.4136 C   0  0  0  0  0  0  0  0  0  0  0  0
   16.3798   34.6316   34.5046 N   0  0  0  0  0  0  0  0  0  0  0  0
   15.9004   35.1930   36.8094 N   0  0  0  0  0  0  0  0  0  0  0  0
    8.9995   45.4383   33.6719 H   0  0  0  0  0  0  0  0  0  0  0  0
   11.0501   46.2277   34.4982 H   0  0  0  0  0  0  0  0  0  0  0  0
   10.7766   46.9369   33.0158 H   0  0  0  0  0  0  0  0  0  0  0  0
    9.3647   43.8353   31.4709 H   0  0  0  0  0  0  0  0  0  0  0  0
   10.7413   44.9079   31.1834 H   0  0  0  0  0  0  0  0  0  0  0  0
    7.0146   44.7172   31.5892 H   0  0  0  0  0  0  0  0  0  0  0  0
   10.3462   47.1883   30.4059 H   0  0  0  0  0  0  0  0  0  0  0  0
    5.4675   46.2902   30.5299 H   0  0  0  0  0  0  0  0  0  0  0  0
    8.7914   48.7690   29.3397 H   0  0  0  0  0  0  0  0  0  0  0  0
    4.2693   48.2340   29.9618 H   0  0  0  0  0  0  0  0  0  0  0  0
    4.3629   49.3734   28.6036 H   0  0  0  0  0  0  0  0  0  0  0  0
    3.1329   46.2645   29.3135 H   0  0  0  0  0  0  0  0  0  0  0  0
    5.3806   46.1398   24.8609 H   0  0  0  0  0  0  0  0  0  0  0  0
    3.1957   42.3204   26.6681 H   0  0  0  0  0  0  0  0  0  0  0  0
    1.7886   43.2151   25.9197 H   0  0  0  0  0  0  0  0  0  0  0  0
    9.8233   40.7200   31.7651 H   0  0  0  0  0  0  0  0  0  0  0  0
   11.3775   41.5548   31.4741 H   0  0  0  0  0  0  0  0  0  0  0  0
   11.7312   39.5361   30.3532 H   0  0  0  0  0  0  0  0  0  0  0  0
   10.1203   38.2696   32.6410 H   0  0  0  0  0  0  0  0  0  0  0  0
   13.6850   37.4639   31.2321 H   0  0  0  0  0  0  0  0  0  0  0  0
   10.0250   38.1792   29.7654 H   0  0  0  0  0  0  0  0  0  0  0  0
   11.2757   36.3135   32.4907 H   0  0  0  0  0  0  0  0  0  0  0  0
   11.9838   36.9112   29.7708 H   0  0  0  0  0  0  0  0  0  0  0  0
   12.3307   38.3536   34.7457 H   0  0  0  0  0  0  0  0  0  0  0  0
   16.7566   34.1787   32.4623 H   0  0  0  0  0  0  0  0  0  0  0  0
   15.3534   35.7355   37.5144 H   0  0  0  0  0  0  0  0  0  0  0  0
   16.6353   34.5301   37.1419 H   0  0  0  0  0  0  0  0  0  0  0  0
  1  2  2  0
  1  3  1  0
  3  4  1  0
  4  5  1  0
  6  1  1  0
  7  6  1  0
  6  8  1  0
  8  9  1  0
  9 10  2  0
 11  9  1  0
 10 12  1  0
 13 11  2  0
 12 14  2  0
 14 13  1  0
 14 15  1  0
 15 16  1  0
 16 17  1  0
 17 18  2  0
 19 17  1  0
 18 20  1  0
 21 19  2  0
 19 22  1  0
 20 23  1  0
 20 24  2  0
 24 21  1  0
 22 25  1  0
 22 26  2  0
 23 27  1  0
 24 28  1  0
 27 28  1  0
  4 29  2  0
  4 30  1  0
 31 30  1  0
 31 32  1  0
 32 33  1  0
 32 34  1  0
 33 35  1  0
 34 36  1  0
 34 37  1  0
 37 35  1  0
 35 38  1  0
 37 39  1  0
 40 38  1  0
 41 38  1  0
 42 40  2  0
 40 43  1  0
 44 41  2  0
 45 42  1  0
 43 46  2  0
 43 44  1  0
 47 45  2  0
 47 46  1  0
 46 48  1  0
  6 49  1  1
  7 50  1  0
  7 51  1  0
  8 52  1  0
  8 53  1  0
 10 54  1  0
 11 55  1  0
 12 56  1  0
 13 57  1  0
 16 58  1  0
 16 59  1  0
 18 60  1  0
 21 61  1  0
 27 62  1  0
 27 63  1  0
 31 64  1  0
 31 65  1  0
 32 66  1  0
 34 67  1  0
 35 68  1  0
 36 69  1  0
 37 70  1  0
 39 71  1  0
 41 72  1  0
 45 73  1  0
 48 74  1  0
 48 75  1  0
M  CHG  3   5  -1  22   1  25  -1
M  END
>  <EmbedRMS>  (58) 
0.0806574498089

$$$$

     RDKit          3D

 75 80  0  0  0  0  0  0  0  0999 V2000
   10.2835   43.7661   33.8255 C   0  0  0  0  0  0  0  0  0  0  0  0
   11.4102   43.5930   34.3752 O   0  0  0  0  0  0  0  0  0  0  0  0
    9.3637   42.7255   33.7348 O   0  0  0  0  0  0  0  0  0  0  0  0
    9.8903   41.2267   34.2942 P   0  0  0  0  0  0  0  0  0  0  0  0
   10.3735   41.4561   35.8836 O   0  0  0  0  0  0  0  0  0  0  0  0
    9.9548   45.0695   33.2034 C   0  0  1  0  0  0  0  0  0  0  0  0
   11.0273   46.0322   33.4758 N   0  0  0  0  0  0  0  0  0  0  0  0
    9.7472   44.8483   31.6873 C   0  0  0  0  0  0  0  0  0  0  0  0
    8.7926   45.8406   31.0839 C   0  0  0  0  0  0  0  0  0  0  0  0
    7.4058   45.6013   31.0999 C   0  0  0  0  0  0  0  0  0  0  0  0
    9.2817   46.9883   30.4426 C   0  0  0  0  0  0  0  0  0  0  0  0
    6.5245   46.5018   30.4862 C   0  0  0  0  0  0  0  0  0  0  0  0
    8.4003   47.8889   29.8335 C   0  0  0  0  0  0  0  0  0  0  0  0
    7.0189   47.6548   29.8434 C   0  0  0  0  0  0  0  0  0  0  0  0
    6.1831   48.5868   29.2079 O   0  0  0  0  0  0  0  0  0  0  0  0
    4.7813   48.4248   28.9870 C   0  0  0  0  0  0  0  0  0  0  0  0
    4.5157   47.3308   27.9782 C   0  0  0  0  0  0  0  0  0  0  0  0
    3.6399   46.2805   28.3411 C   0  0  0  0  0  0  0  0  0  0  0  0
    5.1521   47.3074   26.6912 C   0  0  0  0  0  0  0  0  0  0  0  0
    3.4471   45.2390   27.4435 C   0  0  0  0  0  0  0  0  0  0  0  0
    4.9260   46.2120   25.8257 C   0  0  0  0  0  0  0  0  0  0  0  0
    6.0309   48.3602   26.2553 N   0  0  0  0  0  0  0  0  0  0  0  0
    2.6548   44.1163   27.5879 O   0  0  0  0  0  0  0  0  0  0  0  0
    4.0655   45.2043   26.2409 C   0  0  0  0  0  0  0  0  0  0  0  0
    7.0476   48.0830   25.3705 O   0  0  0  0  0  0  0  0  0  0  0  0
    5.7861   49.5520   26.5322 O   0  0  0  0  0  0  0  0  0  0  0  0
    2.7852   43.3270   26.3976 C   0  0  0  0  0  0  0  0  0  0  0  0
    3.6947   44.0583   25.5641 O   0  0  0  0  0  0  0  0  0  0  0  0
    8.8121   40.1850   34.2130 O   0  0  0  0  0  0  0  0  0  0  0  0
   11.2407   40.7939   33.3693 O   0  0  0  0  0  0  0  0  0  0  0  0
   10.9151   40.6905   31.9974 C   0  0  0  0  0  0  0  0  0  0  0  0
   11.5252   39.3886   31.4375 C   0  0  0  0  0  0  0  0  0  0  0  0
   12.7500   39.0874   32.0799 O   0  0  0  0  0  0  0  0  0  0  0  0
   10.6092   38.1926   31.6469 C   0  0  0  0  0  0  0  0  0  0  0  0
   12.9332   37.6793   32.0294 C   0  0  0  0  0  0  0  0  0  0  0  0
    9.6122   38.0895   30.6542 O   0  0  0  0  0  0  0  0  0  0  0  0
   11.5743   37.0145   31.7024 C   0  0  0  0  0  0  0  0  0  0  0  0
   13.4844   37.2108   33.3241 N   0  0  0  0  0  0  0  0  0  0  0  0
   11.6297   36.3239   30.4740 O   0  0  0  0  0  0  0  0  0  0  0  0
   14.4802   36.3313   33.5727 C   0  0  0  0  0  0  0  0  0  0  0  0
   13.1138   37.6267   34.5692 C   0  0  0  0  0  0  0  0  0  0  0  0
   15.2075   35.6149   32.6739 N   0  0  0  0  0  0  0  0  0  0  0  0
   14.6761   36.2303   34.9181 C   0  0  0  0  0  0  0  0  0  0  0  0
   13.8220   37.0447   35.5785 N   0  0  0  0  0  0  0  0  0  0  0  0
   16.1643   34.7600   33.1547 C   0  0  0  0  0  0  0  0  0  0  0  0
   15.6529   35.3505   35.4130 C   0  0  0  0  0  0  0  0  0  0  0  0
   16.3798   34.6315   34.5042 N   0  0  0  0  0  0  0  0  0  0  0  0
   15.9003   35.1932   36.8090 N   0  0  0  0  0  0  0  0  0  0  0  0
    9.0120   45.4317   33.6710 H   0  0  0  0  0  0  0  0  0  0  0  0
   10.7260   46.9688   33.1214 H   0  0  0  0  0  0  0  0  0  0  0  0
   11.8908   45.7659   32.9474 H   0  0  0  0  0  0  0  0  0  0  0  0
   10.7236   44.8823   31.1556 H   0  0  0  0  0  0  0  0  0  0  0  0
    9.3426   43.8330   31.4756 H   0  0  0  0  0  0  0  0  0  0  0  0
    7.0099   44.7176   31.5851 H   0  0  0  0  0  0  0  0  0  0  0  0
   10.3459   47.1869   30.4111 H   0  0  0  0  0  0  0  0  0  0  0  0
    5.4658   46.2931   30.5265 H   0  0  0  0  0  0  0  0  0  0  0  0
    8.7935   48.7701   29.3425 H   0  0  0  0  0  0  0  0  0  0  0  0
    4.3664   49.3781   28.6006 H   0  0  0  0  0  0  0  0  0  0  0  0
    4.2695   48.2351   29.9555 H   0  0  0  0  0  0  0  0  0  0  0  0
    3.1368   46.2659   29.2996 H   0  0  0  0  0  0  0  0  0  0  0  0
    5.3930   46.1560   24.8510 H   0  0  0  0  0  0  0  0  0  0  0  0
    3.2072   42.3297   26.6424 H   0  0  0  0  0  0  0  0  0  0  0  0
    1.8009   43.2258   25.8941 H   0  0  0  0  0  0  0  0  0  0  0  0
   11.3802   41.5529   31.4733 H   0  0  0  0  0  0  0  0  0  0  0  0
    9.8243   40.7216   31.7643 H   0  0  0  0  0  0  0  0  0  0  0  0
   11.7266   39.5311   30.3513 H   0  0  0  0  0  0  0  0  0  0  0  0
   10.1110   38.2747   32.6387 H   0  0  0  0  0  0  0  0  0  0  0  0
   13.6652   37.4519   31.2226 H   0  0  0  0  0  0  0  0  0  0  0  0
   10.0511   38.1143   29.7645 H   0  0  0  0  0  0  0  0  0  0  0  0
   11.2762   36.3141   32.5189 H   0  0  0  0  0  0  0  0  0  0  0  0
   10.8593   35.6978   30.4640 H   0  0  0  0  0  0  0  0  0  0  0  0
   12.3294   38.3518   34.7449 H   0  0  0  0  0  0  0  0  0  0  0  0
   16.7564   34.1780   32.4620 H   0  0  0  0  0  0  0  0  0  0  0  0
   16.6349   34.5300   37.1415 H   0  0  0  0  0  0  0  0  0  0  0  0
   15.3534   35.7359   37.5138 H   0  0  0  0  0  0  0  0  0  0  0  0
  1  2  2  0
  1  3  1  0
  3  4  1  0
  4  5  1  0
  6  1  1  0
  7  6  1  0
  6  8  1  0
  8  9  1  0
  9 10  2  0
 11  9  1  0
 10 12  1  0
 13 11  2  0
 12 14  2  0
 14 13  1  0
 14 15  1  0
 15 16  1  0
 16 17  1  0
 17 18  2  0
 19 17  1  0
 18 20  1  0
 21 19  2  0
 19 22  1  0
 20 23  1  0
 20 24  2  0
 24 21  1  0
 22 25  1  0
 22 26  2  0
 23 27  1  0
 24 28  1  0
 27 28  1  0
  4 29  2  0
  4 30  1  0
 31 30  1  0
 31 32  1  0
 32 33  1  0
 32 34  1  0
 33 35  1  0
 34 36  1  0
 34 37  1  0
 37 35  1  0
 35 38  1  0
 37 39  1  0
 40 38  1  0
 41 38  1  0
 42 40  2  0
 40 43  1  0
 44 41  2  0
 45 42  1  0
 43 46  2  0
 43 44  1  0
 47 45  2  0
 47 46  1  0
 46 48  1  0
  6 49  1  1
  7 50  1  0
  7 51  1  0
  8 52  1  0
  8 53  1  0
 10 54  1  0
 11 55  1  0
 12 56  1  0
 13 57  1  0
 16 58  1  0
 16 59  1  0
 18 60  1  0
 21 61  1  0
 27 62  1  0
 27 63  1  0
 31 64  1  0
 31 65  1  0
 32 66  1  0
 34 67  1  0
 35 68  1  0
 36 69  1  0
 37 70  1  0
 39 71  1  0
 41 72  1  0
 45 73  1  0
 48 74  1  0
 48 75  1  0
M  CHG  3   5  -1  22   1  25  -1
M  END
>  <EmbedRMS>  (59) 
0.081821830285

$$$$

     RDKit          3D

 75 80  0  0  0  0  0  0  0  0999 V2000
   10.2835   43.7661   33.8257 C   0  0  0  0  0  0  0  0  0  0  0  0
   11.4102   43.5930   34.3753 O   0  0  0  0  0  0  0  0  0  0  0  0
    9.3638   42.7254   33.7350 O   0  0  0  0  0  0  0  0  0  0  0  0
    9.8903   41.2267   34.2943 P   0  0  0  0  0  0  0  0  0  0  0  0
   10.3735   41.4561   35.8837 O   0  0  0  0  0  0  0  0  0  0  0  0
    9.9547   45.0694   33.2036 C   0  0  1  0  0  0  0  0  0  0  0  0
   11.0274   46.0321   33.4757 N   0  0  0  0  0  0  0  0  0  0  0  0
    9.7465   44.8481   31.6877 C   0  0  0  0  0  0  0  0  0  0  0  0
    8.7923   45.8409   31.0845 C   0  0  0  0  0  0  0  0  0  0  0  0
    7.4053   45.6016   31.0992 C   0  0  0  0  0  0  0  0  0  0  0  0
    9.2824   46.9880   30.4423 C   0  0  0  0  0  0  0  0  0  0  0  0
    6.5263   46.5032   30.4839 C   0  0  0  0  0  0  0  0  0  0  0  0
    8.4033   47.8901   29.8314 C   0  0  0  0  0  0  0  0  0  0  0  0
    7.0144   47.6525   29.8472 C   0  0  0  0  0  0  0  0  0  0  0  0
    6.0940   48.5239   29.2470 O   0  0  0  0  0  0  0  0  0  0  0  0
    6.4472   49.7272   28.5658 C   0  0  0  0  0  0  0  0  0  0  0  0
    5.2278   50.4466   28.0312 C   0  0  0  0  0  0  0  0  0  0  0  0
    3.9344   50.0770   28.4820 C   0  0  0  0  0  0  0  0  0  0  0  0
    5.3578   51.4946   27.0573 C   0  0  0  0  0  0  0  0  0  0  0  0
    2.8325   50.7242   27.9391 C   0  0  0  0  0  0  0  0  0  0  0  0
    4.1953   52.1053   26.5319 C   0  0  0  0  0  0  0  0  0  0  0  0
    6.6426   51.9405   26.5843 N   0  0  0  0  0  0  0  0  0  0  0  0
    1.4947   50.5241   28.2209 O   0  0  0  0  0  0  0  0  0  0  0  0
    2.9570   51.6919   27.0030 C   0  0  0  0  0  0  0  0  0  0  0  0
    6.7612   52.4761   25.3223 O   0  0  0  0  0  0  0  0  0  0  0  0
    7.6207   52.0067   27.3566 O   0  0  0  0  0  0  0  0  0  0  0  0
    0.7315   51.4254   27.4074 C   0  0  0  0  0  0  0  0  0  0  0  0
    1.7045   52.1525   26.6451 O   0  0  0  0  0  0  0  0  0  0  0  0
    8.8122   40.1850   34.2131 O   0  0  0  0  0  0  0  0  0  0  0  0
   11.2407   40.7939   33.3694 O   0  0  0  0  0  0  0  0  0  0  0  0
   10.9151   40.6905   31.9974 C   0  0  0  0  0  0  0  0  0  0  0  0
   11.5252   39.3886   31.4375 C   0  0  0  0  0  0  0  0  0  0  0  0
   12.7500   39.0874   32.0799 O   0  0  0  0  0  0  0  0  0  0  0  0
   10.6092   38.1926   31.6469 C   0  0  0  0  0  0  0  0  0  0  0  0
   12.9332   37.6793   32.0294 C   0  0  0  0  0  0  0  0  0  0  0  0
    9.6122   38.0895   30.6542 O   0  0  0  0  0  0  0  0  0  0  0  0
   11.5743   37.0145   31.7024 C   0  0  0  0  0  0  0  0  0  0  0  0
   13.4844   37.2107   33.3241 N   0  0  0  0  0  0  0  0  0  0  0  0
   11.6297   36.3239   30.4740 O   0  0  0  0  0  0  0  0  0  0  0  0
   14.4802   36.3313   33.5726 C   0  0  0  0  0  0  0  0  0  0  0  0
   13.1138   37.6266   34.5692 C   0  0  0  0  0  0  0  0  0  0  0  0
   15.2075   35.6149   32.6739 N   0  0  0  0  0  0  0  0  0  0  0  0
   14.6761   36.2303   34.9181 C   0  0  0  0  0  0  0  0  0  0  0  0
   13.8220   37.0447   35.5784 N   0  0  0  0  0  0  0  0  0  0  0  0
   16.1643   34.7600   33.1547 C   0  0  0  0  0  0  0  0  0  0  0  0
   15.6529   35.3505   35.4130 C   0  0  0  0  0  0  0  0  0  0  0  0
   16.3798   34.6315   34.5042 N   0  0  0  0  0  0  0  0  0  0  0  0
   15.9003   35.1932   36.8090 N   0  0  0  0  0  0  0  0  0  0  0  0
    9.0121   45.4317   33.6715 H   0  0  0  0  0  0  0  0  0  0  0  0
   11.8906   45.7658   32.9469 H   0  0  0  0  0  0  0  0  0  0  0  0
   10.7260   46.9687   33.1214 H   0  0  0  0  0  0  0  0  0  0  0  0
   10.7229   44.8814   31.1557 H   0  0  0  0  0  0  0  0  0  0  0  0
    9.3413   43.8330   31.4763 H   0  0  0  0  0  0  0  0  0  0  0  0
    7.0082   44.7169   31.5815 H   0  0  0  0  0  0  0  0  0  0  0  0
   10.3471   47.1849   30.4115 H   0  0  0  0  0  0  0  0  0  0  0  0
    5.4616   46.3074   30.5018 H   0  0  0  0  0  0  0  0  0  0  0  0
    8.8142   48.7653   29.3471 H   0  0  0  0  0  0  0  0  0  0  0  0
    7.1113   49.4630   27.7145 H   0  0  0  0  0  0  0  0  0  0  0  0
    6.9836   50.4024   29.2664 H   0  0  0  0  0  0  0  0  0  0  0  0
    3.7812   49.3085   29.2280 H   0  0  0  0  0  0  0  0  0  0  0  0
    4.2555   52.8935   25.7927 H   0  0  0  0  0  0  0  0  0  0  0  0
    0.1486   52.1206   28.0473 H   0  0  0  0  0  0  0  0  0  0  0  0
    0.0607   50.8569   26.7297 H   0  0  0  0  0  0  0  0  0  0  0  0
    9.8243   40.7216   31.7643 H   0  0  0  0  0  0  0  0  0  0  0  0
   11.3802   41.5529   31.4734 H   0  0  0  0  0  0  0  0  0  0  0  0
   11.7266   39.5311   30.3513 H   0  0  0  0  0  0  0  0  0  0  0  0
   10.1110   38.2747   32.6387 H   0  0  0  0  0  0  0  0  0  0  0  0
   13.6652   37.4519   31.2226 H   0  0  0  0  0  0  0  0  0  0  0  0
   10.0512   38.1144   29.7645 H   0  0  0  0  0  0  0  0  0  0  0  0
   11.2762   36.3141   32.5189 H   0  0  0  0  0  0  0  0  0  0  0  0
   10.8593   35.6978   30.4640 H   0  0  0  0  0  0  0  0  0  0  0  0
   12.3294   38.3518   34.7449 H   0  0  0  0  0  0  0  0  0  0  0  0
   16.7564   34.1779   32.4620 H   0  0  0  0  0  0  0  0  0  0  0  0
   16.6349   34.5300   37.1415 H   0  0  0  0  0  0  0  0  0  0  0  0
   15.3534   35.7359   37.5138 H   0  0  0  0  0  0  0  0  0  0  0  0
  1  2  2  0
  1  3  1  0
  3  4  1  0
  4  5  1  0
  6  1  1  0
  7  6  1  0
  6  8  1  0
  8  9  1  0
  9 10  2  0
 11  9  1  0
 10 12  1  0
 13 11  2  0
 12 14  2  0
 14 13  1  0
 14 15  1  0
 15 16  1  0
 16 17  1  0
 17 18  2  0
 19 17  1  0
 18 20  1  0
 21 19  2  0
 19 22  1  0
 20 23  1  0
 20 24  2  0
 24 21  1  0
 22 25  1  0
 22 26  2  0
 23 27  1  0
 24 28  1  0
 27 28  1  0
  4 29  2  0
  4 30  1  0
 31 30  1  0
 31 32  1  0
 32 33  1  0
 32 34  1  0
 33 35  1  0
 34 36  1  0
 34 37  1  0
 37 35  1  0
 35 38  1  0
 37 39  1  0
 40 38  1  0
 41 38  1  0
 42 40  2  0
 40 43  1  0
 44 41  2  0
 45 42  1  0
 43 46  2  0
 43 44  1  0
 47 45  2  0
 47 46  1  0
 46 48  1  0
  6 49  1  1
  7 50  1  0
  7 51  1  0
  8 52  1  0
  8 53  1  0
 10 54  1  0
 11 55  1  0
 12 56  1  0
 13 57  1  0
 16 58  1  0
 16 59  1  0
 18 60  1  0
 21 61  1  0
 27 62  1  0
 27 63  1  0
 31 64  1  0
 31 65  1  0
 32 66  1  0
 34 67  1  0
 35 68  1  0
 36 69  1  0
 37 70  1  0
 39 71  1  0
 41 72  1  0
 45 73  1  0
 48 74  1  0
 48 75  1  0
M  CHG  3   5  -1  22   1  25  -1
M  END
>  <EmbedRMS>  (60) 
0.0818157164697

$$$$

     RDKit          3D

 75 80  0  0  0  0  0  0  0  0999 V2000
   10.2838   43.7627   33.8277 C   0  0  0  0  0  0  0  0  0  0  0  0
   11.4103   43.5863   34.3766 O   0  0  0  0  0  0  0  0  0  0  0  0
    9.3628   42.7238   33.7357 O   0  0  0  0  0  0  0  0  0  0  0  0
    9.8893   41.2251   34.2943 P   0  0  0  0  0  0  0  0  0  0  0  0
   10.3731   41.4545   35.8837 O   0  0  0  0  0  0  0  0  0  0  0  0
    9.9549   45.0701   33.2067 C   0  0  1  0  0  0  0  0  0  0  0  0
   11.0198   46.0482   33.4573 N   0  0  0  0  0  0  0  0  0  0  0  0
    9.7505   44.8514   31.6926 C   0  0  0  0  0  0  0  0  0  0  0  0
    8.7944   45.8425   31.0879 C   0  0  0  0  0  0  0  0  0  0  0  0
    7.4078   45.6002   31.0994 C   0  0  0  0  0  0  0  0  0  0  0  0
    9.2827   46.9887   30.4437 C   0  0  0  0  0  0  0  0  0  0  0  0
    6.5262   46.4989   30.4828 C   0  0  0  0  0  0  0  0  0  0  0  0
    8.4009   47.8867   29.8311 C   0  0  0  0  0  0  0  0  0  0  0  0
    7.0186   47.6575   29.8500 C   0  0  0  0  0  0  0  0  0  0  0  0
    6.1834   48.5957   29.2235 O   0  0  0  0  0  0  0  0  0  0  0  0
    4.7679   48.6965   29.3885 C   0  0  0  0  0  0  0  0  0  0  0  0
    4.4204   49.2046   30.7695 C   0  0  0  0  0  0  0  0  0  0  0  0
    3.7932   48.3120   31.6718 C   0  0  0  0  0  0  0  0  0  0  0  0
    4.6572   50.5652   31.1731 C   0  0  0  0  0  0  0  0  0  0  0  0
    3.4514   48.7742   32.9347 C   0  0  0  0  0  0  0  0  0  0  0  0
    4.2758   50.9763   32.4725 C   0  0  0  0  0  0  0  0  0  0  0  0
    5.2251   51.5487   30.2853 N   0  0  0  0  0  0  0  0  0  0  0  0
    2.8469   48.0834   33.9674 O   0  0  0  0  0  0  0  0  0  0  0  0
    3.6843   50.0489   33.3190 C   0  0  0  0  0  0  0  0  0  0  0  0
    4.9353   52.8820   30.4654 O   0  0  0  0  0  0  0  0  0  0  0  0
    6.0841   51.2369   29.4368 O   0  0  0  0  0  0  0  0  0  0  0  0
    2.6940   48.9847   35.0723 C   0  0  0  0  0  0  0  0  0  0  0  0
    3.2411   50.2291   34.6152 O   0  0  0  0  0  0  0  0  0  0  0  0
    8.8113   40.1835   34.2130 O   0  0  0  0  0  0  0  0  0  0  0  0
   11.2397   40.7942   33.3684 O   0  0  0  0  0  0  0  0  0  0  0  0
   10.9125   40.6875   31.9970 C   0  0  0  0  0  0  0  0  0  0  0  0
   11.5169   39.3810   31.4420 C   0  0  0  0  0  0  0  0  0  0  0  0
   12.7500   39.0880   32.0758 O   0  0  0  0  0  0  0  0  0  0  0  0
   10.6043   38.1892   31.6658 C   0  0  0  0  0  0  0  0  0  0  0  0
   12.9395   37.6813   32.0279 C   0  0  0  0  0  0  0  0  0  0  0  0
    9.6353   38.0951   30.6499 O   0  0  0  0  0  0  0  0  0  0  0  0
   11.5804   37.0190   31.6934 C   0  0  0  0  0  0  0  0  0  0  0  0
   13.4851   37.2119   33.3244 N   0  0  0  0  0  0  0  0  0  0  0  0
   11.6118   36.3188   30.4673 O   0  0  0  0  0  0  0  0  0  0  0  0
   14.4801   36.3316   33.5732 C   0  0  0  0  0  0  0  0  0  0  0  0
   13.1139   37.6277   34.5692 C   0  0  0  0  0  0  0  0  0  0  0  0
   15.2076   35.6154   32.6744 N   0  0  0  0  0  0  0  0  0  0  0  0
   14.6756   36.2303   34.9186 C   0  0  0  0  0  0  0  0  0  0  0  0
   13.8215   37.0451   35.5786 N   0  0  0  0  0  0  0  0  0  0  0  0
   16.1642   34.7602   33.1551 C   0  0  0  0  0  0  0  0  0  0  0  0
   15.6526   35.3505   35.4134 C   0  0  0  0  0  0  0  0  0  0  0  0
   16.3796   34.6316   34.5045 N   0  0  0  0  0  0  0  0  0  0  0  0
   15.9001   35.1933   36.8093 N   0  0  0  0  0  0  0  0  0  0  0  0
    9.0099   45.4350   33.6673 H   0  0  0  0  0  0  0  0  0  0  0  0
   11.1133   46.1993   34.4887 H   0  0  0  0  0  0  0  0  0  0  0  0
   11.9349   45.6934   33.0931 H   0  0  0  0  0  0  0  0  0  0  0  0
    9.3516   43.8348   31.4761 H   0  0  0  0  0  0  0  0  0  0  0  0
   10.7308   44.8934   31.1679 H   0  0  0  0  0  0  0  0  0  0  0  0
    7.0131   44.7112   31.5758 H   0  0  0  0  0  0  0  0  0  0  0  0
   10.3468   47.1885   30.4130 H   0  0  0  0  0  0  0  0  0  0  0  0
    5.4729   46.2679   30.4881 H   0  0  0  0  0  0  0  0  0  0  0  0
    8.7936   48.7690   29.3417 H   0  0  0  0  0  0  0  0  0  0  0  0
    4.2912   47.7167   29.1716 H   0  0  0  0  0  0  0  0  0  0  0  0
    4.3655   49.4033   28.6331 H   0  0  0  0  0  0  0  0  0  0  0  0
    3.5660   47.2903   31.3981 H   0  0  0  0  0  0  0  0  0  0  0  0
    4.4385   51.9898   32.8157 H   0  0  0  0  0  0  0  0  0  0  0  0
    3.2635   48.6155   35.9508 H   0  0  0  0  0  0  0  0  0  0  0  0
    1.6193   49.1074   35.3220 H   0  0  0  0  0  0  0  0  0  0  0  0
    9.8216   40.7222   31.7644 H   0  0  0  0  0  0  0  0  0  0  0  0
   11.3811   41.5456   31.4692 H   0  0  0  0  0  0  0  0  0  0  0  0
   11.6985   39.5089   30.3498 H   0  0  0  0  0  0  0  0  0  0  0  0
   10.1109   38.2736   32.6629 H   0  0  0  0  0  0  0  0  0  0  0  0
   13.6783   37.4561   31.2271 H   0  0  0  0  0  0  0  0  0  0  0  0
    9.0020   37.3859   30.9348 H   0  0  0  0  0  0  0  0  0  0  0  0
   11.2808   36.3052   32.4921 H   0  0  0  0  0  0  0  0  0  0  0  0
   11.8819   36.9599   29.7584 H   0  0  0  0  0  0  0  0  0  0  0  0
   12.3303   38.3537   34.7445 H   0  0  0  0  0  0  0  0  0  0  0  0
   16.7563   34.1783   32.4624 H   0  0  0  0  0  0  0  0  0  0  0  0
   16.6348   34.5301   37.1418 H   0  0  0  0  0  0  0  0  0  0  0  0
   15.3532   35.7359   37.5142 H   0  0  0  0  0  0  0  0  0  0  0  0
  1  2  2  0
  1  3  1  0
  3  4  1  0
  4  5  1  0
  6  1  1  0
  7  6  1  0
  6  8  1  0
  8  9  1  0
  9 10  2  0
 11  9  1  0
 10 12  1  0
 13 11  2  0
 12 14  2  0
 14 13  1  0
 14 15  1  0
 15 16  1  0
 16 17  1  0
 17 18  2  0
 19 17  1  0
 18 20  1  0
 21 19  2  0
 19 22  1  0
 20 23  1  0
 20 24  2  0
 24 21  1  0
 22 25  1  0
 22 26  2  0
 23 27  1  0
 24 28  1  0
 27 28  1  0
  4 29  2  0
  4 30  1  0
 31 30  1  0
 31 32  1  0
 32 33  1  0
 32 34  1  0
 33 35  1  0
 34 36  1  0
 34 37  1  0
 37 35  1  0
 35 38  1  0
 37 39  1  0
 40 38  1  0
 41 38  1  0
 42 40  2  0
 40 43  1  0
 44 41  2  0
 45 42  1  0
 43 46  2  0
 43 44  1  0
 47 45  2  0
 47 46  1  0
 46 48  1  0
  6 49  1  1
  7 50  1  0
  7 51  1  0
  8 52  1  0
  8 53  1  0
 10 54  1  0
 11 55  1  0
 12 56  1  0
 13 57  1  0
 16 58  1  0
 16 59  1  0
 18 60  1  0
 21 61  1  0
 27 62  1  0
 27 63  1  0
 31 64  1  0
 31 65  1  0
 32 66  1  0
 34 67  1  0
 35 68  1  0
 36 69  1  0
 37 70  1  0
 39 71  1  0
 41 72  1  0
 45 73  1  0
 48 74  1  0
 48 75  1  0
M  CHG  3   5  -1  22   1  25  -1
M  END
>  <EmbedRMS>  (61) 
0.082448187435

$$$$

     RDKit          3D

 75 80  0  0  0  0  0  0  0  0999 V2000
   10.2833   43.7663   33.8255 C   0  0  0  0  0  0  0  0  0  0  0  0
   11.4101   43.5931   34.3751 O   0  0  0  0  0  0  0  0  0  0  0  0
    9.3636   42.7256   33.7348 O   0  0  0  0  0  0  0  0  0  0  0  0
    9.8905   41.2266   34.2933 P   0  0  0  0  0  0  0  0  0  0  0  0
   10.3743   41.4557   35.8827 O   0  0  0  0  0  0  0  0  0  0  0  0
    9.9545   45.0697   33.2036 C   0  0  1  0  0  0  0  0  0  0  0  0
   11.0272   46.0323   33.4759 N   0  0  0  0  0  0  0  0  0  0  0  0
    9.7465   44.8488   31.6876 C   0  0  0  0  0  0  0  0  0  0  0  0
    8.7920   45.8416   31.0847 C   0  0  0  0  0  0  0  0  0  0  0  0
    7.4042   45.6008   31.0988 C   0  0  0  0  0  0  0  0  0  0  0  0
    9.2823   46.9889   30.4406 C   0  0  0  0  0  0  0  0  0  0  0  0
    6.5247   46.5015   30.4826 C   0  0  0  0  0  0  0  0  0  0  0  0
    8.4010   47.8892   29.8297 C   0  0  0  0  0  0  0  0  0  0  0  0
    7.0208   47.6528   29.8527 C   0  0  0  0  0  0  0  0  0  0  0  0
    6.1521   48.5582   29.2401 O   0  0  0  0  0  0  0  0  0  0  0  0
    5.4654   49.5631   29.9829 C   0  0  0  0  0  0  0  0  0  0  0  0
    4.3617   48.9586   30.8183 C   0  0  0  0  0  0  0  0  0  0  0  0
    4.4274   49.1101   32.2236 C   0  0  0  0  0  0  0  0  0  0  0  0
    3.2944   48.1915   30.2384 C   0  0  0  0  0  0  0  0  0  0  0  0
    3.4552   48.4969   33.0020 C   0  0  0  0  0  0  0  0  0  0  0  0
    2.3403   47.5821   31.0863 C   0  0  0  0  0  0  0  0  0  0  0  0
    3.1814   47.9889   28.8175 N   0  0  0  0  0  0  0  0  0  0  0  0
    3.3258   48.5041   34.3775 O   0  0  0  0  0  0  0  0  0  0  0  0
    2.4572   47.7640   32.4578 C   0  0  0  0  0  0  0  0  0  0  0  0
    2.5752   46.8526   28.3329 O   0  0  0  0  0  0  0  0  0  0  0  0
    3.4836   48.8941   28.0139 O   0  0  0  0  0  0  0  0  0  0  0  0
    2.1704   47.7253   34.7171 C   0  0  0  0  0  0  0  0  0  0  0  0
    1.6458   47.2716   33.4618 O   0  0  0  0  0  0  0  0  0  0  0  0
    8.8121   40.1851   34.2128 O   0  0  0  0  0  0  0  0  0  0  0  0
   11.2403   40.7946   33.3668 O   0  0  0  0  0  0  0  0  0  0  0  0
   10.9126   40.6859   31.9954 C   0  0  0  0  0  0  0  0  0  0  0  0
   11.5175   39.3787   31.4405 C   0  0  0  0  0  0  0  0  0  0  0  0
   12.7490   39.0864   32.0752 O   0  0  0  0  0  0  0  0  0  0  0  0
   10.6061   38.1868   31.6656 C   0  0  0  0  0  0  0  0  0  0  0  0
   12.9356   37.6796   32.0292 C   0  0  0  0  0  0  0  0  0  0  0  0
    9.6399   38.0903   30.6471 O   0  0  0  0  0  0  0  0  0  0  0  0
   11.5765   37.0145   31.7044 C   0  0  0  0  0  0  0  0  0  0  0  0
   13.4858   37.2125   33.3244 N   0  0  0  0  0  0  0  0  0  0  0  0
   11.6101   36.3397   30.4673 O   0  0  0  0  0  0  0  0  0  0  0  0
   14.4805   36.3319   33.5729 C   0  0  0  0  0  0  0  0  0  0  0  0
   13.1143   37.6276   34.5694 C   0  0  0  0  0  0  0  0  0  0  0  0
   15.2076   35.6153   32.6741 N   0  0  0  0  0  0  0  0  0  0  0  0
   14.6760   36.2304   34.9184 C   0  0  0  0  0  0  0  0  0  0  0  0
   13.8219   37.0449   35.5786 N   0  0  0  0  0  0  0  0  0  0  0  0
   16.1641   34.7600   33.1548 C   0  0  0  0  0  0  0  0  0  0  0  0
   15.6528   35.3505   35.4132 C   0  0  0  0  0  0  0  0  0  0  0  0
   16.3795   34.6314   34.5043 N   0  0  0  0  0  0  0  0  0  0  0  0
   15.9002   35.1931   36.8091 N   0  0  0  0  0  0  0  0  0  0  0  0
    9.0119   45.4319   33.6715 H   0  0  0  0  0  0  0  0  0  0  0  0
   10.7258   46.9690   33.1216 H   0  0  0  0  0  0  0  0  0  0  0  0
   11.8905   45.7660   32.9472 H   0  0  0  0  0  0  0  0  0  0  0  0
    9.3415   43.8336   31.4759 H   0  0  0  0  0  0  0  0  0  0  0  0
   10.7228   44.8826   31.1556 H   0  0  0  0  0  0  0  0  0  0  0  0
    7.0076   44.7146   31.5786 H   0  0  0  0  0  0  0  0  0  0  0  0
   10.3467   47.1865   30.4083 H   0  0  0  0  0  0  0  0  0  0  0  0
    5.4622   46.2988   30.4918 H   0  0  0  0  0  0  0  0  0  0  0  0
    8.7901   48.7722   29.3391 H   0  0  0  0  0  0  0  0  0  0  0  0
    6.1990   50.1129   30.6131 H   0  0  0  0  0  0  0  0  0  0  0  0
    5.0375   50.3110   29.2853 H   0  0  0  0  0  0  0  0  0  0  0  0
    5.2203   49.6743   32.6982 H   0  0  0  0  0  0  0  0  0  0  0  0
    1.5253   46.9919   30.6879 H   0  0  0  0  0  0  0  0  0  0  0  0
    2.4629   46.8584   35.3459 H   0  0  0  0  0  0  0  0  0  0  0  0
    1.4216   48.3568   35.2396 H   0  0  0  0  0  0  0  0  0  0  0  0
   11.3803   41.5437   31.4663 H   0  0  0  0  0  0  0  0  0  0  0  0
    9.8215   40.7200   31.7636 H   0  0  0  0  0  0  0  0  0  0  0  0
   11.6998   39.5041   30.3482 H   0  0  0  0  0  0  0  0  0  0  0  0
   10.1085   38.2767   32.6603 H   0  0  0  0  0  0  0  0  0  0  0  0
   13.6680   37.4520   31.2229 H   0  0  0  0  0  0  0  0  0  0  0  0
    9.0016   37.3868   30.9350 H   0  0  0  0  0  0  0  0  0  0  0  0
   11.2666   36.3062   32.5083 H   0  0  0  0  0  0  0  0  0  0  0  0
   12.1389   35.5126   30.6150 H   0  0  0  0  0  0  0  0  0  0  0  0
   12.3300   38.3529   34.7449 H   0  0  0  0  0  0  0  0  0  0  0  0
   16.7560   34.1779   32.4620 H   0  0  0  0  0  0  0  0  0  0  0  0
   16.6347   34.5298   37.1416 H   0  0  0  0  0  0  0  0  0  0  0  0
   15.3534   35.7359   37.5140 H   0  0  0  0  0  0  0  0  0  0  0  0
  1  2  2  0
  1  3  1  0
  3  4  1  0
  4  5  1  0
  6  1  1  0
  7  6  1  0
  6  8  1  0
  8  9  1  0
  9 10  2  0
 11  9  1  0
 10 12  1  0
 13 11  2  0
 12 14  2  0
 14 13  1  0
 14 15  1  0
 15 16  1  0
 16 17  1  0
 17 18  2  0
 19 17  1  0
 18 20  1  0
 21 19  2  0
 19 22  1  0
 20 23  1  0
 20 24  2  0
 24 21  1  0
 22 25  1  0
 22 26  2  0
 23 27  1  0
 24 28  1  0
 27 28  1  0
  4 29  2  0
  4 30  1  0
 31 30  1  0
 31 32  1  0
 32 33  1  0
 32 34  1  0
 33 35  1  0
 34 36  1  0
 34 37  1  0
 37 35  1  0
 35 38  1  0
 37 39  1  0
 40 38  1  0
 41 38  1  0
 42 40  2  0
 40 43  1  0
 44 41  2  0
 45 42  1  0
 43 46  2  0
 43 44  1  0
 47 45  2  0
 47 46  1  0
 46 48  1  0
  6 49  1  1
  7 50  1  0
  7 51  1  0
  8 52  1  0
  8 53  1  0
 10 54  1  0
 11 55  1  0
 12 56  1  0
 13 57  1  0
 16 58  1  0
 16 59  1  0
 18 60  1  0
 21 61  1  0
 27 62  1  0
 27 63  1  0
 31 64  1  0
 31 65  1  0
 32 66  1  0
 34 67  1  0
 35 68  1  0
 36 69  1  0
 37 70  1  0
 39 71  1  0
 41 72  1  0
 45 73  1  0
 48 74  1  0
 48 75  1  0
M  CHG  3   5  -1  22   1  25  -1
M  END
>  <EmbedRMS>  (62) 
0.0824656557185

$$$$

     RDKit          3D

 75 80  0  0  0  0  0  0  0  0999 V2000
   10.2835   43.7662   33.8257 C   0  0  0  0  0  0  0  0  0  0  0  0
   11.4102   43.5930   34.3753 O   0  0  0  0  0  0  0  0  0  0  0  0
    9.3638   42.7255   33.7348 O   0  0  0  0  0  0  0  0  0  0  0  0
    9.8906   41.2266   34.2933 P   0  0  0  0  0  0  0  0  0  0  0  0
   10.3743   41.4557   35.8827 O   0  0  0  0  0  0  0  0  0  0  0  0
    9.9547   45.0696   33.2038 C   0  0  1  0  0  0  0  0  0  0  0  0
   11.0273   46.0323   33.4762 N   0  0  0  0  0  0  0  0  0  0  0  0
    9.7470   44.8487   31.6879 C   0  0  0  0  0  0  0  0  0  0  0  0
    8.7925   45.8416   31.0854 C   0  0  0  0  0  0  0  0  0  0  0  0
    7.4060   45.6008   31.0983 C   0  0  0  0  0  0  0  0  0  0  0  0
    9.2818   46.9873   30.4411 C   0  0  0  0  0  0  0  0  0  0  0  0
    6.5249   46.5002   30.4825 C   0  0  0  0  0  0  0  0  0  0  0  0
    8.4004   47.8866   29.8301 C   0  0  0  0  0  0  0  0  0  0  0  0
    7.0179   47.6589   29.8504 C   0  0  0  0  0  0  0  0  0  0  0  0
    6.1830   48.5981   29.2252 O   0  0  0  0  0  0  0  0  0  0  0  0
    4.7725   48.7196   29.4151 C   0  0  0  0  0  0  0  0  0  0  0  0
    4.4599   49.2601   30.7912 C   0  0  0  0  0  0  0  0  0  0  0  0
    3.8827   48.3849   31.7423 C   0  0  0  0  0  0  0  0  0  0  0  0
    4.6787   50.6363   31.1409 C   0  0  0  0  0  0  0  0  0  0  0  0
    3.5705   48.8827   32.9998 C   0  0  0  0  0  0  0  0  0  0  0  0
    4.3288   51.0855   32.4371 C   0  0  0  0  0  0  0  0  0  0  0  0
    5.1989   51.5923   30.1974 N   0  0  0  0  0  0  0  0  0  0  0  0
    3.0150   48.2149   34.0742 O   0  0  0  0  0  0  0  0  0  0  0  0
    3.7858   50.1751   33.3332 C   0  0  0  0  0  0  0  0  0  0  0  0
    6.2023   51.2521   29.3217 O   0  0  0  0  0  0  0  0  0  0  0  0
    4.8503   52.7891   30.2675 O   0  0  0  0  0  0  0  0  0  0  0  0
    2.8762   49.1502   35.1523 C   0  0  0  0  0  0  0  0  0  0  0  0
    3.3795   50.3899   34.6361 O   0  0  0  0  0  0  0  0  0  0  0  0
    8.8122   40.1851   34.2127 O   0  0  0  0  0  0  0  0  0  0  0  0
   11.2406   40.7945   33.3671 O   0  0  0  0  0  0  0  0  0  0  0  0
   10.9134   40.6866   31.9954 C   0  0  0  0  0  0  0  0  0  0  0  0
   11.5167   39.3787   31.4404 C   0  0  0  0  0  0  0  0  0  0  0  0
   12.7486   39.0849   32.0735 O   0  0  0  0  0  0  0  0  0  0  0  0
   10.6039   38.1884   31.6669 C   0  0  0  0  0  0  0  0  0  0  0  0
   12.9329   37.6775   32.0284 C   0  0  0  0  0  0  0  0  0  0  0  0
    9.6374   38.0938   30.6484 O   0  0  0  0  0  0  0  0  0  0  0  0
   11.5737   37.0140   31.7055 C   0  0  0  0  0  0  0  0  0  0  0  0
   13.4853   37.2120   33.3238 N   0  0  0  0  0  0  0  0  0  0  0  0
   11.6210   36.3379   30.4683 O   0  0  0  0  0  0  0  0  0  0  0  0
   14.4804   36.3319   33.5726 C   0  0  0  0  0  0  0  0  0  0  0  0
   13.1140   37.6274   34.5689 C   0  0  0  0  0  0  0  0  0  0  0  0
   15.2076   35.6152   32.6740 N   0  0  0  0  0  0  0  0  0  0  0  0
   14.6761   36.2306   34.9181 C   0  0  0  0  0  0  0  0  0  0  0  0
   13.8218   37.0451   35.5783 N   0  0  0  0  0  0  0  0  0  0  0  0
   16.1642   34.7600   33.1548 C   0  0  0  0  0  0  0  0  0  0  0  0
   15.6528   35.3507   35.4131 C   0  0  0  0  0  0  0  0  0  0  0  0
   16.3796   34.6315   34.5043 N   0  0  0  0  0  0  0  0  0  0  0  0
   15.9001   35.1933   36.8090 N   0  0  0  0  0  0  0  0  0  0  0  0
    9.0121   45.4317   33.6716 H   0  0  0  0  0  0  0  0  0  0  0  0
   11.8908   45.7660   32.9477 H   0  0  0  0  0  0  0  0  0  0  0  0
   10.7260   46.9689   33.1218 H   0  0  0  0  0  0  0  0  0  0  0  0
   10.7234   44.8827   31.1560 H   0  0  0  0  0  0  0  0  0  0  0  0
    9.3423   43.8334   31.4760 H   0  0  0  0  0  0  0  0  0  0  0  0
    7.0107   44.7118   31.5744 H   0  0  0  0  0  0  0  0  0  0  0  0
   10.3461   47.1852   30.4082 H   0  0  0  0  0  0  0  0  0  0  0  0
    5.4716   46.2690   30.4867 H   0  0  0  0  0  0  0  0  0  0  0  0
    8.7936   48.7686   29.3405 H   0  0  0  0  0  0  0  0  0  0  0  0
    4.3647   49.4158   28.6527 H   0  0  0  0  0  0  0  0  0  0  0  0
    4.2778   47.7426   29.2288 H   0  0  0  0  0  0  0  0  0  0  0  0
    3.6695   47.3503   31.5099 H   0  0  0  0  0  0  0  0  0  0  0  0
    4.4795   52.1143   32.7380 H   0  0  0  0  0  0  0  0  0  0  0  0
    1.8073   49.2575   35.4324 H   0  0  0  0  0  0  0  0  0  0  0  0
    3.4815   48.8242   36.0240 H   0  0  0  0  0  0  0  0  0  0  0  0
    9.8225   40.7225   31.7631 H   0  0  0  0  0  0  0  0  0  0  0  0
   11.3828   41.5438   31.4669 H   0  0  0  0  0  0  0  0  0  0  0  0
   11.6979   39.5037   30.3478 H   0  0  0  0  0  0  0  0  0  0  0  0
   10.1084   38.2787   32.6627 H   0  0  0  0  0  0  0  0  0  0  0  0
   13.6638   37.4472   31.2214 H   0  0  0  0  0  0  0  0  0  0  0  0
    8.9763   37.4191   30.9532 H   0  0  0  0  0  0  0  0  0  0  0  0
   11.2821   36.3054   32.5171 H   0  0  0  0  0  0  0  0  0  0  0  0
   10.8658   35.6935   30.4652 H   0  0  0  0  0  0  0  0  0  0  0  0
   12.3293   38.3522   34.7444 H   0  0  0  0  0  0  0  0  0  0  0  0
   16.7561   34.1778   32.4621 H   0  0  0  0  0  0  0  0  0  0  0  0
   15.3533   35.7361   37.5138 H   0  0  0  0  0  0  0  0  0  0  0  0
   16.6345   34.5300   37.1416 H   0  0  0  0  0  0  0  0  0  0  0  0
  1  2  2  0
  1  3  1  0
  3  4  1  0
  4  5  1  0
  6  1  1  0
  7  6  1  0
  6  8  1  0
  8  9  1  0
  9 10  2  0
 11  9  1  0
 10 12  1  0
 13 11  2  0
 12 14  2  0
 14 13  1  0
 14 15  1  0
 15 16  1  0
 16 17  1  0
 17 18  2  0
 19 17  1  0
 18 20  1  0
 21 19  2  0
 19 22  1  0
 20 23  1  0
 20 24  2  0
 24 21  1  0
 22 25  1  0
 22 26  2  0
 23 27  1  0
 24 28  1  0
 27 28  1  0
  4 29  2  0
  4 30  1  0
 31 30  1  0
 31 32  1  0
 32 33  1  0
 32 34  1  0
 33 35  1  0
 34 36  1  0
 34 37  1  0
 37 35  1  0
 35 38  1  0
 37 39  1  0
 40 38  1  0
 41 38  1  0
 42 40  2  0
 40 43  1  0
 44 41  2  0
 45 42  1  0
 43 46  2  0
 43 44  1  0
 47 45  2  0
 47 46  1  0
 46 48  1  0
  6 49  1  1
  7 50  1  0
  7 51  1  0
  8 52  1  0
  8 53  1  0
 10 54  1  0
 11 55  1  0
 12 56  1  0
 13 57  1  0
 16 58  1  0
 16 59  1  0
 18 60  1  0
 21 61  1  0
 27 62  1  0
 27 63  1  0
 31 64  1  0
 31 65  1  0
 32 66  1  0
 34 67  1  0
 35 68  1  0
 36 69  1  0
 37 70  1  0
 39 71  1  0
 41 72  1  0
 45 73  1  0
 48 74  1  0
 48 75  1  0
M  CHG  3   5  -1  22   1  25  -1
M  END
>  <EmbedRMS>  (63) 
0.0825423324703

$$$$

     RDKit          3D

 75 80  0  0  0  0  0  0  0  0999 V2000
   10.2835   43.7661   33.8256 C   0  0  0  0  0  0  0  0  0  0  0  0
   11.4102   43.5930   34.3752 O   0  0  0  0  0  0  0  0  0  0  0  0
    9.3638   42.7254   33.7349 O   0  0  0  0  0  0  0  0  0  0  0  0
    9.8903   41.2267   34.2943 P   0  0  0  0  0  0  0  0  0  0  0  0
   10.3735   41.4561   35.8837 O   0  0  0  0  0  0  0  0  0  0  0  0
    9.9547   45.0694   33.2036 C   0  0  1  0  0  0  0  0  0  0  0  0
   11.0274   46.0321   33.4756 N   0  0  0  0  0  0  0  0  0  0  0  0
    9.7465   44.8481   31.6877 C   0  0  0  0  0  0  0  0  0  0  0  0
    8.7923   45.8409   31.0844 C   0  0  0  0  0  0  0  0  0  0  0  0
    7.4054   45.6015   31.0991 C   0  0  0  0  0  0  0  0  0  0  0  0
    9.2824   46.9879   30.4423 C   0  0  0  0  0  0  0  0  0  0  0  0
    6.5264   46.5032   30.4839 C   0  0  0  0  0  0  0  0  0  0  0  0
    8.4032   47.8902   29.8315 C   0  0  0  0  0  0  0  0  0  0  0  0
    7.0143   47.6526   29.8474 C   0  0  0  0  0  0  0  0  0  0  0  0
    6.0936   48.5235   29.2471 O   0  0  0  0  0  0  0  0  0  0  0  0
    6.4462   49.7196   28.5574 C   0  0  0  0  0  0  0  0  0  0  0  0
    5.1990   50.3780   28.0304 C   0  0  0  0  0  0  0  0  0  0  0  0
    4.6303   51.4340   28.7804 C   0  0  0  0  0  0  0  0  0  0  0  0
    4.5956   49.9851   26.7898 C   0  0  0  0  0  0  0  0  0  0  0  0
    3.5068   52.0745   28.2746 C   0  0  0  0  0  0  0  0  0  0  0  0
    3.4590   50.6855   26.3198 C   0  0  0  0  0  0  0  0  0  0  0  0
    5.1214   48.9026   25.9998 N   0  0  0  0  0  0  0  0  0  0  0  0
    2.7938   53.1217   28.8258 O   0  0  0  0  0  0  0  0  0  0  0  0
    2.9478   51.7182   27.0952 C   0  0  0  0  0  0  0  0  0  0  0  0
    5.6021   47.7626   26.6004 O   0  0  0  0  0  0  0  0  0  0  0  0
    4.9933   48.9159   24.7580 O   0  0  0  0  0  0  0  0  0  0  0  0
    1.7176   53.4421   27.9336 C   0  0  0  0  0  0  0  0  0  0  0  0
    1.8531   52.5220   26.8418 O   0  0  0  0  0  0  0  0  0  0  0  0
    8.8122   40.1850   34.2131 O   0  0  0  0  0  0  0  0  0  0  0  0
   11.2407   40.7939   33.3694 O   0  0  0  0  0  0  0  0  0  0  0  0
   10.9151   40.6905   31.9974 C   0  0  0  0  0  0  0  0  0  0  0  0
   11.5252   39.3886   31.4375 C   0  0  0  0  0  0  0  0  0  0  0  0
   12.7500   39.0874   32.0799 O   0  0  0  0  0  0  0  0  0  0  0  0
   10.6092   38.1926   31.6470 C   0  0  0  0  0  0  0  0  0  0  0  0
   12.9332   37.6793   32.0294 C   0  0  0  0  0  0  0  0  0  0  0  0
    9.6122   38.0895   30.6542 O   0  0  0  0  0  0  0  0  0  0  0  0
   11.5743   37.0145   31.7024 C   0  0  0  0  0  0  0  0  0  0  0  0
   13.4844   37.2108   33.3241 N   0  0  0  0  0  0  0  0  0  0  0  0
   11.6297   36.3239   30.4740 O   0  0  0  0  0  0  0  0  0  0  0  0
   14.4802   36.3313   33.5727 C   0  0  0  0  0  0  0  0  0  0  0  0
   13.1138   37.6267   34.5692 C   0  0  0  0  0  0  0  0  0  0  0  0
   15.2075   35.6149   32.6739 N   0  0  0  0  0  0  0  0  0  0  0  0
   14.6761   36.2303   34.9181 C   0  0  0  0  0  0  0  0  0  0  0  0
   13.8220   37.0447   35.5785 N   0  0  0  0  0  0  0  0  0  0  0  0
   16.1643   34.7600   33.1547 C   0  0  0  0  0  0  0  0  0  0  0  0
   15.6529   35.3505   35.4130 C   0  0  0  0  0  0  0  0  0  0  0  0
   16.3798   34.6315   34.5042 N   0  0  0  0  0  0  0  0  0  0  0  0
   15.9003   35.1932   36.8090 N   0  0  0  0  0  0  0  0  0  0  0  0
    9.0121   45.4317   33.6715 H   0  0  0  0  0  0  0  0  0  0  0  0
   11.8906   45.7658   32.9469 H   0  0  0  0  0  0  0  0  0  0  0  0
   10.7260   46.9687   33.1214 H   0  0  0  0  0  0  0  0  0  0  0  0
   10.7229   44.8813   31.1557 H   0  0  0  0  0  0  0  0  0  0  0  0
    9.3413   43.8330   31.4763 H   0  0  0  0  0  0  0  0  0  0  0  0
    7.0082   44.7167   31.5812 H   0  0  0  0  0  0  0  0  0  0  0  0
   10.3470   47.1849   30.4116 H   0  0  0  0  0  0  0  0  0  0  0  0
    5.4618   46.3070   30.5014 H   0  0  0  0  0  0  0  0  0  0  0  0
    8.8142   48.7656   29.3480 H   0  0  0  0  0  0  0  0  0  0  0  0
    6.9748   50.4023   29.2586 H   0  0  0  0  0  0  0  0  0  0  0  0
    7.1433   49.4982   27.7210 H   0  0  0  0  0  0  0  0  0  0  0  0
    5.0548   51.7517   29.7246 H   0  0  0  0  0  0  0  0  0  0  0  0
    2.9782   50.4212   25.3867 H   0  0  0  0  0  0  0  0  0  0  0  0
    1.8183   54.4860   27.5696 H   0  0  0  0  0  0  0  0  0  0  0  0
    0.7412   53.2938   28.4407 H   0  0  0  0  0  0  0  0  0  0  0  0
    9.8243   40.7216   31.7643 H   0  0  0  0  0  0  0  0  0  0  0  0
   11.3802   41.5529   31.4733 H   0  0  0  0  0  0  0  0  0  0  0  0
   11.7266   39.5311   30.3513 H   0  0  0  0  0  0  0  0  0  0  0  0
   10.1110   38.2747   32.6387 H   0  0  0  0  0  0  0  0  0  0  0  0
   13.6652   37.4519   31.2226 H   0  0  0  0  0  0  0  0  0  0  0  0
   10.0511   38.1144   29.7645 H   0  0  0  0  0  0  0  0  0  0  0  0
   11.2762   36.3141   32.5189 H   0  0  0  0  0  0  0  0  0  0  0  0
   10.8593   35.6978   30.4640 H   0  0  0  0  0  0  0  0  0  0  0  0
   12.3294   38.3518   34.7449 H   0  0  0  0  0  0  0  0  0  0  0  0
   16.7564   34.1779   32.4620 H   0  0  0  0  0  0  0  0  0  0  0  0
   15.3534   35.7359   37.5138 H   0  0  0  0  0  0  0  0  0  0  0  0
   16.6349   34.5300   37.1416 H   0  0  0  0  0  0  0  0  0  0  0  0
  1  2  2  0
  1  3  1  0
  3  4  1  0
  4  5  1  0
  6  1  1  0
  7  6  1  0
  6  8  1  0
  8  9  1  0
  9 10  2  0
 11  9  1  0
 10 12  1  0
 13 11  2  0
 12 14  2  0
 14 13  1  0
 14 15  1  0
 15 16  1  0
 16 17  1  0
 17 18  2  0
 19 17  1  0
 18 20  1  0
 21 19  2  0
 19 22  1  0
 20 23  1  0
 20 24  2  0
 24 21  1  0
 22 25  1  0
 22 26  2  0
 23 27  1  0
 24 28  1  0
 27 28  1  0
  4 29  2  0
  4 30  1  0
 31 30  1  0
 31 32  1  0
 32 33  1  0
 32 34  1  0
 33 35  1  0
 34 36  1  0
 34 37  1  0
 37 35  1  0
 35 38  1  0
 37 39  1  0
 40 38  1  0
 41 38  1  0
 42 40  2  0
 40 43  1  0
 44 41  2  0
 45 42  1  0
 43 46  2  0
 43 44  1  0
 47 45  2  0
 47 46  1  0
 46 48  1  0
  6 49  1  1
  7 50  1  0
  7 51  1  0
  8 52  1  0
  8 53  1  0
 10 54  1  0
 11 55  1  0
 12 56  1  0
 13 57  1  0
 16 58  1  0
 16 59  1  0
 18 60  1  0
 21 61  1  0
 27 62  1  0
 27 63  1  0
 31 64  1  0
 31 65  1  0
 32 66  1  0
 34 67  1  0
 35 68  1  0
 36 69  1  0
 37 70  1  0
 39 71  1  0
 41 72  1  0
 45 73  1  0
 48 74  1  0
 48 75  1  0
M  CHG  3   5  -1  22   1  25  -1
M  END
>  <EmbedRMS>  (64) 
0.0818190621626

$$$$

     RDKit          3D

 75 80  0  0  0  0  0  0  0  0999 V2000
   10.2838   43.7626   33.8275 C   0  0  0  0  0  0  0  0  0  0  0  0
   11.4103   43.5863   34.3766 O   0  0  0  0  0  0  0  0  0  0  0  0
    9.3630   42.7236   33.7353 O   0  0  0  0  0  0  0  0  0  0  0  0
    9.8893   41.2249   34.2943 P   0  0  0  0  0  0  0  0  0  0  0  0
   10.3727   41.4546   35.8837 O   0  0  0  0  0  0  0  0  0  0  0  0
    9.9549   45.0700   33.2062 C   0  0  1  0  0  0  0  0  0  0  0  0
   11.0198   46.0481   33.4570 N   0  0  0  0  0  0  0  0  0  0  0  0
    9.7506   44.8510   31.6921 C   0  0  0  0  0  0  0  0  0  0  0  0
    8.7945   45.8416   31.0865 C   0  0  0  0  0  0  0  0  0  0  0  0
    7.4076   45.6008   31.1009 C   0  0  0  0  0  0  0  0  0  0  0  0
    9.2826   46.9896   30.4452 C   0  0  0  0  0  0  0  0  0  0  0  0
    6.5257   46.5005   30.4864 C   0  0  0  0  0  0  0  0  0  0  0  0
    8.4007   47.8888   29.8343 C   0  0  0  0  0  0  0  0  0  0  0  0
    7.0195   47.6537   29.8434 C   0  0  0  0  0  0  0  0  0  0  0  0
    6.1834   48.5847   29.2069 O   0  0  0  0  0  0  0  0  0  0  0  0
    4.7822   48.4204   28.9835 C   0  0  0  0  0  0  0  0  0  0  0  0
    4.5203   47.3262   27.9740 C   0  0  0  0  0  0  0  0  0  0  0  0
    3.6461   46.2740   28.3353 C   0  0  0  0  0  0  0  0  0  0  0  0
    5.1589   47.3041   26.6881 C   0  0  0  0  0  0  0  0  0  0  0  0
    3.4568   45.2322   27.4373 C   0  0  0  0  0  0  0  0  0  0  0  0
    4.9364   46.2085   25.8221 C   0  0  0  0  0  0  0  0  0  0  0  0
    6.0364   48.3587   26.2538 N   0  0  0  0  0  0  0  0  0  0  0  0
    2.6666   44.1079   27.5803 O   0  0  0  0  0  0  0  0  0  0  0  0
    4.0772   45.1990   26.2358 C   0  0  0  0  0  0  0  0  0  0  0  0
    7.0552   48.0836   25.3707 O   0  0  0  0  0  0  0  0  0  0  0  0
    5.7890   49.5500   26.5305 O   0  0  0  0  0  0  0  0  0  0  0  0
    2.8005   43.3190   26.3901 C   0  0  0  0  0  0  0  0  0  0  0  0
    3.7099   44.0523   25.5581 O   0  0  0  0  0  0  0  0  0  0  0  0
    8.8113   40.1834   34.2130 O   0  0  0  0  0  0  0  0  0  0  0  0
   11.2399   40.7932   33.3693 O   0  0  0  0  0  0  0  0  0  0  0  0
   10.9143   40.6896   31.9973 C   0  0  0  0  0  0  0  0  0  0  0  0
   11.5260   39.3884   31.4375 C   0  0  0  0  0  0  0  0  0  0  0  0
   12.7504   39.0887   32.0815 O   0  0  0  0  0  0  0  0  0  0  0  0
   10.6115   38.1909   31.6460 C   0  0  0  0  0  0  0  0  0  0  0  0
   12.9357   37.6812   32.0303 C   0  0  0  0  0  0  0  0  0  0  0  0
    9.6145   38.0858   30.6533 O   0  0  0  0  0  0  0  0  0  0  0  0
   11.5769   37.0148   31.7012 C   0  0  0  0  0  0  0  0  0  0  0  0
   13.4849   37.2112   33.3247 N   0  0  0  0  0  0  0  0  0  0  0  0
   11.6193   36.3260   30.4724 O   0  0  0  0  0  0  0  0  0  0  0  0
   14.4802   36.3313   33.5730 C   0  0  0  0  0  0  0  0  0  0  0  0
   13.1141   37.6268   34.5697 C   0  0  0  0  0  0  0  0  0  0  0  0
   15.2074   35.6151   32.6741 N   0  0  0  0  0  0  0  0  0  0  0  0
   14.6761   36.2301   34.9184 C   0  0  0  0  0  0  0  0  0  0  0  0
   13.8220   37.0445   35.5789 N   0  0  0  0  0  0  0  0  0  0  0  0
   16.1642   34.7600   33.1547 C   0  0  0  0  0  0  0  0  0  0  0  0
   15.6529   35.3503   35.4131 C   0  0  0  0  0  0  0  0  0  0  0  0
   16.3797   34.6314   34.5042 N   0  0  0  0  0  0  0  0  0  0  0  0
   15.9004   35.1930   36.8090 N   0  0  0  0  0  0  0  0  0  0  0  0
    9.0098   45.4349   33.6667 H   0  0  0  0  0  0  0  0  0  0  0  0
   11.9349   45.6933   33.0928 H   0  0  0  0  0  0  0  0  0  0  0  0
   11.1132   46.1992   34.4883 H   0  0  0  0  0  0  0  0  0  0  0  0
    9.3519   43.8344   31.4757 H   0  0  0  0  0  0  0  0  0  0  0  0
   10.7310   44.8931   31.1674 H   0  0  0  0  0  0  0  0  0  0  0  0
    7.0123   44.7167   31.5859 H   0  0  0  0  0  0  0  0  0  0  0  0
   10.3466   47.1901   30.4158 H   0  0  0  0  0  0  0  0  0  0  0  0
    5.4672   46.2908   30.5259 H   0  0  0  0  0  0  0  0  0  0  0  0
    8.7935   48.7703   29.3434 H   0  0  0  0  0  0  0  0  0  0  0  0
    4.3665   49.3731   28.5965 H   0  0  0  0  0  0  0  0  0  0  0  0
    4.2690   48.2298   29.9510 H   0  0  0  0  0  0  0  0  0  0  0  0
    3.1414   46.2583   29.2931 H   0  0  0  0  0  0  0  0  0  0  0  0
    5.4052   46.1535   24.8482 H   0  0  0  0  0  0  0  0  0  0  0  0
    3.2242   42.3226   26.6355 H   0  0  0  0  0  0  0  0  0  0  0  0
    1.8173   43.2159   25.8850 H   0  0  0  0  0  0  0  0  0  0  0  0
    9.8234   40.7192   31.7644 H   0  0  0  0  0  0  0  0  0  0  0  0
   11.3782   41.5525   31.4732 H   0  0  0  0  0  0  0  0  0  0  0  0
   11.7282   39.5312   30.3515 H   0  0  0  0  0  0  0  0  0  0  0  0
   10.1127   38.2733   32.6376 H   0  0  0  0  0  0  0  0  0  0  0  0
   13.6692   37.4565   31.2241 H   0  0  0  0  0  0  0  0  0  0  0  0
   10.0533   38.1117   29.7635 H   0  0  0  0  0  0  0  0  0  0  0  0
   11.2607   36.3148   32.5101 H   0  0  0  0  0  0  0  0  0  0  0  0
   12.1496   35.5022   30.6323 H   0  0  0  0  0  0  0  0  0  0  0  0
   12.3301   38.3524   34.7455 H   0  0  0  0  0  0  0  0  0  0  0  0
   16.7562   34.1780   32.4619 H   0  0  0  0  0  0  0  0  0  0  0  0
   16.6351   34.5299   37.1416 H   0  0  0  0  0  0  0  0  0  0  0  0
   15.3536   35.7357   37.5140 H   0  0  0  0  0  0  0  0  0  0  0  0
  1  2  2  0
  1  3  1  0
  3  4  1  0
  4  5  1  0
  6  1  1  0
  7  6  1  0
  6  8  1  0
  8  9  1  0
  9 10  2  0
 11  9  1  0
 10 12  1  0
 13 11  2  0
 12 14  2  0
 14 13  1  0
 14 15  1  0
 15 16  1  0
 16 17  1  0
 17 18  2  0
 19 17  1  0
 18 20  1  0
 21 19  2  0
 19 22  1  0
 20 23  1  0
 20 24  2  0
 24 21  1  0
 22 25  1  0
 22 26  2  0
 23 27  1  0
 24 28  1  0
 27 28  1  0
  4 29  2  0
  4 30  1  0
 31 30  1  0
 31 32  1  0
 32 33  1  0
 32 34  1  0
 33 35  1  0
 34 36  1  0
 34 37  1  0
 37 35  1  0
 35 38  1  0
 37 39  1  0
 40 38  1  0
 41 38  1  0
 42 40  2  0
 40 43  1  0
 44 41  2  0
 45 42  1  0
 43 46  2  0
 43 44  1  0
 47 45  2  0
 47 46  1  0
 46 48  1  0
  6 49  1  1
  7 50  1  0
  7 51  1  0
  8 52  1  0
  8 53  1  0
 10 54  1  0
 11 55  1  0
 12 56  1  0
 13 57  1  0
 16 58  1  0
 16 59  1  0
 18 60  1  0
 21 61  1  0
 27 62  1  0
 27 63  1  0
 31 64  1  0
 31 65  1  0
 32 66  1  0
 34 67  1  0
 35 68  1  0
 36 69  1  0
 37 70  1  0
 39 71  1  0
 41 72  1  0
 45 73  1  0
 48 74  1  0
 48 75  1  0
M  CHG  3   5  -1  22   1  25  -1
M  END
>  <EmbedRMS>  (65) 
0.0825276925879

$$$$

     RDKit          3D

 75 80  0  0  0  0  0  0  0  0999 V2000
   10.2835   43.7661   33.8255 C   0  0  0  0  0  0  0  0  0  0  0  0
   11.4102   43.5930   34.3752 O   0  0  0  0  0  0  0  0  0  0  0  0
    9.3637   42.7255   33.7348 O   0  0  0  0  0  0  0  0  0  0  0  0
    9.8903   41.2267   34.2942 P   0  0  0  0  0  0  0  0  0  0  0  0
   10.3735   41.4561   35.8836 O   0  0  0  0  0  0  0  0  0  0  0  0
    9.9547   45.0695   33.2034 C   0  0  1  0  0  0  0  0  0  0  0  0
   11.0273   46.0322   33.4758 N   0  0  0  0  0  0  0  0  0  0  0  0
    9.7471   44.8483   31.6874 C   0  0  0  0  0  0  0  0  0  0  0  0
    8.7925   45.8407   31.0841 C   0  0  0  0  0  0  0  0  0  0  0  0
    7.4058   45.6011   31.0998 C   0  0  0  0  0  0  0  0  0  0  0  0
    9.2817   46.9883   30.4425 C   0  0  0  0  0  0  0  0  0  0  0  0
    6.5245   46.5015   30.4860 C   0  0  0  0  0  0  0  0  0  0  0  0
    8.4004   47.8888   29.8330 C   0  0  0  0  0  0  0  0  0  0  0  0
    7.0189   47.6554   29.8440 C   0  0  0  0  0  0  0  0  0  0  0  0
    6.1818   48.5872   29.2089 O   0  0  0  0  0  0  0  0  0  0  0  0
    4.7694   48.4470   29.0461 C   0  0  0  0  0  0  0  0  0  0  0  0
    4.4486   47.3414   28.0648 C   0  0  0  0  0  0  0  0  0  0  0  0
    5.1666   47.3017   26.8464 C   0  0  0  0  0  0  0  0  0  0  0  0
    3.4808   46.3214   28.3450 C   0  0  0  0  0  0  0  0  0  0  0  0
    4.9440   46.2384   25.9812 C   0  0  0  0  0  0  0  0  0  0  0  0
    3.3095   45.2540   27.4349 C   0  0  0  0  0  0  0  0  0  0  0  0
    2.6568   46.3632   29.5197 N   0  0  0  0  0  0  0  0  0  0  0  0
    5.5371   45.9865   24.7591 O   0  0  0  0  0  0  0  0  0  0  0  0
    4.0597   45.2544   26.2660 C   0  0  0  0  0  0  0  0  0  0  0  0
    2.3119   45.1921   30.1539 O   0  0  0  0  0  0  0  0  0  0  0  0
    2.0554   47.4134   29.8254 O   0  0  0  0  0  0  0  0  0  0  0  0
    4.9884   44.7654   24.2444 C   0  0  0  0  0  0  0  0  0  0  0  0
    4.0488   44.3319   25.2376 O   0  0  0  0  0  0  0  0  0  0  0  0
    8.8121   40.1850   34.2130 O   0  0  0  0  0  0  0  0  0  0  0  0
   11.2407   40.7939   33.3693 O   0  0  0  0  0  0  0  0  0  0  0  0
   10.9151   40.6905   31.9974 C   0  0  0  0  0  0  0  0  0  0  0  0
   11.5252   39.3886   31.4375 C   0  0  0  0  0  0  0  0  0  0  0  0
   12.7500   39.0874   32.0799 O   0  0  0  0  0  0  0  0  0  0  0  0
   10.6092   38.1926   31.6469 C   0  0  0  0  0  0  0  0  0  0  0  0
   12.9332   37.6793   32.0294 C   0  0  0  0  0  0  0  0  0  0  0  0
    9.6122   38.0895   30.6542 O   0  0  0  0  0  0  0  0  0  0  0  0
   11.5743   37.0145   31.7024 C   0  0  0  0  0  0  0  0  0  0  0  0
   13.4844   37.2108   33.3241 N   0  0  0  0  0  0  0  0  0  0  0  0
   11.6297   36.3239   30.4740 O   0  0  0  0  0  0  0  0  0  0  0  0
   14.4802   36.3313   33.5727 C   0  0  0  0  0  0  0  0  0  0  0  0
   13.1138   37.6267   34.5692 C   0  0  0  0  0  0  0  0  0  0  0  0
   15.2075   35.6149   32.6739 N   0  0  0  0  0  0  0  0  0  0  0  0
   14.6761   36.2303   34.9181 C   0  0  0  0  0  0  0  0  0  0  0  0
   13.8220   37.0447   35.5785 N   0  0  0  0  0  0  0  0  0  0  0  0
   16.1643   34.7600   33.1547 C   0  0  0  0  0  0  0  0  0  0  0  0
   15.6529   35.3505   35.4130 C   0  0  0  0  0  0  0  0  0  0  0  0
   16.3798   34.6315   34.5042 N   0  0  0  0  0  0  0  0  0  0  0  0
   15.9003   35.1932   36.8090 N   0  0  0  0  0  0  0  0  0  0  0  0
    9.0120   45.4317   33.6711 H   0  0  0  0  0  0  0  0  0  0  0  0
   11.8908   45.7659   32.9474 H   0  0  0  0  0  0  0  0  0  0  0  0
   10.7260   46.9688   33.1214 H   0  0  0  0  0  0  0  0  0  0  0  0
    9.3425   43.8330   31.4757 H   0  0  0  0  0  0  0  0  0  0  0  0
   10.7236   44.8823   31.1556 H   0  0  0  0  0  0  0  0  0  0  0  0
    7.0099   44.7167   31.5838 H   0  0  0  0  0  0  0  0  0  0  0  0
   10.3459   47.1867   30.4110 H   0  0  0  0  0  0  0  0  0  0  0  0
    5.4657   46.2900   30.5216 H   0  0  0  0  0  0  0  0  0  0  0  0
    8.7938   48.7700   29.3424 H   0  0  0  0  0  0  0  0  0  0  0  0
    4.3078   48.2965   30.0418 H   0  0  0  0  0  0  0  0  0  0  0  0
    4.3713   49.3988   28.6369 H   0  0  0  0  0  0  0  0  0  0  0  0
    5.8944   48.0628   26.5940 H   0  0  0  0  0  0  0  0  0  0  0  0
    2.5928   44.4645   27.6203 H   0  0  0  0  0  0  0  0  0  0  0  0
    5.7896   44.0074   24.1183 H   0  0  0  0  0  0  0  0  0  0  0  0
    4.4686   44.9537   23.2817 H   0  0  0  0  0  0  0  0  0  0  0  0
   11.3802   41.5529   31.4733 H   0  0  0  0  0  0  0  0  0  0  0  0
    9.8243   40.7216   31.7643 H   0  0  0  0  0  0  0  0  0  0  0  0
   11.7266   39.5311   30.3513 H   0  0  0  0  0  0  0  0  0  0  0  0
   10.1110   38.2747   32.6387 H   0  0  0  0  0  0  0  0  0  0  0  0
   13.6652   37.4519   31.2226 H   0  0  0  0  0  0  0  0  0  0  0  0
   10.0511   38.1143   29.7645 H   0  0  0  0  0  0  0  0  0  0  0  0
   11.2762   36.3141   32.5189 H   0  0  0  0  0  0  0  0  0  0  0  0
   10.8593   35.6978   30.4640 H   0  0  0  0  0  0  0  0  0  0  0  0
   12.3295   38.3518   34.7449 H   0  0  0  0  0  0  0  0  0  0  0  0
   16.7564   34.1780   32.4620 H   0  0  0  0  0  0  0  0  0  0  0  0
   16.6349   34.5300   37.1415 H   0  0  0  0  0  0  0  0  0  0  0  0
   15.3534   35.7359   37.5138 H   0  0  0  0  0  0  0  0  0  0  0  0
  1  2  2  0
  1  3  1  0
  3  4  1  0
  4  5  1  0
  6  1  1  0
  7  6  1  0
  6  8  1  0
  8  9  1  0
  9 10  2  0
 11  9  1  0
 10 12  1  0
 13 11  2  0
 12 14  2  0
 14 13  1  0
 14 15  1  0
 15 16  1  0
 16 17  1  0
 17 18  2  0
 19 17  1  0
 18 20  1  0
 21 19  2  0
 19 22  1  0
 20 23  1  0
 20 24  2  0
 24 21  1  0
 22 25  1  0
 22 26  2  0
 23 27  1  0
 24 28  1  0
 27 28  1  0
  4 29  2  0
  4 30  1  0
 31 30  1  0
 31 32  1  0
 32 33  1  0
 32 34  1  0
 33 35  1  0
 34 36  1  0
 34 37  1  0
 37 35  1  0
 35 38  1  0
 37 39  1  0
 40 38  1  0
 41 38  1  0
 42 40  2  0
 40 43  1  0
 44 41  2  0
 45 42  1  0
 43 46  2  0
 43 44  1  0
 47 45  2  0
 47 46  1  0
 46 48  1  0
  6 49  1  1
  7 50  1  0
  7 51  1  0
  8 52  1  0
  8 53  1  0
 10 54  1  0
 11 55  1  0
 12 56  1  0
 13 57  1  0
 16 58  1  0
 16 59  1  0
 18 60  1  0
 21 61  1  0
 27 62  1  0
 27 63  1  0
 31 64  1  0
 31 65  1  0
 32 66  1  0
 34 67  1  0
 35 68  1  0
 36 69  1  0
 37 70  1  0
 39 71  1  0
 41 72  1  0
 45 73  1  0
 48 74  1  0
 48 75  1  0
M  CHG  3   5  -1  22   1  25  -1
M  END
>  <EmbedRMS>  (66) 
0.0818146493921

$$$$

     RDKit          3D

 75 80  0  0  0  0  0  0  0  0999 V2000
   10.2836   43.7661   33.8255 C   0  0  0  0  0  0  0  0  0  0  0  0
   11.4102   43.5930   34.3753 O   0  0  0  0  0  0  0  0  0  0  0  0
    9.3640   42.7253   33.7346 O   0  0  0  0  0  0  0  0  0  0  0  0
    9.8907   41.2265   34.2938 P   0  0  0  0  0  0  0  0  0  0  0  0
   10.3732   41.4559   35.8835 O   0  0  0  0  0  0  0  0  0  0  0  0
    9.9548   45.0694   33.2034 C   0  0  1  0  0  0  0  0  0  0  0  0
   11.0273   46.0322   33.4758 N   0  0  0  0  0  0  0  0  0  0  0  0
    9.7471   44.8483   31.6874 C   0  0  0  0  0  0  0  0  0  0  0  0
    8.7925   45.8407   31.0841 C   0  0  0  0  0  0  0  0  0  0  0  0
    7.4058   45.6011   31.0998 C   0  0  0  0  0  0  0  0  0  0  0  0
    9.2817   46.9883   30.4425 C   0  0  0  0  0  0  0  0  0  0  0  0
    6.5245   46.5015   30.4860 C   0  0  0  0  0  0  0  0  0  0  0  0
    8.4004   47.8887   29.8330 C   0  0  0  0  0  0  0  0  0  0  0  0
    7.0189   47.6553   29.8440 C   0  0  0  0  0  0  0  0  0  0  0  0
    6.1818   48.5871   29.2088 O   0  0  0  0  0  0  0  0  0  0  0  0
    4.7693   48.4475   29.0467 C   0  0  0  0  0  0  0  0  0  0  0  0
    4.4469   47.3414   28.0670 C   0  0  0  0  0  0  0  0  0  0  0  0
    5.1670   47.2947   26.8502 C   0  0  0  0  0  0  0  0  0  0  0  0
    3.4748   46.3275   28.3493 C   0  0  0  0  0  0  0  0  0  0  0  0
    4.9406   46.2300   25.9875 C   0  0  0  0  0  0  0  0  0  0  0  0
    3.2982   45.2584   27.4410 C   0  0  0  0  0  0  0  0  0  0  0  0
    2.6488   46.3853   29.5220 N   0  0  0  0  0  0  0  0  0  0  0  0
    5.5344   45.9717   24.7671 O   0  0  0  0  0  0  0  0  0  0  0  0
    4.0505   45.2515   26.2734 C   0  0  0  0  0  0  0  0  0  0  0  0
    1.9892   47.5497   29.8413 O   0  0  0  0  0  0  0  0  0  0  0  0
    2.3403   45.3340   30.1204 O   0  0  0  0  0  0  0  0  0  0  0  0
    4.9799   44.7523   24.2547 C   0  0  0  0  0  0  0  0  0  0  0  0
    4.0364   44.3264   25.2473 O   0  0  0  0  0  0  0  0  0  0  0  0
    8.8127   40.1848   34.2122 O   0  0  0  0  0  0  0  0  0  0  0  0
   11.2420   40.7941   33.3697 O   0  0  0  0  0  0  0  0  0  0  0  0
   10.9187   40.6911   31.9971 C   0  0  0  0  0  0  0  0  0  0  0  0
   11.5172   39.3815   31.4407 C   0  0  0  0  0  0  0  0  0  0  0  0
   12.7493   39.0856   32.0728 O   0  0  0  0  0  0  0  0  0  0  0  0
   10.6023   38.1908   31.6665 C   0  0  0  0  0  0  0  0  0  0  0  0
   12.9319   37.6781   32.0281 C   0  0  0  0  0  0  0  0  0  0  0  0
    9.6392   38.0798   30.6452 O   0  0  0  0  0  0  0  0  0  0  0  0
   11.5715   37.0166   31.7056 C   0  0  0  0  0  0  0  0  0  0  0  0
   13.4846   37.2121   33.3235 N   0  0  0  0  0  0  0  0  0  0  0  0
   11.6187   36.3384   30.4695 O   0  0  0  0  0  0  0  0  0  0  0  0
   14.4801   36.3321   33.5724 C   0  0  0  0  0  0  0  0  0  0  0  0
   13.1137   37.6275   34.5687 C   0  0  0  0  0  0  0  0  0  0  0  0
   15.2073   35.6153   32.6738 N   0  0  0  0  0  0  0  0  0  0  0  0
   14.6759   36.2308   34.9179 C   0  0  0  0  0  0  0  0  0  0  0  0
   13.8216   37.0452   35.5781 N   0  0  0  0  0  0  0  0  0  0  0  0
   16.1640   34.7602   33.1546 C   0  0  0  0  0  0  0  0  0  0  0  0
   15.6526   35.3508   35.4129 C   0  0  0  0  0  0  0  0  0  0  0  0
   16.3794   34.6317   34.5041 N   0  0  0  0  0  0  0  0  0  0  0  0
   15.8999   35.1935   36.8088 N   0  0  0  0  0  0  0  0  0  0  0  0
    9.0120   45.4315   33.6711 H   0  0  0  0  0  0  0  0  0  0  0  0
   10.7260   46.9687   33.1214 H   0  0  0  0  0  0  0  0  0  0  0  0
   11.8907   45.7659   32.9474 H   0  0  0  0  0  0  0  0  0  0  0  0
    9.3425   43.8330   31.4756 H   0  0  0  0  0  0  0  0  0  0  0  0
   10.7236   44.8823   31.1556 H   0  0  0  0  0  0  0  0  0  0  0  0
    7.0099   44.7167   31.5838 H   0  0  0  0  0  0  0  0  0  0  0  0
   10.3459   47.1867   30.4110 H   0  0  0  0  0  0  0  0  0  0  0  0
    5.4657   46.2899   30.5215 H   0  0  0  0  0  0  0  0  0  0  0  0
    8.7938   48.7700   29.3423 H   0  0  0  0  0  0  0  0  0  0  0  0
    4.3713   49.3993   28.6372 H   0  0  0  0  0  0  0  0  0  0  0  0
    4.3078   48.2963   30.0425 H   0  0  0  0  0  0  0  0  0  0  0  0
    5.8989   48.0516   26.5969 H   0  0  0  0  0  0  0  0  0  0  0  0
    2.5764   44.4735   27.6272 H   0  0  0  0  0  0  0  0  0  0  0  0
    5.7773   43.9896   24.1319 H   0  0  0  0  0  0  0  0  0  0  0  0
    4.4629   44.9408   23.2906 H   0  0  0  0  0  0  0  0  0  0  0  0
    9.8299   40.7410   31.7613 H   0  0  0  0  0  0  0  0  0  0  0  0
   11.3969   41.5460   31.4729 H   0  0  0  0  0  0  0  0  0  0  0  0
   11.6975   39.5067   30.3481 H   0  0  0  0  0  0  0  0  0  0  0  0
   10.1076   38.2648   32.6645 H   0  0  0  0  0  0  0  0  0  0  0  0
   13.6621   37.4467   31.2209 H   0  0  0  0  0  0  0  0  0  0  0  0
    8.8975   38.6944   30.8830 H   0  0  0  0  0  0  0  0  0  0  0  0
   11.2806   36.3073   32.5170 H   0  0  0  0  0  0  0  0  0  0  0  0
   10.8492   35.7111   30.4586 H   0  0  0  0  0  0  0  0  0  0  0  0
   12.3290   38.3524   34.7444 H   0  0  0  0  0  0  0  0  0  0  0  0
   16.7559   34.1780   32.4619 H   0  0  0  0  0  0  0  0  0  0  0  0
   16.6344   34.5301   37.1414 H   0  0  0  0  0  0  0  0  0  0  0  0
   15.3532   35.7362   37.5137 H   0  0  0  0  0  0  0  0  0  0  0  0
  1  2  2  0
  1  3  1  0
  3  4  1  0
  4  5  1  0
  6  1  1  0
  7  6  1  0
  6  8  1  0
  8  9  1  0
  9 10  2  0
 11  9  1  0
 10 12  1  0
 13 11  2  0
 12 14  2  0
 14 13  1  0
 14 15  1  0
 15 16  1  0
 16 17  1  0
 17 18  2  0
 19 17  1  0
 18 20  1  0
 21 19  2  0
 19 22  1  0
 20 23  1  0
 20 24  2  0
 24 21  1  0
 22 25  1  0
 22 26  2  0
 23 27  1  0
 24 28  1  0
 27 28  1  0
  4 29  2  0
  4 30  1  0
 31 30  1  0
 31 32  1  0
 32 33  1  0
 32 34  1  0
 33 35  1  0
 34 36  1  0
 34 37  1  0
 37 35  1  0
 35 38  1  0
 37 39  1  0
 40 38  1  0
 41 38  1  0
 42 40  2  0
 40 43  1  0
 44 41  2  0
 45 42  1  0
 43 46  2  0
 43 44  1  0
 47 45  2  0
 47 46  1  0
 46 48  1  0
  6 49  1  1
  7 50  1  0
  7 51  1  0
  8 52  1  0
  8 53  1  0
 10 54  1  0
 11 55  1  0
 12 56  1  0
 13 57  1  0
 16 58  1  0
 16 59  1  0
 18 60  1  0
 21 61  1  0
 27 62  1  0
 27 63  1  0
 31 64  1  0
 31 65  1  0
 32 66  1  0
 34 67  1  0
 35 68  1  0
 36 69  1  0
 37 70  1  0
 39 71  1  0
 41 72  1  0
 45 73  1  0
 48 74  1  0
 48 75  1  0
M  CHG  3   5  -1  22   1  25  -1
M  END
>  <EmbedRMS>  (67) 
0.0829404057848

$$$$

     RDKit          3D

 75 80  0  0  0  0  0  0  0  0999 V2000
   10.2834   43.7662   33.8256 C   0  0  0  0  0  0  0  0  0  0  0  0
   11.4102   43.5931   34.3752 O   0  0  0  0  0  0  0  0  0  0  0  0
    9.3637   42.7255   33.7349 O   0  0  0  0  0  0  0  0  0  0  0  0
    9.8903   41.2267   34.2942 P   0  0  0  0  0  0  0  0  0  0  0  0
   10.3735   41.4561   35.8837 O   0  0  0  0  0  0  0  0  0  0  0  0
    9.9546   45.0694   33.2033 C   0  0  1  0  0  0  0  0  0  0  0  0
   11.0273   46.0321   33.4755 N   0  0  0  0  0  0  0  0  0  0  0  0
    9.7468   44.8478   31.6873 C   0  0  0  0  0  0  0  0  0  0  0  0
    8.7925   45.8400   31.0834 C   0  0  0  0  0  0  0  0  0  0  0  0
    7.4056   45.6020   31.1000 C   0  0  0  0  0  0  0  0  0  0  0  0
    9.2819   46.9881   30.4432 C   0  0  0  0  0  0  0  0  0  0  0  0
    6.5269   46.5046   30.4863 C   0  0  0  0  0  0  0  0  0  0  0  0
    8.4025   47.8910   29.8339 C   0  0  0  0  0  0  0  0  0  0  0  0
    7.0148   47.6505   29.8429 C   0  0  0  0  0  0  0  0  0  0  0  0
    6.0883   48.5168   29.2418 O   0  0  0  0  0  0  0  0  0  0  0  0
    6.3922   49.5332   28.2852 C   0  0  0  0  0  0  0  0  0  0  0  0
    6.7764   48.9239   26.9568 C   0  0  0  0  0  0  0  0  0  0  0  0
    8.1277   49.0086   26.5438 C   0  0  0  0  0  0  0  0  0  0  0  0
    5.8094   48.3168   26.0847 C   0  0  0  0  0  0  0  0  0  0  0  0
    8.4811   48.4734   25.3129 C   0  0  0  0  0  0  0  0  0  0  0  0
    6.2313   47.7986   24.8366 C   0  0  0  0  0  0  0  0  0  0  0  0
    4.4087   48.2610   26.4159 N   0  0  0  0  0  0  0  0  0  0  0  0
    9.7279   48.4364   24.7185 O   0  0  0  0  0  0  0  0  0  0  0  0
    7.5738   47.8923   24.4964 C   0  0  0  0  0  0  0  0  0  0  0  0
    3.9921   47.9951   27.6985 O   0  0  0  0  0  0  0  0  0  0  0  0
    3.5523   48.3016   25.5082 O   0  0  0  0  0  0  0  0  0  0  0  0
    9.5925   47.7865   23.4473 C   0  0  0  0  0  0  0  0  0  0  0  0
    8.2007   47.4562   23.3450 O   0  0  0  0  0  0  0  0  0  0  0  0
    8.8122   40.1850   34.2131 O   0  0  0  0  0  0  0  0  0  0  0  0
   11.2407   40.7940   33.3693 O   0  0  0  0  0  0  0  0  0  0  0  0
   10.9151   40.6905   31.9974 C   0  0  0  0  0  0  0  0  0  0  0  0
   11.5252   39.3886   31.4375 C   0  0  0  0  0  0  0  0  0  0  0  0
   12.7500   39.0874   32.0799 O   0  0  0  0  0  0  0  0  0  0  0  0
   10.6092   38.1926   31.6469 C   0  0  0  0  0  0  0  0  0  0  0  0
   12.9332   37.6793   32.0294 C   0  0  0  0  0  0  0  0  0  0  0  0
    9.6122   38.0895   30.6542 O   0  0  0  0  0  0  0  0  0  0  0  0
   11.5743   37.0145   31.7024 C   0  0  0  0  0  0  0  0  0  0  0  0
   13.4844   37.2108   33.3241 N   0  0  0  0  0  0  0  0  0  0  0  0
   11.6297   36.3239   30.4740 O   0  0  0  0  0  0  0  0  0  0  0  0
   14.4802   36.3313   33.5727 C   0  0  0  0  0  0  0  0  0  0  0  0
   13.1138   37.6266   34.5692 C   0  0  0  0  0  0  0  0  0  0  0  0
   15.2075   35.6149   32.6739 N   0  0  0  0  0  0  0  0  0  0  0  0
   14.6761   36.2303   34.9181 C   0  0  0  0  0  0  0  0  0  0  0  0
   13.8220   37.0447   35.5785 N   0  0  0  0  0  0  0  0  0  0  0  0
   16.1643   34.7600   33.1547 C   0  0  0  0  0  0  0  0  0  0  0  0
   15.6529   35.3505   35.4130 C   0  0  0  0  0  0  0  0  0  0  0  0
   16.3798   34.6315   34.5042 N   0  0  0  0  0  0  0  0  0  0  0  0
   15.9002   35.1932   36.8090 N   0  0  0  0  0  0  0  0  0  0  0  0
    9.0119   45.4317   33.6709 H   0  0  0  0  0  0  0  0  0  0  0  0
   10.7258   46.9688   33.1213 H   0  0  0  0  0  0  0  0  0  0  0  0
   11.8905   45.7660   32.9468 H   0  0  0  0  0  0  0  0  0  0  0  0
    9.3420   43.8325   31.4760 H   0  0  0  0  0  0  0  0  0  0  0  0
   10.7233   44.8814   31.1554 H   0  0  0  0  0  0  0  0  0  0  0  0
    7.0082   44.7178   31.5832 H   0  0  0  0  0  0  0  0  0  0  0  0
   10.3460   47.1890   30.4188 H   0  0  0  0  0  0  0  0  0  0  0  0
    5.4623   46.3087   30.5045 H   0  0  0  0  0  0  0  0  0  0  0  0
    8.8143   48.7777   29.3788 H   0  0  0  0  0  0  0  0  0  0  0  0
    7.1842   50.2040   28.6809 H   0  0  0  0  0  0  0  0  0  0  0  0
    5.4966   50.1734   28.1426 H   0  0  0  0  0  0  0  0  0  0  0  0
    8.8816   49.4879   27.1536 H   0  0  0  0  0  0  0  0  0  0  0  0
    5.5328   47.3331   24.1532 H   0  0  0  0  0  0  0  0  0  0  0  0
   10.2085   46.8633   23.4204 H   0  0  0  0  0  0  0  0  0  0  0  0
    9.8833   48.4785   22.6293 H   0  0  0  0  0  0  0  0  0  0  0  0
    9.8243   40.7216   31.7643 H   0  0  0  0  0  0  0  0  0  0  0  0
   11.3802   41.5529   31.4733 H   0  0  0  0  0  0  0  0  0  0  0  0
   11.7266   39.5311   30.3513 H   0  0  0  0  0  0  0  0  0  0  0  0
   10.1110   38.2747   32.6387 H   0  0  0  0  0  0  0  0  0  0  0  0
   13.6652   37.4519   31.2226 H   0  0  0  0  0  0  0  0  0  0  0  0
   10.0511   38.1144   29.7645 H   0  0  0  0  0  0  0  0  0  0  0  0
   11.2762   36.3141   32.5189 H   0  0  0  0  0  0  0  0  0  0  0  0
   10.8593   35.6978   30.4640 H   0  0  0  0  0  0  0  0  0  0  0  0
   12.3294   38.3518   34.7449 H   0  0  0  0  0  0  0  0  0  0  0  0
   16.7564   34.1780   32.4620 H   0  0  0  0  0  0  0  0  0  0  0  0
   16.6349   34.5300   37.1415 H   0  0  0  0  0  0  0  0  0  0  0  0
   15.3534   35.7359   37.5138 H   0  0  0  0  0  0  0  0  0  0  0  0
  1  2  2  0
  1  3  1  0
  3  4  1  0
  4  5  1  0
  6  1  1  0
  7  6  1  0
  6  8  1  0
  8  9  1  0
  9 10  2  0
 11  9  1  0
 10 12  1  0
 13 11  2  0
 12 14  2  0
 14 13  1  0
 14 15  1  0
 15 16  1  0
 16 17  1  0
 17 18  2  0
 19 17  1  0
 18 20  1  0
 21 19  2  0
 19 22  1  0
 20 23  1  0
 20 24  2  0
 24 21  1  0
 22 25  1  0
 22 26  2  0
 23 27  1  0
 24 28  1  0
 27 28  1  0
  4 29  2  0
  4 30  1  0
 31 30  1  0
 31 32  1  0
 32 33  1  0
 32 34  1  0
 33 35  1  0
 34 36  1  0
 34 37  1  0
 37 35  1  0
 35 38  1  0
 37 39  1  0
 40 38  1  0
 41 38  1  0
 42 40  2  0
 40 43  1  0
 44 41  2  0
 45 42  1  0
 43 46  2  0
 43 44  1  0
 47 45  2  0
 47 46  1  0
 46 48  1  0
  6 49  1  1
  7 50  1  0
  7 51  1  0
  8 52  1  0
  8 53  1  0
 10 54  1  0
 11 55  1  0
 12 56  1  0
 13 57  1  0
 16 58  1  0
 16 59  1  0
 18 60  1  0
 21 61  1  0
 27 62  1  0
 27 63  1  0
 31 64  1  0
 31 65  1  0
 32 66  1  0
 34 67  1  0
 35 68  1  0
 36 69  1  0
 37 70  1  0
 39 71  1  0
 41 72  1  0
 45 73  1  0
 48 74  1  0
 48 75  1  0
M  CHG  3   5  -1  22   1  25  -1
M  END
>  <EmbedRMS>  (68) 
0.0818510548423

$$$$

     RDKit          3D

 75 80  0  0  0  0  0  0  0  0999 V2000
   10.2832   43.7662   33.8257 C   0  0  0  0  0  0  0  0  0  0  0  0
   11.4101   43.5928   34.3750 O   0  0  0  0  0  0  0  0  0  0  0  0
    9.3633   42.7256   33.7353 O   0  0  0  0  0  0  0  0  0  0  0  0
    9.8901   41.2269   34.2943 P   0  0  0  0  0  0  0  0  0  0  0  0
   10.3738   41.4560   35.8836 O   0  0  0  0  0  0  0  0  0  0  0  0
    9.9545   45.0695   33.2037 C   0  0  1  0  0  0  0  0  0  0  0  0
   11.0273   46.0321   33.4760 N   0  0  0  0  0  0  0  0  0  0  0  0
    9.7466   44.8482   31.6878 C   0  0  0  0  0  0  0  0  0  0  0  0
    8.7923   45.8410   31.0846 C   0  0  0  0  0  0  0  0  0  0  0  0
    7.4055   45.6014   31.0993 C   0  0  0  0  0  0  0  0  0  0  0  0
    9.2818   46.9878   30.4421 C   0  0  0  0  0  0  0  0  0  0  0  0
    6.5249   46.5015   30.4840 C   0  0  0  0  0  0  0  0  0  0  0  0
    8.4007   47.8881   29.8321 C   0  0  0  0  0  0  0  0  0  0  0  0
    7.0188   47.6566   29.8458 C   0  0  0  0  0  0  0  0  0  0  0  0
    6.1823   48.5944   29.2194 O   0  0  0  0  0  0  0  0  0  0  0  0
    4.7552   48.5350   29.1760 C   0  0  0  0  0  0  0  0  0  0  0  0
    4.1477   48.7629   30.5430 C   0  0  0  0  0  0  0  0  0  0  0  0
    4.7180   49.7549   31.3769 C   0  0  0  0  0  0  0  0  0  0  0  0
    2.9572   48.0884   30.9695 C   0  0  0  0  0  0  0  0  0  0  0  0
    4.1169   50.0186   32.6009 C   0  0  0  0  0  0  0  0  0  0  0  0
    2.3816   48.4082   32.2200 C   0  0  0  0  0  0  0  0  0  0  0  0
    2.3076   47.1119   30.1435 N   0  0  0  0  0  0  0  0  0  0  0  0
    4.5017   50.9258   33.5692 O   0  0  0  0  0  0  0  0  0  0  0  0
    2.9985   49.3734   33.0050 C   0  0  0  0  0  0  0  0  0  0  0  0
    2.9786   45.9710   29.7711 O   0  0  0  0  0  0  0  0  0  0  0  0
    1.0694   47.1578   29.9913 O   0  0  0  0  0  0  0  0  0  0  0  0
    3.5648   50.8412   34.6517 C   0  0  0  0  0  0  0  0  0  0  0  0
    2.6212   49.8386   34.2500 O   0  0  0  0  0  0  0  0  0  0  0  0
    8.8122   40.1849   34.2133 O   0  0  0  0  0  0  0  0  0  0  0  0
   11.2402   40.7953   33.3683 O   0  0  0  0  0  0  0  0  0  0  0  0
   10.9126   40.6879   31.9970 C   0  0  0  0  0  0  0  0  0  0  0  0
   11.5169   39.3812   31.4421 C   0  0  0  0  0  0  0  0  0  0  0  0
   12.7500   39.0882   32.0759 O   0  0  0  0  0  0  0  0  0  0  0  0
   10.6042   38.1894   31.6659 C   0  0  0  0  0  0  0  0  0  0  0  0
   12.9395   37.6814   32.0280 C   0  0  0  0  0  0  0  0  0  0  0  0
    9.6352   38.0950   30.6500 O   0  0  0  0  0  0  0  0  0  0  0  0
   11.5803   37.0192   31.6934 C   0  0  0  0  0  0  0  0  0  0  0  0
   13.4852   37.2119   33.3244 N   0  0  0  0  0  0  0  0  0  0  0  0
   11.6117   36.3190   30.4673 O   0  0  0  0  0  0  0  0  0  0  0  0
   14.4803   36.3317   33.5732 C   0  0  0  0  0  0  0  0  0  0  0  0
   13.1140   37.6277   34.5692 C   0  0  0  0  0  0  0  0  0  0  0  0
   15.2075   35.6151   32.6744 N   0  0  0  0  0  0  0  0  0  0  0  0
   14.6759   36.2304   34.9186 C   0  0  0  0  0  0  0  0  0  0  0  0
   13.8217   37.0450   35.5786 N   0  0  0  0  0  0  0  0  0  0  0  0
   16.1640   34.7597   33.1550 C   0  0  0  0  0  0  0  0  0  0  0  0
   15.6528   35.3506   35.4134 C   0  0  0  0  0  0  0  0  0  0  0  0
   16.3796   34.6314   34.5045 N   0  0  0  0  0  0  0  0  0  0  0  0
   15.9003   35.1933   36.8092 N   0  0  0  0  0  0  0  0  0  0  0  0
    9.0119   45.4320   33.6713 H   0  0  0  0  0  0  0  0  0  0  0  0
   10.7260   46.9687   33.1216 H   0  0  0  0  0  0  0  0  0  0  0  0
   11.8906   45.7660   32.9473 H   0  0  0  0  0  0  0  0  0  0  0  0
   10.7228   44.8814   31.1556 H   0  0  0  0  0  0  0  0  0  0  0  0
    9.3415   43.8330   31.4766 H   0  0  0  0  0  0  0  0  0  0  0  0
    7.0092   44.7162   31.5816 H   0  0  0  0  0  0  0  0  0  0  0  0
   10.3460   47.1861   30.4105 H   0  0  0  0  0  0  0  0  0  0  0  0
    5.4678   46.2881   30.5125 H   0  0  0  0  0  0  0  0  0  0  0  0
    8.7942   48.7707   29.3438 H   0  0  0  0  0  0  0  0  0  0  0  0
    4.4425   47.5813   28.7107 H   0  0  0  0  0  0  0  0  0  0  0  0
    4.4005   49.3480   28.5090 H   0  0  0  0  0  0  0  0  0  0  0  0
    5.5984   50.3098   31.0782 H   0  0  0  0  0  0  0  0  0  0  0  0
    1.4835   47.9140   32.5682 H   0  0  0  0  0  0  0  0  0  0  0  0
    4.0812   50.5290   35.5833 H   0  0  0  0  0  0  0  0  0  0  0  0
    3.0518   51.8156   34.7923 H   0  0  0  0  0  0  0  0  0  0  0  0
    9.8217   40.7230   31.7646 H   0  0  0  0  0  0  0  0  0  0  0  0
   11.3814   41.5456   31.4687 H   0  0  0  0  0  0  0  0  0  0  0  0
   11.6984   39.5092   30.3501 H   0  0  0  0  0  0  0  0  0  0  0  0
   10.1108   38.2739   32.6630 H   0  0  0  0  0  0  0  0  0  0  0  0
   13.6781   37.4564   31.2269 H   0  0  0  0  0  0  0  0  0  0  0  0
    9.0021   37.3858   30.9351 H   0  0  0  0  0  0  0  0  0  0  0  0
   11.2807   36.3054   32.4921 H   0  0  0  0  0  0  0  0  0  0  0  0
   11.8821   36.9600   29.7584 H   0  0  0  0  0  0  0  0  0  0  0  0
   12.3302   38.3534   34.7446 H   0  0  0  0  0  0  0  0  0  0  0  0
   16.7557   34.1774   32.4623 H   0  0  0  0  0  0  0  0  0  0  0  0
   16.6351   34.5302   37.1417 H   0  0  0  0  0  0  0  0  0  0  0  0
   15.3533   35.7359   37.5140 H   0  0  0  0  0  0  0  0  0  0  0  0
  1  2  2  0
  1  3  1  0
  3  4  1  0
  4  5  1  0
  6  1  1  0
  7  6  1  0
  6  8  1  0
  8  9  1  0
  9 10  2  0
 11  9  1  0
 10 12  1  0
 13 11  2  0
 12 14  2  0
 14 13  1  0
 14 15  1  0
 15 16  1  0
 16 17  1  0
 17 18  2  0
 19 17  1  0
 18 20  1  0
 21 19  2  0
 19 22  1  0
 20 23  1  0
 20 24  2  0
 24 21  1  0
 22 25  1  0
 22 26  2  0
 23 27  1  0
 24 28  1  0
 27 28  1  0
  4 29  2  0
  4 30  1  0
 31 30  1  0
 31 32  1  0
 32 33  1  0
 32 34  1  0
 33 35  1  0
 34 36  1  0
 34 37  1  0
 37 35  1  0
 35 38  1  0
 37 39  1  0
 40 38  1  0
 41 38  1  0
 42 40  2  0
 40 43  1  0
 44 41  2  0
 45 42  1  0
 43 46  2  0
 43 44  1  0
 47 45  2  0
 47 46  1  0
 46 48  1  0
  6 49  1  1
  7 50  1  0
  7 51  1  0
  8 52  1  0
  8 53  1  0
 10 54  1  0
 11 55  1  0
 12 56  1  0
 13 57  1  0
 16 58  1  0
 16 59  1  0
 18 60  1  0
 21 61  1  0
 27 62  1  0
 27 63  1  0
 31 64  1  0
 31 65  1  0
 32 66  1  0
 34 67  1  0
 35 68  1  0
 36 69  1  0
 37 70  1  0
 39 71  1  0
 41 72  1  0
 45 73  1  0
 48 74  1  0
 48 75  1  0
M  CHG  3   5  -1  22   1  25  -1
M  END
>  <EmbedRMS>  (69) 
0.0815155374282

$$$$

     RDKit          3D

 75 80  0  0  0  0  0  0  0  0999 V2000
   10.2834   43.7662   33.8256 C   0  0  0  0  0  0  0  0  0  0  0  0
   11.4102   43.5930   34.3752 O   0  0  0  0  0  0  0  0  0  0  0  0
    9.3637   42.7255   33.7348 O   0  0  0  0  0  0  0  0  0  0  0  0
    9.8907   41.2265   34.2933 P   0  0  0  0  0  0  0  0  0  0  0  0
   10.3743   41.4557   35.8827 O   0  0  0  0  0  0  0  0  0  0  0  0
    9.9546   45.0694   33.2034 C   0  0  1  0  0  0  0  0  0  0  0  0
   11.0273   46.0321   33.4755 N   0  0  0  0  0  0  0  0  0  0  0  0
    9.7466   44.8479   31.6875 C   0  0  0  0  0  0  0  0  0  0  0  0
    8.7924   45.8405   31.0840 C   0  0  0  0  0  0  0  0  0  0  0  0
    7.4055   45.6018   31.0995 C   0  0  0  0  0  0  0  0  0  0  0  0
    9.2822   46.9880   30.4428 C   0  0  0  0  0  0  0  0  0  0  0  0
    6.5267   46.5039   30.4849 C   0  0  0  0  0  0  0  0  0  0  0  0
    8.4030   47.8906   29.8330 C   0  0  0  0  0  0  0  0  0  0  0  0
    7.0143   47.6516   29.8452 C   0  0  0  0  0  0  0  0  0  0  0  0
    6.0895   48.5184   29.2414 O   0  0  0  0  0  0  0  0  0  0  0  0
    6.4204   49.6394   28.4204 C   0  0  0  0  0  0  0  0  0  0  0  0
    7.0217   49.1901   27.1083 C   0  0  0  0  0  0  0  0  0  0  0  0
    8.2786   49.7180   26.7296 C   0  0  0  0  0  0  0  0  0  0  0  0
    6.3782   48.2229   26.2643 C   0  0  0  0  0  0  0  0  0  0  0  0
    8.8651   49.2569   25.5587 C   0  0  0  0  0  0  0  0  0  0  0  0
    7.0325   47.7826   25.0904 C   0  0  0  0  0  0  0  0  0  0  0  0
    5.0880   47.6709   26.5825 N   0  0  0  0  0  0  0  0  0  0  0  0
   10.0780   49.6192   25.0052 O   0  0  0  0  0  0  0  0  0  0  0  0
    8.2703   48.3277   24.7759 C   0  0  0  0  0  0  0  0  0  0  0  0
    4.7619   46.4019   26.1618 O   0  0  0  0  0  0  0  0  0  0  0  0
    4.1957   48.3824   27.0870 O   0  0  0  0  0  0  0  0  0  0  0  0
   10.2543   48.8681   23.7962 C   0  0  0  0  0  0  0  0  0  0  0  0
    9.0770   48.0563   23.6875 O   0  0  0  0  0  0  0  0  0  0  0  0
    8.8123   40.1850   34.2127 O   0  0  0  0  0  0  0  0  0  0  0  0
   11.2407   40.7945   33.3670 O   0  0  0  0  0  0  0  0  0  0  0  0
   10.9135   40.6866   31.9954 C   0  0  0  0  0  0  0  0  0  0  0  0
   11.5167   39.3787   31.4404 C   0  0  0  0  0  0  0  0  0  0  0  0
   12.7486   39.0849   32.0734 O   0  0  0  0  0  0  0  0  0  0  0  0
   10.6039   38.1884   31.6669 C   0  0  0  0  0  0  0  0  0  0  0  0
   12.9329   37.6776   32.0284 C   0  0  0  0  0  0  0  0  0  0  0  0
    9.6374   38.0938   30.6484 O   0  0  0  0  0  0  0  0  0  0  0  0
   11.5737   37.0141   31.7055 C   0  0  0  0  0  0  0  0  0  0  0  0
   13.4853   37.2120   33.3238 N   0  0  0  0  0  0  0  0  0  0  0  0
   11.6210   36.3379   30.4684 O   0  0  0  0  0  0  0  0  0  0  0  0
   14.4804   36.3319   33.5726 C   0  0  0  0  0  0  0  0  0  0  0  0
   13.1141   37.6275   34.5689 C   0  0  0  0  0  0  0  0  0  0  0  0
   15.2075   35.6152   32.6740 N   0  0  0  0  0  0  0  0  0  0  0  0
   14.6761   36.2306   34.9181 C   0  0  0  0  0  0  0  0  0  0  0  0
   13.8218   37.0451   35.5783 N   0  0  0  0  0  0  0  0  0  0  0  0
   16.1642   34.7600   33.1548 C   0  0  0  0  0  0  0  0  0  0  0  0
   15.6528   35.3507   35.4131 C   0  0  0  0  0  0  0  0  0  0  0  0
   16.3795   34.6315   34.5043 N   0  0  0  0  0  0  0  0  0  0  0  0
   15.9001   35.1933   36.8090 N   0  0  0  0  0  0  0  0  0  0  0  0
    9.0120   45.4317   33.6712 H   0  0  0  0  0  0  0  0  0  0  0  0
   10.7259   46.9687   33.1213 H   0  0  0  0  0  0  0  0  0  0  0  0
   11.8906   45.7658   32.9468 H   0  0  0  0  0  0  0  0  0  0  0  0
   10.7230   44.8814   31.1555 H   0  0  0  0  0  0  0  0  0  0  0  0
    9.3416   43.8328   31.4761 H   0  0  0  0  0  0  0  0  0  0  0  0
    7.0082   44.7172   31.5818 H   0  0  0  0  0  0  0  0  0  0  0  0
   10.3466   47.1865   30.4144 H   0  0  0  0  0  0  0  0  0  0  0  0
    5.4622   46.3071   30.5017 H   0  0  0  0  0  0  0  0  0  0  0  0
    8.8155   48.7698   29.3610 H   0  0  0  0  0  0  0  0  0  0  0  0
    5.4965   50.2170   28.2128 H   0  0  0  0  0  0  0  0  0  0  0  0
    7.0948   50.3251   28.9776 H   0  0  0  0  0  0  0  0  0  0  0  0
    8.7920   50.4533   27.3362 H   0  0  0  0  0  0  0  0  0  0  0  0
    6.5820   47.0503   24.4331 H   0  0  0  0  0  0  0  0  0  0  0  0
   11.1569   48.2260   23.8712 H   0  0  0  0  0  0  0  0  0  0  0  0
   10.3290   49.5533   22.9259 H   0  0  0  0  0  0  0  0  0  0  0  0
    9.8226   40.7225   31.7631 H   0  0  0  0  0  0  0  0  0  0  0  0
   11.3828   41.5438   31.4669 H   0  0  0  0  0  0  0  0  0  0  0  0
   11.6979   39.5037   30.3478 H   0  0  0  0  0  0  0  0  0  0  0  0
   10.1084   38.2787   32.6627 H   0  0  0  0  0  0  0  0  0  0  0  0
   13.6638   37.4472   31.2214 H   0  0  0  0  0  0  0  0  0  0  0  0
    8.9763   37.4191   30.9532 H   0  0  0  0  0  0  0  0  0  0  0  0
   11.2821   36.3054   32.5172 H   0  0  0  0  0  0  0  0  0  0  0  0
   10.8658   35.6935   30.4653 H   0  0  0  0  0  0  0  0  0  0  0  0
   12.3293   38.3523   34.7445 H   0  0  0  0  0  0  0  0  0  0  0  0
   16.7561   34.1778   32.4621 H   0  0  0  0  0  0  0  0  0  0  0  0
   15.3533   35.7361   37.5138 H   0  0  0  0  0  0  0  0  0  0  0  0
   16.6345   34.5300   37.1416 H   0  0  0  0  0  0  0  0  0  0  0  0
  1  2  2  0
  1  3  1  0
  3  4  1  0
  4  5  1  0
  6  1  1  0
  7  6  1  0
  6  8  1  0
  8  9  1  0
  9 10  2  0
 11  9  1  0
 10 12  1  0
 13 11  2  0
 12 14  2  0
 14 13  1  0
 14 15  1  0
 15 16  1  0
 16 17  1  0
 17 18  2  0
 19 17  1  0
 18 20  1  0
 21 19  2  0
 19 22  1  0
 20 23  1  0
 20 24  2  0
 24 21  1  0
 22 25  1  0
 22 26  2  0
 23 27  1  0
 24 28  1  0
 27 28  1  0
  4 29  2  0
  4 30  1  0
 31 30  1  0
 31 32  1  0
 32 33  1  0
 32 34  1  0
 33 35  1  0
 34 36  1  0
 34 37  1  0
 37 35  1  0
 35 38  1  0
 37 39  1  0
 40 38  1  0
 41 38  1  0
 42 40  2  0
 40 43  1  0
 44 41  2  0
 45 42  1  0
 43 46  2  0
 43 44  1  0
 47 45  2  0
 47 46  1  0
 46 48  1  0
  6 49  1  1
  7 50  1  0
  7 51  1  0
  8 52  1  0
  8 53  1  0
 10 54  1  0
 11 55  1  0
 12 56  1  0
 13 57  1  0
 16 58  1  0
 16 59  1  0
 18 60  1  0
 21 61  1  0
 27 62  1  0
 27 63  1  0
 31 64  1  0
 31 65  1  0
 32 66  1  0
 34 67  1  0
 35 68  1  0
 36 69  1  0
 37 70  1  0
 39 71  1  0
 41 72  1  0
 45 73  1  0
 48 74  1  0
 48 75  1  0
M  CHG  3   5  -1  22   1  25  -1
M  END
>  <EmbedRMS>  (70) 
0.0825742609991

$$$$

     RDKit          3D

 75 80  0  0  0  0  0  0  0  0999 V2000
   10.2804   43.7664   33.8250 C   0  0  0  0  0  0  0  0  0  0  0  0
   11.4111   43.5918   34.3667 O   0  0  0  0  0  0  0  0  0  0  0  0
    9.3619   42.7249   33.7345 O   0  0  0  0  0  0  0  0  0  0  0  0
    9.8900   41.2266   34.2940 P   0  0  0  0  0  0  0  0  0  0  0  0
   10.3734   41.4566   35.8833 O   0  0  0  0  0  0  0  0  0  0  0  0
    9.9459   45.0736   33.2112 C   0  0  1  0  0  0  0  0  0  0  0  0
   11.0267   46.0291   33.4706 N   0  0  0  0  0  0  0  0  0  0  0  0
    9.7535   44.8539   31.6950 C   0  0  0  0  0  0  0  0  0  0  0  0
    8.7955   45.8412   31.0848 C   0  0  0  0  0  0  0  0  0  0  0  0
    7.4085   45.6005   31.1008 C   0  0  0  0  0  0  0  0  0  0  0  0
    9.2831   46.9879   30.4397 C   0  0  0  0  0  0  0  0  0  0  0  0
    6.5278   46.5009   30.4854 C   0  0  0  0  0  0  0  0  0  0  0  0
    8.4024   47.8893   29.8301 C   0  0  0  0  0  0  0  0  0  0  0  0
    7.0139   47.6509   29.8482 C   0  0  0  0  0  0  0  0  0  0  0  0
    6.0914   48.5224   29.2515 O   0  0  0  0  0  0  0  0  0  0  0  0
    6.4402   49.7311   28.5818 C   0  0  0  0  0  0  0  0  0  0  0  0
    5.1879   50.4141   28.0984 C   0  0  0  0  0  0  0  0  0  0  0  0
    4.8335   50.2768   26.7356 C   0  0  0  0  0  0  0  0  0  0  0  0
    4.3685   51.2124   28.9665 C   0  0  0  0  0  0  0  0  0  0  0  0
    3.7040   50.9402   26.2753 C   0  0  0  0  0  0  0  0  0  0  0  0
    3.2373   51.8746   28.4344 C   0  0  0  0  0  0  0  0  0  0  0  0
    4.6702   51.3789   30.3646 N   0  0  0  0  0  0  0  0  0  0  0  0
    3.1761   50.9534   24.9986 O   0  0  0  0  0  0  0  0  0  0  0  0
    2.9415   51.7072   27.0878 C   0  0  0  0  0  0  0  0  0  0  0  0
    4.2698   52.5199   31.0214 O   0  0  0  0  0  0  0  0  0  0  0  0
    5.1437   50.4388   31.0346 O   0  0  0  0  0  0  0  0  0  0  0  0
    2.0062   51.7828   25.0123 C   0  0  0  0  0  0  0  0  0  0  0  0
    1.8929   52.2438   26.3656 O   0  0  0  0  0  0  0  0  0  0  0  0
    8.8124   40.1844   34.2133 O   0  0  0  0  0  0  0  0  0  0  0  0
   11.2405   40.7942   33.3692 O   0  0  0  0  0  0  0  0  0  0  0  0
   10.9150   40.6905   31.9972 C   0  0  0  0  0  0  0  0  0  0  0  0
   11.5252   39.3886   31.4375 C   0  0  0  0  0  0  0  0  0  0  0  0
   12.7499   39.0874   32.0799 O   0  0  0  0  0  0  0  0  0  0  0  0
   10.6092   38.1926   31.6470 C   0  0  0  0  0  0  0  0  0  0  0  0
   12.9332   37.6793   32.0294 C   0  0  0  0  0  0  0  0  0  0  0  0
    9.6122   38.0894   30.6542 O   0  0  0  0  0  0  0  0  0  0  0  0
   11.5743   37.0145   31.7024 C   0  0  0  0  0  0  0  0  0  0  0  0
   13.4844   37.2108   33.3241 N   0  0  0  0  0  0  0  0  0  0  0  0
   11.6297   36.3239   30.4740 O   0  0  0  0  0  0  0  0  0  0  0  0
   14.4802   36.3313   33.5727 C   0  0  0  0  0  0  0  0  0  0  0  0
   13.1138   37.6266   34.5692 C   0  0  0  0  0  0  0  0  0  0  0  0
   15.2075   35.6149   32.6739 N   0  0  0  0  0  0  0  0  0  0  0  0
   14.6761   36.2303   34.9181 C   0  0  0  0  0  0  0  0  0  0  0  0
   13.8220   37.0447   35.5785 N   0  0  0  0  0  0  0  0  0  0  0  0
   16.1643   34.7600   33.1547 C   0  0  0  0  0  0  0  0  0  0  0  0
   15.6529   35.3505   35.4130 C   0  0  0  0  0  0  0  0  0  0  0  0
   16.3798   34.6315   34.5042 N   0  0  0  0  0  0  0  0  0  0  0  0
   15.9003   35.1932   36.8090 N   0  0  0  0  0  0  0  0  0  0  0  0
    8.9996   45.4382   33.6724 H   0  0  0  0  0  0  0  0  0  0  0  0
   11.0505   46.2277   34.4980 H   0  0  0  0  0  0  0  0  0  0  0  0
   10.7764   46.9368   33.0157 H   0  0  0  0  0  0  0  0  0  0  0  0
   10.7406   44.9069   31.1835 H   0  0  0  0  0  0  0  0  0  0  0  0
    9.3634   43.8353   31.4715 H   0  0  0  0  0  0  0  0  0  0  0  0
    7.0130   44.7163   31.5852 H   0  0  0  0  0  0  0  0  0  0  0  0
   10.3474   47.1862   30.4062 H   0  0  0  0  0  0  0  0  0  0  0  0
    5.4634   46.3044   30.5052 H   0  0  0  0  0  0  0  0  0  0  0  0
    8.8122   48.7642   29.3445 H   0  0  0  0  0  0  0  0  0  0  0  0
    7.0032   50.4071   29.2606 H   0  0  0  0  0  0  0  0  0  0  0  0
    7.1060   49.4911   27.7237 H   0  0  0  0  0  0  0  0  0  0  0  0
    5.4233   49.6773   26.0535 H   0  0  0  0  0  0  0  0  0  0  0  0
    2.5975   52.4884   29.0550 H   0  0  0  0  0  0  0  0  0  0  0  0
    2.1376   52.6438   24.3239 H   0  0  0  0  0  0  0  0  0  0  0  0
    1.1108   51.1884   24.7338 H   0  0  0  0  0  0  0  0  0  0  0  0
    9.8242   40.7215   31.7641 H   0  0  0  0  0  0  0  0  0  0  0  0
   11.3801   41.5528   31.4730 H   0  0  0  0  0  0  0  0  0  0  0  0
   11.7266   39.5310   30.3513 H   0  0  0  0  0  0  0  0  0  0  0  0
   10.1110   38.2747   32.6387 H   0  0  0  0  0  0  0  0  0  0  0  0
   13.6652   37.4520   31.2226 H   0  0  0  0  0  0  0  0  0  0  0  0
   10.0511   38.1143   29.7645 H   0  0  0  0  0  0  0  0  0  0  0  0
   11.2762   36.3141   32.5189 H   0  0  0  0  0  0  0  0  0  0  0  0
   10.8593   35.6977   30.4640 H   0  0  0  0  0  0  0  0  0  0  0  0
   12.3294   38.3518   34.7449 H   0  0  0  0  0  0  0  0  0  0  0  0
   16.7564   34.1780   32.4620 H   0  0  0  0  0  0  0  0  0  0  0  0
   16.6348   34.5300   37.1416 H   0  0  0  0  0  0  0  0  0  0  0  0
   15.3534   35.7359   37.5138 H   0  0  0  0  0  0  0  0  0  0  0  0
  1  2  2  0
  1  3  1  0
  3  4  1  0
  4  5  1  0
  6  1  1  0
  7  6  1  0
  6  8  1  0
  8  9  1  0
  9 10  2  0
 11  9  1  0
 10 12  1  0
 13 11  2  0
 12 14  2  0
 14 13  1  0
 14 15  1  0
 15 16  1  0
 16 17  1  0
 17 18  2  0
 19 17  1  0
 18 20  1  0
 21 19  2  0
 19 22  1  0
 20 23  1  0
 20 24  2  0
 24 21  1  0
 22 25  1  0
 22 26  2  0
 23 27  1  0
 24 28  1  0
 27 28  1  0
  4 29  2  0
  4 30  1  0
 31 30  1  0
 31 32  1  0
 32 33  1  0
 32 34  1  0
 33 35  1  0
 34 36  1  0
 34 37  1  0
 37 35  1  0
 35 38  1  0
 37 39  1  0
 40 38  1  0
 41 38  1  0
 42 40  2  0
 40 43  1  0
 44 41  2  0
 45 42  1  0
 43 46  2  0
 43 44  1  0
 47 45  2  0
 47 46  1  0
 46 48  1  0
  6 49  1  1
  7 50  1  0
  7 51  1  0
  8 52  1  0
  8 53  1  0
 10 54  1  0
 11 55  1  0
 12 56  1  0
 13 57  1  0
 16 58  1  0
 16 59  1  0
 18 60  1  0
 21 61  1  0
 27 62  1  0
 27 63  1  0
 31 64  1  0
 31 65  1  0
 32 66  1  0
 34 67  1  0
 35 68  1  0
 36 69  1  0
 37 70  1  0
 39 71  1  0
 41 72  1  0
 45 73  1  0
 48 74  1  0
 48 75  1  0
M  CHG  3   5  -1  22   1  25  -1
M  END
>  <EmbedRMS>  (71) 
0.0816440580087

$$$$

     RDKit          3D

 75 80  0  0  0  0  0  0  0  0999 V2000
   10.2839   43.7626   33.8275 C   0  0  0  0  0  0  0  0  0  0  0  0
   11.4103   43.5863   34.3766 O   0  0  0  0  0  0  0  0  0  0  0  0
    9.3631   42.7236   33.7353 O   0  0  0  0  0  0  0  0  0  0  0  0
    9.8894   41.2249   34.2944 P   0  0  0  0  0  0  0  0  0  0  0  0
   10.3726   41.4547   35.8838 O   0  0  0  0  0  0  0  0  0  0  0  0
    9.9549   45.0700   33.2063 C   0  0  1  0  0  0  0  0  0  0  0  0
   11.0198   46.0481   33.4570 N   0  0  0  0  0  0  0  0  0  0  0  0
    9.7506   44.8511   31.6921 C   0  0  0  0  0  0  0  0  0  0  0  0
    8.7944   45.8417   31.0867 C   0  0  0  0  0  0  0  0  0  0  0  0
    7.4076   45.6006   31.1008 C   0  0  0  0  0  0  0  0  0  0  0  0
    9.2826   46.9895   30.4450 C   0  0  0  0  0  0  0  0  0  0  0  0
    6.5257   46.5002   30.4862 C   0  0  0  0  0  0  0  0  0  0  0  0
    8.4008   47.8887   29.8338 C   0  0  0  0  0  0  0  0  0  0  0  0
    7.0195   47.6543   29.8441 C   0  0  0  0  0  0  0  0  0  0  0  0
    6.1820   48.5854   29.2085 O   0  0  0  0  0  0  0  0  0  0  0  0
    4.7697   48.4445   29.0457 C   0  0  0  0  0  0  0  0  0  0  0  0
    4.4493   47.3389   28.0642 C   0  0  0  0  0  0  0  0  0  0  0  0
    5.1673   47.2999   26.8458 C   0  0  0  0  0  0  0  0  0  0  0  0
    3.4818   46.3186   28.3441 C   0  0  0  0  0  0  0  0  0  0  0  0
    4.9449   46.2369   25.9801 C   0  0  0  0  0  0  0  0  0  0  0  0
    3.3108   45.2515   27.4336 C   0  0  0  0  0  0  0  0  0  0  0  0
    2.6579   46.3597   29.5189 N   0  0  0  0  0  0  0  0  0  0  0  0
    5.5380   45.9856   24.7578 O   0  0  0  0  0  0  0  0  0  0  0  0
    4.0609   45.2526   26.2646 C   0  0  0  0  0  0  0  0  0  0  0  0
    2.3133   45.1883   30.1526 O   0  0  0  0  0  0  0  0  0  0  0  0
    2.0561   47.4096   29.8249 O   0  0  0  0  0  0  0  0  0  0  0  0
    4.9894   44.7647   24.2427 C   0  0  0  0  0  0  0  0  0  0  0  0
    4.0501   44.3305   25.2358 O   0  0  0  0  0  0  0  0  0  0  0  0
    8.8113   40.1834   34.2129 O   0  0  0  0  0  0  0  0  0  0  0  0
   11.2402   40.7930   33.3696 O   0  0  0  0  0  0  0  0  0  0  0  0
   10.9151   40.6903   31.9975 C   0  0  0  0  0  0  0  0  0  0  0  0
   11.5252   39.3885   31.4375 C   0  0  0  0  0  0  0  0  0  0  0  0
   12.7500   39.0873   32.0798 O   0  0  0  0  0  0  0  0  0  0  0  0
   10.6092   38.1925   31.6469 C   0  0  0  0  0  0  0  0  0  0  0  0
   12.9332   37.6792   32.0294 C   0  0  0  0  0  0  0  0  0  0  0  0
    9.6122   38.0894   30.6542 O   0  0  0  0  0  0  0  0  0  0  0  0
   11.5743   37.0144   31.7024 C   0  0  0  0  0  0  0  0  0  0  0  0
   13.4844   37.2107   33.3241 N   0  0  0  0  0  0  0  0  0  0  0  0
   11.6297   36.3238   30.4740 O   0  0  0  0  0  0  0  0  0  0  0  0
   14.4802   36.3313   33.5727 C   0  0  0  0  0  0  0  0  0  0  0  0
   13.1138   37.6267   34.5692 C   0  0  0  0  0  0  0  0  0  0  0  0
   15.2075   35.6149   32.6739 N   0  0  0  0  0  0  0  0  0  0  0  0
   14.6761   36.2303   34.9181 C   0  0  0  0  0  0  0  0  0  0  0  0
   13.8220   37.0447   35.5785 N   0  0  0  0  0  0  0  0  0  0  0  0
   16.1643   34.7600   33.1547 C   0  0  0  0  0  0  0  0  0  0  0  0
   15.6529   35.3505   35.4130 C   0  0  0  0  0  0  0  0  0  0  0  0
   16.3798   34.6315   34.5042 N   0  0  0  0  0  0  0  0  0  0  0  0
   15.9003   35.1932   36.8090 N   0  0  0  0  0  0  0  0  0  0  0  0
    9.0098   45.4348   33.6668 H   0  0  0  0  0  0  0  0  0  0  0  0
   11.9349   45.6933   33.0928 H   0  0  0  0  0  0  0  0  0  0  0  0
   11.1132   46.1992   34.4883 H   0  0  0  0  0  0  0  0  0  0  0  0
    9.3518   43.8344   31.4757 H   0  0  0  0  0  0  0  0  0  0  0  0
   10.7309   44.8931   31.1674 H   0  0  0  0  0  0  0  0  0  0  0  0
    7.0124   44.7158   31.5846 H   0  0  0  0  0  0  0  0  0  0  0  0
   10.3466   47.1898   30.4155 H   0  0  0  0  0  0  0  0  0  0  0  0
    5.4672   46.2877   30.5211 H   0  0  0  0  0  0  0  0  0  0  0  0
    8.7938   48.7702   29.3432 H   0  0  0  0  0  0  0  0  0  0  0  0
    4.3082   48.2936   30.0415 H   0  0  0  0  0  0  0  0  0  0  0  0
    4.3711   49.3962   28.6367 H   0  0  0  0  0  0  0  0  0  0  0  0
    5.8948   48.0612   26.5936 H   0  0  0  0  0  0  0  0  0  0  0  0
    2.5942   44.4617   27.6187 H   0  0  0  0  0  0  0  0  0  0  0  0
    4.4695   44.9533   23.2801 H   0  0  0  0  0  0  0  0  0  0  0  0
    5.7908   44.0069   24.1161 H   0  0  0  0  0  0  0  0  0  0  0  0
    9.8243   40.7216   31.7640 H   0  0  0  0  0  0  0  0  0  0  0  0
   11.3805   41.5528   31.4739 H   0  0  0  0  0  0  0  0  0  0  0  0
   11.7265   39.5311   30.3512 H   0  0  0  0  0  0  0  0  0  0  0  0
   10.1110   38.2746   32.6387 H   0  0  0  0  0  0  0  0  0  0  0  0
   13.6652   37.4518   31.2226 H   0  0  0  0  0  0  0  0  0  0  0  0
   10.0511   38.1143   29.7644 H   0  0  0  0  0  0  0  0  0  0  0  0
   11.2762   36.3141   32.5189 H   0  0  0  0  0  0  0  0  0  0  0  0
   10.8593   35.6977   30.4639 H   0  0  0  0  0  0  0  0  0  0  0  0
   12.3294   38.3518   34.7449 H   0  0  0  0  0  0  0  0  0  0  0  0
   16.7564   34.1779   32.4620 H   0  0  0  0  0  0  0  0  0  0  0  0
   15.3534   35.7359   37.5138 H   0  0  0  0  0  0  0  0  0  0  0  0
   16.6349   34.5300   37.1415 H   0  0  0  0  0  0  0  0  0  0  0  0
  1  2  2  0
  1  3  1  0
  3  4  1  0
  4  5  1  0
  6  1  1  0
  7  6  1  0
  6  8  1  0
  8  9  1  0
  9 10  2  0
 11  9  1  0
 10 12  1  0
 13 11  2  0
 12 14  2  0
 14 13  1  0
 14 15  1  0
 15 16  1  0
 16 17  1  0
 17 18  2  0
 19 17  1  0
 18 20  1  0
 21 19  2  0
 19 22  1  0
 20 23  1  0
 20 24  2  0
 24 21  1  0
 22 25  1  0
 22 26  2  0
 23 27  1  0
 24 28  1  0
 27 28  1  0
  4 29  2  0
  4 30  1  0
 31 30  1  0
 31 32  1  0
 32 33  1  0
 32 34  1  0
 33 35  1  0
 34 36  1  0
 34 37  1  0
 37 35  1  0
 35 38  1  0
 37 39  1  0
 40 38  1  0
 41 38  1  0
 42 40  2  0
 40 43  1  0
 44 41  2  0
 45 42  1  0
 43 46  2  0
 43 44  1  0
 47 45  2  0
 47 46  1  0
 46 48  1  0
  6 49  1  1
  7 50  1  0
  7 51  1  0
  8 52  1  0
  8 53  1  0
 10 54  1  0
 11 55  1  0
 12 56  1  0
 13 57  1  0
 16 58  1  0
 16 59  1  0
 18 60  1  0
 21 61  1  0
 27 62  1  0
 27 63  1  0
 31 64  1  0
 31 65  1  0
 32 66  1  0
 34 67  1  0
 35 68  1  0
 36 69  1  0
 37 70  1  0
 39 71  1  0
 41 72  1  0
 45 73  1  0
 48 74  1  0
 48 75  1  0
M  CHG  3   5  -1  22   1  25  -1
M  END
>  <EmbedRMS>  (72) 
0.0827146442358

$$$$

     RDKit          3D

 75 80  0  0  0  0  0  0  0  0999 V2000
   10.2836   43.7661   33.8256 C   0  0  0  0  0  0  0  0  0  0  0  0
   11.4103   43.5930   34.3753 O   0  0  0  0  0  0  0  0  0  0  0  0
    9.3640   42.7252   33.7347 O   0  0  0  0  0  0  0  0  0  0  0  0
    9.8908   41.2264   34.2939 P   0  0  0  0  0  0  0  0  0  0  0  0
   10.3732   41.4559   35.8835 O   0  0  0  0  0  0  0  0  0  0  0  0
    9.9547   45.0694   33.2036 C   0  0  1  0  0  0  0  0  0  0  0  0
   11.0273   46.0321   33.4757 N   0  0  0  0  0  0  0  0  0  0  0  0
    9.7466   44.8480   31.6877 C   0  0  0  0  0  0  0  0  0  0  0  0
    8.7923   45.8408   31.0844 C   0  0  0  0  0  0  0  0  0  0  0  0
    7.4054   45.6015   31.0990 C   0  0  0  0  0  0  0  0  0  0  0  0
    9.2824   46.9879   30.4422 C   0  0  0  0  0  0  0  0  0  0  0  0
    6.5263   46.5031   30.4839 C   0  0  0  0  0  0  0  0  0  0  0  0
    8.4032   47.8902   29.8315 C   0  0  0  0  0  0  0  0  0  0  0  0
    7.0143   47.6528   29.8477 C   0  0  0  0  0  0  0  0  0  0  0  0
    6.0935   48.5248   29.2487 O   0  0  0  0  0  0  0  0  0  0  0  0
    6.4454   49.7270   28.5665 C   0  0  0  0  0  0  0  0  0  0  0  0
    5.2013   50.3777   28.0131 C   0  0  0  0  0  0  0  0  0  0  0  0
    4.3113   49.5761   27.2598 C   0  0  0  0  0  0  0  0  0  0  0  0
    4.8799   51.7554   28.2486 C   0  0  0  0  0  0  0  0  0  0  0  0
    3.1249   50.1437   26.8132 C   0  0  0  0  0  0  0  0  0  0  0  0
    3.6492   52.2731   27.7851 C   0  0  0  0  0  0  0  0  0  0  0  0
    5.7899   52.6415   28.9172 N   0  0  0  0  0  0  0  0  0  0  0  0
    2.1119   49.5537   26.0819 O   0  0  0  0  0  0  0  0  0  0  0  0
    2.8049   51.4332   27.0703 C   0  0  0  0  0  0  0  0  0  0  0  0
    5.3001   53.6213   29.7496 O   0  0  0  0  0  0  0  0  0  0  0  0
    6.9838   52.6992   28.5574 O   0  0  0  0  0  0  0  0  0  0  0  0
    1.0911   50.5378   25.8664 C   0  0  0  0  0  0  0  0  0  0  0  0
    1.5741   51.7231   26.5136 O   0  0  0  0  0  0  0  0  0  0  0  0
    8.8127   40.1847   34.2122 O   0  0  0  0  0  0  0  0  0  0  0  0
   11.2421   40.7941   33.3697 O   0  0  0  0  0  0  0  0  0  0  0  0
   10.9187   40.6911   31.9971 C   0  0  0  0  0  0  0  0  0  0  0  0
   11.5172   39.3815   31.4407 C   0  0  0  0  0  0  0  0  0  0  0  0
   12.7493   39.0855   32.0728 O   0  0  0  0  0  0  0  0  0  0  0  0
   10.6023   38.1908   31.6665 C   0  0  0  0  0  0  0  0  0  0  0  0
   12.9319   37.6781   32.0281 C   0  0  0  0  0  0  0  0  0  0  0  0
    9.6392   38.0798   30.6452 O   0  0  0  0  0  0  0  0  0  0  0  0
   11.5715   37.0166   31.7056 C   0  0  0  0  0  0  0  0  0  0  0  0
   13.4846   37.2121   33.3235 N   0  0  0  0  0  0  0  0  0  0  0  0
   11.6186   36.3383   30.4695 O   0  0  0  0  0  0  0  0  0  0  0  0
   14.4801   36.3321   33.5724 C   0  0  0  0  0  0  0  0  0  0  0  0
   13.1137   37.6275   34.5688 C   0  0  0  0  0  0  0  0  0  0  0  0
   15.2073   35.6153   32.6738 N   0  0  0  0  0  0  0  0  0  0  0  0
   14.6759   36.2308   34.9179 C   0  0  0  0  0  0  0  0  0  0  0  0
   13.8217   37.0452   35.5781 N   0  0  0  0  0  0  0  0  0  0  0  0
   16.1640   34.7602   33.1546 C   0  0  0  0  0  0  0  0  0  0  0  0
   15.6526   35.3508   35.4129 C   0  0  0  0  0  0  0  0  0  0  0  0
   16.3794   34.6317   34.5041 N   0  0  0  0  0  0  0  0  0  0  0  0
   15.8999   35.1934   36.8088 N   0  0  0  0  0  0  0  0  0  0  0  0
    9.0121   45.4316   33.6715 H   0  0  0  0  0  0  0  0  0  0  0  0
   10.7259   46.9687   33.1214 H   0  0  0  0  0  0  0  0  0  0  0  0
   11.8906   45.7658   32.9470 H   0  0  0  0  0  0  0  0  0  0  0  0
    9.3414   43.8329   31.4762 H   0  0  0  0  0  0  0  0  0  0  0  0
   10.7229   44.8814   31.1557 H   0  0  0  0  0  0  0  0  0  0  0  0
    7.0082   44.7167   31.5811 H   0  0  0  0  0  0  0  0  0  0  0  0
   10.3471   47.1848   30.4115 H   0  0  0  0  0  0  0  0  0  0  0  0
    5.4617   46.3071   30.5018 H   0  0  0  0  0  0  0  0  0  0  0  0
    8.8143   48.7655   29.3476 H   0  0  0  0  0  0  0  0  0  0  0  0
    7.1246   49.4884   27.7199 H   0  0  0  0  0  0  0  0  0  0  0  0
    6.9752   50.3876   29.2805 H   0  0  0  0  0  0  0  0  0  0  0  0
    4.5286   48.5366   27.0478 H   0  0  0  0  0  0  0  0  0  0  0  0
    3.3744   53.3069   27.9506 H   0  0  0  0  0  0  0  0  0  0  0  0
    0.1373   50.2097   26.3301 H   0  0  0  0  0  0  0  0  0  0  0  0
    0.9583   50.7217   24.7796 H   0  0  0  0  0  0  0  0  0  0  0  0
   11.3969   41.5460   31.4729 H   0  0  0  0  0  0  0  0  0  0  0  0
    9.8300   40.7411   31.7613 H   0  0  0  0  0  0  0  0  0  0  0  0
   11.6975   39.5067   30.3481 H   0  0  0  0  0  0  0  0  0  0  0  0
   10.1077   38.2648   32.6645 H   0  0  0  0  0  0  0  0  0  0  0  0
   13.6621   37.4467   31.2209 H   0  0  0  0  0  0  0  0  0  0  0  0
    8.8975   38.6944   30.8831 H   0  0  0  0  0  0  0  0  0  0  0  0
   11.2806   36.3073   32.5170 H   0  0  0  0  0  0  0  0  0  0  0  0
   10.8492   35.7110   30.4586 H   0  0  0  0  0  0  0  0  0  0  0  0
   12.3290   38.3524   34.7444 H   0  0  0  0  0  0  0  0  0  0  0  0
   16.7559   34.1780   32.4619 H   0  0  0  0  0  0  0  0  0  0  0  0
   16.6344   34.5301   37.1414 H   0  0  0  0  0  0  0  0  0  0  0  0
   15.3532   35.7362   37.5137 H   0  0  0  0  0  0  0  0  0  0  0  0
  1  2  2  0
  1  3  1  0
  3  4  1  0
  4  5  1  0
  6  1  1  0
  7  6  1  0
  6  8  1  0
  8  9  1  0
  9 10  2  0
 11  9  1  0
 10 12  1  0
 13 11  2  0
 12 14  2  0
 14 13  1  0
 14 15  1  0
 15 16  1  0
 16 17  1  0
 17 18  2  0
 19 17  1  0
 18 20  1  0
 21 19  2  0
 19 22  1  0
 20 23  1  0
 20 24  2  0
 24 21  1  0
 22 25  1  0
 22 26  2  0
 23 27  1  0
 24 28  1  0
 27 28  1  0
  4 29  2  0
  4 30  1  0
 31 30  1  0
 31 32  1  0
 32 33  1  0
 32 34  1  0
 33 35  1  0
 34 36  1  0
 34 37  1  0
 37 35  1  0
 35 38  1  0
 37 39  1  0
 40 38  1  0
 41 38  1  0
 42 40  2  0
 40 43  1  0
 44 41  2  0
 45 42  1  0
 43 46  2  0
 43 44  1  0
 47 45  2  0
 47 46  1  0
 46 48  1  0
  6 49  1  1
  7 50  1  0
  7 51  1  0
  8 52  1  0
  8 53  1  0
 10 54  1  0
 11 55  1  0
 12 56  1  0
 13 57  1  0
 16 58  1  0
 16 59  1  0
 18 60  1  0
 21 61  1  0
 27 62  1  0
 27 63  1  0
 31 64  1  0
 31 65  1  0
 32 66  1  0
 34 67  1  0
 35 68  1  0
 36 69  1  0
 37 70  1  0
 39 71  1  0
 41 72  1  0
 45 73  1  0
 48 74  1  0
 48 75  1  0
M  CHG  3   5  -1  22   1  25  -1
M  END
>  <EmbedRMS>  (73) 
0.0829429867572

$$$$

     RDKit          3D

 75 80  0  0  0  0  0  0  0  0999 V2000
   10.2839   43.7626   33.8275 C   0  0  0  0  0  0  0  0  0  0  0  0
   11.4103   43.5864   34.3767 O   0  0  0  0  0  0  0  0  0  0  0  0
    9.3633   42.7233   33.7352 O   0  0  0  0  0  0  0  0  0  0  0  0
    9.8899   41.2246   34.2940 P   0  0  0  0  0  0  0  0  0  0  0  0
   10.3724   41.4545   35.8837 O   0  0  0  0  0  0  0  0  0  0  0  0
    9.9548   45.0698   33.2062 C   0  0  1  0  0  0  0  0  0  0  0  0
   11.0197   46.0480   33.4567 N   0  0  0  0  0  0  0  0  0  0  0  0
    9.7503   44.8505   31.6921 C   0  0  0  0  0  0  0  0  0  0  0  0
    8.7943   45.8410   31.0860 C   0  0  0  0  0  0  0  0  0  0  0  0
    7.4075   45.6014   31.1009 C   0  0  0  0  0  0  0  0  0  0  0  0
    9.2829   46.9894   30.4457 C   0  0  0  0  0  0  0  0  0  0  0  0
    6.5282   46.5032   30.4862 C   0  0  0  0  0  0  0  0  0  0  0  0
    8.4030   47.8909   29.8346 C   0  0  0  0  0  0  0  0  0  0  0  0
    7.0153   47.6497   29.8433 C   0  0  0  0  0  0  0  0  0  0  0  0
    6.0884   48.5151   29.2414 O   0  0  0  0  0  0  0  0  0  0  0  0
    6.3957   49.5500   28.3057 C   0  0  0  0  0  0  0  0  0  0  0  0
    6.8152   48.9675   26.9752 C   0  0  0  0  0  0  0  0  0  0  0  0
    8.1644   49.1201   26.5743 C   0  0  0  0  0  0  0  0  0  0  0  0
    5.8857   48.3167   26.0904 C   0  0  0  0  0  0  0  0  0  0  0  0
    8.5549   48.6079   25.3452 C   0  0  0  0  0  0  0  0  0  0  0  0
    6.3458   47.8247   24.8458 C   0  0  0  0  0  0  0  0  0  0  0  0
    4.4833   48.1885   26.3986 N   0  0  0  0  0  0  0  0  0  0  0  0
    9.8074   48.6346   24.7625 O   0  0  0  0  0  0  0  0  0  0  0  0
    7.6850   47.9858   24.5186 C   0  0  0  0  0  0  0  0  0  0  0  0
    3.5641   48.0948   25.3787 O   0  0  0  0  0  0  0  0  0  0  0  0
    4.0897   48.0230   27.5702 O   0  0  0  0  0  0  0  0  0  0  0  0
    9.7161   47.9834   23.4881 C   0  0  0  0  0  0  0  0  0  0  0  0
    8.3433   47.5852   23.3718 O   0  0  0  0  0  0  0  0  0  0  0  0
    8.8119   40.1831   34.2121 O   0  0  0  0  0  0  0  0  0  0  0  0
   11.2416   40.7932   33.3699 O   0  0  0  0  0  0  0  0  0  0  0  0
   10.9186   40.6909   31.9972 C   0  0  0  0  0  0  0  0  0  0  0  0
   11.5172   39.3814   31.4407 C   0  0  0  0  0  0  0  0  0  0  0  0
   12.7493   39.0855   32.0727 O   0  0  0  0  0  0  0  0  0  0  0  0
   10.6023   38.1907   31.6665 C   0  0  0  0  0  0  0  0  0  0  0  0
   12.9319   37.6781   32.0281 C   0  0  0  0  0  0  0  0  0  0  0  0
    9.6392   38.0797   30.6452 O   0  0  0  0  0  0  0  0  0  0  0  0
   11.5715   37.0165   31.7056 C   0  0  0  0  0  0  0  0  0  0  0  0
   13.4847   37.2121   33.3235 N   0  0  0  0  0  0  0  0  0  0  0  0
   11.6187   36.3383   30.4694 O   0  0  0  0  0  0  0  0  0  0  0  0
   14.4801   36.3321   33.5724 C   0  0  0  0  0  0  0  0  0  0  0  0
   13.1137   37.6276   34.5687 C   0  0  0  0  0  0  0  0  0  0  0  0
   15.2073   35.6153   32.6738 N   0  0  0  0  0  0  0  0  0  0  0  0
   14.6759   36.2308   34.9179 C   0  0  0  0  0  0  0  0  0  0  0  0
   13.8216   37.0452   35.5780 N   0  0  0  0  0  0  0  0  0  0  0  0
   16.1640   34.7602   33.1546 C   0  0  0  0  0  0  0  0  0  0  0  0
   15.6526   35.3508   35.4129 C   0  0  0  0  0  0  0  0  0  0  0  0
   16.3794   34.6317   34.5041 N   0  0  0  0  0  0  0  0  0  0  0  0
   15.8999   35.1935   36.8088 N   0  0  0  0  0  0  0  0  0  0  0  0
    9.0098   45.4347   33.6667 H   0  0  0  0  0  0  0  0  0  0  0  0
   11.9348   45.6933   33.0923 H   0  0  0  0  0  0  0  0  0  0  0  0
   11.1133   46.1992   34.4880 H   0  0  0  0  0  0  0  0  0  0  0  0
    9.3513   43.8339   31.4760 H   0  0  0  0  0  0  0  0  0  0  0  0
   10.7306   44.8921   31.1673 H   0  0  0  0  0  0  0  0  0  0  0  0
    7.0107   44.7168   31.5837 H   0  0  0  0  0  0  0  0  0  0  0  0
   10.3467   47.1919   30.4230 H   0  0  0  0  0  0  0  0  0  0  0  0
    5.4637   46.3061   30.5036 H   0  0  0  0  0  0  0  0  0  0  0  0
    8.8144   48.7767   29.3776 H   0  0  0  0  0  0  0  0  0  0  0  0
    5.4940   50.1796   28.1546 H   0  0  0  0  0  0  0  0  0  0  0  0
    7.1696   50.2253   28.7291 H   0  0  0  0  0  0  0  0  0  0  0  0
    8.8889   49.6323   27.1933 H   0  0  0  0  0  0  0  0  0  0  0  0
    5.6797   47.3271   24.1530 H   0  0  0  0  0  0  0  0  0  0  0  0
    9.9798   48.6918   22.6750 H   0  0  0  0  0  0  0  0  0  0  0  0
   10.3771   47.0918   23.4641 H   0  0  0  0  0  0  0  0  0  0  0  0
    9.8300   40.7410   31.7611 H   0  0  0  0  0  0  0  0  0  0  0  0
   11.3972   41.5459   31.4735 H   0  0  0  0  0  0  0  0  0  0  0  0
   11.6974   39.5067   30.3480 H   0  0  0  0  0  0  0  0  0  0  0  0
   10.1076   38.2646   32.6645 H   0  0  0  0  0  0  0  0  0  0  0  0
   13.6621   37.4467   31.2208 H   0  0  0  0  0  0  0  0  0  0  0  0
    8.8975   38.6944   30.8831 H   0  0  0  0  0  0  0  0  0  0  0  0
   11.2806   36.3073   32.5170 H   0  0  0  0  0  0  0  0  0  0  0  0
   10.8492   35.7110   30.4585 H   0  0  0  0  0  0  0  0  0  0  0  0
   12.3290   38.3524   34.7444 H   0  0  0  0  0  0  0  0  0  0  0  0
   16.7559   34.1780   32.4619 H   0  0  0  0  0  0  0  0  0  0  0  0
   16.6344   34.5301   37.1414 H   0  0  0  0  0  0  0  0  0  0  0  0
   15.3532   35.7362   37.5137 H   0  0  0  0  0  0  0  0  0  0  0  0
  1  2  2  0
  1  3  1  0
  3  4  1  0
  4  5  1  0
  6  1  1  0
  7  6  1  0
  6  8  1  0
  8  9  1  0
  9 10  2  0
 11  9  1  0
 10 12  1  0
 13 11  2  0
 12 14  2  0
 14 13  1  0
 14 15  1  0
 15 16  1  0
 16 17  1  0
 17 18  2  0
 19 17  1  0
 18 20  1  0
 21 19  2  0
 19 22  1  0
 20 23  1  0
 20 24  2  0
 24 21  1  0
 22 25  1  0
 22 26  2  0
 23 27  1  0
 24 28  1  0
 27 28  1  0
  4 29  2  0
  4 30  1  0
 31 30  1  0
 31 32  1  0
 32 33  1  0
 32 34  1  0
 33 35  1  0
 34 36  1  0
 34 37  1  0
 37 35  1  0
 35 38  1  0
 37 39  1  0
 40 38  1  0
 41 38  1  0
 42 40  2  0
 40 43  1  0
 44 41  2  0
 45 42  1  0
 43 46  2  0
 43 44  1  0
 47 45  2  0
 47 46  1  0
 46 48  1  0
  6 49  1  1
  7 50  1  0
  7 51  1  0
  8 52  1  0
  8 53  1  0
 10 54  1  0
 11 55  1  0
 12 56  1  0
 13 57  1  0
 16 58  1  0
 16 59  1  0
 18 60  1  0
 21 61  1  0
 27 62  1  0
 27 63  1  0
 31 64  1  0
 31 65  1  0
 32 66  1  0
 34 67  1  0
 35 68  1  0
 36 69  1  0
 37 70  1  0
 39 71  1  0
 41 72  1  0
 45 73  1  0
 48 74  1  0
 48 75  1  0
M  CHG  3   5  -1  22   1  25  -1
M  END
>  <EmbedRMS>  (74) 
0.083861495073

$$$$

     RDKit          3D

 75 80  0  0  0  0  0  0  0  0999 V2000
   10.2839   43.7625   33.8276 C   0  0  0  0  0  0  0  0  0  0  0  0
   11.4104   43.5863   34.3768 O   0  0  0  0  0  0  0  0  0  0  0  0
    9.3634   42.7233   33.7352 O   0  0  0  0  0  0  0  0  0  0  0  0
    9.8899   41.2246   34.2940 P   0  0  0  0  0  0  0  0  0  0  0  0
   10.3724   41.4544   35.8837 O   0  0  0  0  0  0  0  0  0  0  0  0
    9.9548   45.0699   33.2064 C   0  0  1  0  0  0  0  0  0  0  0  0
   11.0198   46.0480   33.4569 N   0  0  0  0  0  0  0  0  0  0  0  0
    9.7500   44.8508   31.6924 C   0  0  0  0  0  0  0  0  0  0  0  0
    8.7942   45.8418   31.0870 C   0  0  0  0  0  0  0  0  0  0  0  0
    7.4073   45.6010   31.1000 C   0  0  0  0  0  0  0  0  0  0  0  0
    9.2834   46.9892   30.4447 C   0  0  0  0  0  0  0  0  0  0  0  0
    6.5276   46.5018   30.4841 C   0  0  0  0  0  0  0  0  0  0  0  0
    8.4037   47.8901   29.8323 C   0  0  0  0  0  0  0  0  0  0  0  0
    7.0150   47.6516   29.8478 C   0  0  0  0  0  0  0  0  0  0  0  0
    6.0936   48.5230   29.2495 O   0  0  0  0  0  0  0  0  0  0  0  0
    6.4422   49.7360   28.5865 C   0  0  0  0  0  0  0  0  0  0  0  0
    5.1903   50.4333   28.1173 C   0  0  0  0  0  0  0  0  0  0  0  0
    5.0447   50.6955   26.7341 C   0  0  0  0  0  0  0  0  0  0  0  0
    4.1338   50.7966   29.0208 C   0  0  0  0  0  0  0  0  0  0  0  0
    3.8701   51.2897   26.2924 C   0  0  0  0  0  0  0  0  0  0  0  0
    2.9557   51.3873   28.5071 C   0  0  0  0  0  0  0  0  0  0  0  0
    4.2227   50.5590   30.4383 N   0  0  0  0  0  0  0  0  0  0  0  0
    3.5130   51.6315   25.0022 O   0  0  0  0  0  0  0  0  0  0  0  0
    2.8693   51.6188   27.1407 C   0  0  0  0  0  0  0  0  0  0  0  0
    3.0765   50.3611   31.1735 O   0  0  0  0  0  0  0  0  0  0  0  0
    5.3061   50.6879   31.0436 O   0  0  0  0  0  0  0  0  0  0  0  0
    2.2030   52.2137   25.0454 C   0  0  0  0  0  0  0  0  0  0  0  0
    1.8293   52.1861   26.4297 O   0  0  0  0  0  0  0  0  0  0  0  0
    8.8119   40.1831   34.2121 O   0  0  0  0  0  0  0  0  0  0  0  0
   11.2416   40.7932   33.3699 O   0  0  0  0  0  0  0  0  0  0  0  0
   10.9186   40.6909   31.9972 C   0  0  0  0  0  0  0  0  0  0  0  0
   11.5172   39.3814   31.4407 C   0  0  0  0  0  0  0  0  0  0  0  0
   12.7493   39.0855   32.0727 O   0  0  0  0  0  0  0  0  0  0  0  0
   10.6023   38.1907   31.6665 C   0  0  0  0  0  0  0  0  0  0  0  0
   12.9319   37.6781   32.0281 C   0  0  0  0  0  0  0  0  0  0  0  0
    9.6392   38.0797   30.6452 O   0  0  0  0  0  0  0  0  0  0  0  0
   11.5715   37.0165   31.7056 C   0  0  0  0  0  0  0  0  0  0  0  0
   13.4847   37.2121   33.3235 N   0  0  0  0  0  0  0  0  0  0  0  0
   11.6187   36.3383   30.4694 O   0  0  0  0  0  0  0  0  0  0  0  0
   14.4801   36.3321   33.5724 C   0  0  0  0  0  0  0  0  0  0  0  0
   13.1137   37.6276   34.5687 C   0  0  0  0  0  0  0  0  0  0  0  0
   15.2073   35.6153   32.6738 N   0  0  0  0  0  0  0  0  0  0  0  0
   14.6759   36.2308   34.9179 C   0  0  0  0  0  0  0  0  0  0  0  0
   13.8216   37.0452   35.5781 N   0  0  0  0  0  0  0  0  0  0  0  0
   16.1640   34.7602   33.1546 C   0  0  0  0  0  0  0  0  0  0  0  0
   15.6526   35.3508   35.4129 C   0  0  0  0  0  0  0  0  0  0  0  0
   16.3794   34.6317   34.5041 N   0  0  0  0  0  0  0  0  0  0  0  0
   15.8999   35.1935   36.8088 N   0  0  0  0  0  0  0  0  0  0  0  0
    9.0099   45.4347   33.6672 H   0  0  0  0  0  0  0  0  0  0  0  0
   11.1135   46.1992   34.4882 H   0  0  0  0  0  0  0  0  0  0  0  0
   11.9348   45.6932   33.0924 H   0  0  0  0  0  0  0  0  0  0  0  0
    9.3507   43.8343   31.4763 H   0  0  0  0  0  0  0  0  0  0  0  0
   10.7303   44.8921   31.1675 H   0  0  0  0  0  0  0  0  0  0  0  0
    7.0107   44.7159   31.5822 H   0  0  0  0  0  0  0  0  0  0  0  0
   10.3478   47.1879   30.4158 H   0  0  0  0  0  0  0  0  0  0  0  0
    5.4631   46.3053   30.5019 H   0  0  0  0  0  0  0  0  0  0  0  0
    8.8142   48.7652   29.3476 H   0  0  0  0  0  0  0  0  0  0  0  0
    7.1089   49.4989   27.7285 H   0  0  0  0  0  0  0  0  0  0  0  0
    7.0042   50.4052   29.2711 H   0  0  0  0  0  0  0  0  0  0  0  0
    5.8173   50.4362   26.0213 H   0  0  0  0  0  0  0  0  0  0  0  0
    2.1369   51.6717   29.1552 H   0  0  0  0  0  0  0  0  0  0  0  0
    2.2358   53.2609   24.6782 H   0  0  0  0  0  0  0  0  0  0  0  0
    1.4932   51.6072   24.4447 H   0  0  0  0  0  0  0  0  0  0  0  0
   11.3971   41.5459   31.4735 H   0  0  0  0  0  0  0  0  0  0  0  0
    9.8300   40.7410   31.7611 H   0  0  0  0  0  0  0  0  0  0  0  0
   11.6974   39.5067   30.3480 H   0  0  0  0  0  0  0  0  0  0  0  0
   10.1077   38.2646   32.6645 H   0  0  0  0  0  0  0  0  0  0  0  0
   13.6622   37.4467   31.2208 H   0  0  0  0  0  0  0  0  0  0  0  0
    8.8975   38.6943   30.8831 H   0  0  0  0  0  0  0  0  0  0  0  0
   11.2806   36.3073   32.5170 H   0  0  0  0  0  0  0  0  0  0  0  0
   10.8493   35.7110   30.4585 H   0  0  0  0  0  0  0  0  0  0  0  0
   12.3290   38.3524   34.7444 H   0  0  0  0  0  0  0  0  0  0  0  0
   16.7559   34.1780   32.4619 H   0  0  0  0  0  0  0  0  0  0  0  0
   15.3531   35.7363   37.5137 H   0  0  0  0  0  0  0  0  0  0  0  0
   16.6344   34.5301   37.1414 H   0  0  0  0  0  0  0  0  0  0  0  0
  1  2  2  0
  1  3  1  0
  3  4  1  0
  4  5  1  0
  6  1  1  0
  7  6  1  0
  6  8  1  0
  8  9  1  0
  9 10  2  0
 11  9  1  0
 10 12  1  0
 13 11  2  0
 12 14  2  0
 14 13  1  0
 14 15  1  0
 15 16  1  0
 16 17  1  0
 17 18  2  0
 19 17  1  0
 18 20  1  0
 21 19  2  0
 19 22  1  0
 20 23  1  0
 20 24  2  0
 24 21  1  0
 22 25  1  0
 22 26  2  0
 23 27  1  0
 24 28  1  0
 27 28  1  0
  4 29  2  0
  4 30  1  0
 31 30  1  0
 31 32  1  0
 32 33  1  0
 32 34  1  0
 33 35  1  0
 34 36  1  0
 34 37  1  0
 37 35  1  0
 35 38  1  0
 37 39  1  0
 40 38  1  0
 41 38  1  0
 42 40  2  0
 40 43  1  0
 44 41  2  0
 45 42  1  0
 43 46  2  0
 43 44  1  0
 47 45  2  0
 47 46  1  0
 46 48  1  0
  6 49  1  1
  7 50  1  0
  7 51  1  0
  8 52  1  0
  8 53  1  0
 10 54  1  0
 11 55  1  0
 12 56  1  0
 13 57  1  0
 16 58  1  0
 16 59  1  0
 18 60  1  0
 21 61  1  0
 27 62  1  0
 27 63  1  0
 31 64  1  0
 31 65  1  0
 32 66  1  0
 34 67  1  0
 35 68  1  0
 36 69  1  0
 37 70  1  0
 39 71  1  0
 41 72  1  0
 45 73  1  0
 48 74  1  0
 48 75  1  0
M  CHG  3   5  -1  22   1  25  -1
M  END
>  <EmbedRMS>  (75) 
0.0838318936444

$$$$

     RDKit          3D

 75 80  0  0  0  0  0  0  0  0999 V2000
   10.2839   43.7626   33.8277 C   0  0  0  0  0  0  0  0  0  0  0  0
   11.4104   43.5863   34.3767 O   0  0  0  0  0  0  0  0  0  0  0  0
    9.3631   42.7236   33.7356 O   0  0  0  0  0  0  0  0  0  0  0  0
    9.8895   41.2249   34.2948 P   0  0  0  0  0  0  0  0  0  0  0  0
   10.3720   41.4547   35.8844 O   0  0  0  0  0  0  0  0  0  0  0  0
    9.9548   45.0699   33.2065 C   0  0  1  0  0  0  0  0  0  0  0  0
   11.0199   46.0480   33.4568 N   0  0  0  0  0  0  0  0  0  0  0  0
    9.7499   44.8508   31.6926 C   0  0  0  0  0  0  0  0  0  0  0  0
    8.7941   45.8421   31.0876 C   0  0  0  0  0  0  0  0  0  0  0  0
    7.4073   45.6011   31.1001 C   0  0  0  0  0  0  0  0  0  0  0  0
    9.2833   46.9889   30.4446 C   0  0  0  0  0  0  0  0  0  0  0  0
    6.5279   46.5015   30.4833 C   0  0  0  0  0  0  0  0  0  0  0  0
    8.4040   47.8897   29.8321 C   0  0  0  0  0  0  0  0  0  0  0  0
    7.0145   47.6522   29.8480 C   0  0  0  0  0  0  0  0  0  0  0  0
    6.0899   48.5181   29.2390 O   0  0  0  0  0  0  0  0  0  0  0  0
    6.4111   49.7734   28.6343 C   0  0  0  0  0  0  0  0  0  0  0  0
    6.9669   49.6388   27.2271 C   0  0  0  0  0  0  0  0  0  0  0  0
    7.1329   48.3560   26.6411 C   0  0  0  0  0  0  0  0  0  0  0  0
    7.2684   50.8063   26.4437 C   0  0  0  0  0  0  0  0  0  0  0  0
    7.5997   48.2749   25.3365 C   0  0  0  0  0  0  0  0  0  0  0  0
    7.7280   50.6562   25.1148 C   0  0  0  0  0  0  0  0  0  0  0  0
    7.0815   52.1394   26.9542 N   0  0  0  0  0  0  0  0  0  0  0  0
    7.8386   47.1438   24.5796 O   0  0  0  0  0  0  0  0  0  0  0  0
    7.8850   49.3754   24.6061 C   0  0  0  0  0  0  0  0  0  0  0  0
    6.7481   53.1603   26.0938 O   0  0  0  0  0  0  0  0  0  0  0  0
    7.3888   52.4251   28.1290 O   0  0  0  0  0  0  0  0  0  0  0  0
    8.3073   47.5645   23.2913 C   0  0  0  0  0  0  0  0  0  0  0  0
    8.3212   48.9972   23.3508 O   0  0  0  0  0  0  0  0  0  0  0  0
    8.8117   40.1832   34.2125 O   0  0  0  0  0  0  0  0  0  0  0  0
   11.2411   40.7939   33.3710 O   0  0  0  0  0  0  0  0  0  0  0  0
   10.9179   40.6919   31.9985 C   0  0  0  0  0  0  0  0  0  0  0  0
   11.5175   39.3837   31.4423 C   0  0  0  0  0  0  0  0  0  0  0  0
   12.7508   39.0887   32.0751 O   0  0  0  0  0  0  0  0  0  0  0  0
   10.6028   38.1915   31.6658 C   0  0  0  0  0  0  0  0  0  0  0  0
   12.9384   37.6818   32.0278 C   0  0  0  0  0  0  0  0  0  0  0  0
    9.6371   38.0805   30.6470 O   0  0  0  0  0  0  0  0  0  0  0  0
   11.5780   37.0215   31.6934 C   0  0  0  0  0  0  0  0  0  0  0  0
   13.4844   37.2119   33.3241 N   0  0  0  0  0  0  0  0  0  0  0  0
   11.6095   36.3201   30.4679 O   0  0  0  0  0  0  0  0  0  0  0  0
   14.4797   36.3318   33.5730 C   0  0  0  0  0  0  0  0  0  0  0  0
   13.1135   37.6278   34.5691 C   0  0  0  0  0  0  0  0  0  0  0  0
   15.2073   35.6155   32.6742 N   0  0  0  0  0  0  0  0  0  0  0  0
   14.6754   36.2305   34.9184 C   0  0  0  0  0  0  0  0  0  0  0  0
   13.8213   37.0452   35.5784 N   0  0  0  0  0  0  0  0  0  0  0  0
   16.1640   34.7604   33.1549 C   0  0  0  0  0  0  0  0  0  0  0  0
   15.6525   35.3507   35.4132 C   0  0  0  0  0  0  0  0  0  0  0  0
   16.3794   34.6318   34.5043 N   0  0  0  0  0  0  0  0  0  0  0  0
   15.9000   35.1934   36.8091 N   0  0  0  0  0  0  0  0  0  0  0  0
    9.0100   45.4349   33.6674 H   0  0  0  0  0  0  0  0  0  0  0  0
   11.1137   46.1992   34.4881 H   0  0  0  0  0  0  0  0  0  0  0  0
   11.9348   45.6932   33.0922 H   0  0  0  0  0  0  0  0  0  0  0  0
    9.3503   43.8344   31.4765 H   0  0  0  0  0  0  0  0  0  0  0  0
   10.7301   44.8920   31.1675 H   0  0  0  0  0  0  0  0  0  0  0  0
    7.0108   44.7156   31.5814 H   0  0  0  0  0  0  0  0  0  0  0  0
   10.3480   47.1857   30.4127 H   0  0  0  0  0  0  0  0  0  0  0  0
    5.4637   46.3029   30.4983 H   0  0  0  0  0  0  0  0  0  0  0  0
    8.8180   48.7562   29.3360 H   0  0  0  0  0  0  0  0  0  0  0  0
    7.1193   50.3193   29.2906 H   0  0  0  0  0  0  0  0  0  0  0  0
    5.4769   50.3707   28.5794 H   0  0  0  0  0  0  0  0  0  0  0  0
    6.8955   47.4418   27.1653 H   0  0  0  0  0  0  0  0  0  0  0  0
    7.9641   51.5142   24.4986 H   0  0  0  0  0  0  0  0  0  0  0  0
    9.3324   47.1785   23.1106 H   0  0  0  0  0  0  0  0  0  0  0  0
    7.6108   47.2205   22.4981 H   0  0  0  0  0  0  0  0  0  0  0  0
   11.3955   41.5477   31.4751 H   0  0  0  0  0  0  0  0  0  0  0  0
    9.8292   40.7409   31.7625 H   0  0  0  0  0  0  0  0  0  0  0  0
   11.6981   39.5116   30.3500 H   0  0  0  0  0  0  0  0  0  0  0  0
   10.1117   38.2603   32.6660 H   0  0  0  0  0  0  0  0  0  0  0  0
   13.6767   37.4555   31.2267 H   0  0  0  0  0  0  0  0  0  0  0  0
    8.8961   38.6951   30.8872 H   0  0  0  0  0  0  0  0  0  0  0  0
   11.2792   36.3072   32.4922 H   0  0  0  0  0  0  0  0  0  0  0  0
   11.8828   36.9598   29.7588 H   0  0  0  0  0  0  0  0  0  0  0  0
   12.3300   38.3539   34.7446 H   0  0  0  0  0  0  0  0  0  0  0  0
   16.7562   34.1785   32.4621 H   0  0  0  0  0  0  0  0  0  0  0  0
   16.6347   34.5303   37.1416 H   0  0  0  0  0  0  0  0  0  0  0  0
   15.3531   35.7360   37.5140 H   0  0  0  0  0  0  0  0  0  0  0  0
  1  2  2  0
  1  3  1  0
  3  4  1  0
  4  5  1  0
  6  1  1  0
  7  6  1  0
  6  8  1  0
  8  9  1  0
  9 10  2  0
 11  9  1  0
 10 12  1  0
 13 11  2  0
 12 14  2  0
 14 13  1  0
 14 15  1  0
 15 16  1  0
 16 17  1  0
 17 18  2  0
 19 17  1  0
 18 20  1  0
 21 19  2  0
 19 22  1  0
 20 23  1  0
 20 24  2  0
 24 21  1  0
 22 25  1  0
 22 26  2  0
 23 27  1  0
 24 28  1  0
 27 28  1  0
  4 29  2  0
  4 30  1  0
 31 30  1  0
 31 32  1  0
 32 33  1  0
 32 34  1  0
 33 35  1  0
 34 36  1  0
 34 37  1  0
 37 35  1  0
 35 38  1  0
 37 39  1  0
 40 38  1  0
 41 38  1  0
 42 40  2  0
 40 43  1  0
 44 41  2  0
 45 42  1  0
 43 46  2  0
 43 44  1  0
 47 45  2  0
 47 46  1  0
 46 48  1  0
  6 49  1  1
  7 50  1  0
  7 51  1  0
  8 52  1  0
  8 53  1  0
 10 54  1  0
 11 55  1  0
 12 56  1  0
 13 57  1  0
 16 58  1  0
 16 59  1  0
 18 60  1  0
 21 61  1  0
 27 62  1  0
 27 63  1  0
 31 64  1  0
 31 65  1  0
 32 66  1  0
 34 67  1  0
 35 68  1  0
 36 69  1  0
 37 70  1  0
 39 71  1  0
 41 72  1  0
 45 73  1  0
 48 74  1  0
 48 75  1  0
M  CHG  3   5  -1  22   1  25  -1
M  END
>  <EmbedRMS>  (76) 
0.0828698210933

$$$$

     RDKit          3D

 75 80  0  0  0  0  0  0  0  0999 V2000
   10.2804   43.7664   33.8249 C   0  0  0  0  0  0  0  0  0  0  0  0
   11.4110   43.5919   34.3667 O   0  0  0  0  0  0  0  0  0  0  0  0
    9.3619   42.7249   33.7344 O   0  0  0  0  0  0  0  0  0  0  0  0
    9.8903   41.2265   34.2931 P   0  0  0  0  0  0  0  0  0  0  0  0
   10.3742   41.4563   35.8824 O   0  0  0  0  0  0  0  0  0  0  0  0
    9.9459   45.0736   33.2111 C   0  0  1  0  0  0  0  0  0  0  0  0
   11.0267   46.0291   33.4705 N   0  0  0  0  0  0  0  0  0  0  0  0
    9.7535   44.8538   31.6949 C   0  0  0  0  0  0  0  0  0  0  0  0
    8.7955   45.8410   31.0846 C   0  0  0  0  0  0  0  0  0  0  0  0
    7.4086   45.6008   31.1012 C   0  0  0  0  0  0  0  0  0  0  0  0
    9.2830   46.9879   30.4402 C   0  0  0  0  0  0  0  0  0  0  0  0
    6.5280   46.5014   30.4861 C   0  0  0  0  0  0  0  0  0  0  0  0
    8.4025   47.8895   29.8313 C   0  0  0  0  0  0  0  0  0  0  0  0
    7.0137   47.6501   29.8462 C   0  0  0  0  0  0  0  0  0  0  0  0
    6.0881   48.5168   29.2426 O   0  0  0  0  0  0  0  0  0  0  0  0
    6.4241   49.6710   28.4706 C   0  0  0  0  0  0  0  0  0  0  0  0
    7.0567   49.2726   27.1556 C   0  0  0  0  0  0  0  0  0  0  0  0
    6.4400   48.2458   26.4025 C   0  0  0  0  0  0  0  0  0  0  0  0
    8.2692   49.8673   26.6741 C   0  0  0  0  0  0  0  0  0  0  0  0
    7.0641   47.8110   25.2405 C   0  0  0  0  0  0  0  0  0  0  0  0
    8.8679   49.3717   25.4939 C   0  0  0  0  0  0  0  0  0  0  0  0
    8.8866   50.9753   27.3461 N   0  0  0  0  0  0  0  0  0  0  0  0
    6.6585   46.8211   24.3662 O   0  0  0  0  0  0  0  0  0  0  0  0
    8.2300   48.3455   24.8089 C   0  0  0  0  0  0  0  0  0  0  0  0
   10.2583   51.0753   27.3798 O   0  0  0  0  0  0  0  0  0  0  0  0
    8.2024   51.9637   27.6823 O   0  0  0  0  0  0  0  0  0  0  0  0
    7.6335   46.7298   23.3184 C   0  0  0  0  0  0  0  0  0  0  0  0
    8.6192   47.7209   23.6396 O   0  0  0  0  0  0  0  0  0  0  0  0
    8.8125   40.1844   34.2130 O   0  0  0  0  0  0  0  0  0  0  0  0
   11.2405   40.7948   33.3669 O   0  0  0  0  0  0  0  0  0  0  0  0
   10.9133   40.6866   31.9952 C   0  0  0  0  0  0  0  0  0  0  0  0
   11.5166   39.3787   31.4404 C   0  0  0  0  0  0  0  0  0  0  0  0
   12.7485   39.0849   32.0735 O   0  0  0  0  0  0  0  0  0  0  0  0
   10.6039   38.1884   31.6669 C   0  0  0  0  0  0  0  0  0  0  0  0
   12.9329   37.6776   32.0284 C   0  0  0  0  0  0  0  0  0  0  0  0
    9.6373   38.0938   30.6484 O   0  0  0  0  0  0  0  0  0  0  0  0
   11.5737   37.0141   31.7055 C   0  0  0  0  0  0  0  0  0  0  0  0
   13.4853   37.2120   33.3238 N   0  0  0  0  0  0  0  0  0  0  0  0
   11.6210   36.3379   30.4683 O   0  0  0  0  0  0  0  0  0  0  0  0
   14.4804   36.3319   33.5726 C   0  0  0  0  0  0  0  0  0  0  0  0
   13.1140   37.6274   34.5689 C   0  0  0  0  0  0  0  0  0  0  0  0
   15.2076   35.6152   32.6740 N   0  0  0  0  0  0  0  0  0  0  0  0
   14.6761   36.2306   34.9181 C   0  0  0  0  0  0  0  0  0  0  0  0
   13.8218   37.0451   35.5783 N   0  0  0  0  0  0  0  0  0  0  0  0
   16.1642   34.7600   33.1548 C   0  0  0  0  0  0  0  0  0  0  0  0
   15.6528   35.3507   35.4131 C   0  0  0  0  0  0  0  0  0  0  0  0
   16.3796   34.6315   34.5043 N   0  0  0  0  0  0  0  0  0  0  0  0
   15.9001   35.1933   36.8090 N   0  0  0  0  0  0  0  0  0  0  0  0
    8.9995   45.4382   33.6722 H   0  0  0  0  0  0  0  0  0  0  0  0
   10.7764   46.9368   33.0155 H   0  0  0  0  0  0  0  0  0  0  0  0
   11.0504   46.2277   34.4979 H   0  0  0  0  0  0  0  0  0  0  0  0
    9.3636   43.8352   31.4714 H   0  0  0  0  0  0  0  0  0  0  0  0
   10.7406   44.9070   31.1834 H   0  0  0  0  0  0  0  0  0  0  0  0
    7.0130   44.7166   31.5856 H   0  0  0  0  0  0  0  0  0  0  0  0
   10.3471   47.1872   30.4080 H   0  0  0  0  0  0  0  0  0  0  0  0
    5.4637   46.3037   30.5046 H   0  0  0  0  0  0  0  0  0  0  0  0
    8.8142   48.7663   29.3532 H   0  0  0  0  0  0  0  0  0  0  0  0
    7.0658   50.3357   29.0818 H   0  0  0  0  0  0  0  0  0  0  0  0
    5.4881   50.2253   28.2501 H   0  0  0  0  0  0  0  0  0  0  0  0
    5.5161   47.7838   26.7271 H   0  0  0  0  0  0  0  0  0  0  0  0
    9.7868   49.7936   25.1077 H   0  0  0  0  0  0  0  0  0  0  0  0
    8.0944   45.7199   23.3097 H   0  0  0  0  0  0  0  0  0  0  0  0
    7.1659   46.9582   22.3377 H   0  0  0  0  0  0  0  0  0  0  0  0
    9.8225   40.7224   31.7629 H   0  0  0  0  0  0  0  0  0  0  0  0
   11.3826   41.5438   31.4666 H   0  0  0  0  0  0  0  0  0  0  0  0
   11.6979   39.5036   30.3478 H   0  0  0  0  0  0  0  0  0  0  0  0
   10.1084   38.2787   32.6627 H   0  0  0  0  0  0  0  0  0  0  0  0
   13.6638   37.4473   31.2214 H   0  0  0  0  0  0  0  0  0  0  0  0
    8.9763   37.4190   30.9532 H   0  0  0  0  0  0  0  0  0  0  0  0
   11.2821   36.3054   32.5172 H   0  0  0  0  0  0  0  0  0  0  0  0
   10.8658   35.6935   30.4653 H   0  0  0  0  0  0  0  0  0  0  0  0
   12.3293   38.3522   34.7445 H   0  0  0  0  0  0  0  0  0  0  0  0
   16.7561   34.1778   32.4621 H   0  0  0  0  0  0  0  0  0  0  0  0
   15.3533   35.7361   37.5138 H   0  0  0  0  0  0  0  0  0  0  0  0
   16.6345   34.5300   37.1416 H   0  0  0  0  0  0  0  0  0  0  0  0
  1  2  2  0
  1  3  1  0
  3  4  1  0
  4  5  1  0
  6  1  1  0
  7  6  1  0
  6  8  1  0
  8  9  1  0
  9 10  2  0
 11  9  1  0
 10 12  1  0
 13 11  2  0
 12 14  2  0
 14 13  1  0
 14 15  1  0
 15 16  1  0
 16 17  1  0
 17 18  2  0
 19 17  1  0
 18 20  1  0
 21 19  2  0
 19 22  1  0
 20 23  1  0
 20 24  2  0
 24 21  1  0
 22 25  1  0
 22 26  2  0
 23 27  1  0
 24 28  1  0
 27 28  1  0
  4 29  2  0
  4 30  1  0
 31 30  1  0
 31 32  1  0
 32 33  1  0
 32 34  1  0
 33 35  1  0
 34 36  1  0
 34 37  1  0
 37 35  1  0
 35 38  1  0
 37 39  1  0
 40 38  1  0
 41 38  1  0
 42 40  2  0
 40 43  1  0
 44 41  2  0
 45 42  1  0
 43 46  2  0
 43 44  1  0
 47 45  2  0
 47 46  1  0
 46 48  1  0
  6 49  1  1
  7 50  1  0
  7 51  1  0
  8 52  1  0
  8 53  1  0
 10 54  1  0
 11 55  1  0
 12 56  1  0
 13 57  1  0
 16 58  1  0
 16 59  1  0
 18 60  1  0
 21 61  1  0
 27 62  1  0
 27 63  1  0
 31 64  1  0
 31 65  1  0
 32 66  1  0
 34 67  1  0
 35 68  1  0
 36 69  1  0
 37 70  1  0
 39 71  1  0
 41 72  1  0
 45 73  1  0
 48 74  1  0
 48 75  1  0
M  CHG  3   5  -1  22   1  25  -1
M  END
>  <EmbedRMS>  (77) 
0.0823920867971

$$$$

     RDKit          3D

 75 80  0  0  0  0  0  0  0  0999 V2000
   10.2839   43.7626   33.8277 C   0  0  0  0  0  0  0  0  0  0  0  0
   11.4104   43.5862   34.3767 O   0  0  0  0  0  0  0  0  0  0  0  0
    9.3630   42.7236   33.7354 O   0  0  0  0  0  0  0  0  0  0  0  0
    9.8893   41.2249   34.2943 P   0  0  0  0  0  0  0  0  0  0  0  0
   10.3727   41.4546   35.8837 O   0  0  0  0  0  0  0  0  0  0  0  0
    9.9549   45.0701   33.2067 C   0  0  1  0  0  0  0  0  0  0  0  0
   11.0198   46.0482   33.4574 N   0  0  0  0  0  0  0  0  0  0  0  0
    9.7505   44.8514   31.6926 C   0  0  0  0  0  0  0  0  0  0  0  0
    8.7944   45.8426   31.0880 C   0  0  0  0  0  0  0  0  0  0  0  0
    7.4078   45.6003   31.0994 C   0  0  0  0  0  0  0  0  0  0  0  0
    9.2828   46.9886   30.4435 C   0  0  0  0  0  0  0  0  0  0  0  0
    6.5262   46.4990   30.4828 C   0  0  0  0  0  0  0  0  0  0  0  0
    8.4009   47.8865   29.8307 C   0  0  0  0  0  0  0  0  0  0  0  0
    7.0186   47.6578   29.8505 C   0  0  0  0  0  0  0  0  0  0  0  0
    6.1833   48.5959   29.2241 O   0  0  0  0  0  0  0  0  0  0  0  0
    4.7730   48.7179   29.4152 C   0  0  0  0  0  0  0  0  0  0  0  0
    4.4622   49.2610   30.7907 C   0  0  0  0  0  0  0  0  0  0  0  0
    3.8873   48.3872   31.7446 C   0  0  0  0  0  0  0  0  0  0  0  0
    4.6807   50.6379   31.1374 C   0  0  0  0  0  0  0  0  0  0  0  0
    3.5772   48.8872   33.0016 C   0  0  0  0  0  0  0  0  0  0  0  0
    4.3329   51.0895   32.4333 C   0  0  0  0  0  0  0  0  0  0  0  0
    5.1991   51.5923   30.1912 N   0  0  0  0  0  0  0  0  0  0  0  0
    3.0242   48.2210   34.0784 O   0  0  0  0  0  0  0  0  0  0  0  0
    3.7922   50.1804   33.3322 C   0  0  0  0  0  0  0  0  0  0  0  0
    6.2011   51.2508   29.3145 O   0  0  0  0  0  0  0  0  0  0  0  0
    4.8503   52.7892   30.2597 O   0  0  0  0  0  0  0  0  0  0  0  0
    2.8867   49.1584   35.1550 C   0  0  0  0  0  0  0  0  0  0  0  0
    3.3881   50.3974   34.6355 O   0  0  0  0  0  0  0  0  0  0  0  0
    8.8113   40.1834   34.2130 O   0  0  0  0  0  0  0  0  0  0  0  0
   11.2399   40.7932   33.3693 O   0  0  0  0  0  0  0  0  0  0  0  0
   10.9143   40.6896   31.9973 C   0  0  0  0  0  0  0  0  0  0  0  0
   11.5260   39.3884   31.4375 C   0  0  0  0  0  0  0  0  0  0  0  0
   12.7504   39.0887   32.0815 O   0  0  0  0  0  0  0  0  0  0  0  0
   10.6115   38.1909   31.6460 C   0  0  0  0  0  0  0  0  0  0  0  0
   12.9357   37.6812   32.0303 C   0  0  0  0  0  0  0  0  0  0  0  0
    9.6146   38.0858   30.6533 O   0  0  0  0  0  0  0  0  0  0  0  0
   11.5769   37.0148   31.7012 C   0  0  0  0  0  0  0  0  0  0  0  0
   13.4849   37.2112   33.3247 N   0  0  0  0  0  0  0  0  0  0  0  0
   11.6193   36.3260   30.4724 O   0  0  0  0  0  0  0  0  0  0  0  0
   14.4802   36.3314   33.5730 C   0  0  0  0  0  0  0  0  0  0  0  0
   13.1141   37.6268   34.5698 C   0  0  0  0  0  0  0  0  0  0  0  0
   15.2075   35.6151   32.6741 N   0  0  0  0  0  0  0  0  0  0  0  0
   14.6761   36.2300   34.9184 C   0  0  0  0  0  0  0  0  0  0  0  0
   13.8220   37.0445   35.5789 N   0  0  0  0  0  0  0  0  0  0  0  0
   16.1642   34.7600   33.1547 C   0  0  0  0  0  0  0  0  0  0  0  0
   15.6529   35.3503   35.4131 C   0  0  0  0  0  0  0  0  0  0  0  0
   16.3797   34.6314   34.5042 N   0  0  0  0  0  0  0  0  0  0  0  0
   15.9004   35.1930   36.8090 N   0  0  0  0  0  0  0  0  0  0  0  0
    9.0099   45.4349   33.6674 H   0  0  0  0  0  0  0  0  0  0  0  0
   11.1132   46.1992   34.4887 H   0  0  0  0  0  0  0  0  0  0  0  0
   11.9349   45.6934   33.0931 H   0  0  0  0  0  0  0  0  0  0  0  0
    9.3517   43.8348   31.4760 H   0  0  0  0  0  0  0  0  0  0  0  0
   10.7308   44.8935   31.1679 H   0  0  0  0  0  0  0  0  0  0  0  0
    7.0132   44.7110   31.5754 H   0  0  0  0  0  0  0  0  0  0  0  0
   10.3468   47.1883   30.4126 H   0  0  0  0  0  0  0  0  0  0  0  0
    5.4730   46.2669   30.4865 H   0  0  0  0  0  0  0  0  0  0  0  0
    8.7937   48.7686   29.3410 H   0  0  0  0  0  0  0  0  0  0  0  0
    4.3644   49.4128   28.6520 H   0  0  0  0  0  0  0  0  0  0  0  0
    4.2779   47.7408   29.2313 H   0  0  0  0  0  0  0  0  0  0  0  0
    3.6747   47.3519   31.5146 H   0  0  0  0  0  0  0  0  0  0  0  0
    4.4834   52.1189   32.7320 H   0  0  0  0  0  0  0  0  0  0  0  0
    1.8183   49.2654   35.4369 H   0  0  0  0  0  0  0  0  0  0  0  0
    3.4939   48.8345   36.0262 H   0  0  0  0  0  0  0  0  0  0  0  0
   11.3782   41.5526   31.4733 H   0  0  0  0  0  0  0  0  0  0  0  0
    9.8234   40.7192   31.7644 H   0  0  0  0  0  0  0  0  0  0  0  0
   11.7282   39.5312   30.3515 H   0  0  0  0  0  0  0  0  0  0  0  0
   10.1127   38.2733   32.6376 H   0  0  0  0  0  0  0  0  0  0  0  0
   13.6693   37.4565   31.2242 H   0  0  0  0  0  0  0  0  0  0  0  0
   10.0533   38.1117   29.7635 H   0  0  0  0  0  0  0  0  0  0  0  0
   11.2607   36.3147   32.5101 H   0  0  0  0  0  0  0  0  0  0  0  0
   12.1496   35.5023   30.6323 H   0  0  0  0  0  0  0  0  0  0  0  0
   12.3301   38.3524   34.7455 H   0  0  0  0  0  0  0  0  0  0  0  0
   16.7563   34.1781   32.4619 H   0  0  0  0  0  0  0  0  0  0  0  0
   15.3536   35.7357   37.5140 H   0  0  0  0  0  0  0  0  0  0  0  0
   16.6351   34.5298   37.1415 H   0  0  0  0  0  0  0  0  0  0  0  0
  1  2  2  0
  1  3  1  0
  3  4  1  0
  4  5  1  0
  6  1  1  0
  7  6  1  0
  6  8  1  0
  8  9  1  0
  9 10  2  0
 11  9  1  0
 10 12  1  0
 13 11  2  0
 12 14  2  0
 14 13  1  0
 14 15  1  0
 15 16  1  0
 16 17  1  0
 17 18  2  0
 19 17  1  0
 18 20  1  0
 21 19  2  0
 19 22  1  0
 20 23  1  0
 20 24  2  0
 24 21  1  0
 22 25  1  0
 22 26  2  0
 23 27  1  0
 24 28  1  0
 27 28  1  0
  4 29  2  0
  4 30  1  0
 31 30  1  0
 31 32  1  0
 32 33  1  0
 32 34  1  0
 33 35  1  0
 34 36  1  0
 34 37  1  0
 37 35  1  0
 35 38  1  0
 37 39  1  0
 40 38  1  0
 41 38  1  0
 42 40  2  0
 40 43  1  0
 44 41  2  0
 45 42  1  0
 43 46  2  0
 43 44  1  0
 47 45  2  0
 47 46  1  0
 46 48  1  0
  6 49  1  1
  7 50  1  0
  7 51  1  0
  8 52  1  0
  8 53  1  0
 10 54  1  0
 11 55  1  0
 12 56  1  0
 13 57  1  0
 16 58  1  0
 16 59  1  0
 18 60  1  0
 21 61  1  0
 27 62  1  0
 27 63  1  0
 31 64  1  0
 31 65  1  0
 32 66  1  0
 34 67  1  0
 35 68  1  0
 36 69  1  0
 37 70  1  0
 39 71  1  0
 41 72  1  0
 45 73  1  0
 48 74  1  0
 48 75  1  0
M  CHG  3   5  -1  22   1  25  -1
M  END
>  <EmbedRMS>  (78) 
0.0825041864067

$$$$

     RDKit          3D

 75 80  0  0  0  0  0  0  0  0999 V2000
   10.2838   43.7627   33.8277 C   0  0  0  0  0  0  0  0  0  0  0  0
   11.4103   43.5863   34.3766 O   0  0  0  0  0  0  0  0  0  0  0  0
    9.3628   42.7238   33.7358 O   0  0  0  0  0  0  0  0  0  0  0  0
    9.8891   41.2252   34.2949 P   0  0  0  0  0  0  0  0  0  0  0  0
   10.3724   41.4548   35.8843 O   0  0  0  0  0  0  0  0  0  0  0  0
    9.9548   45.0700   33.2065 C   0  0  1  0  0  0  0  0  0  0  0  0
   11.0199   46.0481   33.4568 N   0  0  0  0  0  0  0  0  0  0  0  0
    9.7500   44.8508   31.6924 C   0  0  0  0  0  0  0  0  0  0  0  0
    8.7942   45.8419   31.0870 C   0  0  0  0  0  0  0  0  0  0  0  0
    7.4073   45.6010   31.1001 C   0  0  0  0  0  0  0  0  0  0  0  0
    9.2834   46.9892   30.4447 C   0  0  0  0  0  0  0  0  0  0  0  0
    6.5276   46.5018   30.4841 C   0  0  0  0  0  0  0  0  0  0  0  0
    8.4037   47.8901   29.8322 C   0  0  0  0  0  0  0  0  0  0  0  0
    7.0150   47.6515   29.8477 C   0  0  0  0  0  0  0  0  0  0  0  0
    6.0936   48.5226   29.2488 O   0  0  0  0  0  0  0  0  0  0  0  0
    6.4423   49.7351   28.5850 C   0  0  0  0  0  0  0  0  0  0  0  0
    5.1913   50.4327   28.1149 C   0  0  0  0  0  0  0  0  0  0  0  0
    5.0564   50.7169   26.7350 C   0  0  0  0  0  0  0  0  0  0  0  0
    4.1258   50.7742   29.0142 C   0  0  0  0  0  0  0  0  0  0  0  0
    3.8823   51.3118   26.2926 C   0  0  0  0  0  0  0  0  0  0  0  0
    2.9481   51.3677   28.5004 C   0  0  0  0  0  0  0  0  0  0  0  0
    4.2108   50.5118   30.4273 N   0  0  0  0  0  0  0  0  0  0  0  0
    3.5346   51.6731   25.0052 O   0  0  0  0  0  0  0  0  0  0  0  0
    2.8722   51.6213   27.1373 C   0  0  0  0  0  0  0  0  0  0  0  0
    5.3897   50.7004   31.1097 O   0  0  0  0  0  0  0  0  0  0  0  0
    3.1754   50.2645   31.0798 O   0  0  0  0  0  0  0  0  0  0  0  0
    2.2210   52.2472   25.0463 C   0  0  0  0  0  0  0  0  0  0  0  0
    1.8353   52.1946   26.4266 O   0  0  0  0  0  0  0  0  0  0  0  0
    8.8112   40.1834   34.2131 O   0  0  0  0  0  0  0  0  0  0  0  0
   11.2398   40.7938   33.3702 O   0  0  0  0  0  0  0  0  0  0  0  0
   10.9144   40.6912   31.9983 C   0  0  0  0  0  0  0  0  0  0  0  0
   11.5270   39.3911   31.4385 C   0  0  0  0  0  0  0  0  0  0  0  0
   12.7520   39.0911   32.0835 O   0  0  0  0  0  0  0  0  0  0  0  0
   10.6114   38.1932   31.6451 C   0  0  0  0  0  0  0  0  0  0  0  0
   12.9413   37.6837   32.0297 C   0  0  0  0  0  0  0  0  0  0  0  0
    9.6064   38.0877   30.6599 O   0  0  0  0  0  0  0  0  0  0  0  0
   11.5822   37.0197   31.6876 C   0  0  0  0  0  0  0  0  0  0  0  0
   13.4840   37.2104   33.3254 N   0  0  0  0  0  0  0  0  0  0  0  0
   11.6179   36.3071   30.4690 O   0  0  0  0  0  0  0  0  0  0  0  0
   14.4797   36.3309   33.5738 C   0  0  0  0  0  0  0  0  0  0  0  0
   13.1136   37.6269   34.5702 C   0  0  0  0  0  0  0  0  0  0  0  0
   15.2074   35.6152   32.6747 N   0  0  0  0  0  0  0  0  0  0  0  0
   14.6756   36.2298   34.9190 C   0  0  0  0  0  0  0  0  0  0  0  0
   13.8217   37.0445   35.5793 N   0  0  0  0  0  0  0  0  0  0  0  0
   16.1643   34.7603   33.1551 C   0  0  0  0  0  0  0  0  0  0  0  0
   15.6528   35.3503   35.4136 C   0  0  0  0  0  0  0  0  0  0  0  0
   16.3798   34.6315   34.5046 N   0  0  0  0  0  0  0  0  0  0  0  0
   15.9004   35.1930   36.8094 N   0  0  0  0  0  0  0  0  0  0  0  0
    9.0099   45.4350   33.6672 H   0  0  0  0  0  0  0  0  0  0  0  0
   11.1136   46.1992   34.4881 H   0  0  0  0  0  0  0  0  0  0  0  0
   11.9348   45.6932   33.0924 H   0  0  0  0  0  0  0  0  0  0  0  0
    9.3507   43.8344   31.4764 H   0  0  0  0  0  0  0  0  0  0  0  0
   10.7303   44.8921   31.1676 H   0  0  0  0  0  0  0  0  0  0  0  0
    7.0107   44.7160   31.5823 H   0  0  0  0  0  0  0  0  0  0  0  0
   10.3477   47.1880   30.4159 H   0  0  0  0  0  0  0  0  0  0  0  0
    5.4631   46.3053   30.5019 H   0  0  0  0  0  0  0  0  0  0  0  0
    8.8142   48.7651   29.3475 H   0  0  0  0  0  0  0  0  0  0  0  0
    7.1092   49.4977   27.7273 H   0  0  0  0  0  0  0  0  0  0  0  0
    7.0037   50.4048   29.2692 H   0  0  0  0  0  0  0  0  0  0  0  0
    5.8370   50.4738   26.0251 H   0  0  0  0  0  0  0  0  0  0  0  0
    2.1223   51.6360   29.1468 H   0  0  0  0  0  0  0  0  0  0  0  0
    1.5200   51.6469   24.4294 H   0  0  0  0  0  0  0  0  0  0  0  0
    2.2511   53.3005   24.6968 H   0  0  0  0  0  0  0  0  0  0  0  0
   11.3780   41.5548   31.4751 H   0  0  0  0  0  0  0  0  0  0  0  0
    9.8235   40.7202   31.7651 H   0  0  0  0  0  0  0  0  0  0  0  0
   11.7311   39.5363   30.3532 H   0  0  0  0  0  0  0  0  0  0  0  0
   10.1203   38.2696   32.6410 H   0  0  0  0  0  0  0  0  0  0  0  0
   13.6850   37.4638   31.2321 H   0  0  0  0  0  0  0  0  0  0  0  0
   10.0250   38.1791   29.7654 H   0  0  0  0  0  0  0  0  0  0  0  0
   11.2757   36.3135   32.4907 H   0  0  0  0  0  0  0  0  0  0  0  0
   11.9838   36.9111   29.7708 H   0  0  0  0  0  0  0  0  0  0  0  0
   12.3307   38.3536   34.7457 H   0  0  0  0  0  0  0  0  0  0  0  0
   16.7566   34.1787   32.4623 H   0  0  0  0  0  0  0  0  0  0  0  0
   16.6353   34.5301   37.1418 H   0  0  0  0  0  0  0  0  0  0  0  0
   15.3535   35.7355   37.5144 H   0  0  0  0  0  0  0  0  0  0  0  0
  1  2  2  0
  1  3  1  0
  3  4  1  0
  4  5  1  0
  6  1  1  0
  7  6  1  0
  6  8  1  0
  8  9  1  0
  9 10  2  0
 11  9  1  0
 10 12  1  0
 13 11  2  0
 12 14  2  0
 14 13  1  0
 14 15  1  0
 15 16  1  0
 16 17  1  0
 17 18  2  0
 19 17  1  0
 18 20  1  0
 21 19  2  0
 19 22  1  0
 20 23  1  0
 20 24  2  0
 24 21  1  0
 22 25  1  0
 22 26  2  0
 23 27  1  0
 24 28  1  0
 27 28  1  0
  4 29  2  0
  4 30  1  0
 31 30  1  0
 31 32  1  0
 32 33  1  0
 32 34  1  0
 33 35  1  0
 34 36  1  0
 34 37  1  0
 37 35  1  0
 35 38  1  0
 37 39  1  0
 40 38  1  0
 41 38  1  0
 42 40  2  0
 40 43  1  0
 44 41  2  0
 45 42  1  0
 43 46  2  0
 43 44  1  0
 47 45  2  0
 47 46  1  0
 46 48  1  0
  6 49  1  1
  7 50  1  0
  7 51  1  0
  8 52  1  0
  8 53  1  0
 10 54  1  0
 11 55  1  0
 12 56  1  0
 13 57  1  0
 16 58  1  0
 16 59  1  0
 18 60  1  0
 21 61  1  0
 27 62  1  0
 27 63  1  0
 31 64  1  0
 31 65  1  0
 32 66  1  0
 34 67  1  0
 35 68  1  0
 36 69  1  0
 37 70  1  0
 39 71  1  0
 41 72  1  0
 45 73  1  0
 48 74  1  0
 48 75  1  0
M  CHG  3   5  -1  22   1  25  -1
M  END
>  <EmbedRMS>  (79) 
0.0817422420428

$$$$

     RDKit          3D

 75 80  0  0  0  0  0  0  0  0999 V2000
   10.2804   43.7664   33.8249 C   0  0  0  0  0  0  0  0  0  0  0  0
   11.4111   43.5918   34.3666 O   0  0  0  0  0  0  0  0  0  0  0  0
    9.3619   42.7249   33.7344 O   0  0  0  0  0  0  0  0  0  0  0  0
    9.8899   41.2266   34.2940 P   0  0  0  0  0  0  0  0  0  0  0  0
   10.3734   41.4567   35.8833 O   0  0  0  0  0  0  0  0  0  0  0  0
    9.9460   45.0736   33.2110 C   0  0  1  0  0  0  0  0  0  0  0  0
   11.0267   46.0292   33.4708 N   0  0  0  0  0  0  0  0  0  0  0  0
    9.7541   44.8541   31.6947 C   0  0  0  0  0  0  0  0  0  0  0  0
    8.7957   45.8411   31.0845 C   0  0  0  0  0  0  0  0  0  0  0  0
    7.4089   45.6001   31.1016 C   0  0  0  0  0  0  0  0  0  0  0  0
    9.2823   46.9883   30.4400 C   0  0  0  0  0  0  0  0  0  0  0  0
    6.5259   46.4993   30.4875 C   0  0  0  0  0  0  0  0  0  0  0  0
    8.3996   47.8879   29.8316 C   0  0  0  0  0  0  0  0  0  0  0  0
    7.0184   47.6535   29.8445 C   0  0  0  0  0  0  0  0  0  0  0  0
    6.1797   48.5842   29.2099 O   0  0  0  0  0  0  0  0  0  0  0  0
    4.7670   48.4435   29.0502 C   0  0  0  0  0  0  0  0  0  0  0  0
    4.4437   47.3362   28.0721 C   0  0  0  0  0  0  0  0  0  0  0  0
    5.1621   47.2887   26.8542 C   0  0  0  0  0  0  0  0  0  0  0  0
    3.4726   46.3222   28.3568 C   0  0  0  0  0  0  0  0  0  0  0  0
    4.9349   46.2230   25.9930 C   0  0  0  0  0  0  0  0  0  0  0  0
    3.2952   45.2520   27.4499 C   0  0  0  0  0  0  0  0  0  0  0  0
    2.6483   46.3808   29.5308 N   0  0  0  0  0  0  0  0  0  0  0  0
    5.5271   45.9636   24.7720 O   0  0  0  0  0  0  0  0  0  0  0  0
    4.0458   45.2443   26.2812 C   0  0  0  0  0  0  0  0  0  0  0  0
    1.9887   47.5452   29.8499 O   0  0  0  0  0  0  0  0  0  0  0  0
    2.3411   45.3300   30.1306 O   0  0  0  0  0  0  0  0  0  0  0  0
    4.9725   44.7434   24.2617 C   0  0  0  0  0  0  0  0  0  0  0  0
    4.0306   44.3180   25.2562 O   0  0  0  0  0  0  0  0  0  0  0  0
    8.8123   40.1844   34.2133 O   0  0  0  0  0  0  0  0  0  0  0  0
   11.2405   40.7942   33.3691 O   0  0  0  0  0  0  0  0  0  0  0  0
   10.9150   40.6905   31.9972 C   0  0  0  0  0  0  0  0  0  0  0  0
   11.5252   39.3886   31.4375 C   0  0  0  0  0  0  0  0  0  0  0  0
   12.7499   39.0874   32.0799 O   0  0  0  0  0  0  0  0  0  0  0  0
   10.6092   38.1926   31.6470 C   0  0  0  0  0  0  0  0  0  0  0  0
   12.9332   37.6793   32.0294 C   0  0  0  0  0  0  0  0  0  0  0  0
    9.6121   38.0894   30.6543 O   0  0  0  0  0  0  0  0  0  0  0  0
   11.5743   37.0145   31.7024 C   0  0  0  0  0  0  0  0  0  0  0  0
   13.4844   37.2108   33.3241 N   0  0  0  0  0  0  0  0  0  0  0  0
   11.6297   36.3239   30.4740 O   0  0  0  0  0  0  0  0  0  0  0  0
   14.4802   36.3313   33.5727 C   0  0  0  0  0  0  0  0  0  0  0  0
   13.1138   37.6266   34.5693 C   0  0  0  0  0  0  0  0  0  0  0  0
   15.2075   35.6149   32.6739 N   0  0  0  0  0  0  0  0  0  0  0  0
   14.6761   36.2303   34.9182 C   0  0  0  0  0  0  0  0  0  0  0  0
   13.8220   37.0446   35.5785 N   0  0  0  0  0  0  0  0  0  0  0  0
   16.1643   34.7600   33.1547 C   0  0  0  0  0  0  0  0  0  0  0  0
   15.6529   35.3505   35.4130 C   0  0  0  0  0  0  0  0  0  0  0  0
   16.3798   34.6315   34.5042 N   0  0  0  0  0  0  0  0  0  0  0  0
   15.9003   35.1932   36.8090 N   0  0  0  0  0  0  0  0  0  0  0  0
    8.9995   45.4381   33.6720 H   0  0  0  0  0  0  0  0  0  0  0  0
   11.0501   46.2277   34.4982 H   0  0  0  0  0  0  0  0  0  0  0  0
   10.7765   46.9369   33.0159 H   0  0  0  0  0  0  0  0  0  0  0  0
   10.7412   44.9080   31.1834 H   0  0  0  0  0  0  0  0  0  0  0  0
    9.3647   43.8354   31.4709 H   0  0  0  0  0  0  0  0  0  0  0  0
    7.0147   44.7162   31.5877 H   0  0  0  0  0  0  0  0  0  0  0  0
   10.3462   47.1882   30.4059 H   0  0  0  0  0  0  0  0  0  0  0  0
    5.4674   46.2869   30.5245 H   0  0  0  0  0  0  0  0  0  0  0  0
    8.7917   48.7691   29.3398 H   0  0  0  0  0  0  0  0  0  0  0  0
    4.3072   48.2929   30.0469 H   0  0  0  0  0  0  0  0  0  0  0  0
    4.3677   49.3947   28.6404 H   0  0  0  0  0  0  0  0  0  0  0  0
    5.8931   48.0456   26.5991 H   0  0  0  0  0  0  0  0  0  0  0  0
    2.5741   44.4670   27.6380 H   0  0  0  0  0  0  0  0  0  0  0  0
    4.4539   44.9307   23.2981 H   0  0  0  0  0  0  0  0  0  0  0  0
    5.7701   43.9810   24.1386 H   0  0  0  0  0  0  0  0  0  0  0  0
   11.3800   41.5528   31.4730 H   0  0  0  0  0  0  0  0  0  0  0  0
    9.8241   40.7215   31.7641 H   0  0  0  0  0  0  0  0  0  0  0  0
   11.7266   39.5310   30.3513 H   0  0  0  0  0  0  0  0  0  0  0  0
   10.1110   38.2747   32.6387 H   0  0  0  0  0  0  0  0  0  0  0  0
   13.6652   37.4520   31.2226 H   0  0  0  0  0  0  0  0  0  0  0  0
   10.0511   38.1144   29.7645 H   0  0  0  0  0  0  0  0  0  0  0  0
   11.2762   36.3141   32.5189 H   0  0  0  0  0  0  0  0  0  0  0  0
   10.8593   35.6978   30.4640 H   0  0  0  0  0  0  0  0  0  0  0  0
   12.3294   38.3518   34.7450 H   0  0  0  0  0  0  0  0  0  0  0  0
   16.7564   34.1780   32.4620 H   0  0  0  0  0  0  0  0  0  0  0  0
   15.3534   35.7359   37.5138 H   0  0  0  0  0  0  0  0  0  0  0  0
   16.6349   34.5300   37.1415 H   0  0  0  0  0  0  0  0  0  0  0  0
  1  2  2  0
  1  3  1  0
  3  4  1  0
  4  5  1  0
  6  1  1  0
  7  6  1  0
  6  8  1  0
  8  9  1  0
  9 10  2  0
 11  9  1  0
 10 12  1  0
 13 11  2  0
 12 14  2  0
 14 13  1  0
 14 15  1  0
 15 16  1  0
 16 17  1  0
 17 18  2  0
 19 17  1  0
 18 20  1  0
 21 19  2  0
 19 22  1  0
 20 23  1  0
 20 24  2  0
 24 21  1  0
 22 25  1  0
 22 26  2  0
 23 27  1  0
 24 28  1  0
 27 28  1  0
  4 29  2  0
  4 30  1  0
 31 30  1  0
 31 32  1  0
 32 33  1  0
 32 34  1  0
 33 35  1  0
 34 36  1  0
 34 37  1  0
 37 35  1  0
 35 38  1  0
 37 39  1  0
 40 38  1  0
 41 38  1  0
 42 40  2  0
 40 43  1  0
 44 41  2  0
 45 42  1  0
 43 46  2  0
 43 44  1  0
 47 45  2  0
 47 46  1  0
 46 48  1  0
  6 49  1  1
  7 50  1  0
  7 51  1  0
  8 52  1  0
  8 53  1  0
 10 54  1  0
 11 55  1  0
 12 56  1  0
 13 57  1  0
 16 58  1  0
 16 59  1  0
 18 60  1  0
 21 61  1  0
 27 62  1  0
 27 63  1  0
 31 64  1  0
 31 65  1  0
 32 66  1  0
 34 67  1  0
 35 68  1  0
 36 69  1  0
 37 70  1  0
 39 71  1  0
 41 72  1  0
 45 73  1  0
 48 74  1  0
 48 75  1  0
M  CHG  3   5  -1  22   1  25  -1
M  END
>  <EmbedRMS>  (80) 
0.0816388315014

$$$$

     RDKit          3D

 75 80  0  0  0  0  0  0  0  0999 V2000
   10.2834   43.7663   33.8258 C   0  0  0  0  0  0  0  0  0  0  0  0
   11.4102   43.5931   34.3752 O   0  0  0  0  0  0  0  0  0  0  0  0
    9.3635   42.7257   33.7353 O   0  0  0  0  0  0  0  0  0  0  0  0
    9.8900   41.2270   34.2948 P   0  0  0  0  0  0  0  0  0  0  0  0
   10.3732   41.4562   35.8841 O   0  0  0  0  0  0  0  0  0  0  0  0
    9.9546   45.0696   33.2037 C   0  0  1  0  0  0  0  0  0  0  0  0
   11.0273   46.0323   33.4756 N   0  0  0  0  0  0  0  0  0  0  0  0
    9.7465   44.8481   31.6878 C   0  0  0  0  0  0  0  0  0  0  0  0
    8.7923   45.8409   31.0847 C   0  0  0  0  0  0  0  0  0  0  0  0
    7.4055   45.6011   31.0983 C   0  0  0  0  0  0  0  0  0  0  0  0
    9.2823   46.9873   30.4418 C   0  0  0  0  0  0  0  0  0  0  0  0
    6.5268   46.5026   30.4827 C   0  0  0  0  0  0  0  0  0  0  0  0
    8.4033   47.8891   29.8306 C   0  0  0  0  0  0  0  0  0  0  0  0
    7.0140   47.6545   29.8501 C   0  0  0  0  0  0  0  0  0  0  0  0
    6.0883   48.5293   29.2592 O   0  0  0  0  0  0  0  0  0  0  0  0
    6.3949   49.8161   28.7207 C   0  0  0  0  0  0  0  0  0  0  0  0
    6.7896   50.7810   29.8150 C   0  0  0  0  0  0  0  0  0  0  0  0
    8.0161   51.4750   29.6894 C   0  0  0  0  0  0  0  0  0  0  0  0
    5.9834   50.9773   30.9856 C   0  0  0  0  0  0  0  0  0  0  0  0
    8.4141   52.3093   30.7254 C   0  0  0  0  0  0  0  0  0  0  0  0
    6.4487   51.8312   32.0135 C   0  0  0  0  0  0  0  0  0  0  0  0
    4.7159   50.3167   31.1516 N   0  0  0  0  0  0  0  0  0  0  0  0
    9.5639   53.0692   30.8229 O   0  0  0  0  0  0  0  0  0  0  0  0
    7.6655   52.4772   31.8396 C   0  0  0  0  0  0  0  0  0  0  0  0
    3.8526   50.1772   30.0901 O   0  0  0  0  0  0  0  0  0  0  0  0
    4.3156   50.0102   32.2938 O   0  0  0  0  0  0  0  0  0  0  0  0
    9.5332   53.7585   32.0801 C   0  0  0  0  0  0  0  0  0  0  0  0
    8.3040   53.3523   32.6972 O   0  0  0  0  0  0  0  0  0  0  0  0
    8.8120   40.1851   34.2133 O   0  0  0  0  0  0  0  0  0  0  0  0
   11.2403   40.7947   33.3700 O   0  0  0  0  0  0  0  0  0  0  0  0
   10.9144   40.6914   31.9982 C   0  0  0  0  0  0  0  0  0  0  0  0
   11.5270   39.3912   31.4385 C   0  0  0  0  0  0  0  0  0  0  0  0
   12.7520   39.0911   32.0836 O   0  0  0  0  0  0  0  0  0  0  0  0
   10.6113   38.1932   31.6451 C   0  0  0  0  0  0  0  0  0  0  0  0
   12.9413   37.6838   32.0297 C   0  0  0  0  0  0  0  0  0  0  0  0
    9.6064   38.0878   30.6599 O   0  0  0  0  0  0  0  0  0  0  0  0
   11.5822   37.0198   31.6877 C   0  0  0  0  0  0  0  0  0  0  0  0
   13.4840   37.2104   33.3254 N   0  0  0  0  0  0  0  0  0  0  0  0
   11.6179   36.3072   30.4690 O   0  0  0  0  0  0  0  0  0  0  0  0
   14.4797   36.3309   33.5738 C   0  0  0  0  0  0  0  0  0  0  0  0
   13.1136   37.6269   34.5702 C   0  0  0  0  0  0  0  0  0  0  0  0
   15.2074   35.6152   32.6747 N   0  0  0  0  0  0  0  0  0  0  0  0
   14.6756   36.2298   34.9190 C   0  0  0  0  0  0  0  0  0  0  0  0
   13.8217   37.0445   35.5793 N   0  0  0  0  0  0  0  0  0  0  0  0
   16.1643   34.7603   33.1551 C   0  0  0  0  0  0  0  0  0  0  0  0
   15.6528   35.3503   35.4136 C   0  0  0  0  0  0  0  0  0  0  0  0
   16.3798   34.6316   34.5046 N   0  0  0  0  0  0  0  0  0  0  0  0
   15.9004   35.1930   36.8094 N   0  0  0  0  0  0  0  0  0  0  0  0
    9.0120   45.4319   33.6715 H   0  0  0  0  0  0  0  0  0  0  0  0
   11.8905   45.7660   32.9469 H   0  0  0  0  0  0  0  0  0  0  0  0
   10.7258   46.9689   33.1213 H   0  0  0  0  0  0  0  0  0  0  0  0
   10.7228   44.8814   31.1558 H   0  0  0  0  0  0  0  0  0  0  0  0
    9.3412   43.8330   31.4765 H   0  0  0  0  0  0  0  0  0  0  0  0
    7.0083   44.7163   31.5802 H   0  0  0  0  0  0  0  0  0  0  0  0
   10.3471   47.1830   30.4086 H   0  0  0  0  0  0  0  0  0  0  0  0
    5.4621   46.3076   30.5022 H   0  0  0  0  0  0  0  0  0  0  0  0
    8.8175   48.7563   29.3382 H   0  0  0  0  0  0  0  0  0  0  0  0
    5.4987   50.2105   28.2001 H   0  0  0  0  0  0  0  0  0  0  0  0
    7.1846   49.7179   27.9444 H   0  0  0  0  0  0  0  0  0  0  0  0
    8.6492   51.3564   28.8192 H   0  0  0  0  0  0  0  0  0  0  0  0
    5.8711   51.9987   32.9134 H   0  0  0  0  0  0  0  0  0  0  0  0
    9.5352   54.8565   31.9163 H   0  0  0  0  0  0  0  0  0  0  0  0
   10.3964   53.4519   32.7074 H   0  0  0  0  0  0  0  0  0  0  0  0
   11.3777   41.5549   31.4744 H   0  0  0  0  0  0  0  0  0  0  0  0
    9.8234   40.7201   31.7654 H   0  0  0  0  0  0  0  0  0  0  0  0
   11.7311   39.5363   30.3532 H   0  0  0  0  0  0  0  0  0  0  0  0
   10.1203   38.2696   32.6410 H   0  0  0  0  0  0  0  0  0  0  0  0
   13.6850   37.4639   31.2321 H   0  0  0  0  0  0  0  0  0  0  0  0
   10.0251   38.1793   29.7654 H   0  0  0  0  0  0  0  0  0  0  0  0
   11.2757   36.3135   32.4907 H   0  0  0  0  0  0  0  0  0  0  0  0
   11.9838   36.9111   29.7708 H   0  0  0  0  0  0  0  0  0  0  0  0
   12.3307   38.3536   34.7457 H   0  0  0  0  0  0  0  0  0  0  0  0
   16.7566   34.1787   32.4623 H   0  0  0  0  0  0  0  0  0  0  0  0
   16.6353   34.5301   37.1419 H   0  0  0  0  0  0  0  0  0  0  0  0
   15.3535   35.7355   37.5144 H   0  0  0  0  0  0  0  0  0  0  0  0
  1  2  2  0
  1  3  1  0
  3  4  1  0
  4  5  1  0
  6  1  1  0
  7  6  1  0
  6  8  1  0
  8  9  1  0
  9 10  2  0
 11  9  1  0
 10 12  1  0
 13 11  2  0
 12 14  2  0
 14 13  1  0
 14 15  1  0
 15 16  1  0
 16 17  1  0
 17 18  2  0
 19 17  1  0
 18 20  1  0
 21 19  2  0
 19 22  1  0
 20 23  1  0
 20 24  2  0
 24 21  1  0
 22 25  1  0
 22 26  2  0
 23 27  1  0
 24 28  1  0
 27 28  1  0
  4 29  2  0
  4 30  1  0
 31 30  1  0
 31 32  1  0
 32 33  1  0
 32 34  1  0
 33 35  1  0
 34 36  1  0
 34 37  1  0
 37 35  1  0
 35 38  1  0
 37 39  1  0
 40 38  1  0
 41 38  1  0
 42 40  2  0
 40 43  1  0
 44 41  2  0
 45 42  1  0
 43 46  2  0
 43 44  1  0
 47 45  2  0
 47 46  1  0
 46 48  1  0
  6 49  1  1
  7 50  1  0
  7 51  1  0
  8 52  1  0
  8 53  1  0
 10 54  1  0
 11 55  1  0
 12 56  1  0
 13 57  1  0
 16 58  1  0
 16 59  1  0
 18 60  1  0
 21 61  1  0
 27 62  1  0
 27 63  1  0
 31 64  1  0
 31 65  1  0
 32 66  1  0
 34 67  1  0
 35 68  1  0
 36 69  1  0
 37 70  1  0
 39 71  1  0
 41 72  1  0
 45 73  1  0
 48 74  1  0
 48 75  1  0
M  CHG  3   5  -1  22   1  25  -1
M  END
>  <EmbedRMS>  (81) 
0.080833286547

$$$$

     RDKit          3D

 75 80  0  0  0  0  0  0  0  0999 V2000
   10.2835   43.7662   33.8256 C   0  0  0  0  0  0  0  0  0  0  0  0
   11.4102   43.5930   34.3752 O   0  0  0  0  0  0  0  0  0  0  0  0
    9.3637   42.7255   33.7348 O   0  0  0  0  0  0  0  0  0  0  0  0
    9.8906   41.2266   34.2933 P   0  0  0  0  0  0  0  0  0  0  0  0
   10.3743   41.4557   35.8827 O   0  0  0  0  0  0  0  0  0  0  0  0
    9.9548   45.0695   33.2035 C   0  0  1  0  0  0  0  0  0  0  0  0
   11.0274   46.0322   33.4759 N   0  0  0  0  0  0  0  0  0  0  0  0
    9.7471   44.8483   31.6875 C   0  0  0  0  0  0  0  0  0  0  0  0
    8.7926   45.8409   31.0844 C   0  0  0  0  0  0  0  0  0  0  0  0
    7.4058   45.6012   31.0996 C   0  0  0  0  0  0  0  0  0  0  0  0
    9.2817   46.9882   30.4423 C   0  0  0  0  0  0  0  0  0  0  0  0
    6.5249   46.5016   30.4853 C   0  0  0  0  0  0  0  0  0  0  0  0
    8.4002   47.8884   29.8326 C   0  0  0  0  0  0  0  0  0  0  0  0
    7.0185   47.6556   29.8449 C   0  0  0  0  0  0  0  0  0  0  0  0
    6.1820   48.5881   29.2106 O   0  0  0  0  0  0  0  0  0  0  0  0
    4.7617   48.4824   29.0899 C   0  0  0  0  0  0  0  0  0  0  0  0
    4.3665   47.3563   28.1587 C   0  0  0  0  0  0  0  0  0  0  0  0
    5.1092   47.1814   26.9661 C   0  0  0  0  0  0  0  0  0  0  0  0
    3.2090   46.5410   28.3894 C   0  0  0  0  0  0  0  0  0  0  0  0
    4.7044   46.2011   26.0695 C   0  0  0  0  0  0  0  0  0  0  0  0
    2.8360   45.5702   27.4333 C   0  0  0  0  0  0  0  0  0  0  0  0
    2.3854   46.7042   29.5526 N   0  0  0  0  0  0  0  0  0  0  0  0
    5.2777   45.8517   24.8620 O   0  0  0  0  0  0  0  0  0  0  0  0
    3.6161   45.4294   26.2933 C   0  0  0  0  0  0  0  0  0  0  0  0
    1.0164   46.6946   29.4175 O   0  0  0  0  0  0  0  0  0  0  0  0
    2.8769   46.5699   30.6915 O   0  0  0  0  0  0  0  0  0  0  0  0
    4.4992   44.7896   24.2937 C   0  0  0  0  0  0  0  0  0  0  0  0
    3.4477   44.5518   25.2396 O   0  0  0  0  0  0  0  0  0  0  0  0
    8.8122   40.1851   34.2127 O   0  0  0  0  0  0  0  0  0  0  0  0
   11.2406   40.7945   33.3670 O   0  0  0  0  0  0  0  0  0  0  0  0
   10.9134   40.6866   31.9954 C   0  0  0  0  0  0  0  0  0  0  0  0
   11.5167   39.3787   31.4404 C   0  0  0  0  0  0  0  0  0  0  0  0
   12.7486   39.0849   32.0734 O   0  0  0  0  0  0  0  0  0  0  0  0
   10.6039   38.1884   31.6669 C   0  0  0  0  0  0  0  0  0  0  0  0
   12.9329   37.6776   32.0284 C   0  0  0  0  0  0  0  0  0  0  0  0
    9.6373   38.0938   30.6484 O   0  0  0  0  0  0  0  0  0  0  0  0
   11.5737   37.0141   31.7055 C   0  0  0  0  0  0  0  0  0  0  0  0
   13.4853   37.2120   33.3238 N   0  0  0  0  0  0  0  0  0  0  0  0
   11.6210   36.3379   30.4683 O   0  0  0  0  0  0  0  0  0  0  0  0
   14.4804   36.3319   33.5726 C   0  0  0  0  0  0  0  0  0  0  0  0
   13.1141   37.6275   34.5689 C   0  0  0  0  0  0  0  0  0  0  0  0
   15.2075   35.6152   32.6740 N   0  0  0  0  0  0  0  0  0  0  0  0
   14.6761   36.2306   34.9181 C   0  0  0  0  0  0  0  0  0  0  0  0
   13.8218   37.0451   35.5783 N   0  0  0  0  0  0  0  0  0  0  0  0
   16.1642   34.7600   33.1548 C   0  0  0  0  0  0  0  0  0  0  0  0
   15.6527   35.3507   35.4131 C   0  0  0  0  0  0  0  0  0  0  0  0
   16.3795   34.6315   34.5043 N   0  0  0  0  0  0  0  0  0  0  0  0
   15.9001   35.1933   36.8090 N   0  0  0  0  0  0  0  0  0  0  0  0
    9.0121   45.4317   33.6712 H   0  0  0  0  0  0  0  0  0  0  0  0
   11.8908   45.7659   32.9475 H   0  0  0  0  0  0  0  0  0  0  0  0
   10.7261   46.9688   33.1214 H   0  0  0  0  0  0  0  0  0  0  0  0
    9.3425   43.8331   31.4757 H   0  0  0  0  0  0  0  0  0  0  0  0
   10.7235   44.8824   31.1557 H   0  0  0  0  0  0  0  0  0  0  0  0
    7.0099   44.7160   31.5822 H   0  0  0  0  0  0  0  0  0  0  0  0
   10.3459   47.1866   30.4105 H   0  0  0  0  0  0  0  0  0  0  0  0
    5.4679   46.2885   30.5147 H   0  0  0  0  0  0  0  0  0  0  0  0
    8.7935   48.7696   29.3419 H   0  0  0  0  0  0  0  0  0  0  0  0
    4.3137   48.4012   30.0979 H   0  0  0  0  0  0  0  0  0  0  0  0
    4.3862   49.4298   28.6503 H   0  0  0  0  0  0  0  0  0  0  0  0
    5.9711   47.7962   26.7392 H   0  0  0  0  0  0  0  0  0  0  0  0
    1.9671   44.9416   27.5800 H   0  0  0  0  0  0  0  0  0  0  0  0
    4.0731   45.1053   23.3184 H   0  0  0  0  0  0  0  0  0  0  0  0
    5.1216   43.8780   24.1755 H   0  0  0  0  0  0  0  0  0  0  0  0
    9.8225   40.7225   31.7631 H   0  0  0  0  0  0  0  0  0  0  0  0
   11.3828   41.5438   31.4669 H   0  0  0  0  0  0  0  0  0  0  0  0
   11.6979   39.5037   30.3478 H   0  0  0  0  0  0  0  0  0  0  0  0
   10.1084   38.2787   32.6627 H   0  0  0  0  0  0  0  0  0  0  0  0
   13.6638   37.4472   31.2214 H   0  0  0  0  0  0  0  0  0  0  0  0
    8.9763   37.4191   30.9532 H   0  0  0  0  0  0  0  0  0  0  0  0
   11.2821   36.3054   32.5171 H   0  0  0  0  0  0  0  0  0  0  0  0
   10.8658   35.6936   30.4652 H   0  0  0  0  0  0  0  0  0  0  0  0
   12.3293   38.3523   34.7444 H   0  0  0  0  0  0  0  0  0  0  0  0
   16.7561   34.1778   32.4621 H   0  0  0  0  0  0  0  0  0  0  0  0
   16.6345   34.5300   37.1416 H   0  0  0  0  0  0  0  0  0  0  0  0
   15.3533   35.7361   37.5138 H   0  0  0  0  0  0  0  0  0  0  0  0
  1  2  2  0
  1  3  1  0
  3  4  1  0
  4  5  1  0
  6  1  1  0
  7  6  1  0
  6  8  1  0
  8  9  1  0
  9 10  2  0
 11  9  1  0
 10 12  1  0
 13 11  2  0
 12 14  2  0
 14 13  1  0
 14 15  1  0
 15 16  1  0
 16 17  1  0
 17 18  2  0
 19 17  1  0
 18 20  1  0
 21 19  2  0
 19 22  1  0
 20 23  1  0
 20 24  2  0
 24 21  1  0
 22 25  1  0
 22 26  2  0
 23 27  1  0
 24 28  1  0
 27 28  1  0
  4 29  2  0
  4 30  1  0
 31 30  1  0
 31 32  1  0
 32 33  1  0
 32 34  1  0
 33 35  1  0
 34 36  1  0
 34 37  1  0
 37 35  1  0
 35 38  1  0
 37 39  1  0
 40 38  1  0
 41 38  1  0
 42 40  2  0
 40 43  1  0
 44 41  2  0
 45 42  1  0
 43 46  2  0
 43 44  1  0
 47 45  2  0
 47 46  1  0
 46 48  1  0
  6 49  1  1
  7 50  1  0
  7 51  1  0
  8 52  1  0
  8 53  1  0
 10 54  1  0
 11 55  1  0
 12 56  1  0
 13 57  1  0
 16 58  1  0
 16 59  1  0
 18 60  1  0
 21 61  1  0
 27 62  1  0
 27 63  1  0
 31 64  1  0
 31 65  1  0
 32 66  1  0
 34 67  1  0
 35 68  1  0
 36 69  1  0
 37 70  1  0
 39 71  1  0
 41 72  1  0
 45 73  1  0
 48 74  1  0
 48 75  1  0
M  CHG  3   5  -1  22   1  25  -1
M  END
>  <EmbedRMS>  (82) 
0.0825537810379

$$$$

     RDKit          3D

 75 80  0  0  0  0  0  0  0  0999 V2000
   10.2834   43.7662   33.8256 C   0  0  0  0  0  0  0  0  0  0  0  0
   11.4102   43.5930   34.3753 O   0  0  0  0  0  0  0  0  0  0  0  0
    9.3637   42.7255   33.7348 O   0  0  0  0  0  0  0  0  0  0  0  0
    9.8907   41.2265   34.2933 P   0  0  0  0  0  0  0  0  0  0  0  0
   10.3743   41.4557   35.8828 O   0  0  0  0  0  0  0  0  0  0  0  0
    9.9546   45.0695   33.2036 C   0  0  1  0  0  0  0  0  0  0  0  0
   11.0274   46.0321   33.4757 N   0  0  0  0  0  0  0  0  0  0  0  0
    9.7466   44.8481   31.6877 C   0  0  0  0  0  0  0  0  0  0  0  0
    8.7923   45.8409   31.0844 C   0  0  0  0  0  0  0  0  0  0  0  0
    7.4054   45.6015   31.0991 C   0  0  0  0  0  0  0  0  0  0  0  0
    9.2824   46.9879   30.4422 C   0  0  0  0  0  0  0  0  0  0  0  0
    6.5263   46.5031   30.4839 C   0  0  0  0  0  0  0  0  0  0  0  0
    8.4032   47.8902   29.8315 C   0  0  0  0  0  0  0  0  0  0  0  0
    7.0143   47.6527   29.8476 C   0  0  0  0  0  0  0  0  0  0  0  0
    6.0935   48.5247   29.2487 O   0  0  0  0  0  0  0  0  0  0  0  0
    6.4450   49.7298   28.5715 C   0  0  0  0  0  0  0  0  0  0  0  0
    5.1938   50.4305   28.1027 C   0  0  0  0  0  0  0  0  0  0  0  0
    4.1513   50.6286   29.0385 C   0  0  0  0  0  0  0  0  0  0  0  0
    5.0171   50.8673   26.7492 C   0  0  0  0  0  0  0  0  0  0  0  0
    2.9653   51.2015   28.5975 C   0  0  0  0  0  0  0  0  0  0  0  0
    3.7812   51.4290   26.3532 C   0  0  0  0  0  0  0  0  0  0  0  0
    6.0806   50.7862   25.7882 N   0  0  0  0  0  0  0  0  0  0  0  0
    1.8211   51.4742   29.3222 O   0  0  0  0  0  0  0  0  0  0  0  0
    2.7858   51.5789   27.3103 C   0  0  0  0  0  0  0  0  0  0  0  0
    7.3280   51.2742   26.1027 O   0  0  0  0  0  0  0  0  0  0  0  0
    5.8261   50.5042   24.5991 O   0  0  0  0  0  0  0  0  0  0  0  0
    0.8625   52.0611   28.4313 C   0  0  0  0  0  0  0  0  0  0  0  0
    1.5195   52.1100   27.1574 O   0  0  0  0  0  0  0  0  0  0  0  0
    8.8123   40.1850   34.2127 O   0  0  0  0  0  0  0  0  0  0  0  0
   11.2407   40.7945   33.3670 O   0  0  0  0  0  0  0  0  0  0  0  0
   10.9134   40.6866   31.9954 C   0  0  0  0  0  0  0  0  0  0  0  0
   11.5167   39.3787   31.4404 C   0  0  0  0  0  0  0  0  0  0  0  0
   12.7486   39.0849   32.0734 O   0  0  0  0  0  0  0  0  0  0  0  0
   10.6039   38.1884   31.6669 C   0  0  0  0  0  0  0  0  0  0  0  0
   12.9329   37.6776   32.0284 C   0  0  0  0  0  0  0  0  0  0  0  0
    9.6374   38.0938   30.6485 O   0  0  0  0  0  0  0  0  0  0  0  0
   11.5737   37.0141   31.7055 C   0  0  0  0  0  0  0  0  0  0  0  0
   13.4853   37.2120   33.3238 N   0  0  0  0  0  0  0  0  0  0  0  0
   11.6210   36.3379   30.4683 O   0  0  0  0  0  0  0  0  0  0  0  0
   14.4804   36.3319   33.5726 C   0  0  0  0  0  0  0  0  0  0  0  0
   13.1141   37.6275   34.5689 C   0  0  0  0  0  0  0  0  0  0  0  0
   15.2076   35.6152   32.6740 N   0  0  0  0  0  0  0  0  0  0  0  0
   14.6761   36.2306   34.9181 C   0  0  0  0  0  0  0  0  0  0  0  0
   13.8218   37.0451   35.5783 N   0  0  0  0  0  0  0  0  0  0  0  0
   16.1642   34.7600   33.1548 C   0  0  0  0  0  0  0  0  0  0  0  0
   15.6527   35.3507   35.4131 C   0  0  0  0  0  0  0  0  0  0  0  0
   16.3795   34.6315   34.5043 N   0  0  0  0  0  0  0  0  0  0  0  0
   15.9001   35.1933   36.8090 N   0  0  0  0  0  0  0  0  0  0  0  0
    9.0121   45.4317   33.6715 H   0  0  0  0  0  0  0  0  0  0  0  0
   10.7260   46.9687   33.1213 H   0  0  0  0  0  0  0  0  0  0  0  0
   11.8906   45.7658   32.9470 H   0  0  0  0  0  0  0  0  0  0  0  0
    9.3414   43.8330   31.4763 H   0  0  0  0  0  0  0  0  0  0  0  0
   10.7230   44.8814   31.1557 H   0  0  0  0  0  0  0  0  0  0  0  0
    7.0083   44.7168   31.5813 H   0  0  0  0  0  0  0  0  0  0  0  0
   10.3471   47.1849   30.4115 H   0  0  0  0  0  0  0  0  0  0  0  0
    5.4617   46.3073   30.5021 H   0  0  0  0  0  0  0  0  0  0  0  0
    8.8142   48.7654   29.3475 H   0  0  0  0  0  0  0  0  0  0  0  0
    6.9862   50.4041   29.2696 H   0  0  0  0  0  0  0  0  0  0  0  0
    7.1132   49.4704   27.7268 H   0  0  0  0  0  0  0  0  0  0  0  0
    4.2555   50.3258   30.0731 H   0  0  0  0  0  0  0  0  0  0  0  0
    3.6144   51.7658   25.3381 H   0  0  0  0  0  0  0  0  0  0  0  0
    0.6029   53.0866   28.7681 H   0  0  0  0  0  0  0  0  0  0  0  0
   -0.0450   51.4246   28.3702 H   0  0  0  0  0  0  0  0  0  0  0  0
   11.3827   41.5438   31.4669 H   0  0  0  0  0  0  0  0  0  0  0  0
    9.8225   40.7224   31.7631 H   0  0  0  0  0  0  0  0  0  0  0  0
   11.6978   39.5037   30.3478 H   0  0  0  0  0  0  0  0  0  0  0  0
   10.1084   38.2787   32.6627 H   0  0  0  0  0  0  0  0  0  0  0  0
   13.6638   37.4472   31.2214 H   0  0  0  0  0  0  0  0  0  0  0  0
    8.9763   37.4191   30.9532 H   0  0  0  0  0  0  0  0  0  0  0  0
   11.2821   36.3054   32.5172 H   0  0  0  0  0  0  0  0  0  0  0  0
   10.8658   35.6935   30.4652 H   0  0  0  0  0  0  0  0  0  0  0  0
   12.3293   38.3523   34.7444 H   0  0  0  0  0  0  0  0  0  0  0  0
   16.7561   34.1778   32.4621 H   0  0  0  0  0  0  0  0  0  0  0  0
   15.3533   35.7361   37.5138 H   0  0  0  0  0  0  0  0  0  0  0  0
   16.6345   34.5300   37.1416 H   0  0  0  0  0  0  0  0  0  0  0  0
  1  2  2  0
  1  3  1  0
  3  4  1  0
  4  5  1  0
  6  1  1  0
  7  6  1  0
  6  8  1  0
  8  9  1  0
  9 10  2  0
 11  9  1  0
 10 12  1  0
 13 11  2  0
 12 14  2  0
 14 13  1  0
 14 15  1  0
 15 16  1  0
 16 17  1  0
 17 18  2  0
 19 17  1  0
 18 20  1  0
 21 19  2  0
 19 22  1  0
 20 23  1  0
 20 24  2  0
 24 21  1  0
 22 25  1  0
 22 26  2  0
 23 27  1  0
 24 28  1  0
 27 28  1  0
  4 29  2  0
  4 30  1  0
 31 30  1  0
 31 32  1  0
 32 33  1  0
 32 34  1  0
 33 35  1  0
 34 36  1  0
 34 37  1  0
 37 35  1  0
 35 38  1  0
 37 39  1  0
 40 38  1  0
 41 38  1  0
 42 40  2  0
 40 43  1  0
 44 41  2  0
 45 42  1  0
 43 46  2  0
 43 44  1  0
 47 45  2  0
 47 46  1  0
 46 48  1  0
  6 49  1  1
  7 50  1  0
  7 51  1  0
  8 52  1  0
  8 53  1  0
 10 54  1  0
 11 55  1  0
 12 56  1  0
 13 57  1  0
 16 58  1  0
 16 59  1  0
 18 60  1  0
 21 61  1  0
 27 62  1  0
 27 63  1  0
 31 64  1  0
 31 65  1  0
 32 66  1  0
 34 67  1  0
 35 68  1  0
 36 69  1  0
 37 70  1  0
 39 71  1  0
 41 72  1  0
 45 73  1  0
 48 74  1  0
 48 75  1  0
M  CHG  3   5  -1  22   1  25  -1
M  END
>  <EmbedRMS>  (83) 
0.0825598270115

$$$$

     RDKit          3D

 75 80  0  0  0  0  0  0  0  0999 V2000
   10.2804   43.7665   33.8249 C   0  0  0  0  0  0  0  0  0  0  0  0
   11.4110   43.5919   34.3666 O   0  0  0  0  0  0  0  0  0  0  0  0
    9.3619   42.7250   33.7344 O   0  0  0  0  0  0  0  0  0  0  0  0
    9.8903   41.2265   34.2931 P   0  0  0  0  0  0  0  0  0  0  0  0
   10.3742   41.4563   35.8824 O   0  0  0  0  0  0  0  0  0  0  0  0
    9.9459   45.0737   33.2113 C   0  0  1  0  0  0  0  0  0  0  0  0
   11.0266   46.0293   33.4710 N   0  0  0  0  0  0  0  0  0  0  0  0
    9.7540   44.8543   31.6950 C   0  0  0  0  0  0  0  0  0  0  0  0
    8.7957   45.8414   31.0851 C   0  0  0  0  0  0  0  0  0  0  0  0
    7.4090   45.5997   31.1006 C   0  0  0  0  0  0  0  0  0  0  0  0
    9.2825   46.9876   30.4389 C   0  0  0  0  0  0  0  0  0  0  0  0
    6.5261   46.4982   30.4853 C   0  0  0  0  0  0  0  0  0  0  0  0
    8.3997   47.8868   29.8299 C   0  0  0  0  0  0  0  0  0  0  0  0
    7.0181   47.6560   29.8491 C   0  0  0  0  0  0  0  0  0  0  0  0
    6.1792   48.5950   29.2281 O   0  0  0  0  0  0  0  0  0  0  0  0
    4.7524   48.5990   29.2936 C   0  0  0  0  0  0  0  0  0  0  0  0
    4.2756   48.9193   30.6916 C   0  0  0  0  0  0  0  0  0  0  0  0
    3.3645   48.0316   31.3111 C   0  0  0  0  0  0  0  0  0  0  0  0
    4.7502   50.0635   31.4155 C   0  0  0  0  0  0  0  0  0  0  0  0
    2.9783   48.2859   32.6203 C   0  0  0  0  0  0  0  0  0  0  0  0
    4.3299   50.2625   32.7520 C   0  0  0  0  0  0  0  0  0  0  0  0
    5.6565   51.0116   30.8238 N   0  0  0  0  0  0  0  0  0  0  0  0
    2.1172   47.5579   33.4186 O   0  0  0  0  0  0  0  0  0  0  0  0
    3.4431   49.3519   33.3113 C   0  0  0  0  0  0  0  0  0  0  0  0
    5.5081   51.4008   29.5131 O   0  0  0  0  0  0  0  0  0  0  0  0
    6.4847   51.6141   31.5377 O   0  0  0  0  0  0  0  0  0  0  0  0
    2.0370   48.2109   34.6929 C   0  0  0  0  0  0  0  0  0  0  0  0
    2.8986   49.3520   34.5811 O   0  0  0  0  0  0  0  0  0  0  0  0
    8.8124   40.1845   34.2129 O   0  0  0  0  0  0  0  0  0  0  0  0
   11.2404   40.7948   33.3668 O   0  0  0  0  0  0  0  0  0  0  0  0
   10.9133   40.6866   31.9952 C   0  0  0  0  0  0  0  0  0  0  0  0
   11.5166   39.3787   31.4404 C   0  0  0  0  0  0  0  0  0  0  0  0
   12.7485   39.0849   32.0735 O   0  0  0  0  0  0  0  0  0  0  0  0
   10.6039   38.1884   31.6669 C   0  0  0  0  0  0  0  0  0  0  0  0
   12.9329   37.6776   32.0284 C   0  0  0  0  0  0  0  0  0  0  0  0
    9.6373   38.0938   30.6485 O   0  0  0  0  0  0  0  0  0  0  0  0
   11.5737   37.0140   31.7055 C   0  0  0  0  0  0  0  0  0  0  0  0
   13.4853   37.2120   33.3238 N   0  0  0  0  0  0  0  0  0  0  0  0
   11.6210   36.3379   30.4683 O   0  0  0  0  0  0  0  0  0  0  0  0
   14.4804   36.3319   33.5726 C   0  0  0  0  0  0  0  0  0  0  0  0
   13.1141   37.6275   34.5689 C   0  0  0  0  0  0  0  0  0  0  0  0
   15.2076   35.6152   32.6740 N   0  0  0  0  0  0  0  0  0  0  0  0
   14.6761   36.2307   34.9181 C   0  0  0  0  0  0  0  0  0  0  0  0
   13.8218   37.0451   35.5783 N   0  0  0  0  0  0  0  0  0  0  0  0
   16.1642   34.7600   33.1548 C   0  0  0  0  0  0  0  0  0  0  0  0
   15.6528   35.3507   35.4131 C   0  0  0  0  0  0  0  0  0  0  0  0
   16.3795   34.6315   34.5043 N   0  0  0  0  0  0  0  0  0  0  0  0
   15.9000   35.1933   36.8090 N   0  0  0  0  0  0  0  0  0  0  0  0
    8.9994   45.4382   33.6722 H   0  0  0  0  0  0  0  0  0  0  0  0
   10.7763   46.9370   33.0161 H   0  0  0  0  0  0  0  0  0  0  0  0
   11.0500   46.2278   34.4984 H   0  0  0  0  0  0  0  0  0  0  0  0
    9.3646   43.8356   31.4711 H   0  0  0  0  0  0  0  0  0  0  0  0
   10.7412   44.9082   31.1837 H   0  0  0  0  0  0  0  0  0  0  0  0
    7.0151   44.7135   31.5829 H   0  0  0  0  0  0  0  0  0  0  0  0
   10.3463   47.1873   30.4043 H   0  0  0  0  0  0  0  0  0  0  0  0
    5.4695   46.2767   30.5065 H   0  0  0  0  0  0  0  0  0  0  0  0
    8.7914   48.7696   29.3406 H   0  0  0  0  0  0  0  0  0  0  0  0
    4.3590   47.6250   28.9300 H   0  0  0  0  0  0  0  0  0  0  0  0
    4.3630   49.3682   28.5962 H   0  0  0  0  0  0  0  0  0  0  0  0
    2.9808   47.1603   30.7954 H   0  0  0  0  0  0  0  0  0  0  0  0
    4.6717   51.1105   33.3313 H   0  0  0  0  0  0  0  0  0  0  0  0
    2.3997   47.5341   35.4948 H   0  0  0  0  0  0  0  0  0  0  0  0
    0.9946   48.5361   34.8929 H   0  0  0  0  0  0  0  0  0  0  0  0
    9.8224   40.7224   31.7629 H   0  0  0  0  0  0  0  0  0  0  0  0
   11.3826   41.5437   31.4666 H   0  0  0  0  0  0  0  0  0  0  0  0
   11.6979   39.5036   30.3478 H   0  0  0  0  0  0  0  0  0  0  0  0
   10.1084   38.2786   32.6627 H   0  0  0  0  0  0  0  0  0  0  0  0
   13.6638   37.4473   31.2214 H   0  0  0  0  0  0  0  0  0  0  0  0
    8.9763   37.4190   30.9532 H   0  0  0  0  0  0  0  0  0  0  0  0
   11.2821   36.3054   32.5172 H   0  0  0  0  0  0  0  0  0  0  0  0
   10.8658   35.6935   30.4652 H   0  0  0  0  0  0  0  0  0  0  0  0
   12.3293   38.3523   34.7444 H   0  0  0  0  0  0  0  0  0  0  0  0
   16.7561   34.1778   32.4621 H   0  0  0  0  0  0  0  0  0  0  0  0
   15.3533   35.7361   37.5138 H   0  0  0  0  0  0  0  0  0  0  0  0
   16.6345   34.5300   37.1416 H   0  0  0  0  0  0  0  0  0  0  0  0
  1  2  2  0
  1  3  1  0
  3  4  1  0
  4  5  1  0
  6  1  1  0
  7  6  1  0
  6  8  1  0
  8  9  1  0
  9 10  2  0
 11  9  1  0
 10 12  1  0
 13 11  2  0
 12 14  2  0
 14 13  1  0
 14 15  1  0
 15 16  1  0
 16 17  1  0
 17 18  2  0
 19 17  1  0
 18 20  1  0
 21 19  2  0
 19 22  1  0
 20 23  1  0
 20 24  2  0
 24 21  1  0
 22 25  1  0
 22 26  2  0
 23 27  1  0
 24 28  1  0
 27 28  1  0
  4 29  2  0
  4 30  1  0
 31 30  1  0
 31 32  1  0
 32 33  1  0
 32 34  1  0
 33 35  1  0
 34 36  1  0
 34 37  1  0
 37 35  1  0
 35 38  1  0
 37 39  1  0
 40 38  1  0
 41 38  1  0
 42 40  2  0
 40 43  1  0
 44 41  2  0
 45 42  1  0
 43 46  2  0
 43 44  1  0
 47 45  2  0
 47 46  1  0
 46 48  1  0
  6 49  1  1
  7 50  1  0
  7 51  1  0
  8 52  1  0
  8 53  1  0
 10 54  1  0
 11 55  1  0
 12 56  1  0
 13 57  1  0
 16 58  1  0
 16 59  1  0
 18 60  1  0
 21 61  1  0
 27 62  1  0
 27 63  1  0
 31 64  1  0
 31 65  1  0
 32 66  1  0
 34 67  1  0
 35 68  1  0
 36 69  1  0
 37 70  1  0
 39 71  1  0
 41 72  1  0
 45 73  1  0
 48 74  1  0
 48 75  1  0
M  CHG  3   5  -1  22   1  25  -1
M  END
>  <EmbedRMS>  (84) 
0.0823749284904

$$$$

     RDKit          3D

 75 80  0  0  0  0  0  0  0  0999 V2000
   10.2803   43.7665   33.8250 C   0  0  0  0  0  0  0  0  0  0  0  0
   11.4110   43.5918   34.3666 O   0  0  0  0  0  0  0  0  0  0  0  0
    9.3616   42.7251   33.7348 O   0  0  0  0  0  0  0  0  0  0  0  0
    9.8896   41.2269   34.2945 P   0  0  0  0  0  0  0  0  0  0  0  0
   10.3732   41.4568   35.8837 O   0  0  0  0  0  0  0  0  0  0  0  0
    9.9460   45.0737   33.2112 C   0  0  1  0  0  0  0  0  0  0  0  0
   11.0267   46.0292   33.4708 N   0  0  0  0  0  0  0  0  0  0  0  0
    9.7540   44.8542   31.6948 C   0  0  0  0  0  0  0  0  0  0  0  0
    8.7956   45.8412   31.0847 C   0  0  0  0  0  0  0  0  0  0  0  0
    7.4086   45.5999   31.1012 C   0  0  0  0  0  0  0  0  0  0  0  0
    9.2824   46.9881   30.4396 C   0  0  0  0  0  0  0  0  0  0  0  0
    6.5256   46.4990   30.4864 C   0  0  0  0  0  0  0  0  0  0  0  0
    8.3998   47.8878   29.8309 C   0  0  0  0  0  0  0  0  0  0  0  0
    7.0186   47.6542   29.8463 C   0  0  0  0  0  0  0  0  0  0  0  0
    6.1784   48.5846   29.2182 O   0  0  0  0  0  0  0  0  0  0  0  0
    4.7598   48.4672   29.1393 C   0  0  0  0  0  0  0  0  0  0  0  0
    4.2001   49.6230   28.3491 C   0  0  0  0  0  0  0  0  0  0  0  0
    3.2598   50.4743   28.9770 C   0  0  0  0  0  0  0  0  0  0  0  0
    4.6226   49.9055   27.0052 C   0  0  0  0  0  0  0  0  0  0  0  0
    2.7822   51.5698   28.2702 C   0  0  0  0  0  0  0  0  0  0  0  0
    4.1090   51.0450   26.3429 C   0  0  0  0  0  0  0  0  0  0  0  0
    5.5736   49.0765   26.3110 N   0  0  0  0  0  0  0  0  0  0  0  0
    1.8726   52.5259   28.6795 O   0  0  0  0  0  0  0  0  0  0  0  0
    3.1904   51.8443   27.0102 C   0  0  0  0  0  0  0  0  0  0  0  0
    6.3769   49.6231   25.3366 O   0  0  0  0  0  0  0  0  0  0  0  0
    5.5744   47.8379   26.4607 O   0  0  0  0  0  0  0  0  0  0  0  0
    1.6990   53.4598   27.6051 C   0  0  0  0  0  0  0  0  0  0  0  0
    2.5587   52.9873   26.5590 O   0  0  0  0  0  0  0  0  0  0  0  0
    8.8122   40.1844   34.2135 O   0  0  0  0  0  0  0  0  0  0  0  0
   11.2401   40.7949   33.3698 O   0  0  0  0  0  0  0  0  0  0  0  0
   10.9143   40.6914   31.9981 C   0  0  0  0  0  0  0  0  0  0  0  0
   11.5269   39.3911   31.4385 C   0  0  0  0  0  0  0  0  0  0  0  0
   12.7519   39.0911   32.0837 O   0  0  0  0  0  0  0  0  0  0  0  0
   10.6113   38.1932   31.6451 C   0  0  0  0  0  0  0  0  0  0  0  0
   12.9413   37.6838   32.0297 C   0  0  0  0  0  0  0  0  0  0  0  0
    9.6064   38.0877   30.6599 O   0  0  0  0  0  0  0  0  0  0  0  0
   11.5822   37.0197   31.6877 C   0  0  0  0  0  0  0  0  0  0  0  0
   13.4840   37.2105   33.3254 N   0  0  0  0  0  0  0  0  0  0  0  0
   11.6179   36.3072   30.4690 O   0  0  0  0  0  0  0  0  0  0  0  0
   14.4797   36.3309   33.5738 C   0  0  0  0  0  0  0  0  0  0  0  0
   13.1136   37.6269   34.5702 C   0  0  0  0  0  0  0  0  0  0  0  0
   15.2074   35.6152   32.6747 N   0  0  0  0  0  0  0  0  0  0  0  0
   14.6756   36.2298   34.9190 C   0  0  0  0  0  0  0  0  0  0  0  0
   13.8217   37.0445   35.5793 N   0  0  0  0  0  0  0  0  0  0  0  0
   16.1643   34.7603   33.1551 C   0  0  0  0  0  0  0  0  0  0  0  0
   15.6528   35.3503   35.4136 C   0  0  0  0  0  0  0  0  0  0  0  0
   16.3798   34.6316   34.5046 N   0  0  0  0  0  0  0  0  0  0  0  0
   15.9004   35.1930   36.8094 N   0  0  0  0  0  0  0  0  0  0  0  0
    8.9996   45.4383   33.6721 H   0  0  0  0  0  0  0  0  0  0  0  0
   11.0503   46.2277   34.4982 H   0  0  0  0  0  0  0  0  0  0  0  0
   10.7766   46.9369   33.0158 H   0  0  0  0  0  0  0  0  0  0  0  0
   10.7411   44.9080   31.1835 H   0  0  0  0  0  0  0  0  0  0  0  0
    9.3645   43.8354   31.4711 H   0  0  0  0  0  0  0  0  0  0  0  0
    7.0145   44.7153   31.5861 H   0  0  0  0  0  0  0  0  0  0  0  0
   10.3463   47.1878   30.4052 H   0  0  0  0  0  0  0  0  0  0  0  0
    5.4659   46.2861   30.5166 H   0  0  0  0  0  0  0  0  0  0  0  0
    8.7916   48.7694   29.3396 H   0  0  0  0  0  0  0  0  0  0  0  0
    4.4757   47.5122   28.6498 H   0  0  0  0  0  0  0  0  0  0  0  0
    4.3416   48.4523   30.1697 H   0  0  0  0  0  0  0  0  0  0  0  0
    2.9172   50.2959   29.9885 H   0  0  0  0  0  0  0  0  0  0  0  0
    4.4056   51.2929   25.3320 H   0  0  0  0  0  0  0  0  0  0  0  0
    2.0090   54.4764   27.9260 H   0  0  0  0  0  0  0  0  0  0  0  0
    0.6429   53.4593   27.2626 H   0  0  0  0  0  0  0  0  0  0  0  0
    9.8233   40.7200   31.7652 H   0  0  0  0  0  0  0  0  0  0  0  0
   11.3775   41.5548   31.4741 H   0  0  0  0  0  0  0  0  0  0  0  0
   11.7312   39.5361   30.3532 H   0  0  0  0  0  0  0  0  0  0  0  0
   10.1202   38.2696   32.6410 H   0  0  0  0  0  0  0  0  0  0  0  0
   13.6850   37.4639   31.2321 H   0  0  0  0  0  0  0  0  0  0  0  0
   10.0251   38.1792   29.7654 H   0  0  0  0  0  0  0  0  0  0  0  0
   11.2757   36.3135   32.4907 H   0  0  0  0  0  0  0  0  0  0  0  0
   11.9838   36.9111   29.7708 H   0  0  0  0  0  0  0  0  0  0  0  0
   12.3307   38.3536   34.7458 H   0  0  0  0  0  0  0  0  0  0  0  0
   16.7566   34.1787   32.4623 H   0  0  0  0  0  0  0  0  0  0  0  0
   16.6353   34.5301   37.1419 H   0  0  0  0  0  0  0  0  0  0  0  0
   15.3535   35.7355   37.5144 H   0  0  0  0  0  0  0  0  0  0  0  0
  1  2  2  0
  1  3  1  0
  3  4  1  0
  4  5  1  0
  6  1  1  0
  7  6  1  0
  6  8  1  0
  8  9  1  0
  9 10  2  0
 11  9  1  0
 10 12  1  0
 13 11  2  0
 12 14  2  0
 14 13  1  0
 14 15  1  0
 15 16  1  0
 16 17  1  0
 17 18  2  0
 19 17  1  0
 18 20  1  0
 21 19  2  0
 19 22  1  0
 20 23  1  0
 20 24  2  0
 24 21  1  0
 22 25  1  0
 22 26  2  0
 23 27  1  0
 24 28  1  0
 27 28  1  0
  4 29  2  0
  4 30  1  0
 31 30  1  0
 31 32  1  0
 32 33  1  0
 32 34  1  0
 33 35  1  0
 34 36  1  0
 34 37  1  0
 37 35  1  0
 35 38  1  0
 37 39  1  0
 40 38  1  0
 41 38  1  0
 42 40  2  0
 40 43  1  0
 44 41  2  0
 45 42  1  0
 43 46  2  0
 43 44  1  0
 47 45  2  0
 47 46  1  0
 46 48  1  0
  6 49  1  1
  7 50  1  0
  7 51  1  0
  8 52  1  0
  8 53  1  0
 10 54  1  0
 11 55  1  0
 12 56  1  0
 13 57  1  0
 16 58  1  0
 16 59  1  0
 18 60  1  0
 21 61  1  0
 27 62  1  0
 27 63  1  0
 31 64  1  0
 31 65  1  0
 32 66  1  0
 34 67  1  0
 35 68  1  0
 36 69  1  0
 37 70  1  0
 39 71  1  0
 41 72  1  0
 45 73  1  0
 48 74  1  0
 48 75  1  0
M  CHG  3   5  -1  22   1  25  -1
M  END
>  <EmbedRMS>  (85) 
0.0806398017089

$$$$

     RDKit          3D

 75 80  0  0  0  0  0  0  0  0999 V2000
   10.2839   43.7626   33.8276 C   0  0  0  0  0  0  0  0  0  0  0  0
   11.4103   43.5863   34.3766 O   0  0  0  0  0  0  0  0  0  0  0  0
    9.3631   42.7235   33.7354 O   0  0  0  0  0  0  0  0  0  0  0  0
    9.8895   41.2249   34.2944 P   0  0  0  0  0  0  0  0  0  0  0  0
   10.3727   41.4546   35.8838 O   0  0  0  0  0  0  0  0  0  0  0  0
    9.9548   45.0699   33.2063 C   0  0  1  0  0  0  0  0  0  0  0  0
   11.0198   46.0480   33.4567 N   0  0  0  0  0  0  0  0  0  0  0  0
    9.7500   44.8507   31.6923 C   0  0  0  0  0  0  0  0  0  0  0  0
    8.7942   45.8416   31.0868 C   0  0  0  0  0  0  0  0  0  0  0  0
    7.4073   45.6013   31.1004 C   0  0  0  0  0  0  0  0  0  0  0  0
    9.2833   46.9891   30.4451 C   0  0  0  0  0  0  0  0  0  0  0  0
    6.5278   46.5024   30.4848 C   0  0  0  0  0  0  0  0  0  0  0  0
    8.4038   47.8903   29.8334 C   0  0  0  0  0  0  0  0  0  0  0  0
    7.0148   47.6509   29.8458 C   0  0  0  0  0  0  0  0  0  0  0  0
    6.0904   48.5179   29.2406 O   0  0  0  0  0  0  0  0  0  0  0  0
    6.4278   49.6730   28.4706 C   0  0  0  0  0  0  0  0  0  0  0  0
    7.0630   49.2767   27.1566 C   0  0  0  0  0  0  0  0  0  0  0  0
    6.4508   48.2493   26.4009 C   0  0  0  0  0  0  0  0  0  0  0  0
    8.2742   49.8753   26.6799 C   0  0  0  0  0  0  0  0  0  0  0  0
    7.0784   47.8186   25.2391 C   0  0  0  0  0  0  0  0  0  0  0  0
    8.8766   49.3847   25.4985 C   0  0  0  0  0  0  0  0  0  0  0  0
    8.8794   50.9869   27.3573 N   0  0  0  0  0  0  0  0  0  0  0  0
    6.6774   46.8292   24.3621 O   0  0  0  0  0  0  0  0  0  0  0  0
    8.2433   48.3578   24.8104 C   0  0  0  0  0  0  0  0  0  0  0  0
    8.1140   52.0725   27.7159 O   0  0  0  0  0  0  0  0  0  0  0  0
   10.1229   51.0802   27.4157 O   0  0  0  0  0  0  0  0  0  0  0  0
    7.6543   46.7433   23.3155 C   0  0  0  0  0  0  0  0  0  0  0  0
    8.6362   47.7370   23.6404 O   0  0  0  0  0  0  0  0  0  0  0  0
    8.8114   40.1833   34.2130 O   0  0  0  0  0  0  0  0  0  0  0  0
   11.2402   40.7930   33.3696 O   0  0  0  0  0  0  0  0  0  0  0  0
   10.9151   40.6903   31.9975 C   0  0  0  0  0  0  0  0  0  0  0  0
   11.5252   39.3885   31.4375 C   0  0  0  0  0  0  0  0  0  0  0  0
   12.7500   39.0873   32.0798 O   0  0  0  0  0  0  0  0  0  0  0  0
   10.6092   38.1925   31.6469 C   0  0  0  0  0  0  0  0  0  0  0  0
   12.9332   37.6792   32.0294 C   0  0  0  0  0  0  0  0  0  0  0  0
    9.6122   38.0894   30.6542 O   0  0  0  0  0  0  0  0  0  0  0  0
   11.5743   37.0144   31.7024 C   0  0  0  0  0  0  0  0  0  0  0  0
   13.4844   37.2108   33.3241 N   0  0  0  0  0  0  0  0  0  0  0  0
   11.6297   36.3238   30.4740 O   0  0  0  0  0  0  0  0  0  0  0  0
   14.4802   36.3313   33.5726 C   0  0  0  0  0  0  0  0  0  0  0  0
   13.1138   37.6267   34.5692 C   0  0  0  0  0  0  0  0  0  0  0  0
   15.2075   35.6149   32.6739 N   0  0  0  0  0  0  0  0  0  0  0  0
   14.6761   36.2303   34.9181 C   0  0  0  0  0  0  0  0  0  0  0  0
   13.8220   37.0447   35.5785 N   0  0  0  0  0  0  0  0  0  0  0  0
   16.1643   34.7600   33.1547 C   0  0  0  0  0  0  0  0  0  0  0  0
   15.6529   35.3505   35.4130 C   0  0  0  0  0  0  0  0  0  0  0  0
   16.3798   34.6315   34.5042 N   0  0  0  0  0  0  0  0  0  0  0  0
   15.9003   35.1932   36.8090 N   0  0  0  0  0  0  0  0  0  0  0  0
    9.0099   45.4348   33.6670 H   0  0  0  0  0  0  0  0  0  0  0  0
   11.1135   46.1991   34.4880 H   0  0  0  0  0  0  0  0  0  0  0  0
   11.9348   45.6932   33.0922 H   0  0  0  0  0  0  0  0  0  0  0  0
   10.7303   44.8920   31.1674 H   0  0  0  0  0  0  0  0  0  0  0  0
    9.3507   43.8342   31.4762 H   0  0  0  0  0  0  0  0  0  0  0  0
    7.0107   44.7163   31.5826 H   0  0  0  0  0  0  0  0  0  0  0  0
   10.3475   47.1888   30.4177 H   0  0  0  0  0  0  0  0  0  0  0  0
    5.4635   46.3047   30.5012 H   0  0  0  0  0  0  0  0  0  0  0  0
    8.8165   48.7672   29.3564 H   0  0  0  0  0  0  0  0  0  0  0  0
    7.0697   50.3367   29.0829 H   0  0  0  0  0  0  0  0  0  0  0  0
    5.4923   50.2278   28.2492 H   0  0  0  0  0  0  0  0  0  0  0  0
    5.5276   47.7840   26.7229 H   0  0  0  0  0  0  0  0  0  0  0  0
    9.7946   49.8110   25.1146 H   0  0  0  0  0  0  0  0  0  0  0  0
    7.1874   46.9724   22.3347 H   0  0  0  0  0  0  0  0  0  0  0  0
    8.1185   45.7349   23.3053 H   0  0  0  0  0  0  0  0  0  0  0  0
   11.3805   41.5528   31.4740 H   0  0  0  0  0  0  0  0  0  0  0  0
    9.8243   40.7216   31.7640 H   0  0  0  0  0  0  0  0  0  0  0  0
   11.7265   39.5311   30.3512 H   0  0  0  0  0  0  0  0  0  0  0  0
   10.1110   38.2746   32.6387 H   0  0  0  0  0  0  0  0  0  0  0  0
   13.6652   37.4519   31.2226 H   0  0  0  0  0  0  0  0  0  0  0  0
   10.0511   38.1142   29.7645 H   0  0  0  0  0  0  0  0  0  0  0  0
   11.2762   36.3141   32.5189 H   0  0  0  0  0  0  0  0  0  0  0  0
   10.8593   35.6977   30.4640 H   0  0  0  0  0  0  0  0  0  0  0  0
   12.3294   38.3518   34.7449 H   0  0  0  0  0  0  0  0  0  0  0  0
   16.7564   34.1780   32.4620 H   0  0  0  0  0  0  0  0  0  0  0  0
   15.3534   35.7359   37.5138 H   0  0  0  0  0  0  0  0  0  0  0  0
   16.6349   34.5300   37.1415 H   0  0  0  0  0  0  0  0  0  0  0  0
  1  2  2  0
  1  3  1  0
  3  4  1  0
  4  5  1  0
  6  1  1  0
  7  6  1  0
  6  8  1  0
  8  9  1  0
  9 10  2  0
 11  9  1  0
 10 12  1  0
 13 11  2  0
 12 14  2  0
 14 13  1  0
 14 15  1  0
 15 16  1  0
 16 17  1  0
 17 18  2  0
 19 17  1  0
 18 20  1  0
 21 19  2  0
 19 22  1  0
 20 23  1  0
 20 24  2  0
 24 21  1  0
 22 25  1  0
 22 26  2  0
 23 27  1  0
 24 28  1  0
 27 28  1  0
  4 29  2  0
  4 30  1  0
 31 30  1  0
 31 32  1  0
 32 33  1  0
 32 34  1  0
 33 35  1  0
 34 36  1  0
 34 37  1  0
 37 35  1  0
 35 38  1  0
 37 39  1  0
 40 38  1  0
 41 38  1  0
 42 40  2  0
 40 43  1  0
 44 41  2  0
 45 42  1  0
 43 46  2  0
 43 44  1  0
 47 45  2  0
 47 46  1  0
 46 48  1  0
  6 49  1  1
  7 50  1  0
  7 51  1  0
  8 52  1  0
  8 53  1  0
 10 54  1  0
 11 55  1  0
 12 56  1  0
 13 57  1  0
 16 58  1  0
 16 59  1  0
 18 60  1  0
 21 61  1  0
 27 62  1  0
 27 63  1  0
 31 64  1  0
 31 65  1  0
 32 66  1  0
 34 67  1  0
 35 68  1  0
 36 69  1  0
 37 70  1  0
 39 71  1  0
 41 72  1  0
 45 73  1  0
 48 74  1  0
 48 75  1  0
M  CHG  3   5  -1  22   1  25  -1
M  END
>  <EmbedRMS>  (86) 
0.0827274502796

$$$$

     RDKit          3D

 75 80  0  0  0  0  0  0  0  0999 V2000
   10.2804   43.7665   33.8250 C   0  0  0  0  0  0  0  0  0  0  0  0
   11.4111   43.5918   34.3666 O   0  0  0  0  0  0  0  0  0  0  0  0
    9.3616   42.7251   33.7348 O   0  0  0  0  0  0  0  0  0  0  0  0
    9.8896   41.2269   34.2945 P   0  0  0  0  0  0  0  0  0  0  0  0
   10.3731   41.4568   35.8837 O   0  0  0  0  0  0  0  0  0  0  0  0
    9.9460   45.0737   33.2112 C   0  0  1  0  0  0  0  0  0  0  0  0
   11.0268   46.0292   33.4709 N   0  0  0  0  0  0  0  0  0  0  0  0
    9.7539   44.8543   31.6949 C   0  0  0  0  0  0  0  0  0  0  0  0
    8.7956   45.8415   31.0853 C   0  0  0  0  0  0  0  0  0  0  0  0
    7.4088   45.5998   31.1010 C   0  0  0  0  0  0  0  0  0  0  0  0
    9.2823   46.9880   30.4396 C   0  0  0  0  0  0  0  0  0  0  0  0
    6.5258   46.4985   30.4862 C   0  0  0  0  0  0  0  0  0  0  0  0
    8.3998   47.8871   29.8302 C   0  0  0  0  0  0  0  0  0  0  0  0
    7.0183   47.6551   29.8469 C   0  0  0  0  0  0  0  0  0  0  0  0
    6.1789   48.5852   29.2098 O   0  0  0  0  0  0  0  0  0  0  0  0
    4.7496   48.5463   29.2182 C   0  0  0  0  0  0  0  0  0  0  0  0
    4.1687   47.5784   28.2025 C   0  0  0  0  0  0  0  0  0  0  0  0
    5.0237   46.8013   27.3773 C   0  0  0  0  0  0  0  0  0  0  0  0
    2.7480   47.4872   28.0138 C   0  0  0  0  0  0  0  0  0  0  0  0
    4.4527   45.9651   26.4276 C   0  0  0  0  0  0  0  0  0  0  0  0
    2.2278   46.6259   27.0195 C   0  0  0  0  0  0  0  0  0  0  0  0
    1.8288   48.2780   28.7886 N   0  0  0  0  0  0  0  0  0  0  0  0
    5.0865   45.1253   25.5319 O   0  0  0  0  0  0  0  0  0  0  0  0
    3.1148   45.8806   26.2564 C   0  0  0  0  0  0  0  0  0  0  0  0
    1.9841   48.4043   30.1489 O   0  0  0  0  0  0  0  0  0  0  0  0
    0.7779   48.7020   28.2647 O   0  0  0  0  0  0  0  0  0  0  0  0
    4.0784   44.4699   24.7506 C   0  0  0  0  0  0  0  0  0  0  0  0
    2.8336   44.9817   25.2456 O   0  0  0  0  0  0  0  0  0  0  0  0
    8.8122   40.1844   34.2135 O   0  0  0  0  0  0  0  0  0  0  0  0
   11.2401   40.7949   33.3698 O   0  0  0  0  0  0  0  0  0  0  0  0
   10.9143   40.6914   31.9981 C   0  0  0  0  0  0  0  0  0  0  0  0
   11.5270   39.3912   31.4385 C   0  0  0  0  0  0  0  0  0  0  0  0
   12.7519   39.0911   32.0837 O   0  0  0  0  0  0  0  0  0  0  0  0
   10.6113   38.1932   31.6451 C   0  0  0  0  0  0  0  0  0  0  0  0
   12.9413   37.6838   32.0297 C   0  0  0  0  0  0  0  0  0  0  0  0
    9.6064   38.0878   30.6599 O   0  0  0  0  0  0  0  0  0  0  0  0
   11.5822   37.0197   31.6877 C   0  0  0  0  0  0  0  0  0  0  0  0
   13.4840   37.2104   33.3254 N   0  0  0  0  0  0  0  0  0  0  0  0
   11.6179   36.3072   30.4690 O   0  0  0  0  0  0  0  0  0  0  0  0
   14.4797   36.3309   33.5738 C   0  0  0  0  0  0  0  0  0  0  0  0
   13.1136   37.6269   34.5702 C   0  0  0  0  0  0  0  0  0  0  0  0
   15.2074   35.6152   32.6747 N   0  0  0  0  0  0  0  0  0  0  0  0
   14.6756   36.2298   34.9190 C   0  0  0  0  0  0  0  0  0  0  0  0
   13.8217   37.0445   35.5793 N   0  0  0  0  0  0  0  0  0  0  0  0
   16.1643   34.7603   33.1551 C   0  0  0  0  0  0  0  0  0  0  0  0
   15.6528   35.3503   35.4136 C   0  0  0  0  0  0  0  0  0  0  0  0
   16.3798   34.6316   34.5046 N   0  0  0  0  0  0  0  0  0  0  0  0
   15.9004   35.1930   36.8094 N   0  0  0  0  0  0  0  0  0  0  0  0
    8.9997   45.4382   33.6723 H   0  0  0  0  0  0  0  0  0  0  0  0
   11.0504   46.2277   34.4983 H   0  0  0  0  0  0  0  0  0  0  0  0
   10.7766   46.9369   33.0159 H   0  0  0  0  0  0  0  0  0  0  0  0
   10.7410   44.9081   31.1835 H   0  0  0  0  0  0  0  0  0  0  0  0
    9.3644   43.8356   31.4711 H   0  0  0  0  0  0  0  0  0  0  0  0
    7.0151   44.7130   31.5823 H   0  0  0  0  0  0  0  0  0  0  0  0
   10.3463   47.1874   30.4047 H   0  0  0  0  0  0  0  0  0  0  0  0
    5.4683   46.2752   30.5038 H   0  0  0  0  0  0  0  0  0  0  0  0
    8.7920   48.7676   29.3372 H   0  0  0  0  0  0  0  0  0  0  0  0
    4.3829   49.5648   28.9717 H   0  0  0  0  0  0  0  0  0  0  0  0
    4.4004   48.3045   30.2423 H   0  0  0  0  0  0  0  0  0  0  0  0
    6.1007   46.8473   27.4489 H   0  0  0  0  0  0  0  0  0  0  0  0
    1.1621   46.5352   26.8530 H   0  0  0  0  0  0  0  0  0  0  0  0
    4.1980   44.7255   23.6769 H   0  0  0  0  0  0  0  0  0  0  0  0
    4.1285   43.3713   24.9024 H   0  0  0  0  0  0  0  0  0  0  0  0
    9.8233   40.7200   31.7651 H   0  0  0  0  0  0  0  0  0  0  0  0
   11.3775   41.5548   31.4741 H   0  0  0  0  0  0  0  0  0  0  0  0
   11.7312   39.5362   30.3532 H   0  0  0  0  0  0  0  0  0  0  0  0
   10.1202   38.2696   32.6410 H   0  0  0  0  0  0  0  0  0  0  0  0
   13.6850   37.4639   31.2321 H   0  0  0  0  0  0  0  0  0  0  0  0
   10.0251   38.1792   29.7654 H   0  0  0  0  0  0  0  0  0  0  0  0
   11.2757   36.3135   32.4907 H   0  0  0  0  0  0  0  0  0  0  0  0
   11.9839   36.9111   29.7708 H   0  0  0  0  0  0  0  0  0  0  0  0
   12.3307   38.3536   34.7458 H   0  0  0  0  0  0  0  0  0  0  0  0
   16.7566   34.1787   32.4623 H   0  0  0  0  0  0  0  0  0  0  0  0
   15.3535   35.7355   37.5144 H   0  0  0  0  0  0  0  0  0  0  0  0
   16.6353   34.5301   37.1419 H   0  0  0  0  0  0  0  0  0  0  0  0
  1  2  2  0
  1  3  1  0
  3  4  1  0
  4  5  1  0
  6  1  1  0
  7  6  1  0
  6  8  1  0
  8  9  1  0
  9 10  2  0
 11  9  1  0
 10 12  1  0
 13 11  2  0
 12 14  2  0
 14 13  1  0
 14 15  1  0
 15 16  1  0
 16 17  1  0
 17 18  2  0
 19 17  1  0
 18 20  1  0
 21 19  2  0
 19 22  1  0
 20 23  1  0
 20 24  2  0
 24 21  1  0
 22 25  1  0
 22 26  2  0
 23 27  1  0
 24 28  1  0
 27 28  1  0
  4 29  2  0
  4 30  1  0
 31 30  1  0
 31 32  1  0
 32 33  1  0
 32 34  1  0
 33 35  1  0
 34 36  1  0
 34 37  1  0
 37 35  1  0
 35 38  1  0
 37 39  1  0
 40 38  1  0
 41 38  1  0
 42 40  2  0
 40 43  1  0
 44 41  2  0
 45 42  1  0
 43 46  2  0
 43 44  1  0
 47 45  2  0
 47 46  1  0
 46 48  1  0
  6 49  1  1
  7 50  1  0
  7 51  1  0
  8 52  1  0
  8 53  1  0
 10 54  1  0
 11 55  1  0
 12 56  1  0
 13 57  1  0
 16 58  1  0
 16 59  1  0
 18 60  1  0
 21 61  1  0
 27 62  1  0
 27 63  1  0
 31 64  1  0
 31 65  1  0
 32 66  1  0
 34 67  1  0
 35 68  1  0
 36 69  1  0
 37 70  1  0
 39 71  1  0
 41 72  1  0
 45 73  1  0
 48 74  1  0
 48 75  1  0
M  CHG  3   5  -1  22   1  25  -1
M  END
>  <EmbedRMS>  (87) 
0.0806312721817

$$$$

     RDKit          3D

 75 80  0  0  0  0  0  0  0  0999 V2000
   10.2835   43.7661   33.8256 C   0  0  0  0  0  0  0  0  0  0  0  0
   11.4102   43.5930   34.3753 O   0  0  0  0  0  0  0  0  0  0  0  0
    9.3640   42.7252   33.7347 O   0  0  0  0  0  0  0  0  0  0  0  0
    9.8908   41.2264   34.2939 P   0  0  0  0  0  0  0  0  0  0  0  0
   10.3732   41.4559   35.8835 O   0  0  0  0  0  0  0  0  0  0  0  0
    9.9547   45.0694   33.2034 C   0  0  1  0  0  0  0  0  0  0  0  0
   11.0273   46.0321   33.4755 N   0  0  0  0  0  0  0  0  0  0  0  0
    9.7466   44.8479   31.6875 C   0  0  0  0  0  0  0  0  0  0  0  0
    8.7924   45.8405   31.0840 C   0  0  0  0  0  0  0  0  0  0  0  0
    7.4055   45.6018   31.0996 C   0  0  0  0  0  0  0  0  0  0  0  0
    9.2822   46.9880   30.4428 C   0  0  0  0  0  0  0  0  0  0  0  0
    6.5267   46.5039   30.4850 C   0  0  0  0  0  0  0  0  0  0  0  0
    8.4030   47.8905   29.8329 C   0  0  0  0  0  0  0  0  0  0  0  0
    7.0143   47.6516   29.8451 C   0  0  0  0  0  0  0  0  0  0  0  0
    6.0896   48.5182   29.2410 O   0  0  0  0  0  0  0  0  0  0  0  0
    6.4205   49.6379   28.4183 C   0  0  0  0  0  0  0  0  0  0  0  0
    7.0214   49.1865   27.1068 C   0  0  0  0  0  0  0  0  0  0  0  0
    8.2785   49.7132   26.7272 C   0  0  0  0  0  0  0  0  0  0  0  0
    6.3774   48.2183   26.2643 C   0  0  0  0  0  0  0  0  0  0  0  0
    8.8646   49.2500   25.5570 C   0  0  0  0  0  0  0  0  0  0  0  0
    7.0313   47.7758   25.0911 C   0  0  0  0  0  0  0  0  0  0  0  0
    5.0869   47.6673   26.5836 N   0  0  0  0  0  0  0  0  0  0  0  0
   10.0777   49.6108   25.0028 O   0  0  0  0  0  0  0  0  0  0  0  0
    8.2694   48.3199   24.7756 C   0  0  0  0  0  0  0  0  0  0  0  0
    4.7603   46.3978   26.1650 O   0  0  0  0  0  0  0  0  0  0  0  0
    4.1950   48.3800   27.0872 O   0  0  0  0  0  0  0  0  0  0  0  0
   10.2536   48.8577   23.7950 C   0  0  0  0  0  0  0  0  0  0  0  0
    9.0759   48.0464   23.6876 O   0  0  0  0  0  0  0  0  0  0  0  0
    8.8127   40.1847   34.2122 O   0  0  0  0  0  0  0  0  0  0  0  0
   11.2421   40.7941   33.3697 O   0  0  0  0  0  0  0  0  0  0  0  0
   10.9187   40.6911   31.9971 C   0  0  0  0  0  0  0  0  0  0  0  0
   11.5172   39.3815   31.4407 C   0  0  0  0  0  0  0  0  0  0  0  0
   12.7493   39.0856   32.0728 O   0  0  0  0  0  0  0  0  0  0  0  0
   10.6023   38.1908   31.6665 C   0  0  0  0  0  0  0  0  0  0  0  0
   12.9319   37.6781   32.0281 C   0  0  0  0  0  0  0  0  0  0  0  0
    9.6392   38.0798   30.6452 O   0  0  0  0  0  0  0  0  0  0  0  0
   11.5715   37.0166   31.7056 C   0  0  0  0  0  0  0  0  0  0  0  0
   13.4846   37.2121   33.3235 N   0  0  0  0  0  0  0  0  0  0  0  0
   11.6187   36.3384   30.4694 O   0  0  0  0  0  0  0  0  0  0  0  0
   14.4801   36.3321   33.5724 C   0  0  0  0  0  0  0  0  0  0  0  0
   13.1137   37.6275   34.5687 C   0  0  0  0  0  0  0  0  0  0  0  0
   15.2073   35.6153   32.6738 N   0  0  0  0  0  0  0  0  0  0  0  0
   14.6759   36.2308   34.9179 C   0  0  0  0  0  0  0  0  0  0  0  0
   13.8216   37.0452   35.5781 N   0  0  0  0  0  0  0  0  0  0  0  0
   16.1640   34.7602   33.1546 C   0  0  0  0  0  0  0  0  0  0  0  0
   15.6526   35.3508   35.4129 C   0  0  0  0  0  0  0  0  0  0  0  0
   16.3794   34.6317   34.5041 N   0  0  0  0  0  0  0  0  0  0  0  0
   15.8999   35.1935   36.8088 N   0  0  0  0  0  0  0  0  0  0  0  0
    9.0120   45.4316   33.6712 H   0  0  0  0  0  0  0  0  0  0  0  0
   10.7258   46.9687   33.1213 H   0  0  0  0  0  0  0  0  0  0  0  0
   11.8905   45.7659   32.9468 H   0  0  0  0  0  0  0  0  0  0  0  0
   10.7230   44.8813   31.1555 H   0  0  0  0  0  0  0  0  0  0  0  0
    9.3416   43.8327   31.4761 H   0  0  0  0  0  0  0  0  0  0  0  0
    7.0082   44.7172   31.5819 H   0  0  0  0  0  0  0  0  0  0  0  0
   10.3466   47.1865   30.4144 H   0  0  0  0  0  0  0  0  0  0  0  0
    5.4622   46.3071   30.5018 H   0  0  0  0  0  0  0  0  0  0  0  0
    8.8155   48.7697   29.3609 H   0  0  0  0  0  0  0  0  0  0  0  0
    5.4968   50.2155   28.2102 H   0  0  0  0  0  0  0  0  0  0  0  0
    7.0953   50.3243   28.9745 H   0  0  0  0  0  0  0  0  0  0  0  0
    8.7923   50.4492   27.3326 H   0  0  0  0  0  0  0  0  0  0  0  0
    6.5804   47.0427   24.4350 H   0  0  0  0  0  0  0  0  0  0  0  0
   10.3285   49.5415   22.9235 H   0  0  0  0  0  0  0  0  0  0  0  0
   11.1558   48.2153   23.8709 H   0  0  0  0  0  0  0  0  0  0  0  0
   11.3968   41.5460   31.4728 H   0  0  0  0  0  0  0  0  0  0  0  0
    9.8300   40.7410   31.7613 H   0  0  0  0  0  0  0  0  0  0  0  0
   11.6975   39.5067   30.3481 H   0  0  0  0  0  0  0  0  0  0  0  0
   10.1077   38.2648   32.6645 H   0  0  0  0  0  0  0  0  0  0  0  0
   13.6621   37.4467   31.2209 H   0  0  0  0  0  0  0  0  0  0  0  0
    8.8975   38.6944   30.8831 H   0  0  0  0  0  0  0  0  0  0  0  0
   11.2806   36.3073   32.5170 H   0  0  0  0  0  0  0  0  0  0  0  0
   10.8492   35.7110   30.4586 H   0  0  0  0  0  0  0  0  0  0  0  0
   12.3290   38.3524   34.7444 H   0  0  0  0  0  0  0  0  0  0  0  0
   16.7559   34.1780   32.4619 H   0  0  0  0  0  0  0  0  0  0  0  0
   16.6344   34.5301   37.1414 H   0  0  0  0  0  0  0  0  0  0  0  0
   15.3531   35.7363   37.5137 H   0  0  0  0  0  0  0  0  0  0  0  0
  1  2  2  0
  1  3  1  0
  3  4  1  0
  4  5  1  0
  6  1  1  0
  7  6  1  0
  6  8  1  0
  8  9  1  0
  9 10  2  0
 11  9  1  0
 10 12  1  0
 13 11  2  0
 12 14  2  0
 14 13  1  0
 14 15  1  0
 15 16  1  0
 16 17  1  0
 17 18  2  0
 19 17  1  0
 18 20  1  0
 21 19  2  0
 19 22  1  0
 20 23  1  0
 20 24  2  0
 24 21  1  0
 22 25  1  0
 22 26  2  0
 23 27  1  0
 24 28  1  0
 27 28  1  0
  4 29  2  0
  4 30  1  0
 31 30  1  0
 31 32  1  0
 32 33  1  0
 32 34  1  0
 33 35  1  0
 34 36  1  0
 34 37  1  0
 37 35  1  0
 35 38  1  0
 37 39  1  0
 40 38  1  0
 41 38  1  0
 42 40  2  0
 40 43  1  0
 44 41  2  0
 45 42  1  0
 43 46  2  0
 43 44  1  0
 47 45  2  0
 47 46  1  0
 46 48  1  0
  6 49  1  1
  7 50  1  0
  7 51  1  0
  8 52  1  0
  8 53  1  0
 10 54  1  0
 11 55  1  0
 12 56  1  0
 13 57  1  0
 16 58  1  0
 16 59  1  0
 18 60  1  0
 21 61  1  0
 27 62  1  0
 27 63  1  0
 31 64  1  0
 31 65  1  0
 32 66  1  0
 34 67  1  0
 35 68  1  0
 36 69  1  0
 37 70  1  0
 39 71  1  0
 41 72  1  0
 45 73  1  0
 48 74  1  0
 48 75  1  0
M  CHG  3   5  -1  22   1  25  -1
M  END
>  <EmbedRMS>  (88) 
0.0829596647177

$$$$

     RDKit          3D

 75 80  0  0  0  0  0  0  0  0999 V2000
   10.2834   43.7663   33.8258 C   0  0  0  0  0  0  0  0  0  0  0  0
   11.4102   43.5931   34.3752 O   0  0  0  0  0  0  0  0  0  0  0  0
    9.3635   42.7257   33.7353 O   0  0  0  0  0  0  0  0  0  0  0  0
    9.8900   41.2270   34.2948 P   0  0  0  0  0  0  0  0  0  0  0  0
   10.3732   41.4562   35.8841 O   0  0  0  0  0  0  0  0  0  0  0  0
    9.9546   45.0696   33.2036 C   0  0  1  0  0  0  0  0  0  0  0  0
   11.0273   46.0323   33.4756 N   0  0  0  0  0  0  0  0  0  0  0  0
    9.7465   44.8481   31.6878 C   0  0  0  0  0  0  0  0  0  0  0  0
    8.7923   45.8409   31.0846 C   0  0  0  0  0  0  0  0  0  0  0  0
    7.4055   45.6012   31.0984 C   0  0  0  0  0  0  0  0  0  0  0  0
    9.2824   46.9874   30.4420 C   0  0  0  0  0  0  0  0  0  0  0  0
    6.5267   46.5028   30.4831 C   0  0  0  0  0  0  0  0  0  0  0  0
    8.4035   47.8893   29.8309 C   0  0  0  0  0  0  0  0  0  0  0  0
    7.0139   47.6542   29.8494 C   0  0  0  0  0  0  0  0  0  0  0  0
    6.0888   48.5295   29.2575 O   0  0  0  0  0  0  0  0  0  0  0  0
    6.4106   49.7899   28.6668 C   0  0  0  0  0  0  0  0  0  0  0  0
    6.8357   50.7858   29.7226 C   0  0  0  0  0  0  0  0  0  0  0  0
    6.0534   50.8906   30.8968 C   0  0  0  0  0  0  0  0  0  0  0  0
    8.0165   51.5861   29.5895 C   0  0  0  0  0  0  0  0  0  0  0  0
    6.4894   51.7353   31.9094 C   0  0  0  0  0  0  0  0  0  0  0  0
    8.4204   52.4167   30.6602 C   0  0  0  0  0  0  0  0  0  0  0  0
    8.7881   51.5900   28.3789 N   0  0  0  0  0  0  0  0  0  0  0  0
    5.9032   51.9798   33.1363 O   0  0  0  0  0  0  0  0  0  0  0  0
    7.6262   52.4611   31.7988 C   0  0  0  0  0  0  0  0  0  0  0  0
    8.1611   51.7514   27.1649 O   0  0  0  0  0  0  0  0  0  0  0  0
   10.0319   51.6814   28.4320 O   0  0  0  0  0  0  0  0  0  0  0  0
    6.7260   52.9203   33.8401 C   0  0  0  0  0  0  0  0  0  0  0  0
    7.8148   53.2016   32.9499 O   0  0  0  0  0  0  0  0  0  0  0  0
    8.8121   40.1851   34.2133 O   0  0  0  0  0  0  0  0  0  0  0  0
   11.2403   40.7947   33.3700 O   0  0  0  0  0  0  0  0  0  0  0  0
   10.9145   40.6914   31.9982 C   0  0  0  0  0  0  0  0  0  0  0  0
   11.5270   39.3912   31.4385 C   0  0  0  0  0  0  0  0  0  0  0  0
   12.7520   39.0911   32.0836 O   0  0  0  0  0  0  0  0  0  0  0  0
   10.6113   38.1932   31.6451 C   0  0  0  0  0  0  0  0  0  0  0  0
   12.9413   37.6838   32.0297 C   0  0  0  0  0  0  0  0  0  0  0  0
    9.6064   38.0878   30.6599 O   0  0  0  0  0  0  0  0  0  0  0  0
   11.5822   37.0198   31.6877 C   0  0  0  0  0  0  0  0  0  0  0  0
   13.4840   37.2104   33.3254 N   0  0  0  0  0  0  0  0  0  0  0  0
   11.6179   36.3072   30.4690 O   0  0  0  0  0  0  0  0  0  0  0  0
   14.4797   36.3309   33.5738 C   0  0  0  0  0  0  0  0  0  0  0  0
   13.1137   37.6269   34.5702 C   0  0  0  0  0  0  0  0  0  0  0  0
   15.2074   35.6152   32.6747 N   0  0  0  0  0  0  0  0  0  0  0  0
   14.6756   36.2298   34.9190 C   0  0  0  0  0  0  0  0  0  0  0  0
   13.8217   37.0445   35.5793 N   0  0  0  0  0  0  0  0  0  0  0  0
   16.1643   34.7603   33.1551 C   0  0  0  0  0  0  0  0  0  0  0  0
   15.6528   35.3503   35.4136 C   0  0  0  0  0  0  0  0  0  0  0  0
   16.3798   34.6316   34.5046 N   0  0  0  0  0  0  0  0  0  0  0  0
   15.9004   35.1930   36.8094 N   0  0  0  0  0  0  0  0  0  0  0  0
    9.0120   45.4319   33.6715 H   0  0  0  0  0  0  0  0  0  0  0  0
   10.7258   46.9689   33.1213 H   0  0  0  0  0  0  0  0  0  0  0  0
   11.8905   45.7660   32.9469 H   0  0  0  0  0  0  0  0  0  0  0  0
   10.7229   44.8813   31.1558 H   0  0  0  0  0  0  0  0  0  0  0  0
    9.3413   43.8330   31.4765 H   0  0  0  0  0  0  0  0  0  0  0  0
    7.0083   44.7163   31.5803 H   0  0  0  0  0  0  0  0  0  0  0  0
   10.3471   47.1837   30.4098 H   0  0  0  0  0  0  0  0  0  0  0  0
    5.4620   46.3074   30.5024 H   0  0  0  0  0  0  0  0  0  0  0  0
    8.8176   48.7593   29.3426 H   0  0  0  0  0  0  0  0  0  0  0  0
    5.5000   50.1819   28.1677 H   0  0  0  0  0  0  0  0  0  0  0  0
    7.1769   49.6324   27.8823 H   0  0  0  0  0  0  0  0  0  0  0  0
    5.1474   50.3118   31.0260 H   0  0  0  0  0  0  0  0  0  0  0  0
    9.3103   53.0294   30.5939 H   0  0  0  0  0  0  0  0  0  0  0  0
    6.1542   53.8482   34.0511 H   0  0  0  0  0  0  0  0  0  0  0  0
    7.1067   52.4693   34.7804 H   0  0  0  0  0  0  0  0  0  0  0  0
    9.8235   40.7201   31.7654 H   0  0  0  0  0  0  0  0  0  0  0  0
   11.3777   41.5549   31.4744 H   0  0  0  0  0  0  0  0  0  0  0  0
   11.7312   39.5362   30.3532 H   0  0  0  0  0  0  0  0  0  0  0  0
   10.1203   38.2696   32.6410 H   0  0  0  0  0  0  0  0  0  0  0  0
   13.6850   37.4639   31.2321 H   0  0  0  0  0  0  0  0  0  0  0  0
   10.0251   38.1792   29.7654 H   0  0  0  0  0  0  0  0  0  0  0  0
   11.2757   36.3135   32.4907 H   0  0  0  0  0  0  0  0  0  0  0  0
   11.9838   36.9111   29.7708 H   0  0  0  0  0  0  0  0  0  0  0  0
   12.3307   38.3536   34.7457 H   0  0  0  0  0  0  0  0  0  0  0  0
   16.7566   34.1787   32.4623 H   0  0  0  0  0  0  0  0  0  0  0  0
   15.3535   35.7355   37.5144 H   0  0  0  0  0  0  0  0  0  0  0  0
   16.6353   34.5301   37.1419 H   0  0  0  0  0  0  0  0  0  0  0  0
  1  2  2  0
  1  3  1  0
  3  4  1  0
  4  5  1  0
  6  1  1  0
  7  6  1  0
  6  8  1  0
  8  9  1  0
  9 10  2  0
 11  9  1  0
 10 12  1  0
 13 11  2  0
 12 14  2  0
 14 13  1  0
 14 15  1  0
 15 16  1  0
 16 17  1  0
 17 18  2  0
 19 17  1  0
 18 20  1  0
 21 19  2  0
 19 22  1  0
 20 23  1  0
 20 24  2  0
 24 21  1  0
 22 25  1  0
 22 26  2  0
 23 27  1  0
 24 28  1  0
 27 28  1  0
  4 29  2  0
  4 30  1  0
 31 30  1  0
 31 32  1  0
 32 33  1  0
 32 34  1  0
 33 35  1  0
 34 36  1  0
 34 37  1  0
 37 35  1  0
 35 38  1  0
 37 39  1  0
 40 38  1  0
 41 38  1  0
 42 40  2  0
 40 43  1  0
 44 41  2  0
 45 42  1  0
 43 46  2  0
 43 44  1  0
 47 45  2  0
 47 46  1  0
 46 48  1  0
  6 49  1  1
  7 50  1  0
  7 51  1  0
  8 52  1  0
  8 53  1  0
 10 54  1  0
 11 55  1  0
 12 56  1  0
 13 57  1  0
 16 58  1  0
 16 59  1  0
 18 60  1  0
 21 61  1  0
 27 62  1  0
 27 63  1  0
 31 64  1  0
 31 65  1  0
 32 66  1  0
 34 67  1  0
 35 68  1  0
 36 69  1  0
 37 70  1  0
 39 71  1  0
 41 72  1  0
 45 73  1  0
 48 74  1  0
 48 75  1  0
M  CHG  3   5  -1  22   1  25  -1
M  END
>  <EmbedRMS>  (89) 
0.0808315940409

$$$$

     RDKit          3D

 75 80  0  0  0  0  0  0  0  0999 V2000
   10.2835   43.7662   33.8256 C   0  0  0  0  0  0  0  0  0  0  0  0
   11.4102   43.5930   34.3752 O   0  0  0  0  0  0  0  0  0  0  0  0
    9.3638   42.7255   33.7348 O   0  0  0  0  0  0  0  0  0  0  0  0
    9.8906   41.2266   34.2933 P   0  0  0  0  0  0  0  0  0  0  0  0
   10.3743   41.4557   35.8827 O   0  0  0  0  0  0  0  0  0  0  0  0
    9.9548   45.0695   33.2035 C   0  0  1  0  0  0  0  0  0  0  0  0
   11.0274   46.0322   33.4759 N   0  0  0  0  0  0  0  0  0  0  0  0
    9.7471   44.8484   31.6875 C   0  0  0  0  0  0  0  0  0  0  0  0
    8.7924   45.8409   31.0844 C   0  0  0  0  0  0  0  0  0  0  0  0
    7.4055   45.6009   31.0995 C   0  0  0  0  0  0  0  0  0  0  0  0
    9.2817   46.9882   30.4421 C   0  0  0  0  0  0  0  0  0  0  0  0
    6.5241   46.5011   30.4850 C   0  0  0  0  0  0  0  0  0  0  0  0
    8.4005   47.8886   29.8323 C   0  0  0  0  0  0  0  0  0  0  0  0
    7.0190   47.6559   29.8457 C   0  0  0  0  0  0  0  0  0  0  0  0
    6.1803   48.5871   29.2166 O   0  0  0  0  0  0  0  0  0  0  0  0
    4.7618   48.4703   29.1351 C   0  0  0  0  0  0  0  0  0  0  0  0
    4.2039   49.6263   28.3440 C   0  0  0  0  0  0  0  0  0  0  0  0
    3.2625   50.4777   28.9702 C   0  0  0  0  0  0  0  0  0  0  0  0
    4.6289   49.9088   27.0009 C   0  0  0  0  0  0  0  0  0  0  0  0
    2.7864   51.5733   28.2625 C   0  0  0  0  0  0  0  0  0  0  0  0
    4.1167   51.0484   26.3376 C   0  0  0  0  0  0  0  0  0  0  0  0
    5.5810   49.0796   26.3084 N   0  0  0  0  0  0  0  0  0  0  0  0
    1.8761   52.5294   28.6701 O   0  0  0  0  0  0  0  0  0  0  0  0
    3.1969   51.8477   27.0033 C   0  0  0  0  0  0  0  0  0  0  0  0
    6.3862   49.6261   25.3354 O   0  0  0  0  0  0  0  0  0  0  0  0
    5.5813   47.8410   26.4581 O   0  0  0  0  0  0  0  0  0  0  0  0
    1.7044   53.4633   27.5953 C   0  0  0  0  0  0  0  0  0  0  0  0
    2.5661   52.9907   26.5508 O   0  0  0  0  0  0  0  0  0  0  0  0
    8.8122   40.1851   34.2127 O   0  0  0  0  0  0  0  0  0  0  0  0
   11.2406   40.7945   33.3670 O   0  0  0  0  0  0  0  0  0  0  0  0
   10.9134   40.6866   31.9954 C   0  0  0  0  0  0  0  0  0  0  0  0
   11.5167   39.3787   31.4404 C   0  0  0  0  0  0  0  0  0  0  0  0
   12.7486   39.0849   32.0734 O   0  0  0  0  0  0  0  0  0  0  0  0
   10.6039   38.1884   31.6669 C   0  0  0  0  0  0  0  0  0  0  0  0
   12.9329   37.6776   32.0284 C   0  0  0  0  0  0  0  0  0  0  0  0
    9.6374   38.0938   30.6484 O   0  0  0  0  0  0  0  0  0  0  0  0
   11.5737   37.0141   31.7055 C   0  0  0  0  0  0  0  0  0  0  0  0
   13.4853   37.2120   33.3238 N   0  0  0  0  0  0  0  0  0  0  0  0
   11.6210   36.3379   30.4683 O   0  0  0  0  0  0  0  0  0  0  0  0
   14.4804   36.3319   33.5726 C   0  0  0  0  0  0  0  0  0  0  0  0
   13.1141   37.6275   34.5689 C   0  0  0  0  0  0  0  0  0  0  0  0
   15.2076   35.6152   32.6740 N   0  0  0  0  0  0  0  0  0  0  0  0
   14.6761   36.2306   34.9181 C   0  0  0  0  0  0  0  0  0  0  0  0
   13.8218   37.0451   35.5783 N   0  0  0  0  0  0  0  0  0  0  0  0
   16.1642   34.7600   33.1548 C   0  0  0  0  0  0  0  0  0  0  0  0
   15.6527   35.3506   35.4131 C   0  0  0  0  0  0  0  0  0  0  0  0
   16.3795   34.6315   34.5043 N   0  0  0  0  0  0  0  0  0  0  0  0
   15.9000   35.1933   36.8090 N   0  0  0  0  0  0  0  0  0  0  0  0
    9.0121   45.4317   33.6712 H   0  0  0  0  0  0  0  0  0  0  0  0
   11.8908   45.7659   32.9475 H   0  0  0  0  0  0  0  0  0  0  0  0
   10.7261   46.9688   33.1214 H   0  0  0  0  0  0  0  0  0  0  0  0
    9.3425   43.8331   31.4757 H   0  0  0  0  0  0  0  0  0  0  0  0
   10.7235   44.8825   31.1557 H   0  0  0  0  0  0  0  0  0  0  0  0
    7.0099   44.7158   31.5824 H   0  0  0  0  0  0  0  0  0  0  0  0
   10.3460   47.1864   30.4103 H   0  0  0  0  0  0  0  0  0  0  0  0
    5.4642   46.2891   30.5137 H   0  0  0  0  0  0  0  0  0  0  0  0
    8.7935   48.7703   29.3420 H   0  0  0  0  0  0  0  0  0  0  0  0
    4.3418   48.4554   30.1647 H   0  0  0  0  0  0  0  0  0  0  0  0
    4.4782   47.5154   28.6450 H   0  0  0  0  0  0  0  0  0  0  0  0
    2.9180   50.2994   29.9811 H   0  0  0  0  0  0  0  0  0  0  0  0
    4.4151   51.2962   25.3272 H   0  0  0  0  0  0  0  0  0  0  0  0
    2.0139   54.4799   27.9168 H   0  0  0  0  0  0  0  0  0  0  0  0
    0.6490   53.4629   27.2510 H   0  0  0  0  0  0  0  0  0  0  0  0
    9.8225   40.7225   31.7631 H   0  0  0  0  0  0  0  0  0  0  0  0
   11.3828   41.5438   31.4669 H   0  0  0  0  0  0  0  0  0  0  0  0
   11.6979   39.5037   30.3478 H   0  0  0  0  0  0  0  0  0  0  0  0
   10.1084   38.2787   32.6627 H   0  0  0  0  0  0  0  0  0  0  0  0
   13.6638   37.4472   31.2214 H   0  0  0  0  0  0  0  0  0  0  0  0
    8.9763   37.4191   30.9532 H   0  0  0  0  0  0  0  0  0  0  0  0
   11.2821   36.3054   32.5172 H   0  0  0  0  0  0  0  0  0  0  0  0
   10.8658   35.6935   30.4652 H   0  0  0  0  0  0  0  0  0  0  0  0
   12.3293   38.3523   34.7445 H   0  0  0  0  0  0  0  0  0  0  0  0
   16.7561   34.1778   32.4621 H   0  0  0  0  0  0  0  0  0  0  0  0
   16.6345   34.5300   37.1416 H   0  0  0  0  0  0  0  0  0  0  0  0
   15.3533   35.7361   37.5138 H   0  0  0  0  0  0  0  0  0  0  0  0
  1  2  2  0
  1  3  1  0
  3  4  1  0
  4  5  1  0
  6  1  1  0
  7  6  1  0
  6  8  1  0
  8  9  1  0
  9 10  2  0
 11  9  1  0
 10 12  1  0
 13 11  2  0
 12 14  2  0
 14 13  1  0
 14 15  1  0
 15 16  1  0
 16 17  1  0
 17 18  2  0
 19 17  1  0
 18 20  1  0
 21 19  2  0
 19 22  1  0
 20 23  1  0
 20 24  2  0
 24 21  1  0
 22 25  1  0
 22 26  2  0
 23 27  1  0
 24 28  1  0
 27 28  1  0
  4 29  2  0
  4 30  1  0
 31 30  1  0
 31 32  1  0
 32 33  1  0
 32 34  1  0
 33 35  1  0
 34 36  1  0
 34 37  1  0
 37 35  1  0
 35 38  1  0
 37 39  1  0
 40 38  1  0
 41 38  1  0
 42 40  2  0
 40 43  1  0
 44 41  2  0
 45 42  1  0
 43 46  2  0
 43 44  1  0
 47 45  2  0
 47 46  1  0
 46 48  1  0
  6 49  1  1
  7 50  1  0
  7 51  1  0
  8 52  1  0
  8 53  1  0
 10 54  1  0
 11 55  1  0
 12 56  1  0
 13 57  1  0
 16 58  1  0
 16 59  1  0
 18 60  1  0
 21 61  1  0
 27 62  1  0
 27 63  1  0
 31 64  1  0
 31 65  1  0
 32 66  1  0
 34 67  1  0
 35 68  1  0
 36 69  1  0
 37 70  1  0
 39 71  1  0
 41 72  1  0
 45 73  1  0
 48 74  1  0
 48 75  1  0
M  CHG  3   5  -1  22   1  25  -1
M  END
>  <EmbedRMS>  (90) 
0.0825473920268

$$$$

     RDKit          3D

 75 80  0  0  0  0  0  0  0  0999 V2000
   10.2803   43.7665   33.8250 C   0  0  0  0  0  0  0  0  0  0  0  0
   11.4110   43.5919   34.3666 O   0  0  0  0  0  0  0  0  0  0  0  0
    9.3618   42.7250   33.7345 O   0  0  0  0  0  0  0  0  0  0  0  0
    9.8898   41.2267   34.2940 P   0  0  0  0  0  0  0  0  0  0  0  0
   10.3735   41.4566   35.8832 O   0  0  0  0  0  0  0  0  0  0  0  0
    9.9458   45.0737   33.2112 C   0  0  1  0  0  0  0  0  0  0  0  0
   11.0265   46.0293   33.4709 N   0  0  0  0  0  0  0  0  0  0  0  0
    9.7539   44.8542   31.6949 C   0  0  0  0  0  0  0  0  0  0  0  0
    8.7957   45.8412   31.0849 C   0  0  0  0  0  0  0  0  0  0  0  0
    7.4089   45.5997   31.1007 C   0  0  0  0  0  0  0  0  0  0  0  0
    9.2825   46.9876   30.4390 C   0  0  0  0  0  0  0  0  0  0  0  0
    6.5261   46.4983   30.4857 C   0  0  0  0  0  0  0  0  0  0  0  0
    8.3998   47.8871   29.8302 C   0  0  0  0  0  0  0  0  0  0  0  0
    7.0182   47.6559   29.8484 C   0  0  0  0  0  0  0  0  0  0  0  0
    6.1784   48.5945   29.2270 O   0  0  0  0  0  0  0  0  0  0  0  0
    4.7504   48.5603   29.2470 C   0  0  0  0  0  0  0  0  0  0  0  0
    4.2251   48.8535   30.6349 C   0  0  0  0  0  0  0  0  0  0  0  0
    4.7763   49.9500   31.3389 C   0  0  0  0  0  0  0  0  0  0  0  0
    3.2285   48.0400   31.2677 C   0  0  0  0  0  0  0  0  0  0  0  0
    4.3669   50.1696   32.6478 C   0  0  0  0  0  0  0  0  0  0  0  0
    2.8638   48.3007   32.6079 C   0  0  0  0  0  0  0  0  0  0  0  0
    2.5672   46.9745   30.5692 N   0  0  0  0  0  0  0  0  0  0  0  0
    4.7785   51.1566   33.5226 O   0  0  0  0  0  0  0  0  0  0  0  0
    3.4562   49.3759   33.2576 C   0  0  0  0  0  0  0  0  0  0  0  0
    2.2207   45.8269   31.2443 O   0  0  0  0  0  0  0  0  0  0  0  0
    2.0893   47.1725   29.4332 O   0  0  0  0  0  0  0  0  0  0  0  0
    4.0798   50.9693   34.7611 C   0  0  0  0  0  0  0  0  0  0  0  0
    3.2457   49.8222   34.5481 O   0  0  0  0  0  0  0  0  0  0  0  0
    8.8123   40.1844   34.2134 O   0  0  0  0  0  0  0  0  0  0  0  0
   11.2402   40.7944   33.3688 O   0  0  0  0  0  0  0  0  0  0  0  0
   10.9142   40.6898   31.9970 C   0  0  0  0  0  0  0  0  0  0  0  0
   11.5260   39.3884   31.4376 C   0  0  0  0  0  0  0  0  0  0  0  0
   12.7504   39.0888   32.0816 O   0  0  0  0  0  0  0  0  0  0  0  0
   10.6114   38.1909   31.6460 C   0  0  0  0  0  0  0  0  0  0  0  0
   12.9357   37.6812   32.0303 C   0  0  0  0  0  0  0  0  0  0  0  0
    9.6145   38.0858   30.6534 O   0  0  0  0  0  0  0  0  0  0  0  0
   11.5769   37.0148   31.7012 C   0  0  0  0  0  0  0  0  0  0  0  0
   13.4849   37.2112   33.3247 N   0  0  0  0  0  0  0  0  0  0  0  0
   11.6193   36.3261   30.4724 O   0  0  0  0  0  0  0  0  0  0  0  0
   14.4802   36.3313   33.5730 C   0  0  0  0  0  0  0  0  0  0  0  0
   13.1141   37.6268   34.5698 C   0  0  0  0  0  0  0  0  0  0  0  0
   15.2075   35.6151   32.6741 N   0  0  0  0  0  0  0  0  0  0  0  0
   14.6761   36.2300   34.9184 C   0  0  0  0  0  0  0  0  0  0  0  0
   13.8220   37.0445   35.5789 N   0  0  0  0  0  0  0  0  0  0  0  0
   16.1643   34.7600   33.1547 C   0  0  0  0  0  0  0  0  0  0  0  0
   15.6530   35.3503   35.4131 C   0  0  0  0  0  0  0  0  0  0  0  0
   16.3798   34.6314   34.5042 N   0  0  0  0  0  0  0  0  0  0  0  0
   15.9004   35.1930   36.8090 N   0  0  0  0  0  0  0  0  0  0  0  0
    8.9994   45.4382   33.6721 H   0  0  0  0  0  0  0  0  0  0  0  0
   11.0500   46.2278   34.4983 H   0  0  0  0  0  0  0  0  0  0  0  0
   10.7761   46.9370   33.0160 H   0  0  0  0  0  0  0  0  0  0  0  0
   10.7411   44.9079   31.1837 H   0  0  0  0  0  0  0  0  0  0  0  0
    9.3644   43.8355   31.4712 H   0  0  0  0  0  0  0  0  0  0  0  0
    7.0148   44.7141   31.5840 H   0  0  0  0  0  0  0  0  0  0  0  0
   10.3464   47.1872   30.4045 H   0  0  0  0  0  0  0  0  0  0  0  0
    5.4686   46.2793   30.5111 H   0  0  0  0  0  0  0  0  0  0  0  0
    8.7918   48.7697   29.3408 H   0  0  0  0  0  0  0  0  0  0  0  0
    4.3749   49.3483   28.5614 H   0  0  0  0  0  0  0  0  0  0  0  0
    4.4104   47.5848   28.8471 H   0  0  0  0  0  0  0  0  0  0  0  0
    5.5199   50.5952   30.8881 H   0  0  0  0  0  0  0  0  0  0  0  0
    2.1204   47.7008   33.1168 H   0  0  0  0  0  0  0  0  0  0  0  0
    4.8002   50.7720   35.5824 H   0  0  0  0  0  0  0  0  0  0  0  0
    3.4564   51.8593   34.9887 H   0  0  0  0  0  0  0  0  0  0  0  0
   11.3777   41.5525   31.4723 H   0  0  0  0  0  0  0  0  0  0  0  0
    9.8232   40.7190   31.7644 H   0  0  0  0  0  0  0  0  0  0  0  0
   11.7283   39.5310   30.3515 H   0  0  0  0  0  0  0  0  0  0  0  0
   10.1126   38.2733   32.6376 H   0  0  0  0  0  0  0  0  0  0  0  0
   13.6692   37.4566   31.2242 H   0  0  0  0  0  0  0  0  0  0  0  0
   10.0533   38.1118   29.7636 H   0  0  0  0  0  0  0  0  0  0  0  0
   11.2607   36.3148   32.5102 H   0  0  0  0  0  0  0  0  0  0  0  0
   12.1496   35.5023   30.6324 H   0  0  0  0  0  0  0  0  0  0  0  0
   12.3301   38.3524   34.7455 H   0  0  0  0  0  0  0  0  0  0  0  0
   16.7563   34.1781   32.4619 H   0  0  0  0  0  0  0  0  0  0  0  0
   15.3536   35.7357   37.5140 H   0  0  0  0  0  0  0  0  0  0  0  0
   16.6351   34.5299   37.1416 H   0  0  0  0  0  0  0  0  0  0  0  0
  1  2  2  0
  1  3  1  0
  3  4  1  0
  4  5  1  0
  6  1  1  0
  7  6  1  0
  6  8  1  0
  8  9  1  0
  9 10  2  0
 11  9  1  0
 10 12  1  0
 13 11  2  0
 12 14  2  0
 14 13  1  0
 14 15  1  0
 15 16  1  0
 16 17  1  0
 17 18  2  0
 19 17  1  0
 18 20  1  0
 21 19  2  0
 19 22  1  0
 20 23  1  0
 20 24  2  0
 24 21  1  0
 22 25  1  0
 22 26  2  0
 23 27  1  0
 24 28  1  0
 27 28  1  0
  4 29  2  0
  4 30  1  0
 31 30  1  0
 31 32  1  0
 32 33  1  0
 32 34  1  0
 33 35  1  0
 34 36  1  0
 34 37  1  0
 37 35  1  0
 35 38  1  0
 37 39  1  0
 40 38  1  0
 41 38  1  0
 42 40  2  0
 40 43  1  0
 44 41  2  0
 45 42  1  0
 43 46  2  0
 43 44  1  0
 47 45  2  0
 47 46  1  0
 46 48  1  0
  6 49  1  1
  7 50  1  0
  7 51  1  0
  8 52  1  0
  8 53  1  0
 10 54  1  0
 11 55  1  0
 12 56  1  0
 13 57  1  0
 16 58  1  0
 16 59  1  0
 18 60  1  0
 21 61  1  0
 27 62  1  0
 27 63  1  0
 31 64  1  0
 31 65  1  0
 32 66  1  0
 34 67  1  0
 35 68  1  0
 36 69  1  0
 37 70  1  0
 39 71  1  0
 41 72  1  0
 45 73  1  0
 48 74  1  0
 48 75  1  0
M  CHG  3   5  -1  22   1  25  -1
M  END
>  <EmbedRMS>  (91) 
0.0814366796309

$$$$

     RDKit          3D

 75 80  0  0  0  0  0  0  0  0999 V2000
   10.2835   43.7661   33.8256 C   0  0  0  0  0  0  0  0  0  0  0  0
   11.4102   43.5930   34.3753 O   0  0  0  0  0  0  0  0  0  0  0  0
    9.3640   42.7253   33.7346 O   0  0  0  0  0  0  0  0  0  0  0  0
    9.8908   41.2265   34.2938 P   0  0  0  0  0  0  0  0  0  0  0  0
   10.3732   41.4559   35.8835 O   0  0  0  0  0  0  0  0  0  0  0  0
    9.9547   45.0695   33.2036 C   0  0  1  0  0  0  0  0  0  0  0  0
   11.0272   46.0323   33.4761 N   0  0  0  0  0  0  0  0  0  0  0  0
    9.7471   44.8484   31.6876 C   0  0  0  0  0  0  0  0  0  0  0  0
    8.7925   45.8411   31.0847 C   0  0  0  0  0  0  0  0  0  0  0  0
    7.4058   45.6007   31.0988 C   0  0  0  0  0  0  0  0  0  0  0  0
    9.2818   46.9876   30.4414 C   0  0  0  0  0  0  0  0  0  0  0  0
    6.5247   46.5004   30.4837 C   0  0  0  0  0  0  0  0  0  0  0  0
    8.4005   47.8876   29.8313 C   0  0  0  0  0  0  0  0  0  0  0  0
    7.0185   47.6579   29.8486 C   0  0  0  0  0  0  0  0  0  0  0  0
    6.1815   48.5979   29.2266 O   0  0  0  0  0  0  0  0  0  0  0  0
    4.7547   48.6053   29.2918 C   0  0  0  0  0  0  0  0  0  0  0  0
    4.2789   48.9319   30.6891 C   0  0  0  0  0  0  0  0  0  0  0  0
    3.3801   48.0387   31.3186 C   0  0  0  0  0  0  0  0  0  0  0  0
    4.7412   50.0890   31.4027 C   0  0  0  0  0  0  0  0  0  0  0  0
    2.9953   48.2989   32.6269 C   0  0  0  0  0  0  0  0  0  0  0  0
    4.3235   50.2926   32.7384 C   0  0  0  0  0  0  0  0  0  0  0  0
    5.6341   51.0470   30.8062 N   0  0  0  0  0  0  0  0  0  0  0  0
    2.1457   47.5670   33.4339 O   0  0  0  0  0  0  0  0  0  0  0  0
    3.4497   49.3758   33.3079 C   0  0  0  0  0  0  0  0  0  0  0  0
    6.5047   51.7596   31.5986 O   0  0  0  0  0  0  0  0  0  0  0  0
    5.5185   51.3666   29.6056 O   0  0  0  0  0  0  0  0  0  0  0  0
    2.0619   48.2291   34.7033 C   0  0  0  0  0  0  0  0  0  0  0  0
    2.9095   49.3794   34.5795 O   0  0  0  0  0  0  0  0  0  0  0  0
    8.8127   40.1848   34.2121 O   0  0  0  0  0  0  0  0  0  0  0  0
   11.2421   40.7941   33.3697 O   0  0  0  0  0  0  0  0  0  0  0  0
   10.9187   40.6911   31.9971 C   0  0  0  0  0  0  0  0  0  0  0  0
   11.5172   39.3814   31.4407 C   0  0  0  0  0  0  0  0  0  0  0  0
   12.7493   39.0855   32.0728 O   0  0  0  0  0  0  0  0  0  0  0  0
   10.6023   38.1908   31.6665 C   0  0  0  0  0  0  0  0  0  0  0  0
   12.9319   37.6781   32.0281 C   0  0  0  0  0  0  0  0  0  0  0  0
    9.6392   38.0797   30.6452 O   0  0  0  0  0  0  0  0  0  0  0  0
   11.5715   37.0165   31.7056 C   0  0  0  0  0  0  0  0  0  0  0  0
   13.4846   37.2121   33.3235 N   0  0  0  0  0  0  0  0  0  0  0  0
   11.6186   36.3383   30.4695 O   0  0  0  0  0  0  0  0  0  0  0  0
   14.4801   36.3321   33.5724 C   0  0  0  0  0  0  0  0  0  0  0  0
   13.1137   37.6275   34.5688 C   0  0  0  0  0  0  0  0  0  0  0  0
   15.2073   35.6153   32.6738 N   0  0  0  0  0  0  0  0  0  0  0  0
   14.6759   36.2308   34.9179 C   0  0  0  0  0  0  0  0  0  0  0  0
   13.8216   37.0452   35.5781 N   0  0  0  0  0  0  0  0  0  0  0  0
   16.1640   34.7602   33.1546 C   0  0  0  0  0  0  0  0  0  0  0  0
   15.6526   35.3508   35.4129 C   0  0  0  0  0  0  0  0  0  0  0  0
   16.3794   34.6317   34.5041 N   0  0  0  0  0  0  0  0  0  0  0  0
   15.8999   35.1934   36.8088 N   0  0  0  0  0  0  0  0  0  0  0  0
    9.0119   45.4316   33.6713 H   0  0  0  0  0  0  0  0  0  0  0  0
   10.7257   46.9689   33.1216 H   0  0  0  0  0  0  0  0  0  0  0  0
   11.8906   45.7661   32.9477 H   0  0  0  0  0  0  0  0  0  0  0  0
    9.3425   43.8332   31.4758 H   0  0  0  0  0  0  0  0  0  0  0  0
   10.7235   44.8826   31.1559 H   0  0  0  0  0  0  0  0  0  0  0  0
    7.0103   44.7139   31.5787 H   0  0  0  0  0  0  0  0  0  0  0  0
   10.3461   47.1859   30.4095 H   0  0  0  0  0  0  0  0  0  0  0  0
    5.4679   46.2795   30.5029 H   0  0  0  0  0  0  0  0  0  0  0  0
    8.7936   48.7705   29.3432 H   0  0  0  0  0  0  0  0  0  0  0  0
    4.3674   49.3735   28.5917 H   0  0  0  0  0  0  0  0  0  0  0  0
    4.3589   47.6311   28.9313 H   0  0  0  0  0  0  0  0  0  0  0  0
    3.0048   47.1590   30.8112 H   0  0  0  0  0  0  0  0  0  0  0  0
    4.6559   51.1492   33.3102 H   0  0  0  0  0  0  0  0  0  0  0  0
    2.4352   47.5630   35.5092 H   0  0  0  0  0  0  0  0  0  0  0  0
    1.0163   48.5434   34.9043 H   0  0  0  0  0  0  0  0  0  0  0  0
    9.8299   40.7410   31.7613 H   0  0  0  0  0  0  0  0  0  0  0  0
   11.3969   41.5460   31.4728 H   0  0  0  0  0  0  0  0  0  0  0  0
   11.6974   39.5066   30.3481 H   0  0  0  0  0  0  0  0  0  0  0  0
   10.1076   38.2647   32.6646 H   0  0  0  0  0  0  0  0  0  0  0  0
   13.6621   37.4467   31.2209 H   0  0  0  0  0  0  0  0  0  0  0  0
    8.8975   38.6944   30.8831 H   0  0  0  0  0  0  0  0  0  0  0  0
   11.2805   36.3073   32.5171 H   0  0  0  0  0  0  0  0  0  0  0  0
   10.8492   35.7110   30.4586 H   0  0  0  0  0  0  0  0  0  0  0  0
   12.3289   38.3523   34.7444 H   0  0  0  0  0  0  0  0  0  0  0  0
   16.7560   34.1781   32.4619 H   0  0  0  0  0  0  0  0  0  0  0  0
   15.3532   35.7362   37.5137 H   0  0  0  0  0  0  0  0  0  0  0  0
   16.6344   34.5301   37.1414 H   0  0  0  0  0  0  0  0  0  0  0  0
  1  2  2  0
  1  3  1  0
  3  4  1  0
  4  5  1  0
  6  1  1  0
  7  6  1  0
  6  8  1  0
  8  9  1  0
  9 10  2  0
 11  9  1  0
 10 12  1  0
 13 11  2  0
 12 14  2  0
 14 13  1  0
 14 15  1  0
 15 16  1  0
 16 17  1  0
 17 18  2  0
 19 17  1  0
 18 20  1  0
 21 19  2  0
 19 22  1  0
 20 23  1  0
 20 24  2  0
 24 21  1  0
 22 25  1  0
 22 26  2  0
 23 27  1  0
 24 28  1  0
 27 28  1  0
  4 29  2  0
  4 30  1  0
 31 30  1  0
 31 32  1  0
 32 33  1  0
 32 34  1  0
 33 35  1  0
 34 36  1  0
 34 37  1  0
 37 35  1  0
 35 38  1  0
 37 39  1  0
 40 38  1  0
 41 38  1  0
 42 40  2  0
 40 43  1  0
 44 41  2  0
 45 42  1  0
 43 46  2  0
 43 44  1  0
 47 45  2  0
 47 46  1  0
 46 48  1  0
  6 49  1  1
  7 50  1  0
  7 51  1  0
  8 52  1  0
  8 53  1  0
 10 54  1  0
 11 55  1  0
 12 56  1  0
 13 57  1  0
 16 58  1  0
 16 59  1  0
 18 60  1  0
 21 61  1  0
 27 62  1  0
 27 63  1  0
 31 64  1  0
 31 65  1  0
 32 66  1  0
 34 67  1  0
 35 68  1  0
 36 69  1  0
 37 70  1  0
 39 71  1  0
 41 72  1  0
 45 73  1  0
 48 74  1  0
 48 75  1  0
M  CHG  3   5  -1  22   1  25  -1
M  END
>  <EmbedRMS>  (92) 
0.0829346757325

$$$$

     RDKit          3D

 75 80  0  0  0  0  0  0  0  0999 V2000
   10.2839   43.7627   33.8278 C   0  0  0  0  0  0  0  0  0  0  0  0
   11.4104   43.5864   34.3767 O   0  0  0  0  0  0  0  0  0  0  0  0
    9.3631   42.7236   33.7356 O   0  0  0  0  0  0  0  0  0  0  0  0
    9.8895   41.2250   34.2948 P   0  0  0  0  0  0  0  0  0  0  0  0
   10.3721   41.4547   35.8844 O   0  0  0  0  0  0  0  0  0  0  0  0
    9.9548   45.0700   33.2065 C   0  0  1  0  0  0  0  0  0  0  0  0
   11.0199   46.0481   33.4568 N   0  0  0  0  0  0  0  0  0  0  0  0
    9.7500   44.8509   31.6926 C   0  0  0  0  0  0  0  0  0  0  0  0
    8.7942   45.8420   31.0873 C   0  0  0  0  0  0  0  0  0  0  0  0
    7.4075   45.6007   31.0995 C   0  0  0  0  0  0  0  0  0  0  0  0
    9.2832   46.9890   30.4448 C   0  0  0  0  0  0  0  0  0  0  0  0
    6.5280   46.5013   30.4831 C   0  0  0  0  0  0  0  0  0  0  0  0
    8.4037   47.8894   29.8319 C   0  0  0  0  0  0  0  0  0  0  0  0
    7.0144   47.6526   29.8488 C   0  0  0  0  0  0  0  0  0  0  0  0
    6.0889   48.5252   29.2534 O   0  0  0  0  0  0  0  0  0  0  0  0
    6.4092   49.7852   28.6612 C   0  0  0  0  0  0  0  0  0  0  0  0
    6.8219   50.7855   29.7176 C   0  0  0  0  0  0  0  0  0  0  0  0
    6.0242   50.8964   30.8807 C   0  0  0  0  0  0  0  0  0  0  0  0
    8.0047   51.5846   29.5962 C   0  0  0  0  0  0  0  0  0  0  0  0
    6.4466   51.7468   31.8944 C   0  0  0  0  0  0  0  0  0  0  0  0
    8.3945   52.4210   30.6676 C   0  0  0  0  0  0  0  0  0  0  0  0
    8.7927   51.5816   28.3963 N   0  0  0  0  0  0  0  0  0  0  0  0
    5.8438   51.9982   33.1118 O   0  0  0  0  0  0  0  0  0  0  0  0
    7.5849   52.4718   31.7951 C   0  0  0  0  0  0  0  0  0  0  0  0
    8.1829   51.7424   27.1735 O   0  0  0  0  0  0  0  0  0  0  0  0
   10.0361   51.6677   28.4663 O   0  0  0  0  0  0  0  0  0  0  0  0
    6.6571   52.9427   33.8214 C   0  0  0  0  0  0  0  0  0  0  0  0
    7.7580   53.2187   32.9445 O   0  0  0  0  0  0  0  0  0  0  0  0
    8.8118   40.1832   34.2125 O   0  0  0  0  0  0  0  0  0  0  0  0
   11.2412   40.7939   33.3709 O   0  0  0  0  0  0  0  0  0  0  0  0
   10.9179   40.6920   31.9985 C   0  0  0  0  0  0  0  0  0  0  0  0
   11.5175   39.3837   31.4422 C   0  0  0  0  0  0  0  0  0  0  0  0
   12.7508   39.0887   32.0752 O   0  0  0  0  0  0  0  0  0  0  0  0
   10.6028   38.1916   31.6658 C   0  0  0  0  0  0  0  0  0  0  0  0
   12.9384   37.6818   32.0278 C   0  0  0  0  0  0  0  0  0  0  0  0
    9.6371   38.0806   30.6470 O   0  0  0  0  0  0  0  0  0  0  0  0
   11.5780   37.0215   31.6934 C   0  0  0  0  0  0  0  0  0  0  0  0
   13.4844   37.2119   33.3242 N   0  0  0  0  0  0  0  0  0  0  0  0
   11.6094   36.3201   30.4679 O   0  0  0  0  0  0  0  0  0  0  0  0
   14.4798   36.3318   33.5730 C   0  0  0  0  0  0  0  0  0  0  0  0
   13.1135   37.6277   34.5691 C   0  0  0  0  0  0  0  0  0  0  0  0
   15.2074   35.6156   32.6742 N   0  0  0  0  0  0  0  0  0  0  0  0
   14.6754   36.2305   34.9184 C   0  0  0  0  0  0  0  0  0  0  0  0
   13.8213   37.0452   35.5785 N   0  0  0  0  0  0  0  0  0  0  0  0
   16.1640   34.7604   33.1549 C   0  0  0  0  0  0  0  0  0  0  0  0
   15.6524   35.3507   35.4132 C   0  0  0  0  0  0  0  0  0  0  0  0
   16.3794   34.6317   34.5043 N   0  0  0  0  0  0  0  0  0  0  0  0
   15.9000   35.1934   36.8091 N   0  0  0  0  0  0  0  0  0  0  0  0
    9.0100   45.4350   33.6673 H   0  0  0  0  0  0  0  0  0  0  0  0
   11.9349   45.6932   33.0925 H   0  0  0  0  0  0  0  0  0  0  0  0
   11.1134   46.1994   34.4881 H   0  0  0  0  0  0  0  0  0  0  0  0
   10.7303   44.8923   31.1677 H   0  0  0  0  0  0  0  0  0  0  0  0
    9.3507   43.8344   31.4765 H   0  0  0  0  0  0  0  0  0  0  0  0
    7.0109   44.7154   31.5812 H   0  0  0  0  0  0  0  0  0  0  0  0
   10.3477   47.1873   30.4150 H   0  0  0  0  0  0  0  0  0  0  0  0
    5.4636   46.3044   30.5011 H   0  0  0  0  0  0  0  0  0  0  0  0
    8.8172   48.7598   29.3436 H   0  0  0  0  0  0  0  0  0  0  0  0
    7.1812   49.6293   27.8820 H   0  0  0  0  0  0  0  0  0  0  0  0
    5.5003   50.1717   28.1548 H   0  0  0  0  0  0  0  0  0  0  0  0
    5.1164   50.3186   31.0007 H   0  0  0  0  0  0  0  0  0  0  0  0
    9.2854   53.0329   30.6099 H   0  0  0  0  0  0  0  0  0  0  0  0
    7.0247   52.4970   34.7694 H   0  0  0  0  0  0  0  0  0  0  0  0
    6.0827   53.8719   34.0193 H   0  0  0  0  0  0  0  0  0  0  0  0
    9.8292   40.7410   31.7624 H   0  0  0  0  0  0  0  0  0  0  0  0
   11.3955   41.5476   31.4750 H   0  0  0  0  0  0  0  0  0  0  0  0
   11.6982   39.5115   30.3500 H   0  0  0  0  0  0  0  0  0  0  0  0
   10.1118   38.2603   32.6660 H   0  0  0  0  0  0  0  0  0  0  0  0
   13.6768   37.4556   31.2268 H   0  0  0  0  0  0  0  0  0  0  0  0
    8.8960   38.6951   30.8872 H   0  0  0  0  0  0  0  0  0  0  0  0
   11.2792   36.3072   32.4923 H   0  0  0  0  0  0  0  0  0  0  0  0
   11.8829   36.9597   29.7588 H   0  0  0  0  0  0  0  0  0  0  0  0
   12.3298   38.3538   34.7447 H   0  0  0  0  0  0  0  0  0  0  0  0
   16.7562   34.1785   32.4622 H   0  0  0  0  0  0  0  0  0  0  0  0
   15.3531   35.7360   37.5140 H   0  0  0  0  0  0  0  0  0  0  0  0
   16.6347   34.5303   37.1417 H   0  0  0  0  0  0  0  0  0  0  0  0
  1  2  2  0
  1  3  1  0
  3  4  1  0
  4  5  1  0
  6  1  1  0
  7  6  1  0
  6  8  1  0
  8  9  1  0
  9 10  2  0
 11  9  1  0
 10 12  1  0
 13 11  2  0
 12 14  2  0
 14 13  1  0
 14 15  1  0
 15 16  1  0
 16 17  1  0
 17 18  2  0
 19 17  1  0
 18 20  1  0
 21 19  2  0
 19 22  1  0
 20 23  1  0
 20 24  2  0
 24 21  1  0
 22 25  1  0
 22 26  2  0
 23 27  1  0
 24 28  1  0
 27 28  1  0
  4 29  2  0
  4 30  1  0
 31 30  1  0
 31 32  1  0
 32 33  1  0
 32 34  1  0
 33 35  1  0
 34 36  1  0
 34 37  1  0
 37 35  1  0
 35 38  1  0
 37 39  1  0
 40 38  1  0
 41 38  1  0
 42 40  2  0
 40 43  1  0
 44 41  2  0
 45 42  1  0
 43 46  2  0
 43 44  1  0
 47 45  2  0
 47 46  1  0
 46 48  1  0
  6 49  1  1
  7 50  1  0
  7 51  1  0
  8 52  1  0
  8 53  1  0
 10 54  1  0
 11 55  1  0
 12 56  1  0
 13 57  1  0
 16 58  1  0
 16 59  1  0
 18 60  1  0
 21 61  1  0
 27 62  1  0
 27 63  1  0
 31 64  1  0
 31 65  1  0
 32 66  1  0
 34 67  1  0
 35 68  1  0
 36 69  1  0
 37 70  1  0
 39 71  1  0
 41 72  1  0
 45 73  1  0
 48 74  1  0
 48 75  1  0
M  CHG  3   5  -1  22   1  25  -1
M  END
>  <EmbedRMS>  (93) 
0.0828647774454

$$$$

     RDKit          3D

 75 80  0  0  0  0  0  0  0  0999 V2000
   10.2834   43.7662   33.8257 C   0  0  0  0  0  0  0  0  0  0  0  0
   11.4102   43.5929   34.3752 O   0  0  0  0  0  0  0  0  0  0  0  0
    9.3635   42.7257   33.7352 O   0  0  0  0  0  0  0  0  0  0  0  0
    9.8899   41.2270   34.2947 P   0  0  0  0  0  0  0  0  0  0  0  0
   10.3732   41.4562   35.8841 O   0  0  0  0  0  0  0  0  0  0  0  0
    9.9547   45.0696   33.2038 C   0  0  1  0  0  0  0  0  0  0  0  0
   11.0274   46.0323   33.4761 N   0  0  0  0  0  0  0  0  0  0  0  0
    9.7470   44.8486   31.6879 C   0  0  0  0  0  0  0  0  0  0  0  0
    8.7925   45.8415   31.0853 C   0  0  0  0  0  0  0  0  0  0  0  0
    7.4060   45.6007   31.0984 C   0  0  0  0  0  0  0  0  0  0  0  0
    9.2818   46.9873   30.4411 C   0  0  0  0  0  0  0  0  0  0  0  0
    6.5249   46.5002   30.4827 C   0  0  0  0  0  0  0  0  0  0  0  0
    8.4004   47.8867   29.8302 C   0  0  0  0  0  0  0  0  0  0  0  0
    7.0180   47.6588   29.8502 C   0  0  0  0  0  0  0  0  0  0  0  0
    6.1829   48.5983   29.2255 O   0  0  0  0  0  0  0  0  0  0  0  0
    4.7688   48.7044   29.3982 C   0  0  0  0  0  0  0  0  0  0  0  0
    4.4311   49.2139   30.7811 C   0  0  0  0  0  0  0  0  0  0  0  0
    3.8077   48.3231   31.6877 C   0  0  0  0  0  0  0  0  0  0  0  0
    4.6745   50.5738   31.1829 C   0  0  0  0  0  0  0  0  0  0  0  0
    3.4756   48.7864   32.9529 C   0  0  0  0  0  0  0  0  0  0  0  0
    4.3028   50.9863   32.4847 C   0  0  0  0  0  0  0  0  0  0  0  0
    5.2397   51.5554   30.2913 N   0  0  0  0  0  0  0  0  0  0  0  0
    2.8766   48.0973   33.9898 O   0  0  0  0  0  0  0  0  0  0  0  0
    3.7146   50.0606   33.3353 C   0  0  0  0  0  0  0  0  0  0  0  0
    4.9548   52.8895   30.4727 O   0  0  0  0  0  0  0  0  0  0  0  0
    6.0927   51.2408   29.4379 O   0  0  0  0  0  0  0  0  0  0  0  0
    2.7337   48.9992   35.0956 C   0  0  0  0  0  0  0  0  0  0  0  0
    3.2808   50.2421   34.6345 O   0  0  0  0  0  0  0  0  0  0  0  0
    8.8120   40.1851   34.2132 O   0  0  0  0  0  0  0  0  0  0  0  0
   11.2403   40.7947   33.3700 O   0  0  0  0  0  0  0  0  0  0  0  0
   10.9144   40.6914   31.9982 C   0  0  0  0  0  0  0  0  0  0  0  0
   11.5270   39.3912   31.4385 C   0  0  0  0  0  0  0  0  0  0  0  0
   12.7520   39.0911   32.0836 O   0  0  0  0  0  0  0  0  0  0  0  0
   10.6113   38.1932   31.6451 C   0  0  0  0  0  0  0  0  0  0  0  0
   12.9413   37.6838   32.0297 C   0  0  0  0  0  0  0  0  0  0  0  0
    9.6064   38.0878   30.6599 O   0  0  0  0  0  0  0  0  0  0  0  0
   11.5822   37.0198   31.6877 C   0  0  0  0  0  0  0  0  0  0  0  0
   13.4840   37.2104   33.3254 N   0  0  0  0  0  0  0  0  0  0  0  0
   11.6179   36.3072   30.4690 O   0  0  0  0  0  0  0  0  0  0  0  0
   14.4797   36.3309   33.5738 C   0  0  0  0  0  0  0  0  0  0  0  0
   13.1136   37.6269   34.5702 C   0  0  0  0  0  0  0  0  0  0  0  0
   15.2074   35.6152   32.6747 N   0  0  0  0  0  0  0  0  0  0  0  0
   14.6756   36.2298   34.9190 C   0  0  0  0  0  0  0  0  0  0  0  0
   13.8217   37.0445   35.5793 N   0  0  0  0  0  0  0  0  0  0  0  0
   16.1643   34.7603   33.1551 C   0  0  0  0  0  0  0  0  0  0  0  0
   15.6528   35.3503   35.4136 C   0  0  0  0  0  0  0  0  0  0  0  0
   16.3798   34.6316   34.5046 N   0  0  0  0  0  0  0  0  0  0  0  0
   15.9004   35.1930   36.8094 N   0  0  0  0  0  0  0  0  0  0  0  0
    9.0121   45.4318   33.6716 H   0  0  0  0  0  0  0  0  0  0  0  0
   11.8908   45.7659   32.9477 H   0  0  0  0  0  0  0  0  0  0  0  0
   10.7261   46.9689   33.1217 H   0  0  0  0  0  0  0  0  0  0  0  0
    9.3423   43.8334   31.4760 H   0  0  0  0  0  0  0  0  0  0  0  0
   10.7234   44.8826   31.1560 H   0  0  0  0  0  0  0  0  0  0  0  0
    7.0107   44.7120   31.5749 H   0  0  0  0  0  0  0  0  0  0  0  0
   10.3461   47.1853   30.4083 H   0  0  0  0  0  0  0  0  0  0  0  0
    5.4713   46.2704   30.4887 H   0  0  0  0  0  0  0  0  0  0  0  0
    8.7936   48.7688   29.3408 H   0  0  0  0  0  0  0  0  0  0  0  0
    4.3649   49.4126   28.6449 H   0  0  0  0  0  0  0  0  0  0  0  0
    4.2872   47.7264   29.1841 H   0  0  0  0  0  0  0  0  0  0  0  0
    3.5763   47.3018   31.4158 H   0  0  0  0  0  0  0  0  0  0  0  0
    4.4707   51.9993   32.8266 H   0  0  0  0  0  0  0  0  0  0  0  0
    3.3083   48.6286   35.9702 H   0  0  0  0  0  0  0  0  0  0  0  0
    1.6610   49.1246   35.3528 H   0  0  0  0  0  0  0  0  0  0  0  0
   11.3777   41.5549   31.4744 H   0  0  0  0  0  0  0  0  0  0  0  0
    9.8235   40.7201   31.7654 H   0  0  0  0  0  0  0  0  0  0  0  0
   11.7311   39.5363   30.3532 H   0  0  0  0  0  0  0  0  0  0  0  0
   10.1203   38.2696   32.6410 H   0  0  0  0  0  0  0  0  0  0  0  0
   13.6850   37.4639   31.2321 H   0  0  0  0  0  0  0  0  0  0  0  0
   10.0251   38.1792   29.7654 H   0  0  0  0  0  0  0  0  0  0  0  0
   11.2757   36.3135   32.4908 H   0  0  0  0  0  0  0  0  0  0  0  0
   11.9838   36.9111   29.7708 H   0  0  0  0  0  0  0  0  0  0  0  0
   12.3307   38.3536   34.7457 H   0  0  0  0  0  0  0  0  0  0  0  0
   16.7566   34.1787   32.4623 H   0  0  0  0  0  0  0  0  0  0  0  0
   16.6353   34.5301   37.1419 H   0  0  0  0  0  0  0  0  0  0  0  0
   15.3535   35.7355   37.5144 H   0  0  0  0  0  0  0  0  0  0  0  0
  1  2  2  0
  1  3  1  0
  3  4  1  0
  4  5  1  0
  6  1  1  0
  7  6  1  0
  6  8  1  0
  8  9  1  0
  9 10  2  0
 11  9  1  0
 10 12  1  0
 13 11  2  0
 12 14  2  0
 14 13  1  0
 14 15  1  0
 15 16  1  0
 16 17  1  0
 17 18  2  0
 19 17  1  0
 18 20  1  0
 21 19  2  0
 19 22  1  0
 20 23  1  0
 20 24  2  0
 24 21  1  0
 22 25  1  0
 22 26  2  0
 23 27  1  0
 24 28  1  0
 27 28  1  0
  4 29  2  0
  4 30  1  0
 31 30  1  0
 31 32  1  0
 32 33  1  0
 32 34  1  0
 33 35  1  0
 34 36  1  0
 34 37  1  0
 37 35  1  0
 35 38  1  0
 37 39  1  0
 40 38  1  0
 41 38  1  0
 42 40  2  0
 40 43  1  0
 44 41  2  0
 45 42  1  0
 43 46  2  0
 43 44  1  0
 47 45  2  0
 47 46  1  0
 46 48  1  0
  6 49  1  1
  7 50  1  0
  7 51  1  0
  8 52  1  0
  8 53  1  0
 10 54  1  0
 11 55  1  0
 12 56  1  0
 13 57  1  0
 16 58  1  0
 16 59  1  0
 18 60  1  0
 21 61  1  0
 27 62  1  0
 27 63  1  0
 31 64  1  0
 31 65  1  0
 32 66  1  0
 34 67  1  0
 35 68  1  0
 36 69  1  0
 37 70  1  0
 39 71  1  0
 41 72  1  0
 45 73  1  0
 48 74  1  0
 48 75  1  0
M  CHG  3   5  -1  22   1  25  -1
M  END
>  <EmbedRMS>  (94) 
0.0808129437814

$$$$

     RDKit          3D

 75 80  0  0  0  0  0  0  0  0999 V2000
   10.2835   43.7662   33.8257 C   0  0  0  0  0  0  0  0  0  0  0  0
   11.4103   43.5930   34.3753 O   0  0  0  0  0  0  0  0  0  0  0  0
    9.3638   42.7255   33.7351 O   0  0  0  0  0  0  0  0  0  0  0  0
    9.8903   41.2268   34.2946 P   0  0  0  0  0  0  0  0  0  0  0  0
   10.3728   41.4561   35.8842 O   0  0  0  0  0  0  0  0  0  0  0  0
    9.9547   45.0696   33.2038 C   0  0  1  0  0  0  0  0  0  0  0  0
   11.0273   46.0323   33.4761 N   0  0  0  0  0  0  0  0  0  0  0  0
    9.7470   44.8486   31.6879 C   0  0  0  0  0  0  0  0  0  0  0  0
    8.7925   45.8415   31.0853 C   0  0  0  0  0  0  0  0  0  0  0  0
    7.4060   45.6007   31.0984 C   0  0  0  0  0  0  0  0  0  0  0  0
    9.2818   46.9873   30.4411 C   0  0  0  0  0  0  0  0  0  0  0  0
    6.5249   46.5002   30.4827 C   0  0  0  0  0  0  0  0  0  0  0  0
    8.4004   47.8867   29.8302 C   0  0  0  0  0  0  0  0  0  0  0  0
    7.0180   47.6588   29.8502 C   0  0  0  0  0  0  0  0  0  0  0  0
    6.1830   48.5982   29.2254 O   0  0  0  0  0  0  0  0  0  0  0  0
    4.7687   48.7041   29.3977 C   0  0  0  0  0  0  0  0  0  0  0  0
    4.4305   49.2135   30.7804 C   0  0  0  0  0  0  0  0  0  0  0  0
    3.8068   48.3226   31.6868 C   0  0  0  0  0  0  0  0  0  0  0  0
    4.6734   50.5735   31.1824 C   0  0  0  0  0  0  0  0  0  0  0  0
    3.4741   48.7858   32.9518 C   0  0  0  0  0  0  0  0  0  0  0  0
    4.3011   50.9858   32.4840 C   0  0  0  0  0  0  0  0  0  0  0  0
    5.2388   51.5552   30.2910 N   0  0  0  0  0  0  0  0  0  0  0  0
    2.8747   48.0967   33.9885 O   0  0  0  0  0  0  0  0  0  0  0  0
    3.7126   50.0600   33.3343 C   0  0  0  0  0  0  0  0  0  0  0  0
    4.9536   52.8892   30.4723 O   0  0  0  0  0  0  0  0  0  0  0  0
    6.0922   51.2407   29.4379 O   0  0  0  0  0  0  0  0  0  0  0  0
    2.7312   48.9985   35.0942 C   0  0  0  0  0  0  0  0  0  0  0  0
    3.2782   50.2415   34.6333 O   0  0  0  0  0  0  0  0  0  0  0  0
    8.8125   40.1848   34.2125 O   0  0  0  0  0  0  0  0  0  0  0  0
   11.2416   40.7948   33.3707 O   0  0  0  0  0  0  0  0  0  0  0  0
   10.9179   40.6922   31.9984 C   0  0  0  0  0  0  0  0  0  0  0  0
   11.5175   39.3838   31.4423 C   0  0  0  0  0  0  0  0  0  0  0  0
   12.7508   39.0887   32.0752 O   0  0  0  0  0  0  0  0  0  0  0  0
   10.6028   38.1916   31.6659 C   0  0  0  0  0  0  0  0  0  0  0  0
   12.9384   37.6818   32.0278 C   0  0  0  0  0  0  0  0  0  0  0  0
    9.6371   38.0806   30.6470 O   0  0  0  0  0  0  0  0  0  0  0  0
   11.5780   37.0215   31.6935 C   0  0  0  0  0  0  0  0  0  0  0  0
   13.4844   37.2119   33.3242 N   0  0  0  0  0  0  0  0  0  0  0  0
   11.6095   36.3201   30.4679 O   0  0  0  0  0  0  0  0  0  0  0  0
   14.4797   36.3318   33.5730 C   0  0  0  0  0  0  0  0  0  0  0  0
   13.1135   37.6278   34.5691 C   0  0  0  0  0  0  0  0  0  0  0  0
   15.2073   35.6155   32.6742 N   0  0  0  0  0  0  0  0  0  0  0  0
   14.6754   36.2305   34.9184 C   0  0  0  0  0  0  0  0  0  0  0  0
   13.8213   37.0452   35.5785 N   0  0  0  0  0  0  0  0  0  0  0  0
   16.1640   34.7604   33.1549 C   0  0  0  0  0  0  0  0  0  0  0  0
   15.6524   35.3507   35.4132 C   0  0  0  0  0  0  0  0  0  0  0  0
   16.3794   34.6318   34.5044 N   0  0  0  0  0  0  0  0  0  0  0  0
   15.8999   35.1934   36.8091 N   0  0  0  0  0  0  0  0  0  0  0  0
    9.0121   45.4317   33.6716 H   0  0  0  0  0  0  0  0  0  0  0  0
   11.8907   45.7660   32.9477 H   0  0  0  0  0  0  0  0  0  0  0  0
   10.7260   46.9689   33.1217 H   0  0  0  0  0  0  0  0  0  0  0  0
   10.7234   44.8826   31.1560 H   0  0  0  0  0  0  0  0  0  0  0  0
    9.3423   43.8334   31.4760 H   0  0  0  0  0  0  0  0  0  0  0  0
    7.0107   44.7120   31.5749 H   0  0  0  0  0  0  0  0  0  0  0  0
   10.3461   47.1853   30.4083 H   0  0  0  0  0  0  0  0  0  0  0  0
    5.4713   46.2703   30.4887 H   0  0  0  0  0  0  0  0  0  0  0  0
    8.7936   48.7688   29.3408 H   0  0  0  0  0  0  0  0  0  0  0  0
    4.2874   47.7260   29.1833 H   0  0  0  0  0  0  0  0  0  0  0  0
    4.3649   49.4122   28.6442 H   0  0  0  0  0  0  0  0  0  0  0  0
    3.5756   47.3013   31.4148 H   0  0  0  0  0  0  0  0  0  0  0  0
    4.4686   51.9989   32.8259 H   0  0  0  0  0  0  0  0  0  0  0  0
    3.3055   48.6281   35.9691 H   0  0  0  0  0  0  0  0  0  0  0  0
    1.6584   49.1238   35.3509 H   0  0  0  0  0  0  0  0  0  0  0  0
    9.8291   40.7409   31.7627 H   0  0  0  0  0  0  0  0  0  0  0  0
   11.3952   41.5478   31.4744 H   0  0  0  0  0  0  0  0  0  0  0  0
   11.6981   39.5115   30.3500 H   0  0  0  0  0  0  0  0  0  0  0  0
   10.1117   38.2604   32.6660 H   0  0  0  0  0  0  0  0  0  0  0  0
   13.6767   37.4556   31.2267 H   0  0  0  0  0  0  0  0  0  0  0  0
    8.8961   38.6952   30.8872 H   0  0  0  0  0  0  0  0  0  0  0  0
   11.2791   36.3072   32.4922 H   0  0  0  0  0  0  0  0  0  0  0  0
   11.8828   36.9598   29.7588 H   0  0  0  0  0  0  0  0  0  0  0  0
   12.3300   38.3539   34.7446 H   0  0  0  0  0  0  0  0  0  0  0  0
   16.7562   34.1785   32.4622 H   0  0  0  0  0  0  0  0  0  0  0  0
   15.3531   35.7360   37.5140 H   0  0  0  0  0  0  0  0  0  0  0  0
   16.6347   34.5303   37.1416 H   0  0  0  0  0  0  0  0  0  0  0  0
  1  2  2  0
  1  3  1  0
  3  4  1  0
  4  5  1  0
  6  1  1  0
  7  6  1  0
  6  8  1  0
  8  9  1  0
  9 10  2  0
 11  9  1  0
 10 12  1  0
 13 11  2  0
 12 14  2  0
 14 13  1  0
 14 15  1  0
 15 16  1  0
 16 17  1  0
 17 18  2  0
 19 17  1  0
 18 20  1  0
 21 19  2  0
 19 22  1  0
 20 23  1  0
 20 24  2  0
 24 21  1  0
 22 25  1  0
 22 26  2  0
 23 27  1  0
 24 28  1  0
 27 28  1  0
  4 29  2  0
  4 30  1  0
 31 30  1  0
 31 32  1  0
 32 33  1  0
 32 34  1  0
 33 35  1  0
 34 36  1  0
 34 37  1  0
 37 35  1  0
 35 38  1  0
 37 39  1  0
 40 38  1  0
 41 38  1  0
 42 40  2  0
 40 43  1  0
 44 41  2  0
 45 42  1  0
 43 46  2  0
 43 44  1  0
 47 45  2  0
 47 46  1  0
 46 48  1  0
  6 49  1  1
  7 50  1  0
  7 51  1  0
  8 52  1  0
  8 53  1  0
 10 54  1  0
 11 55  1  0
 12 56  1  0
 13 57  1  0
 16 58  1  0
 16 59  1  0
 18 60  1  0
 21 61  1  0
 27 62  1  0
 27 63  1  0
 31 64  1  0
 31 65  1  0
 32 66  1  0
 34 67  1  0
 35 68  1  0
 36 69  1  0
 37 70  1  0
 39 71  1  0
 41 72  1  0
 45 73  1  0
 48 74  1  0
 48 75  1  0
M  CHG  3   5  -1  22   1  25  -1
M  END
>  <EmbedRMS>  (95) 
0.0819588674549

$$$$

     RDKit          3D

 75 80  0  0  0  0  0  0  0  0999 V2000
   10.2803   43.7665   33.8250 C   0  0  0  0  0  0  0  0  0  0  0  0
   11.4110   43.5919   34.3666 O   0  0  0  0  0  0  0  0  0  0  0  0
    9.3616   42.7251   33.7348 O   0  0  0  0  0  0  0  0  0  0  0  0
    9.8896   41.2269   34.2945 P   0  0  0  0  0  0  0  0  0  0  0  0
   10.3732   41.4568   35.8838 O   0  0  0  0  0  0  0  0  0  0  0  0
    9.9459   45.0736   33.2112 C   0  0  1  0  0  0  0  0  0  0  0  0
   11.0267   46.0291   33.4705 N   0  0  0  0  0  0  0  0  0  0  0  0
    9.7535   44.8538   31.6949 C   0  0  0  0  0  0  0  0  0  0  0  0
    8.7955   45.8410   31.0848 C   0  0  0  0  0  0  0  0  0  0  0  0
    7.4087   45.6007   31.1010 C   0  0  0  0  0  0  0  0  0  0  0  0
    9.2828   46.9878   30.4399 C   0  0  0  0  0  0  0  0  0  0  0  0
    6.5282   46.5013   30.4855 C   0  0  0  0  0  0  0  0  0  0  0  0
    8.4020   47.8890   29.8309 C   0  0  0  0  0  0  0  0  0  0  0  0
    7.0139   47.6509   29.8471 C   0  0  0  0  0  0  0  0  0  0  0  0
    6.0878   48.5177   29.2449 O   0  0  0  0  0  0  0  0  0  0  0  0
    6.4120   49.7083   28.5234 C   0  0  0  0  0  0  0  0  0  0  0  0
    7.1066   49.3947   27.2159 C   0  0  0  0  0  0  0  0  0  0  0  0
    6.6420   48.2964   26.4526 C   0  0  0  0  0  0  0  0  0  0  0  0
    8.1368   50.2348   26.6802 C   0  0  0  0  0  0  0  0  0  0  0  0
    7.2271   48.0525   25.2168 C   0  0  0  0  0  0  0  0  0  0  0  0
    8.6853   49.9462   25.4102 C   0  0  0  0  0  0  0  0  0  0  0  0
    8.6107   51.3896   27.3871 N   0  0  0  0  0  0  0  0  0  0  0  0
    6.9442   47.0434   24.3165 O   0  0  0  0  0  0  0  0  0  0  0  0
    8.2059   48.8421   24.7178 C   0  0  0  0  0  0  0  0  0  0  0  0
    9.1883   51.2476   28.6269 O   0  0  0  0  0  0  0  0  0  0  0  0
    8.7495   52.4711   26.7795 O   0  0  0  0  0  0  0  0  0  0  0  0
    7.8039   47.2101   23.1807 C   0  0  0  0  0  0  0  0  0  0  0  0
    8.5924   48.3707   23.4780 O   0  0  0  0  0  0  0  0  0  0  0  0
    8.8122   40.1844   34.2135 O   0  0  0  0  0  0  0  0  0  0  0  0
   11.2401   40.7950   33.3698 O   0  0  0  0  0  0  0  0  0  0  0  0
   10.9143   40.6914   31.9981 C   0  0  0  0  0  0  0  0  0  0  0  0
   11.5270   39.3912   31.4385 C   0  0  0  0  0  0  0  0  0  0  0  0
   12.7519   39.0911   32.0837 O   0  0  0  0  0  0  0  0  0  0  0  0
   10.6113   38.1932   31.6451 C   0  0  0  0  0  0  0  0  0  0  0  0
   12.9413   37.6838   32.0297 C   0  0  0  0  0  0  0  0  0  0  0  0
    9.6064   38.0878   30.6599 O   0  0  0  0  0  0  0  0  0  0  0  0
   11.5822   37.0197   31.6877 C   0  0  0  0  0  0  0  0  0  0  0  0
   13.4840   37.2104   33.3254 N   0  0  0  0  0  0  0  0  0  0  0  0
   11.6179   36.3072   30.4690 O   0  0  0  0  0  0  0  0  0  0  0  0
   14.4797   36.3309   33.5738 C   0  0  0  0  0  0  0  0  0  0  0  0
   13.1136   37.6269   34.5702 C   0  0  0  0  0  0  0  0  0  0  0  0
   15.2074   35.6152   32.6747 N   0  0  0  0  0  0  0  0  0  0  0  0
   14.6756   36.2298   34.9190 C   0  0  0  0  0  0  0  0  0  0  0  0
   13.8217   37.0445   35.5793 N   0  0  0  0  0  0  0  0  0  0  0  0
   16.1643   34.7603   33.1551 C   0  0  0  0  0  0  0  0  0  0  0  0
   15.6528   35.3503   35.4136 C   0  0  0  0  0  0  0  0  0  0  0  0
   16.3798   34.6316   34.5046 N   0  0  0  0  0  0  0  0  0  0  0  0
   15.9004   35.1930   36.8094 N   0  0  0  0  0  0  0  0  0  0  0  0
    8.9996   45.4383   33.6723 H   0  0  0  0  0  0  0  0  0  0  0  0
   10.7766   46.9368   33.0154 H   0  0  0  0  0  0  0  0  0  0  0  0
   11.0504   46.2278   34.4979 H   0  0  0  0  0  0  0  0  0  0  0  0
   10.7406   44.9070   31.1834 H   0  0  0  0  0  0  0  0  0  0  0  0
    9.3635   43.8352   31.4715 H   0  0  0  0  0  0  0  0  0  0  0  0
    7.0130   44.7163   31.5851 H   0  0  0  0  0  0  0  0  0  0  0  0
   10.3470   47.1864   30.4062 H   0  0  0  0  0  0  0  0  0  0  0  0
    5.4640   46.3036   30.5039 H   0  0  0  0  0  0  0  0  0  0  0  0
    8.8123   48.7614   29.3470 H   0  0  0  0  0  0  0  0  0  0  0  0
    5.4628   50.2311   28.2838 H   0  0  0  0  0  0  0  0  0  0  0  0
    6.9929   50.3859   29.1771 H   0  0  0  0  0  0  0  0  0  0  0  0
    5.8440   47.6561   26.8067 H   0  0  0  0  0  0  0  0  0  0  0  0
    9.4646   50.5629   24.9811 H   0  0  0  0  0  0  0  0  0  0  0  0
    8.4593   46.3220   23.0615 H   0  0  0  0  0  0  0  0  0  0  0  0
    7.2009   47.3810   22.2644 H   0  0  0  0  0  0  0  0  0  0  0  0
    9.8233   40.7200   31.7652 H   0  0  0  0  0  0  0  0  0  0  0  0
   11.3775   41.5548   31.4741 H   0  0  0  0  0  0  0  0  0  0  0  0
   11.7312   39.5362   30.3532 H   0  0  0  0  0  0  0  0  0  0  0  0
   10.1202   38.2696   32.6410 H   0  0  0  0  0  0  0  0  0  0  0  0
   13.6850   37.4639   31.2321 H   0  0  0  0  0  0  0  0  0  0  0  0
   10.0251   38.1792   29.7654 H   0  0  0  0  0  0  0  0  0  0  0  0
   11.2757   36.3135   32.4907 H   0  0  0  0  0  0  0  0  0  0  0  0
   11.9838   36.9111   29.7708 H   0  0  0  0  0  0  0  0  0  0  0  0
   12.3307   38.3536   34.7458 H   0  0  0  0  0  0  0  0  0  0  0  0
   16.7566   34.1787   32.4623 H   0  0  0  0  0  0  0  0  0  0  0  0
   15.3535   35.7355   37.5144 H   0  0  0  0  0  0  0  0  0  0  0  0
   16.6353   34.5301   37.1419 H   0  0  0  0  0  0  0  0  0  0  0  0
  1  2  2  0
  1  3  1  0
  3  4  1  0
  4  5  1  0
  6  1  1  0
  7  6  1  0
  6  8  1  0
  8  9  1  0
  9 10  2  0
 11  9  1  0
 10 12  1  0
 13 11  2  0
 12 14  2  0
 14 13  1  0
 14 15  1  0
 15 16  1  0
 16 17  1  0
 17 18  2  0
 19 17  1  0
 18 20  1  0
 21 19  2  0
 19 22  1  0
 20 23  1  0
 20 24  2  0
 24 21  1  0
 22 25  1  0
 22 26  2  0
 23 27  1  0
 24 28  1  0
 27 28  1  0
  4 29  2  0
  4 30  1  0
 31 30  1  0
 31 32  1  0
 32 33  1  0
 32 34  1  0
 33 35  1  0
 34 36  1  0
 34 37  1  0
 37 35  1  0
 35 38  1  0
 37 39  1  0
 40 38  1  0
 41 38  1  0
 42 40  2  0
 40 43  1  0
 44 41  2  0
 45 42  1  0
 43 46  2  0
 43 44  1  0
 47 45  2  0
 47 46  1  0
 46 48  1  0
  6 49  1  1
  7 50  1  0
  7 51  1  0
  8 52  1  0
  8 53  1  0
 10 54  1  0
 11 55  1  0
 12 56  1  0
 13 57  1  0
 16 58  1  0
 16 59  1  0
 18 60  1  0
 21 61  1  0
 27 62  1  0
 27 63  1  0
 31 64  1  0
 31 65  1  0
 32 66  1  0
 34 67  1  0
 35 68  1  0
 36 69  1  0
 37 70  1  0
 39 71  1  0
 41 72  1  0
 45 73  1  0
 48 74  1  0
 48 75  1  0
M  CHG  3   5  -1  22   1  25  -1
M  END
>  <EmbedRMS>  (96) 
0.0806558937461

$$$$

     RDKit          3D

 75 80  0  0  0  0  0  0  0  0999 V2000
   10.2803   43.7665   33.8251 C   0  0  0  0  0  0  0  0  0  0  0  0
   11.4111   43.5918   34.3666 O   0  0  0  0  0  0  0  0  0  0  0  0
    9.3616   42.7251   33.7348 O   0  0  0  0  0  0  0  0  0  0  0  0
    9.8896   41.2269   34.2945 P   0  0  0  0  0  0  0  0  0  0  0  0
   10.3731   41.4568   35.8838 O   0  0  0  0  0  0  0  0  0  0  0  0
    9.9459   45.0737   33.2115 C   0  0  1  0  0  0  0  0  0  0  0  0
   11.0267   46.0293   33.4711 N   0  0  0  0  0  0  0  0  0  0  0  0
    9.7539   44.8544   31.6952 C   0  0  0  0  0  0  0  0  0  0  0  0
    8.7957   45.8418   31.0858 C   0  0  0  0  0  0  0  0  0  0  0  0
    7.4091   45.5997   31.1001 C   0  0  0  0  0  0  0  0  0  0  0  0
    9.2825   46.9873   30.4386 C   0  0  0  0  0  0  0  0  0  0  0  0
    6.5264   46.4981   30.4841 C   0  0  0  0  0  0  0  0  0  0  0  0
    8.3997   47.8857   29.8287 C   0  0  0  0  0  0  0  0  0  0  0  0
    7.0176   47.6571   29.8511 C   0  0  0  0  0  0  0  0  0  0  0  0
    6.1810   48.5955   29.2268 O   0  0  0  0  0  0  0  0  0  0  0  0
    4.7713   48.7179   29.4216 C   0  0  0  0  0  0  0  0  0  0  0  0
    4.4640   49.2599   30.7983 C   0  0  0  0  0  0  0  0  0  0  0  0
    3.8911   48.3856   31.7528 C   0  0  0  0  0  0  0  0  0  0  0  0
    4.6841   50.6364   31.1457 C   0  0  0  0  0  0  0  0  0  0  0  0
    3.5843   48.8846   33.0111 C   0  0  0  0  0  0  0  0  0  0  0  0
    4.3397   51.0870   32.4428 C   0  0  0  0  0  0  0  0  0  0  0  0
    5.2006   51.5914   30.1990 N   0  0  0  0  0  0  0  0  0  0  0  0
    3.0337   48.2178   34.0886 O   0  0  0  0  0  0  0  0  0  0  0  0
    3.8007   50.1774   33.3422 C   0  0  0  0  0  0  0  0  0  0  0  0
    6.2003   51.2502   29.3195 O   0  0  0  0  0  0  0  0  0  0  0  0
    4.8524   52.7884   30.2693 O   0  0  0  0  0  0  0  0  0  0  0  0
    2.8993   49.1542   35.1664 C   0  0  0  0  0  0  0  0  0  0  0  0
    3.4000   50.3935   34.6467 O   0  0  0  0  0  0  0  0  0  0  0  0
    8.8122   40.1844   34.2135 O   0  0  0  0  0  0  0  0  0  0  0  0
   11.2401   40.7949   33.3698 O   0  0  0  0  0  0  0  0  0  0  0  0
   10.9143   40.6914   31.9981 C   0  0  0  0  0  0  0  0  0  0  0  0
   11.5269   39.3912   31.4385 C   0  0  0  0  0  0  0  0  0  0  0  0
   12.7519   39.0911   32.0837 O   0  0  0  0  0  0  0  0  0  0  0  0
   10.6113   38.1932   31.6451 C   0  0  0  0  0  0  0  0  0  0  0  0
   12.9413   37.6838   32.0297 C   0  0  0  0  0  0  0  0  0  0  0  0
    9.6064   38.0877   30.6599 O   0  0  0  0  0  0  0  0  0  0  0  0
   11.5822   37.0197   31.6877 C   0  0  0  0  0  0  0  0  0  0  0  0
   13.4840   37.2105   33.3254 N   0  0  0  0  0  0  0  0  0  0  0  0
   11.6179   36.3071   30.4691 O   0  0  0  0  0  0  0  0  0  0  0  0
   14.4797   36.3309   33.5738 C   0  0  0  0  0  0  0  0  0  0  0  0
   13.1137   37.6269   34.5702 C   0  0  0  0  0  0  0  0  0  0  0  0
   15.2074   35.6152   32.6747 N   0  0  0  0  0  0  0  0  0  0  0  0
   14.6756   36.2298   34.9190 C   0  0  0  0  0  0  0  0  0  0  0  0
   13.8217   37.0445   35.5793 N   0  0  0  0  0  0  0  0  0  0  0  0
   16.1643   34.7603   33.1551 C   0  0  0  0  0  0  0  0  0  0  0  0
   15.6528   35.3503   35.4136 C   0  0  0  0  0  0  0  0  0  0  0  0
   16.3798   34.6316   34.5046 N   0  0  0  0  0  0  0  0  0  0  0  0
   15.9004   35.1930   36.8094 N   0  0  0  0  0  0  0  0  0  0  0  0
    8.9995   45.4383   33.6725 H   0  0  0  0  0  0  0  0  0  0  0  0
   11.0502   46.2278   34.4985 H   0  0  0  0  0  0  0  0  0  0  0  0
   10.7764   46.9370   33.0161 H   0  0  0  0  0  0  0  0  0  0  0  0
   10.7410   44.9081   31.1839 H   0  0  0  0  0  0  0  0  0  0  0  0
    9.3643   43.8357   31.4714 H   0  0  0  0  0  0  0  0  0  0  0  0
    7.0154   44.7112   31.5783 H   0  0  0  0  0  0  0  0  0  0  0  0
   10.3464   47.1866   30.4032 H   0  0  0  0  0  0  0  0  0  0  0  0
    5.4732   46.2661   30.4897 H   0  0  0  0  0  0  0  0  0  0  0  0
    8.7916   48.7677   29.3380 H   0  0  0  0  0  0  0  0  0  0  0  0
    4.2753   47.7411   29.2381 H   0  0  0  0  0  0  0  0  0  0  0  0
    4.3610   49.4136   28.6600 H   0  0  0  0  0  0  0  0  0  0  0  0
    3.6774   47.3506   31.5224 H   0  0  0  0  0  0  0  0  0  0  0  0
    4.4915   52.1161   32.7420 H   0  0  0  0  0  0  0  0  0  0  0  0
    3.5086   48.8293   36.0358 H   0  0  0  0  0  0  0  0  0  0  0  0
    1.8317   49.2615   35.4511 H   0  0  0  0  0  0  0  0  0  0  0  0
    9.8233   40.7200   31.7652 H   0  0  0  0  0  0  0  0  0  0  0  0
   11.3775   41.5548   31.4741 H   0  0  0  0  0  0  0  0  0  0  0  0
   11.7312   39.5362   30.3532 H   0  0  0  0  0  0  0  0  0  0  0  0
   10.1202   38.2696   32.6410 H   0  0  0  0  0  0  0  0  0  0  0  0
   13.6850   37.4639   31.2321 H   0  0  0  0  0  0  0  0  0  0  0  0
   10.0251   38.1792   29.7654 H   0  0  0  0  0  0  0  0  0  0  0  0
   11.2757   36.3135   32.4908 H   0  0  0  0  0  0  0  0  0  0  0  0
   11.9838   36.9111   29.7708 H   0  0  0  0  0  0  0  0  0  0  0  0
   12.3307   38.3537   34.7458 H   0  0  0  0  0  0  0  0  0  0  0  0
   16.7566   34.1787   32.4623 H   0  0  0  0  0  0  0  0  0  0  0  0
   16.6353   34.5301   37.1419 H   0  0  0  0  0  0  0  0  0  0  0  0
   15.3535   35.7355   37.5144 H   0  0  0  0  0  0  0  0  0  0  0  0
  1  2  2  0
  1  3  1  0
  3  4  1  0
  4  5  1  0
  6  1  1  0
  7  6  1  0
  6  8  1  0
  8  9  1  0
  9 10  2  0
 11  9  1  0
 10 12  1  0
 13 11  2  0
 12 14  2  0
 14 13  1  0
 14 15  1  0
 15 16  1  0
 16 17  1  0
 17 18  2  0
 19 17  1  0
 18 20  1  0
 21 19  2  0
 19 22  1  0
 20 23  1  0
 20 24  2  0
 24 21  1  0
 22 25  1  0
 22 26  2  0
 23 27  1  0
 24 28  1  0
 27 28  1  0
  4 29  2  0
  4 30  1  0
 31 30  1  0
 31 32  1  0
 32 33  1  0
 32 34  1  0
 33 35  1  0
 34 36  1  0
 34 37  1  0
 37 35  1  0
 35 38  1  0
 37 39  1  0
 40 38  1  0
 41 38  1  0
 42 40  2  0
 40 43  1  0
 44 41  2  0
 45 42  1  0
 43 46  2  0
 43 44  1  0
 47 45  2  0
 47 46  1  0
 46 48  1  0
  6 49  1  1
  7 50  1  0
  7 51  1  0
  8 52  1  0
  8 53  1  0
 10 54  1  0
 11 55  1  0
 12 56  1  0
 13 57  1  0
 16 58  1  0
 16 59  1  0
 18 60  1  0
 21 61  1  0
 27 62  1  0
 27 63  1  0
 31 64  1  0
 31 65  1  0
 32 66  1  0
 34 67  1  0
 35 68  1  0
 36 69  1  0
 37 70  1  0
 39 71  1  0
 41 72  1  0
 45 73  1  0
 48 74  1  0
 48 75  1  0
M  CHG  3   5  -1  22   1  25  -1
M  END
>  <EmbedRMS>  (97) 
0.0806379938459

$$$$

     RDKit          3D

 75 80  0  0  0  0  0  0  0  0999 V2000
   10.2838   43.7626   33.8276 C   0  0  0  0  0  0  0  0  0  0  0  0
   11.4103   43.5863   34.3766 O   0  0  0  0  0  0  0  0  0  0  0  0
    9.3631   42.7236   33.7353 O   0  0  0  0  0  0  0  0  0  0  0  0
    9.8898   41.2247   34.2935 P   0  0  0  0  0  0  0  0  0  0  0  0
   10.3734   41.4543   35.8829 O   0  0  0  0  0  0  0  0  0  0  0  0
    9.9548   45.0699   33.2063 C   0  0  1  0  0  0  0  0  0  0  0  0
   11.0198   46.0480   33.4567 N   0  0  0  0  0  0  0  0  0  0  0  0
    9.7501   44.8507   31.6923 C   0  0  0  0  0  0  0  0  0  0  0  0
    8.7942   45.8417   31.0868 C   0  0  0  0  0  0  0  0  0  0  0  0
    7.4073   45.6013   31.1005 C   0  0  0  0  0  0  0  0  0  0  0  0
    9.2832   46.9892   30.4451 C   0  0  0  0  0  0  0  0  0  0  0  0
    6.5278   46.5023   30.4848 C   0  0  0  0  0  0  0  0  0  0  0  0
    8.4037   47.8903   29.8334 C   0  0  0  0  0  0  0  0  0  0  0  0
    7.0147   47.6508   29.8458 C   0  0  0  0  0  0  0  0  0  0  0  0
    6.0903   48.5176   29.2404 O   0  0  0  0  0  0  0  0  0  0  0  0
    6.4277   49.6719   28.4692 C   0  0  0  0  0  0  0  0  0  0  0  0
    7.0627   49.2737   27.1553 C   0  0  0  0  0  0  0  0  0  0  0  0
    6.4473   48.2471   26.4010 C   0  0  0  0  0  0  0  0  0  0  0  0
    8.2760   49.8684   26.6761 C   0  0  0  0  0  0  0  0  0  0  0  0
    7.0734   47.8124   25.2400 C   0  0  0  0  0  0  0  0  0  0  0  0
    8.8769   49.3730   25.4969 C   0  0  0  0  0  0  0  0  0  0  0  0
    8.8923   50.9763   27.3495 N   0  0  0  0  0  0  0  0  0  0  0  0
    6.6693   46.8227   24.3648 O   0  0  0  0  0  0  0  0  0  0  0  0
    8.2401   48.3469   24.8106 C   0  0  0  0  0  0  0  0  0  0  0  0
   10.2640   51.0761   27.3856 O   0  0  0  0  0  0  0  0  0  0  0  0
    8.2075   51.9646   27.6845 O   0  0  0  0  0  0  0  0  0  0  0  0
    7.6462   46.7316   23.3187 C   0  0  0  0  0  0  0  0  0  0  0  0
    8.6313   47.7226   23.6419 O   0  0  0  0  0  0  0  0  0  0  0  0
    8.8115   40.1834   34.2126 O   0  0  0  0  0  0  0  0  0  0  0  0
   11.2402   40.7936   33.3673 O   0  0  0  0  0  0  0  0  0  0  0  0
   10.9134   40.6864   31.9955 C   0  0  0  0  0  0  0  0  0  0  0  0
   11.5166   39.3786   31.4404 C   0  0  0  0  0  0  0  0  0  0  0  0
   12.7486   39.0849   32.0734 O   0  0  0  0  0  0  0  0  0  0  0  0
   10.6039   38.1883   31.6669 C   0  0  0  0  0  0  0  0  0  0  0  0
   12.9329   37.6775   32.0284 C   0  0  0  0  0  0  0  0  0  0  0  0
    9.6374   38.0938   30.6484 O   0  0  0  0  0  0  0  0  0  0  0  0
   11.5737   37.0140   31.7055 C   0  0  0  0  0  0  0  0  0  0  0  0
   13.4853   37.2120   33.3238 N   0  0  0  0  0  0  0  0  0  0  0  0
   11.6210   36.3379   30.4683 O   0  0  0  0  0  0  0  0  0  0  0  0
   14.4804   36.3319   33.5726 C   0  0  0  0  0  0  0  0  0  0  0  0
   13.1141   37.6275   34.5689 C   0  0  0  0  0  0  0  0  0  0  0  0
   15.2076   35.6152   32.6740 N   0  0  0  0  0  0  0  0  0  0  0  0
   14.6761   36.2306   34.9181 C   0  0  0  0  0  0  0  0  0  0  0  0
   13.8218   37.0451   35.5783 N   0  0  0  0  0  0  0  0  0  0  0  0
   16.1642   34.7600   33.1548 C   0  0  0  0  0  0  0  0  0  0  0  0
   15.6527   35.3507   35.4131 C   0  0  0  0  0  0  0  0  0  0  0  0
   16.3795   34.6315   34.5043 N   0  0  0  0  0  0  0  0  0  0  0  0
   15.9000   35.1933   36.8090 N   0  0  0  0  0  0  0  0  0  0  0  0
    9.0099   45.4349   33.6670 H   0  0  0  0  0  0  0  0  0  0  0  0
   11.1135   46.1992   34.4880 H   0  0  0  0  0  0  0  0  0  0  0  0
   11.9348   45.6932   33.0923 H   0  0  0  0  0  0  0  0  0  0  0  0
   10.7304   44.8922   31.1674 H   0  0  0  0  0  0  0  0  0  0  0  0
    9.3508   43.8343   31.4762 H   0  0  0  0  0  0  0  0  0  0  0  0
    7.0107   44.7163   31.5827 H   0  0  0  0  0  0  0  0  0  0  0  0
   10.3475   47.1889   30.4177 H   0  0  0  0  0  0  0  0  0  0  0  0
    5.4635   46.3046   30.5013 H   0  0  0  0  0  0  0  0  0  0  0  0
    8.8163   48.7673   29.3564 H   0  0  0  0  0  0  0  0  0  0  0  0
    5.4922   50.2262   28.2471 H   0  0  0  0  0  0  0  0  0  0  0  0
    7.0683   50.3365   29.0817 H   0  0  0  0  0  0  0  0  0  0  0  0
    5.5227   47.7850   26.7238 H   0  0  0  0  0  0  0  0  0  0  0  0
    9.7965   49.7949   25.1125 H   0  0  0  0  0  0  0  0  0  0  0  0
    8.1071   45.7216   23.3106 H   0  0  0  0  0  0  0  0  0  0  0  0
    7.1804   46.9602   22.3372 H   0  0  0  0  0  0  0  0  0  0  0  0
   11.3831   41.5438   31.4675 H   0  0  0  0  0  0  0  0  0  0  0  0
    9.8226   40.7225   31.7629 H   0  0  0  0  0  0  0  0  0  0  0  0
   11.6978   39.5037   30.3478 H   0  0  0  0  0  0  0  0  0  0  0  0
   10.1084   38.2786   32.6626 H   0  0  0  0  0  0  0  0  0  0  0  0
   13.6638   37.4471   31.2214 H   0  0  0  0  0  0  0  0  0  0  0  0
    8.9763   37.4190   30.9531 H   0  0  0  0  0  0  0  0  0  0  0  0
   11.2821   36.3054   32.5171 H   0  0  0  0  0  0  0  0  0  0  0  0
   10.8658   35.6935   30.4652 H   0  0  0  0  0  0  0  0  0  0  0  0
   12.3293   38.3523   34.7444 H   0  0  0  0  0  0  0  0  0  0  0  0
   16.7561   34.1778   32.4621 H   0  0  0  0  0  0  0  0  0  0  0  0
   15.3533   35.7361   37.5138 H   0  0  0  0  0  0  0  0  0  0  0  0
   16.6345   34.5300   37.1416 H   0  0  0  0  0  0  0  0  0  0  0  0
  1  2  2  0
  1  3  1  0
  3  4  1  0
  4  5  1  0
  6  1  1  0
  7  6  1  0
  6  8  1  0
  8  9  1  0
  9 10  2  0
 11  9  1  0
 10 12  1  0
 13 11  2  0
 12 14  2  0
 14 13  1  0
 14 15  1  0
 15 16  1  0
 16 17  1  0
 17 18  2  0
 19 17  1  0
 18 20  1  0
 21 19  2  0
 19 22  1  0
 20 23  1  0
 20 24  2  0
 24 21  1  0
 22 25  1  0
 22 26  2  0
 23 27  1  0
 24 28  1  0
 27 28  1  0
  4 29  2  0
  4 30  1  0
 31 30  1  0
 31 32  1  0
 32 33  1  0
 32 34  1  0
 33 35  1  0
 34 36  1  0
 34 37  1  0
 37 35  1  0
 35 38  1  0
 37 39  1  0
 40 38  1  0
 41 38  1  0
 42 40  2  0
 40 43  1  0
 44 41  2  0
 45 42  1  0
 43 46  2  0
 43 44  1  0
 47 45  2  0
 47 46  1  0
 46 48  1  0
  6 49  1  1
  7 50  1  0
  7 51  1  0
  8 52  1  0
  8 53  1  0
 10 54  1  0
 11 55  1  0
 12 56  1  0
 13 57  1  0
 16 58  1  0
 16 59  1  0
 18 60  1  0
 21 61  1  0
 27 62  1  0
 27 63  1  0
 31 64  1  0
 31 65  1  0
 32 66  1  0
 34 67  1  0
 35 68  1  0
 36 69  1  0
 37 70  1  0
 39 71  1  0
 41 72  1  0
 45 73  1  0
 48 74  1  0
 48 75  1  0
M  CHG  3   5  -1  22   1  25  -1
M  END
>  <EmbedRMS>  (98) 
0.0834593911048

$$$$

     RDKit          3D

 75 80  0  0  0  0  0  0  0  0999 V2000
   10.2835   43.7662   33.8257 C   0  0  0  0  0  0  0  0  0  0  0  0
   11.4102   43.5930   34.3753 O   0  0  0  0  0  0  0  0  0  0  0  0
    9.3638   42.7255   33.7351 O   0  0  0  0  0  0  0  0  0  0  0  0
    9.8904   41.2267   34.2946 P   0  0  0  0  0  0  0  0  0  0  0  0
   10.3729   41.4561   35.8842 O   0  0  0  0  0  0  0  0  0  0  0  0
    9.9546   45.0694   33.2036 C   0  0  1  0  0  0  0  0  0  0  0  0
   11.0273   46.0321   33.4756 N   0  0  0  0  0  0  0  0  0  0  0  0
    9.7465   44.8480   31.6877 C   0  0  0  0  0  0  0  0  0  0  0  0
    8.7923   45.8408   31.0844 C   0  0  0  0  0  0  0  0  0  0  0  0
    7.4054   45.6015   31.0990 C   0  0  0  0  0  0  0  0  0  0  0  0
    9.2824   46.9879   30.4422 C   0  0  0  0  0  0  0  0  0  0  0  0
    6.5264   46.5031   30.4838 C   0  0  0  0  0  0  0  0  0  0  0  0
    8.4032   47.8902   29.8315 C   0  0  0  0  0  0  0  0  0  0  0  0
    7.0143   47.6528   29.8478 C   0  0  0  0  0  0  0  0  0  0  0  0
    6.0934   48.5253   29.2506 O   0  0  0  0  0  0  0  0  0  0  0  0
    6.4427   49.7384   28.5881 C   0  0  0  0  0  0  0  0  0  0  0  0
    5.1911   50.4373   28.1204 C   0  0  0  0  0  0  0  0  0  0  0  0
    5.0447   50.7007   26.7375 C   0  0  0  0  0  0  0  0  0  0  0  0
    4.1358   50.8011   29.0250 C   0  0  0  0  0  0  0  0  0  0  0  0
    3.8705   51.2965   26.2972 C   0  0  0  0  0  0  0  0  0  0  0  0
    2.9579   51.3936   28.5126 C   0  0  0  0  0  0  0  0  0  0  0  0
    4.2255   50.5625   30.4423 N   0  0  0  0  0  0  0  0  0  0  0  0
    3.5127   51.6397   25.0075 O   0  0  0  0  0  0  0  0  0  0  0  0
    2.8707   51.6261   27.1465 C   0  0  0  0  0  0  0  0  0  0  0  0
    3.0797   50.3653   31.1783 O   0  0  0  0  0  0  0  0  0  0  0  0
    5.3095   50.6897   31.0468 O   0  0  0  0  0  0  0  0  0  0  0  0
    2.2035   52.2233   25.0521 C   0  0  0  0  0  0  0  0  0  0  0  0
    1.8307   52.1951   26.4367 O   0  0  0  0  0  0  0  0  0  0  0  0
    8.8125   40.1848   34.2126 O   0  0  0  0  0  0  0  0  0  0  0  0
   11.2416   40.7948   33.3707 O   0  0  0  0  0  0  0  0  0  0  0  0
   10.9179   40.6921   31.9984 C   0  0  0  0  0  0  0  0  0  0  0  0
   11.5175   39.3837   31.4423 C   0  0  0  0  0  0  0  0  0  0  0  0
   12.7508   39.0887   32.0752 O   0  0  0  0  0  0  0  0  0  0  0  0
   10.6028   38.1916   31.6659 C   0  0  0  0  0  0  0  0  0  0  0  0
   12.9384   37.6818   32.0278 C   0  0  0  0  0  0  0  0  0  0  0  0
    9.6371   38.0806   30.6470 O   0  0  0  0  0  0  0  0  0  0  0  0
   11.5780   37.0215   31.6935 C   0  0  0  0  0  0  0  0  0  0  0  0
   13.4844   37.2119   33.3242 N   0  0  0  0  0  0  0  0  0  0  0  0
   11.6095   36.3201   30.4679 O   0  0  0  0  0  0  0  0  0  0  0  0
   14.4797   36.3318   33.5730 C   0  0  0  0  0  0  0  0  0  0  0  0
   13.1135   37.6278   34.5691 C   0  0  0  0  0  0  0  0  0  0  0  0
   15.2073   35.6155   32.6742 N   0  0  0  0  0  0  0  0  0  0  0  0
   14.6754   36.2305   34.9184 C   0  0  0  0  0  0  0  0  0  0  0  0
   13.8213   37.0452   35.5785 N   0  0  0  0  0  0  0  0  0  0  0  0
   16.1640   34.7604   33.1549 C   0  0  0  0  0  0  0  0  0  0  0  0
   15.6524   35.3507   35.4132 C   0  0  0  0  0  0  0  0  0  0  0  0
   16.3794   34.6318   34.5044 N   0  0  0  0  0  0  0  0  0  0  0  0
   15.8999   35.1934   36.8091 N   0  0  0  0  0  0  0  0  0  0  0  0
    9.0121   45.4317   33.6715 H   0  0  0  0  0  0  0  0  0  0  0  0
   10.7259   46.9687   33.1213 H   0  0  0  0  0  0  0  0  0  0  0  0
   11.8906   45.7658   32.9469 H   0  0  0  0  0  0  0  0  0  0  0  0
    9.3413   43.8329   31.4764 H   0  0  0  0  0  0  0  0  0  0  0  0
   10.7229   44.8813   31.1557 H   0  0  0  0  0  0  0  0  0  0  0  0
    7.0082   44.7168   31.5812 H   0  0  0  0  0  0  0  0  0  0  0  0
   10.3471   47.1847   30.4112 H   0  0  0  0  0  0  0  0  0  0  0  0
    5.4617   46.3076   30.5024 H   0  0  0  0  0  0  0  0  0  0  0  0
    8.8143   48.7650   29.3468 H   0  0  0  0  0  0  0  0  0  0  0  0
    7.0058   50.4066   29.2728 H   0  0  0  0  0  0  0  0  0  0  0  0
    7.1084   49.5013   27.7295 H   0  0  0  0  0  0  0  0  0  0  0  0
    5.8165   50.4410   26.0239 H   0  0  0  0  0  0  0  0  0  0  0  0
    2.1399   51.6784   29.1616 H   0  0  0  0  0  0  0  0  0  0  0  0
    1.4925   51.6181   24.4515 H   0  0  0  0  0  0  0  0  0  0  0  0
    2.2371   53.2707   24.6856 H   0  0  0  0  0  0  0  0  0  0  0  0
   11.3952   41.5478   31.4744 H   0  0  0  0  0  0  0  0  0  0  0  0
    9.8291   40.7409   31.7627 H   0  0  0  0  0  0  0  0  0  0  0  0
   11.6981   39.5115   30.3500 H   0  0  0  0  0  0  0  0  0  0  0  0
   10.1117   38.2604   32.6661 H   0  0  0  0  0  0  0  0  0  0  0  0
   13.6767   37.4556   31.2267 H   0  0  0  0  0  0  0  0  0  0  0  0
    8.8961   38.6951   30.8872 H   0  0  0  0  0  0  0  0  0  0  0  0
   11.2791   36.3072   32.4922 H   0  0  0  0  0  0  0  0  0  0  0  0
   11.8828   36.9598   29.7589 H   0  0  0  0  0  0  0  0  0  0  0  0
   12.3300   38.3539   34.7446 H   0  0  0  0  0  0  0  0  0  0  0  0
   16.7562   34.1785   32.4622 H   0  0  0  0  0  0  0  0  0  0  0  0
   16.6347   34.5303   37.1416 H   0  0  0  0  0  0  0  0  0  0  0  0
   15.3531   35.7360   37.5140 H   0  0  0  0  0  0  0  0  0  0  0  0
  1  2  2  0
  1  3  1  0
  3  4  1  0
  4  5  1  0
  6  1  1  0
  7  6  1  0
  6  8  1  0
  8  9  1  0
  9 10  2  0
 11  9  1  0
 10 12  1  0
 13 11  2  0
 12 14  2  0
 14 13  1  0
 14 15  1  0
 15 16  1  0
 16 17  1  0
 17 18  2  0
 19 17  1  0
 18 20  1  0
 21 19  2  0
 19 22  1  0
 20 23  1  0
 20 24  2  0
 24 21  1  0
 22 25  1  0
 22 26  2  0
 23 27  1  0
 24 28  1  0
 27 28  1  0
  4 29  2  0
  4 30  1  0
 31 30  1  0
 31 32  1  0
 32 33  1  0
 32 34  1  0
 33 35  1  0
 34 36  1  0
 34 37  1  0
 37 35  1  0
 35 38  1  0
 37 39  1  0
 40 38  1  0
 41 38  1  0
 42 40  2  0
 40 43  1  0
 44 41  2  0
 45 42  1  0
 43 46  2  0
 43 44  1  0
 47 45  2  0
 47 46  1  0
 46 48  1  0
  6 49  1  1
  7 50  1  0
  7 51  1  0
  8 52  1  0
  8 53  1  0
 10 54  1  0
 11 55  1  0
 12 56  1  0
 13 57  1  0
 16 58  1  0
 16 59  1  0
 18 60  1  0
 21 61  1  0
 27 62  1  0
 27 63  1  0
 31 64  1  0
 31 65  1  0
 32 66  1  0
 34 67  1  0
 35 68  1  0
 36 69  1  0
 37 70  1  0
 39 71  1  0
 41 72  1  0
 45 73  1  0
 48 74  1  0
 48 75  1  0
M  CHG  3   5  -1  22   1  25  -1
M  END
>  <EmbedRMS>  (99) 
0.0819784483925

$$$$

     RDKit          3D

 75 80  0  0  0  0  0  0  0  0999 V2000
   10.2839   43.7624   33.8273 C   0  0  0  0  0  0  0  0  0  0  0  0
   11.4102   43.5863   34.3769 O   0  0  0  0  0  0  0  0  0  0  0  0
    9.3634   42.7232   33.7349 O   0  0  0  0  0  0  0  0  0  0  0  0
    9.8897   41.2245   34.2940 P   0  0  0  0  0  0  0  0  0  0  0  0
   10.3726   41.4542   35.8836 O   0  0  0  0  0  0  0  0  0  0  0  0
    9.9549   45.0697   33.2059 C   0  0  1  0  0  0  0  0  0  0  0  0
   11.0197   46.0480   33.4565 N   0  0  0  0  0  0  0  0  0  0  0  0
    9.7507   44.8506   31.6918 C   0  0  0  0  0  0  0  0  0  0  0  0
    8.7947   45.8411   31.0856 C   0  0  0  0  0  0  0  0  0  0  0  0
    7.4078   45.6011   31.1007 C   0  0  0  0  0  0  0  0  0  0  0  0
    9.2827   46.9894   30.4451 C   0  0  0  0  0  0  0  0  0  0  0  0
    6.5259   46.5015   30.4870 C   0  0  0  0  0  0  0  0  0  0  0  0
    8.4007   47.8894   29.8358 C   0  0  0  0  0  0  0  0  0  0  0  0
    7.0194   47.6537   29.8432 C   0  0  0  0  0  0  0  0  0  0  0  0
    6.1847   48.5912   29.2151 O   0  0  0  0  0  0  0  0  0  0  0  0
    4.8228   48.3800   28.8408 C   0  0  0  0  0  0  0  0  0  0  0  0
    4.7301   47.4354   27.6655 C   0  0  0  0  0  0  0  0  0  0  0  0
    4.2258   46.1316   27.8860 C   0  0  0  0  0  0  0  0  0  0  0  0
    5.0852   47.8379   26.3336 C   0  0  0  0  0  0  0  0  0  0  0  0
    4.1165   45.2700   26.8029 C   0  0  0  0  0  0  0  0  0  0  0  0
    4.9399   46.9170   25.2687 C   0  0  0  0  0  0  0  0  0  0  0  0
    5.5430   49.1699   26.0360 N   0  0  0  0  0  0  0  0  0  0  0  0
    3.6647   43.9644   26.7862 O   0  0  0  0  0  0  0  0  0  0  0  0
    4.4602   45.6452   25.5502 C   0  0  0  0  0  0  0  0  0  0  0  0
    6.4309   49.8143   26.8635 O   0  0  0  0  0  0  0  0  0  0  0  0
    5.2633   49.6935   24.9379 O   0  0  0  0  0  0  0  0  0  0  0  0
    3.7337   43.4895   25.4345 C   0  0  0  0  0  0  0  0  0  0  0  0
    4.2454   44.5951   24.6779 O   0  0  0  0  0  0  0  0  0  0  0  0
    8.8114   40.1832   34.2126 O   0  0  0  0  0  0  0  0  0  0  0  0
   11.2411   40.7930   33.3696 O   0  0  0  0  0  0  0  0  0  0  0  0
   10.9179   40.6903   31.9969 C   0  0  0  0  0  0  0  0  0  0  0  0
   11.5180   39.3813   31.4408 C   0  0  0  0  0  0  0  0  0  0  0  0
   12.7496   39.0869   32.0745 O   0  0  0  0  0  0  0  0  0  0  0  0
   10.6045   38.1891   31.6656 C   0  0  0  0  0  0  0  0  0  0  0  0
   12.9343   37.6800   32.0290 C   0  0  0  0  0  0  0  0  0  0  0  0
    9.6419   38.0759   30.6441 O   0  0  0  0  0  0  0  0  0  0  0  0
   11.5741   37.0169   31.7044 C   0  0  0  0  0  0  0  0  0  0  0  0
   13.4850   37.2124   33.3241 N   0  0  0  0  0  0  0  0  0  0  0  0
   11.6081   36.3403   30.4679 O   0  0  0  0  0  0  0  0  0  0  0  0
   14.4802   36.3322   33.5727 C   0  0  0  0  0  0  0  0  0  0  0  0
   13.1137   37.6274   34.5693 C   0  0  0  0  0  0  0  0  0  0  0  0
   15.2073   35.6156   32.6739 N   0  0  0  0  0  0  0  0  0  0  0  0
   14.6760   36.2308   34.9181 C   0  0  0  0  0  0  0  0  0  0  0  0
   13.8216   37.0450   35.5785 N   0  0  0  0  0  0  0  0  0  0  0  0
   16.1639   34.7603   33.1546 C   0  0  0  0  0  0  0  0  0  0  0  0
   15.6526   35.3508   35.4130 C   0  0  0  0  0  0  0  0  0  0  0  0
   16.3794   34.6318   34.5041 N   0  0  0  0  0  0  0  0  0  0  0  0
   15.9002   35.1939   36.8090 N   0  0  0  0  0  0  0  0  0  0  0  0
    9.0098   45.4348   33.6660 H   0  0  0  0  0  0  0  0  0  0  0  0
   11.9347   45.6930   33.0924 H   0  0  0  0  0  0  0  0  0  0  0  0
   11.1132   46.1997   34.4878 H   0  0  0  0  0  0  0  0  0  0  0  0
   10.7311   44.8922   31.1671 H   0  0  0  0  0  0  0  0  0  0  0  0
    9.3519   43.8338   31.4757 H   0  0  0  0  0  0  0  0  0  0  0  0
    7.0122   44.7188   31.5887 H   0  0  0  0  0  0  0  0  0  0  0  0
   10.3465   47.1905   30.4168 H   0  0  0  0  0  0  0  0  0  0  0  0
    5.4681   46.2998   30.5426 H   0  0  0  0  0  0  0  0  0  0  0  0
    8.7937   48.7726   29.3481 H   0  0  0  0  0  0  0  0  0  0  0  0
    4.2384   48.0182   29.7133 H   0  0  0  0  0  0  0  0  0  0  0  0
    4.3731   49.3543   28.5566 H   0  0  0  0  0  0  0  0  0  0  0  0
    3.9156   45.7983   28.8670 H   0  0  0  0  0  0  0  0  0  0  0  0
    5.1986   47.1843   24.2522 H   0  0  0  0  0  0  0  0  0  0  0  0
    4.4270   42.6251   25.3660 H   0  0  0  0  0  0  0  0  0  0  0  0
    2.7212   43.2125   25.0721 H   0  0  0  0  0  0  0  0  0  0  0  0
   11.3954   41.5457   31.4727 H   0  0  0  0  0  0  0  0  0  0  0  0
    9.8292   40.7394   31.7611 H   0  0  0  0  0  0  0  0  0  0  0  0
   11.6992   39.5067   30.3483 H   0  0  0  0  0  0  0  0  0  0  0  0
   10.1092   38.2632   32.6635 H   0  0  0  0  0  0  0  0  0  0  0  0
   13.6658   37.4513   31.2225 H   0  0  0  0  0  0  0  0  0  0  0  0
    8.9008   38.6924   30.8794 H   0  0  0  0  0  0  0  0  0  0  0  0
   11.2652   36.3083   32.5086 H   0  0  0  0  0  0  0  0  0  0  0  0
   12.1373   35.5136   30.6162 H   0  0  0  0  0  0  0  0  0  0  0  0
   12.3290   38.3522   34.7448 H   0  0  0  0  0  0  0  0  0  0  0  0
   16.7562   34.1785   32.4619 H   0  0  0  0  0  0  0  0  0  0  0  0
   16.6345   34.5305   37.1418 H   0  0  0  0  0  0  0  0  0  0  0  0
   15.3532   35.7366   37.5137 H   0  0  0  0  0  0  0  0  0  0  0  0
  1  2  2  0
  1  3  1  0
  3  4  1  0
  4  5  1  0
  6  1  1  0
  7  6  1  0
  6  8  1  0
  8  9  1  0
  9 10  2  0
 11  9  1  0
 10 12  1  0
 13 11  2  0
 12 14  2  0
 14 13  1  0
 14 15  1  0
 15 16  1  0
 16 17  1  0
 17 18  2  0
 19 17  1  0
 18 20  1  0
 21 19  2  0
 19 22  1  0
 20 23  1  0
 20 24  2  0
 24 21  1  0
 22 25  1  0
 22 26  2  0
 23 27  1  0
 24 28  1  0
 27 28  1  0
  4 29  2  0
  4 30  1  0
 31 30  1  0
 31 32  1  0
 32 33  1  0
 32 34  1  0
 33 35  1  0
 34 36  1  0
 34 37  1  0
 37 35  1  0
 35 38  1  0
 37 39  1  0
 40 38  1  0
 41 38  1  0
 42 40  2  0
 40 43  1  0
 44 41  2  0
 45 42  1  0
 43 46  2  0
 43 44  1  0
 47 45  2  0
 47 46  1  0
 46 48  1  0
  6 49  1  1
  7 50  1  0
  7 51  1  0
  8 52  1  0
  8 53  1  0
 10 54  1  0
 11 55  1  0
 12 56  1  0
 13 57  1  0
 16 58  1  0
 16 59  1  0
 18 60  1  0
 21 61  1  0
 27 62  1  0
 27 63  1  0
 31 64  1  0
 31 65  1  0
 32 66  1  0
 34 67  1  0
 35 68  1  0
 36 69  1  0
 37 70  1  0
 39 71  1  0
 41 72  1  0
 45 73  1  0
 48 74  1  0
 48 75  1  0
M  CHG  3   5  -1  22   1  25  -1
M  END
>  <EmbedRMS>  (100) 
0.0837730961628

$$$$

     RDKit          3D

 75 80  0  0  0  0  0  0  0  0999 V2000
   10.2838   43.7627   33.8277 C   0  0  0  0  0  0  0  0  0  0  0  0
   11.4103   43.5863   34.3766 O   0  0  0  0  0  0  0  0  0  0  0  0
    9.3628   42.7238   33.7357 O   0  0  0  0  0  0  0  0  0  0  0  0
    9.8891   41.2251   34.2949 P   0  0  0  0  0  0  0  0  0  0  0  0
   10.3724   41.4548   35.8843 O   0  0  0  0  0  0  0  0  0  0  0  0
    9.9548   45.0700   33.2064 C   0  0  1  0  0  0  0  0  0  0  0  0
   11.0199   46.0480   33.4568 N   0  0  0  0  0  0  0  0  0  0  0  0
    9.7501   44.8508   31.6924 C   0  0  0  0  0  0  0  0  0  0  0  0
    8.7942   45.8417   31.0870 C   0  0  0  0  0  0  0  0  0  0  0  0
    7.4074   45.6011   31.1002 C   0  0  0  0  0  0  0  0  0  0  0  0
    9.2831   46.9891   30.4449 C   0  0  0  0  0  0  0  0  0  0  0  0
    6.5281   46.5022   30.4842 C   0  0  0  0  0  0  0  0  0  0  0  0
    8.4032   47.8898   29.8331 C   0  0  0  0  0  0  0  0  0  0  0  0
    7.0150   47.6516   29.8465 C   0  0  0  0  0  0  0  0  0  0  0  0
    6.0901   48.5185   29.2427 O   0  0  0  0  0  0  0  0  0  0  0  0
    6.4160   49.7062   28.5172 C   0  0  0  0  0  0  0  0  0  0  0  0
    7.1060   49.3852   27.2087 C   0  0  0  0  0  0  0  0  0  0  0  0
    6.6163   48.3003   26.4419 C   0  0  0  0  0  0  0  0  0  0  0  0
    8.1559   50.2037   26.6744 C   0  0  0  0  0  0  0  0  0  0  0  0
    7.1930   48.0486   25.2039 C   0  0  0  0  0  0  0  0  0  0  0  0
    8.6930   49.9087   25.4016 C   0  0  0  0  0  0  0  0  0  0  0  0
    8.6597   51.3473   27.3788 N   0  0  0  0  0  0  0  0  0  0  0  0
    6.8857   47.0498   24.3001 O   0  0  0  0  0  0  0  0  0  0  0  0
    8.1876   48.8185   24.7058 C   0  0  0  0  0  0  0  0  0  0  0  0
    8.8850   52.5180   26.6924 O   0  0  0  0  0  0  0  0  0  0  0  0
    9.1548   51.2139   28.5162 O   0  0  0  0  0  0  0  0  0  0  0  0
    7.7461   47.2024   23.1628 C   0  0  0  0  0  0  0  0  0  0  0  0
    8.5606   48.3441   23.4630 O   0  0  0  0  0  0  0  0  0  0  0  0
    8.8113   40.1834   34.2132 O   0  0  0  0  0  0  0  0  0  0  0  0
   11.2398   40.7938   33.3702 O   0  0  0  0  0  0  0  0  0  0  0  0
   10.9144   40.6912   31.9983 C   0  0  0  0  0  0  0  0  0  0  0  0
   11.5270   39.3911   31.4385 C   0  0  0  0  0  0  0  0  0  0  0  0
   12.7520   39.0910   32.0835 O   0  0  0  0  0  0  0  0  0  0  0  0
   10.6113   38.1931   31.6451 C   0  0  0  0  0  0  0  0  0  0  0  0
   12.9413   37.6837   32.0297 C   0  0  0  0  0  0  0  0  0  0  0  0
    9.6064   38.0877   30.6599 O   0  0  0  0  0  0  0  0  0  0  0  0
   11.5822   37.0197   31.6876 C   0  0  0  0  0  0  0  0  0  0  0  0
   13.4840   37.2104   33.3254 N   0  0  0  0  0  0  0  0  0  0  0  0
   11.6179   36.3071   30.4690 O   0  0  0  0  0  0  0  0  0  0  0  0
   14.4797   36.3309   33.5738 C   0  0  0  0  0  0  0  0  0  0  0  0
   13.1137   37.6269   34.5702 C   0  0  0  0  0  0  0  0  0  0  0  0
   15.2074   35.6152   32.6747 N   0  0  0  0  0  0  0  0  0  0  0  0
   14.6756   36.2298   34.9190 C   0  0  0  0  0  0  0  0  0  0  0  0
   13.8217   37.0446   35.5793 N   0  0  0  0  0  0  0  0  0  0  0  0
   16.1643   34.7603   33.1551 C   0  0  0  0  0  0  0  0  0  0  0  0
   15.6528   35.3503   35.4136 C   0  0  0  0  0  0  0  0  0  0  0  0
   16.3798   34.6316   34.5046 N   0  0  0  0  0  0  0  0  0  0  0  0
   15.9004   35.1930   36.8094 N   0  0  0  0  0  0  0  0  0  0  0  0
    9.0099   45.4350   33.6671 H   0  0  0  0  0  0  0  0  0  0  0  0
   11.1136   46.1992   34.4880 H   0  0  0  0  0  0  0  0  0  0  0  0
   11.9348   45.6932   33.0922 H   0  0  0  0  0  0  0  0  0  0  0  0
    9.3508   43.8343   31.4763 H   0  0  0  0  0  0  0  0  0  0  0  0
   10.7303   44.8922   31.1674 H   0  0  0  0  0  0  0  0  0  0  0  0
    7.0107   44.7160   31.5821 H   0  0  0  0  0  0  0  0  0  0  0  0
   10.3474   47.1882   30.4161 H   0  0  0  0  0  0  0  0  0  0  0  0
    5.4638   46.3045   30.5006 H   0  0  0  0  0  0  0  0  0  0  0  0
    8.8144   48.7629   29.3513 H   0  0  0  0  0  0  0  0  0  0  0  0
    6.9966   50.3856   29.1689 H   0  0  0  0  0  0  0  0  0  0  0  0
    5.4670   50.2295   28.2774 H   0  0  0  0  0  0  0  0  0  0  0  0
    5.8048   47.6767   26.7950 H   0  0  0  0  0  0  0  0  0  0  0  0
    9.4849   50.5093   24.9726 H   0  0  0  0  0  0  0  0  0  0  0  0
    8.3814   46.3006   23.0381 H   0  0  0  0  0  0  0  0  0  0  0  0
    7.1447   47.3905   22.2488 H   0  0  0  0  0  0  0  0  0  0  0  0
   11.3781   41.5548   31.4751 H   0  0  0  0  0  0  0  0  0  0  0  0
    9.8235   40.7202   31.7651 H   0  0  0  0  0  0  0  0  0  0  0  0
   11.7311   39.5363   30.3531 H   0  0  0  0  0  0  0  0  0  0  0  0
   10.1203   38.2695   32.6410 H   0  0  0  0  0  0  0  0  0  0  0  0
   13.6850   37.4638   31.2321 H   0  0  0  0  0  0  0  0  0  0  0  0
   10.0251   38.1792   29.7654 H   0  0  0  0  0  0  0  0  0  0  0  0
   11.2757   36.3135   32.4907 H   0  0  0  0  0  0  0  0  0  0  0  0
   11.9839   36.9110   29.7708 H   0  0  0  0  0  0  0  0  0  0  0  0
   12.3307   38.3536   34.7457 H   0  0  0  0  0  0  0  0  0  0  0  0
   16.7566   34.1786   32.4623 H   0  0  0  0  0  0  0  0  0  0  0  0
   16.6353   34.5301   37.1419 H   0  0  0  0  0  0  0  0  0  0  0  0
   15.3535   35.7355   37.5144 H   0  0  0  0  0  0  0  0  0  0  0  0
  1  2  2  0
  1  3  1  0
  3  4  1  0
  4  5  1  0
  6  1  1  0
  7  6  1  0
  6  8  1  0
  8  9  1  0
  9 10  2  0
 11  9  1  0
 10 12  1  0
 13 11  2  0
 12 14  2  0
 14 13  1  0
 14 15  1  0
 15 16  1  0
 16 17  1  0
 17 18  2  0
 19 17  1  0
 18 20  1  0
 21 19  2  0
 19 22  1  0
 20 23  1  0
 20 24  2  0
 24 21  1  0
 22 25  1  0
 22 26  2  0
 23 27  1  0
 24 28  1  0
 27 28  1  0
  4 29  2  0
  4 30  1  0
 31 30  1  0
 31 32  1  0
 32 33  1  0
 32 34  1  0
 33 35  1  0
 34 36  1  0
 34 37  1  0
 37 35  1  0
 35 38  1  0
 37 39  1  0
 40 38  1  0
 41 38  1  0
 42 40  2  0
 40 43  1  0
 44 41  2  0
 45 42  1  0
 43 46  2  0
 43 44  1  0
 47 45  2  0
 47 46  1  0
 46 48  1  0
  6 49  1  1
  7 50  1  0
  7 51  1  0
  8 52  1  0
  8 53  1  0
 10 54  1  0
 11 55  1  0
 12 56  1  0
 13 57  1  0
 16 58  1  0
 16 59  1  0
 18 60  1  0
 21 61  1  0
 27 62  1  0
 27 63  1  0
 31 64  1  0
 31 65  1  0
 32 66  1  0
 34 67  1  0
 35 68  1  0
 36 69  1  0
 37 70  1  0
 39 71  1  0
 41 72  1  0
 45 73  1  0
 48 74  1  0
 48 75  1  0
M  CHG  3   5  -1  22   1  25  -1
M  END
>  <EmbedRMS>  (101) 
0.0817483578741

$$$$

     RDKit          3D

 75 80  0  0  0  0  0  0  0  0999 V2000
   10.2834   43.7662   33.8257 C   0  0  0  0  0  0  0  0  0  0  0  0
   11.4102   43.5931   34.3753 O   0  0  0  0  0  0  0  0  0  0  0  0
    9.3638   42.7255   33.7349 O   0  0  0  0  0  0  0  0  0  0  0  0
    9.8907   41.2266   34.2933 P   0  0  0  0  0  0  0  0  0  0  0  0
   10.3743   41.4557   35.8828 O   0  0  0  0  0  0  0  0  0  0  0  0
    9.9546   45.0695   33.2037 C   0  0  1  0  0  0  0  0  0  0  0  0
   11.0273   46.0323   33.4757 N   0  0  0  0  0  0  0  0  0  0  0  0
    9.7465   44.8481   31.6878 C   0  0  0  0  0  0  0  0  0  0  0  0
    8.7922   45.8410   31.0848 C   0  0  0  0  0  0  0  0  0  0  0  0
    7.4055   45.6011   31.0983 C   0  0  0  0  0  0  0  0  0  0  0  0
    9.2823   46.9873   30.4418 C   0  0  0  0  0  0  0  0  0  0  0  0
    6.5268   46.5026   30.4826 C   0  0  0  0  0  0  0  0  0  0  0  0
    8.4033   47.8891   29.8306 C   0  0  0  0  0  0  0  0  0  0  0  0
    7.0140   47.6546   29.8502 C   0  0  0  0  0  0  0  0  0  0  0  0
    6.0883   48.5293   29.2593 O   0  0  0  0  0  0  0  0  0  0  0  0
    6.3935   49.8184   28.7251 C   0  0  0  0  0  0  0  0  0  0  0  0
    6.7808   50.7811   29.8243 C   0  0  0  0  0  0  0  0  0  0  0  0
    8.0148   51.4647   29.7146 C   0  0  0  0  0  0  0  0  0  0  0  0
    5.9596   50.9871   30.9840 C   0  0  0  0  0  0  0  0  0  0  0  0
    8.4060   52.2964   30.7552 C   0  0  0  0  0  0  0  0  0  0  0  0
    6.4189   51.8369   32.0169 C   0  0  0  0  0  0  0  0  0  0  0  0
    4.6832   50.3411   31.1396 N   0  0  0  0  0  0  0  0  0  0  0  0
    9.5609   53.0462   30.8676 O   0  0  0  0  0  0  0  0  0  0  0  0
    7.6438   52.4718   31.8589 C   0  0  0  0  0  0  0  0  0  0  0  0
    4.2076   50.0555   32.3988 O   0  0  0  0  0  0  0  0  0  0  0  0
    3.9225   50.1862   30.1627 O   0  0  0  0  0  0  0  0  0  0  0  0
    9.5193   53.7368   32.1238 C   0  0  0  0  0  0  0  0  0  0  0  0
    8.2782   53.3420   32.7245 O   0  0  0  0  0  0  0  0  0  0  0  0
    8.8123   40.1851   34.2127 O   0  0  0  0  0  0  0  0  0  0  0  0
   11.2407   40.7945   33.3670 O   0  0  0  0  0  0  0  0  0  0  0  0
   10.9134   40.6866   31.9954 C   0  0  0  0  0  0  0  0  0  0  0  0
   11.5167   39.3787   31.4404 C   0  0  0  0  0  0  0  0  0  0  0  0
   12.7486   39.0849   32.0735 O   0  0  0  0  0  0  0  0  0  0  0  0
   10.6039   38.1884   31.6669 C   0  0  0  0  0  0  0  0  0  0  0  0
   12.9329   37.6776   32.0284 C   0  0  0  0  0  0  0  0  0  0  0  0
    9.6374   38.0938   30.6484 O   0  0  0  0  0  0  0  0  0  0  0  0
   11.5737   37.0141   31.7055 C   0  0  0  0  0  0  0  0  0  0  0  0
   13.4853   37.2120   33.3238 N   0  0  0  0  0  0  0  0  0  0  0  0
   11.6210   36.3379   30.4683 O   0  0  0  0  0  0  0  0  0  0  0  0
   14.4804   36.3319   33.5726 C   0  0  0  0  0  0  0  0  0  0  0  0
   13.1141   37.6275   34.5689 C   0  0  0  0  0  0  0  0  0  0  0  0
   15.2076   35.6152   32.6740 N   0  0  0  0  0  0  0  0  0  0  0  0
   14.6761   36.2306   34.9181 C   0  0  0  0  0  0  0  0  0  0  0  0
   13.8218   37.0451   35.5783 N   0  0  0  0  0  0  0  0  0  0  0  0
   16.1642   34.7600   33.1548 C   0  0  0  0  0  0  0  0  0  0  0  0
   15.6527   35.3507   35.4131 C   0  0  0  0  0  0  0  0  0  0  0  0
   16.3795   34.6315   34.5043 N   0  0  0  0  0  0  0  0  0  0  0  0
   15.9001   35.1933   36.8090 N   0  0  0  0  0  0  0  0  0  0  0  0
    9.0120   45.4318   33.6716 H   0  0  0  0  0  0  0  0  0  0  0  0
   11.8905   45.7661   32.9469 H   0  0  0  0  0  0  0  0  0  0  0  0
   10.7257   46.9689   33.1214 H   0  0  0  0  0  0  0  0  0  0  0  0
   10.7228   44.8814   31.1558 H   0  0  0  0  0  0  0  0  0  0  0  0
    9.3412   43.8330   31.4765 H   0  0  0  0  0  0  0  0  0  0  0  0
    7.0083   44.7162   31.5801 H   0  0  0  0  0  0  0  0  0  0  0  0
   10.3471   47.1829   30.4085 H   0  0  0  0  0  0  0  0  0  0  0  0
    5.4621   46.3075   30.5021 H   0  0  0  0  0  0  0  0  0  0  0  0
    8.8176   48.7559   29.3377 H   0  0  0  0  0  0  0  0  0  0  0  0
    5.4976   50.2114   28.2024 H   0  0  0  0  0  0  0  0  0  0  0  0
    7.1862   49.7245   27.9516 H   0  0  0  0  0  0  0  0  0  0  0  0
    8.6587   51.3400   28.8532 H   0  0  0  0  0  0  0  0  0  0  0  0
    5.8310   52.0114   32.9086 H   0  0  0  0  0  0  0  0  0  0  0  0
   10.3711   53.4232   32.7630 H   0  0  0  0  0  0  0  0  0  0  0  0
    9.5332   54.8346   31.9592 H   0  0  0  0  0  0  0  0  0  0  0  0
   11.3827   41.5438   31.4669 H   0  0  0  0  0  0  0  0  0  0  0  0
    9.8225   40.7225   31.7631 H   0  0  0  0  0  0  0  0  0  0  0  0
   11.6979   39.5037   30.3478 H   0  0  0  0  0  0  0  0  0  0  0  0
   10.1084   38.2787   32.6627 H   0  0  0  0  0  0  0  0  0  0  0  0
   13.6638   37.4472   31.2214 H   0  0  0  0  0  0  0  0  0  0  0  0
    8.9763   37.4191   30.9532 H   0  0  0  0  0  0  0  0  0  0  0  0
   11.2821   36.3054   32.5172 H   0  0  0  0  0  0  0  0  0  0  0  0
   10.8658   35.6935   30.4652 H   0  0  0  0  0  0  0  0  0  0  0  0
   12.3293   38.3523   34.7445 H   0  0  0  0  0  0  0  0  0  0  0  0
   16.7561   34.1778   32.4621 H   0  0  0  0  0  0  0  0  0  0  0  0
   16.6346   34.5300   37.1416 H   0  0  0  0  0  0  0  0  0  0  0  0
   15.3533   35.7361   37.5138 H   0  0  0  0  0  0  0  0  0  0  0  0
  1  2  2  0
  1  3  1  0
  3  4  1  0
  4  5  1  0
  6  1  1  0
  7  6  1  0
  6  8  1  0
  8  9  1  0
  9 10  2  0
 11  9  1  0
 10 12  1  0
 13 11  2  0
 12 14  2  0
 14 13  1  0
 14 15  1  0
 15 16  1  0
 16 17  1  0
 17 18  2  0
 19 17  1  0
 18 20  1  0
 21 19  2  0
 19 22  1  0
 20 23  1  0
 20 24  2  0
 24 21  1  0
 22 25  1  0
 22 26  2  0
 23 27  1  0
 24 28  1  0
 27 28  1  0
  4 29  2  0
  4 30  1  0
 31 30  1  0
 31 32  1  0
 32 33  1  0
 32 34  1  0
 33 35  1  0
 34 36  1  0
 34 37  1  0
 37 35  1  0
 35 38  1  0
 37 39  1  0
 40 38  1  0
 41 38  1  0
 42 40  2  0
 40 43  1  0
 44 41  2  0
 45 42  1  0
 43 46  2  0
 43 44  1  0
 47 45  2  0
 47 46  1  0
 46 48  1  0
  6 49  1  1
  7 50  1  0
  7 51  1  0
  8 52  1  0
  8 53  1  0
 10 54  1  0
 11 55  1  0
 12 56  1  0
 13 57  1  0
 16 58  1  0
 16 59  1  0
 18 60  1  0
 21 61  1  0
 27 62  1  0
 27 63  1  0
 31 64  1  0
 31 65  1  0
 32 66  1  0
 34 67  1  0
 35 68  1  0
 36 69  1  0
 37 70  1  0
 39 71  1  0
 41 72  1  0
 45 73  1  0
 48 74  1  0
 48 75  1  0
M  CHG  3   5  -1  22   1  25  -1
M  END
>  <EmbedRMS>  (102) 
0.08256040467

$$$$

     RDKit          3D

 75 80  0  0  0  0  0  0  0  0999 V2000
   10.2803   43.7664   33.8249 C   0  0  0  0  0  0  0  0  0  0  0  0
   11.4110   43.5918   34.3666 O   0  0  0  0  0  0  0  0  0  0  0  0
    9.3618   42.7250   33.7344 O   0  0  0  0  0  0  0  0  0  0  0  0
    9.8901   41.2265   34.2931 P   0  0  0  0  0  0  0  0  0  0  0  0
   10.3743   41.4563   35.8823 O   0  0  0  0  0  0  0  0  0  0  0  0
    9.9460   45.0736   33.2111 C   0  0  1  0  0  0  0  0  0  0  0  0
   11.0267   46.0292   33.4708 N   0  0  0  0  0  0  0  0  0  0  0  0
    9.7540   44.8541   31.6947 C   0  0  0  0  0  0  0  0  0  0  0  0
    8.7957   45.8410   31.0845 C   0  0  0  0  0  0  0  0  0  0  0  0
    7.4089   45.6001   31.1014 C   0  0  0  0  0  0  0  0  0  0  0  0
    9.2823   46.9883   30.4401 C   0  0  0  0  0  0  0  0  0  0  0  0
    6.5259   46.4992   30.4873 C   0  0  0  0  0  0  0  0  0  0  0  0
    8.3996   47.8880   29.8318 C   0  0  0  0  0  0  0  0  0  0  0  0
    7.0184   47.6536   29.8446 C   0  0  0  0  0  0  0  0  0  0  0  0
    6.1797   48.5849   29.2109 O   0  0  0  0  0  0  0  0  0  0  0  0
    4.7674   48.4428   29.0487 C   0  0  0  0  0  0  0  0  0  0  0  0
    4.4481   47.3395   28.0645 C   0  0  0  0  0  0  0  0  0  0  0  0
    5.1630   47.3070   26.8441 C   0  0  0  0  0  0  0  0  0  0  0  0
    3.4846   46.3150   28.3433 C   0  0  0  0  0  0  0  0  0  0  0  0
    4.9416   46.2465   25.9751 C   0  0  0  0  0  0  0  0  0  0  0  0
    3.3145   45.2507   27.4294 C   0  0  0  0  0  0  0  0  0  0  0  0
    2.6638   46.3492   29.5204 N   0  0  0  0  0  0  0  0  0  0  0  0
    5.5321   46.0016   24.7503 O   0  0  0  0  0  0  0  0  0  0  0  0
    4.0614   45.2584   26.2583 C   0  0  0  0  0  0  0  0  0  0  0  0
    2.3255   45.1744   30.1514 O   0  0  0  0  0  0  0  0  0  0  0  0
    2.0583   47.3956   29.8311 O   0  0  0  0  0  0  0  0  0  0  0  0
    4.9858   44.7809   24.2321 C   0  0  0  0  0  0  0  0  0  0  0  0
    4.0506   44.3401   25.2261 O   0  0  0  0  0  0  0  0  0  0  0  0
    8.8123   40.1844   34.2130 O   0  0  0  0  0  0  0  0  0  0  0  0
   11.2401   40.7949   33.3666 O   0  0  0  0  0  0  0  0  0  0  0  0
   10.9124   40.6859   31.9952 C   0  0  0  0  0  0  0  0  0  0  0  0
   11.5174   39.3786   31.4405 C   0  0  0  0  0  0  0  0  0  0  0  0
   12.7489   39.0864   32.0753 O   0  0  0  0  0  0  0  0  0  0  0  0
   10.6060   38.1867   31.6656 C   0  0  0  0  0  0  0  0  0  0  0  0
   12.9355   37.6796   32.0292 C   0  0  0  0  0  0  0  0  0  0  0  0
    9.6399   38.0903   30.6471 O   0  0  0  0  0  0  0  0  0  0  0  0
   11.5765   37.0145   31.7044 C   0  0  0  0  0  0  0  0  0  0  0  0
   13.4858   37.2125   33.3244 N   0  0  0  0  0  0  0  0  0  0  0  0
   11.6101   36.3397   30.4673 O   0  0  0  0  0  0  0  0  0  0  0  0
   14.4805   36.3319   33.5729 C   0  0  0  0  0  0  0  0  0  0  0  0
   13.1143   37.6276   34.5694 C   0  0  0  0  0  0  0  0  0  0  0  0
   15.2076   35.6153   32.6741 N   0  0  0  0  0  0  0  0  0  0  0  0
   14.6761   36.2304   34.9184 C   0  0  0  0  0  0  0  0  0  0  0  0
   13.8219   37.0449   35.5786 N   0  0  0  0  0  0  0  0  0  0  0  0
   16.1641   34.7600   33.1548 C   0  0  0  0  0  0  0  0  0  0  0  0
   15.6528   35.3505   35.4132 C   0  0  0  0  0  0  0  0  0  0  0  0
   16.3796   34.6314   34.5043 N   0  0  0  0  0  0  0  0  0  0  0  0
   15.9002   35.1931   36.8091 N   0  0  0  0  0  0  0  0  0  0  0  0
    8.9995   45.4382   33.6720 H   0  0  0  0  0  0  0  0  0  0  0  0
   10.7766   46.9369   33.0158 H   0  0  0  0  0  0  0  0  0  0  0  0
   11.0502   46.2277   34.4982 H   0  0  0  0  0  0  0  0  0  0  0  0
   10.7412   44.9079   31.1834 H   0  0  0  0  0  0  0  0  0  0  0  0
    9.3646   43.8354   31.4709 H   0  0  0  0  0  0  0  0  0  0  0  0
    7.0146   44.7160   31.5873 H   0  0  0  0  0  0  0  0  0  0  0  0
   10.3462   47.1883   30.4060 H   0  0  0  0  0  0  0  0  0  0  0  0
    5.4674   46.2867   30.5240 H   0  0  0  0  0  0  0  0  0  0  0  0
    8.7917   48.7694   29.3402 H   0  0  0  0  0  0  0  0  0  0  0  0
    4.3675   49.3951   28.6423 H   0  0  0  0  0  0  0  0  0  0  0  0
    4.3066   48.2892   30.0442 H   0  0  0  0  0  0  0  0  0  0  0  0
    5.8874   48.0716   26.5928 H   0  0  0  0  0  0  0  0  0  0  0  0
    2.6010   44.4579   27.6135 H   0  0  0  0  0  0  0  0  0  0  0  0
    4.4626   44.9716   23.2717 H   0  0  0  0  0  0  0  0  0  0  0  0
    5.7892   44.0261   24.1003 H   0  0  0  0  0  0  0  0  0  0  0  0
    9.8214   40.7198   31.7634 H   0  0  0  0  0  0  0  0  0  0  0  0
   11.3801   41.5436   31.4660 H   0  0  0  0  0  0  0  0  0  0  0  0
   11.6999   39.5040   30.3482 H   0  0  0  0  0  0  0  0  0  0  0  0
   10.1085   38.2766   32.6603 H   0  0  0  0  0  0  0  0  0  0  0  0
   13.6679   37.4520   31.2229 H   0  0  0  0  0  0  0  0  0  0  0  0
    9.0016   37.3868   30.9350 H   0  0  0  0  0  0  0  0  0  0  0  0
   11.2666   36.3062   32.5083 H   0  0  0  0  0  0  0  0  0  0  0  0
   12.1389   35.5126   30.6150 H   0  0  0  0  0  0  0  0  0  0  0  0
   12.3300   38.3529   34.7450 H   0  0  0  0  0  0  0  0  0  0  0  0
   16.7560   34.1779   32.4621 H   0  0  0  0  0  0  0  0  0  0  0  0
   16.6347   34.5298   37.1416 H   0  0  0  0  0  0  0  0  0  0  0  0
   15.3534   35.7359   37.5140 H   0  0  0  0  0  0  0  0  0  0  0  0
  1  2  2  0
  1  3  1  0
  3  4  1  0
  4  5  1  0
  6  1  1  0
  7  6  1  0
  6  8  1  0
  8  9  1  0
  9 10  2  0
 11  9  1  0
 10 12  1  0
 13 11  2  0
 12 14  2  0
 14 13  1  0
 14 15  1  0
 15 16  1  0
 16 17  1  0
 17 18  2  0
 19 17  1  0
 18 20  1  0
 21 19  2  0
 19 22  1  0
 20 23  1  0
 20 24  2  0
 24 21  1  0
 22 25  1  0
 22 26  2  0
 23 27  1  0
 24 28  1  0
 27 28  1  0
  4 29  2  0
  4 30  1  0
 31 30  1  0
 31 32  1  0
 32 33  1  0
 32 34  1  0
 33 35  1  0
 34 36  1  0
 34 37  1  0
 37 35  1  0
 35 38  1  0
 37 39  1  0
 40 38  1  0
 41 38  1  0
 42 40  2  0
 40 43  1  0
 44 41  2  0
 45 42  1  0
 43 46  2  0
 43 44  1  0
 47 45  2  0
 47 46  1  0
 46 48  1  0
  6 49  1  1
  7 50  1  0
  7 51  1  0
  8 52  1  0
  8 53  1  0
 10 54  1  0
 11 55  1  0
 12 56  1  0
 13 57  1  0
 16 58  1  0
 16 59  1  0
 18 60  1  0
 21 61  1  0
 27 62  1  0
 27 63  1  0
 31 64  1  0
 31 65  1  0
 32 66  1  0
 34 67  1  0
 35 68  1  0
 36 69  1  0
 37 70  1  0
 39 71  1  0
 41 72  1  0
 45 73  1  0
 48 74  1  0
 48 75  1  0
M  CHG  3   5  -1  22   1  25  -1
M  END
>  <EmbedRMS>  (103) 
0.0822148833218

$$$$

     RDKit          3D

 75 80  0  0  0  0  0  0  0  0999 V2000
   10.2834   43.7662   33.8257 C   0  0  0  0  0  0  0  0  0  0  0  0
   11.4102   43.5931   34.3752 O   0  0  0  0  0  0  0  0  0  0  0  0
    9.3638   42.7255   33.7349 O   0  0  0  0  0  0  0  0  0  0  0  0
    9.8907   41.2266   34.2933 P   0  0  0  0  0  0  0  0  0  0  0  0
   10.3743   41.4557   35.8828 O   0  0  0  0  0  0  0  0  0  0  0  0
    9.9546   45.0696   33.2036 C   0  0  1  0  0  0  0  0  0  0  0  0
   11.0273   46.0323   33.4756 N   0  0  0  0  0  0  0  0  0  0  0  0
    9.7465   44.8481   31.6878 C   0  0  0  0  0  0  0  0  0  0  0  0
    8.7923   45.8409   31.0846 C   0  0  0  0  0  0  0  0  0  0  0  0
    7.4055   45.6012   31.0984 C   0  0  0  0  0  0  0  0  0  0  0  0
    9.2824   46.9874   30.4420 C   0  0  0  0  0  0  0  0  0  0  0  0
    6.5267   46.5028   30.4831 C   0  0  0  0  0  0  0  0  0  0  0  0
    8.4035   47.8893   29.8309 C   0  0  0  0  0  0  0  0  0  0  0  0
    7.0139   47.6542   29.8495 C   0  0  0  0  0  0  0  0  0  0  0  0
    6.0888   48.5297   29.2578 O   0  0  0  0  0  0  0  0  0  0  0  0
    6.4107   49.7906   28.6682 C   0  0  0  0  0  0  0  0  0  0  0  0
    6.8349   50.7857   29.7256 C   0  0  0  0  0  0  0  0  0  0  0  0
    6.0481   50.8908   30.8968 C   0  0  0  0  0  0  0  0  0  0  0  0
    8.0180   51.5855   29.5983 C   0  0  0  0  0  0  0  0  0  0  0  0
    6.4817   51.7332   31.9122 C   0  0  0  0  0  0  0  0  0  0  0  0
    8.4194   52.4122   30.6719 C   0  0  0  0  0  0  0  0  0  0  0  0
    8.8014   51.5906   28.3955 N   0  0  0  0  0  0  0  0  0  0  0  0
    5.8911   51.9771   33.1372 O   0  0  0  0  0  0  0  0  0  0  0  0
    7.6206   52.4566   31.8073 C   0  0  0  0  0  0  0  0  0  0  0  0
   10.1696   51.7129   28.4722 O   0  0  0  0  0  0  0  0  0  0  0  0
    8.2454   51.7312   27.2869 O   0  0  0  0  0  0  0  0  0  0  0  0
    6.7133   52.9147   33.8457 C   0  0  0  0  0  0  0  0  0  0  0  0
    7.8062   53.1948   32.9603 O   0  0  0  0  0  0  0  0  0  0  0  0
    8.8123   40.1851   34.2127 O   0  0  0  0  0  0  0  0  0  0  0  0
   11.2407   40.7945   33.3670 O   0  0  0  0  0  0  0  0  0  0  0  0
   10.9134   40.6866   31.9954 C   0  0  0  0  0  0  0  0  0  0  0  0
   11.5166   39.3787   31.4404 C   0  0  0  0  0  0  0  0  0  0  0  0
   12.7486   39.0849   32.0735 O   0  0  0  0  0  0  0  0  0  0  0  0
   10.6039   38.1884   31.6669 C   0  0  0  0  0  0  0  0  0  0  0  0
   12.9329   37.6776   32.0284 C   0  0  0  0  0  0  0  0  0  0  0  0
    9.6374   38.0938   30.6484 O   0  0  0  0  0  0  0  0  0  0  0  0
   11.5737   37.0141   31.7055 C   0  0  0  0  0  0  0  0  0  0  0  0
   13.4853   37.2120   33.3238 N   0  0  0  0  0  0  0  0  0  0  0  0
   11.6210   36.3379   30.4683 O   0  0  0  0  0  0  0  0  0  0  0  0
   14.4804   36.3319   33.5726 C   0  0  0  0  0  0  0  0  0  0  0  0
   13.1141   37.6275   34.5689 C   0  0  0  0  0  0  0  0  0  0  0  0
   15.2076   35.6152   32.6740 N   0  0  0  0  0  0  0  0  0  0  0  0
   14.6761   36.2306   34.9181 C   0  0  0  0  0  0  0  0  0  0  0  0
   13.8218   37.0451   35.5783 N   0  0  0  0  0  0  0  0  0  0  0  0
   16.1642   34.7600   33.1548 C   0  0  0  0  0  0  0  0  0  0  0  0
   15.6527   35.3506   35.4131 C   0  0  0  0  0  0  0  0  0  0  0  0
   16.3796   34.6315   34.5043 N   0  0  0  0  0  0  0  0  0  0  0  0
   15.9001   35.1933   36.8090 N   0  0  0  0  0  0  0  0  0  0  0  0
    9.0120   45.4318   33.6715 H   0  0  0  0  0  0  0  0  0  0  0  0
   11.8904   45.7661   32.9468 H   0  0  0  0  0  0  0  0  0  0  0  0
   10.7257   46.9689   33.1214 H   0  0  0  0  0  0  0  0  0  0  0  0
    9.3412   43.8330   31.4764 H   0  0  0  0  0  0  0  0  0  0  0  0
   10.7228   44.8813   31.1557 H   0  0  0  0  0  0  0  0  0  0  0  0
    7.0083   44.7163   31.5802 H   0  0  0  0  0  0  0  0  0  0  0  0
   10.3471   47.1837   30.4098 H   0  0  0  0  0  0  0  0  0  0  0  0
    5.4620   46.3074   30.5024 H   0  0  0  0  0  0  0  0  0  0  0  0
    8.8175   48.7593   29.3426 H   0  0  0  0  0  0  0  0  0  0  0  0
    5.5001   50.1829   28.1694 H   0  0  0  0  0  0  0  0  0  0  0  0
    7.1760   49.6331   27.8829 H   0  0  0  0  0  0  0  0  0  0  0  0
    5.1406   50.3135   31.0218 H   0  0  0  0  0  0  0  0  0  0  0  0
    9.3111   53.0226   30.6107 H   0  0  0  0  0  0  0  0  0  0  0  0
    7.0891   52.4614   34.7868 H   0  0  0  0  0  0  0  0  0  0  0  0
    6.1427   53.8436   34.0559 H   0  0  0  0  0  0  0  0  0  0  0  0
    9.8225   40.7224   31.7632 H   0  0  0  0  0  0  0  0  0  0  0  0
   11.3827   41.5438   31.4669 H   0  0  0  0  0  0  0  0  0  0  0  0
   11.6978   39.5037   30.3478 H   0  0  0  0  0  0  0  0  0  0  0  0
   10.1084   38.2786   32.6627 H   0  0  0  0  0  0  0  0  0  0  0  0
   13.6638   37.4472   31.2214 H   0  0  0  0  0  0  0  0  0  0  0  0
    8.9763   37.4191   30.9532 H   0  0  0  0  0  0  0  0  0  0  0  0
   11.2821   36.3054   32.5171 H   0  0  0  0  0  0  0  0  0  0  0  0
   10.8658   35.6935   30.4652 H   0  0  0  0  0  0  0  0  0  0  0  0
   12.3293   38.3523   34.7444 H   0  0  0  0  0  0  0  0  0  0  0  0
   16.7561   34.1778   32.4621 H   0  0  0  0  0  0  0  0  0  0  0  0
   15.3533   35.7361   37.5139 H   0  0  0  0  0  0  0  0  0  0  0  0
   16.6345   34.5300   37.1416 H   0  0  0  0  0  0  0  0  0  0  0  0
  1  2  2  0
  1  3  1  0
  3  4  1  0
  4  5  1  0
  6  1  1  0
  7  6  1  0
  6  8  1  0
  8  9  1  0
  9 10  2  0
 11  9  1  0
 10 12  1  0
 13 11  2  0
 12 14  2  0
 14 13  1  0
 14 15  1  0
 15 16  1  0
 16 17  1  0
 17 18  2  0
 19 17  1  0
 18 20  1  0
 21 19  2  0
 19 22  1  0
 20 23  1  0
 20 24  2  0
 24 21  1  0
 22 25  1  0
 22 26  2  0
 23 27  1  0
 24 28  1  0
 27 28  1  0
  4 29  2  0
  4 30  1  0
 31 30  1  0
 31 32  1  0
 32 33  1  0
 32 34  1  0
 33 35  1  0
 34 36  1  0
 34 37  1  0
 37 35  1  0
 35 38  1  0
 37 39  1  0
 40 38  1  0
 41 38  1  0
 42 40  2  0
 40 43  1  0
 44 41  2  0
 45 42  1  0
 43 46  2  0
 43 44  1  0
 47 45  2  0
 47 46  1  0
 46 48  1  0
  6 49  1  1
  7 50  1  0
  7 51  1  0
  8 52  1  0
  8 53  1  0
 10 54  1  0
 11 55  1  0
 12 56  1  0
 13 57  1  0
 16 58  1  0
 16 59  1  0
 18 60  1  0
 21 61  1  0
 27 62  1  0
 27 63  1  0
 31 64  1  0
 31 65  1  0
 32 66  1  0
 34 67  1  0
 35 68  1  0
 36 69  1  0
 37 70  1  0
 39 71  1  0
 41 72  1  0
 45 73  1  0
 48 74  1  0
 48 75  1  0
M  CHG  3   5  -1  22   1  25  -1
M  END
>  <EmbedRMS>  (104) 
0.0825596928576

$$$$

     RDKit          3D

 75 80  0  0  0  0  0  0  0  0999 V2000
   10.2836   43.7661   33.8255 C   0  0  0  0  0  0  0  0  0  0  0  0
   11.4102   43.5930   34.3753 O   0  0  0  0  0  0  0  0  0  0  0  0
    9.3640   42.7253   33.7346 O   0  0  0  0  0  0  0  0  0  0  0  0
    9.8907   41.2265   34.2938 P   0  0  0  0  0  0  0  0  0  0  0  0
   10.3732   41.4559   35.8835 O   0  0  0  0  0  0  0  0  0  0  0  0
    9.9548   45.0694   33.2034 C   0  0  1  0  0  0  0  0  0  0  0  0
   11.0273   46.0322   33.4758 N   0  0  0  0  0  0  0  0  0  0  0  0
    9.7472   44.8482   31.6873 C   0  0  0  0  0  0  0  0  0  0  0  0
    8.7926   45.8406   31.0840 C   0  0  0  0  0  0  0  0  0  0  0  0
    7.4058   45.6013   31.0999 C   0  0  0  0  0  0  0  0  0  0  0  0
    9.2817   46.9883   30.4426 C   0  0  0  0  0  0  0  0  0  0  0  0
    6.5245   46.5018   30.4862 C   0  0  0  0  0  0  0  0  0  0  0  0
    8.4003   47.8889   29.8335 C   0  0  0  0  0  0  0  0  0  0  0  0
    7.0189   47.6548   29.8434 C   0  0  0  0  0  0  0  0  0  0  0  0
    6.1831   48.5868   29.2079 O   0  0  0  0  0  0  0  0  0  0  0  0
    4.7813   48.4245   28.9866 C   0  0  0  0  0  0  0  0  0  0  0  0
    4.5162   47.3307   27.9775 C   0  0  0  0  0  0  0  0  0  0  0  0
    3.6408   46.2800   28.3400 C   0  0  0  0  0  0  0  0  0  0  0  0
    5.1529   47.3077   26.6907 C   0  0  0  0  0  0  0  0  0  0  0  0
    3.4485   45.2386   27.4422 C   0  0  0  0  0  0  0  0  0  0  0  0
    4.9273   46.2125   25.8249 C   0  0  0  0  0  0  0  0  0  0  0  0
    6.0315   48.3609   26.2551 N   0  0  0  0  0  0  0  0  0  0  0  0
    2.6566   44.1156   27.5863 O   0  0  0  0  0  0  0  0  0  0  0  0
    4.0671   45.2043   26.2398 C   0  0  0  0  0  0  0  0  0  0  0  0
    7.0485   48.0842   25.3705 O   0  0  0  0  0  0  0  0  0  0  0  0
    5.7863   49.5526   26.5322 O   0  0  0  0  0  0  0  0  0  0  0  0
    2.7875   43.3266   26.3959 C   0  0  0  0  0  0  0  0  0  0  0  0
    3.6969   44.0583   25.5626 O   0  0  0  0  0  0  0  0  0  0  0  0
    8.8127   40.1848   34.2122 O   0  0  0  0  0  0  0  0  0  0  0  0
   11.2420   40.7941   33.3697 O   0  0  0  0  0  0  0  0  0  0  0  0
   10.9187   40.6911   31.9971 C   0  0  0  0  0  0  0  0  0  0  0  0
   11.5172   39.3815   31.4407 C   0  0  0  0  0  0  0  0  0  0  0  0
   12.7493   39.0856   32.0728 O   0  0  0  0  0  0  0  0  0  0  0  0
   10.6023   38.1908   31.6665 C   0  0  0  0  0  0  0  0  0  0  0  0
   12.9319   37.6781   32.0281 C   0  0  0  0  0  0  0  0  0  0  0  0
    9.6392   38.0798   30.6452 O   0  0  0  0  0  0  0  0  0  0  0  0
   11.5715   37.0166   31.7056 C   0  0  0  0  0  0  0  0  0  0  0  0
   13.4846   37.2121   33.3235 N   0  0  0  0  0  0  0  0  0  0  0  0
   11.6187   36.3384   30.4695 O   0  0  0  0  0  0  0  0  0  0  0  0
   14.4801   36.3321   33.5724 C   0  0  0  0  0  0  0  0  0  0  0  0
   13.1137   37.6275   34.5688 C   0  0  0  0  0  0  0  0  0  0  0  0
   15.2073   35.6153   32.6738 N   0  0  0  0  0  0  0  0  0  0  0  0
   14.6759   36.2308   34.9179 C   0  0  0  0  0  0  0  0  0  0  0  0
   13.8216   37.0452   35.5781 N   0  0  0  0  0  0  0  0  0  0  0  0
   16.1640   34.7602   33.1546 C   0  0  0  0  0  0  0  0  0  0  0  0
   15.6526   35.3508   35.4129 C   0  0  0  0  0  0  0  0  0  0  0  0
   16.3794   34.6317   34.5041 N   0  0  0  0  0  0  0  0  0  0  0  0
   15.8999   35.1935   36.8088 N   0  0  0  0  0  0  0  0  0  0  0  0
    9.0120   45.4316   33.6710 H   0  0  0  0  0  0  0  0  0  0  0  0
   10.7259   46.9687   33.1214 H   0  0  0  0  0  0  0  0  0  0  0  0
   11.8908   45.7659   32.9474 H   0  0  0  0  0  0  0  0  0  0  0  0
    9.3426   43.8330   31.4756 H   0  0  0  0  0  0  0  0  0  0  0  0
   10.7236   44.8823   31.1555 H   0  0  0  0  0  0  0  0  0  0  0  0
    7.0099   44.7175   31.5851 H   0  0  0  0  0  0  0  0  0  0  0  0
   10.3459   47.1869   30.4111 H   0  0  0  0  0  0  0  0  0  0  0  0
    5.4658   46.2931   30.5264 H   0  0  0  0  0  0  0  0  0  0  0  0
    8.7935   48.7701   29.3426 H   0  0  0  0  0  0  0  0  0  0  0  0
    4.3664   49.3778   28.6003 H   0  0  0  0  0  0  0  0  0  0  0  0
    4.2694   48.2346   29.9549 H   0  0  0  0  0  0  0  0  0  0  0  0
    3.1375   46.2651   29.2985 H   0  0  0  0  0  0  0  0  0  0  0  0
    5.3946   46.1568   24.8503 H   0  0  0  0  0  0  0  0  0  0  0  0
    1.8033   43.2252   25.8922 H   0  0  0  0  0  0  0  0  0  0  0  0
    3.2098   42.3294   26.6406 H   0  0  0  0  0  0  0  0  0  0  0  0
   11.3968   41.5460   31.4728 H   0  0  0  0  0  0  0  0  0  0  0  0
    9.8299   40.7410   31.7613 H   0  0  0  0  0  0  0  0  0  0  0  0
   11.6975   39.5067   30.3481 H   0  0  0  0  0  0  0  0  0  0  0  0
   10.1076   38.2648   32.6645 H   0  0  0  0  0  0  0  0  0  0  0  0
   13.6621   37.4467   31.2209 H   0  0  0  0  0  0  0  0  0  0  0  0
    8.8975   38.6945   30.8830 H   0  0  0  0  0  0  0  0  0  0  0  0
   11.2806   36.3073   32.5170 H   0  0  0  0  0  0  0  0  0  0  0  0
   10.8492   35.7111   30.4586 H   0  0  0  0  0  0  0  0  0  0  0  0
   12.3290   38.3523   34.7444 H   0  0  0  0  0  0  0  0  0  0  0  0
   16.7559   34.1780   32.4619 H   0  0  0  0  0  0  0  0  0  0  0  0
   15.3532   35.7362   37.5137 H   0  0  0  0  0  0  0  0  0  0  0  0
   16.6344   34.5301   37.1414 H   0  0  0  0  0  0  0  0  0  0  0  0
  1  2  2  0
  1  3  1  0
  3  4  1  0
  4  5  1  0
  6  1  1  0
  7  6  1  0
  6  8  1  0
  8  9  1  0
  9 10  2  0
 11  9  1  0
 10 12  1  0
 13 11  2  0
 12 14  2  0
 14 13  1  0
 14 15  1  0
 15 16  1  0
 16 17  1  0
 17 18  2  0
 19 17  1  0
 18 20  1  0
 21 19  2  0
 19 22  1  0
 20 23  1  0
 20 24  2  0
 24 21  1  0
 22 25  1  0
 22 26  2  0
 23 27  1  0
 24 28  1  0
 27 28  1  0
  4 29  2  0
  4 30  1  0
 31 30  1  0
 31 32  1  0
 32 33  1  0
 32 34  1  0
 33 35  1  0
 34 36  1  0
 34 37  1  0
 37 35  1  0
 35 38  1  0
 37 39  1  0
 40 38  1  0
 41 38  1  0
 42 40  2  0
 40 43  1  0
 44 41  2  0
 45 42  1  0
 43 46  2  0
 43 44  1  0
 47 45  2  0
 47 46  1  0
 46 48  1  0
  6 49  1  1
  7 50  1  0
  7 51  1  0
  8 52  1  0
  8 53  1  0
 10 54  1  0
 11 55  1  0
 12 56  1  0
 13 57  1  0
 16 58  1  0
 16 59  1  0
 18 60  1  0
 21 61  1  0
 27 62  1  0
 27 63  1  0
 31 64  1  0
 31 65  1  0
 32 66  1  0
 34 67  1  0
 35 68  1  0
 36 69  1  0
 37 70  1  0
 39 71  1  0
 41 72  1  0
 45 73  1  0
 48 74  1  0
 48 75  1  0
M  CHG  3   5  -1  22   1  25  -1
M  END
>  <EmbedRMS>  (105) 
0.0829480825986

$$$$

     RDKit          3D

 75 80  0  0  0  0  0  0  0  0999 V2000
   10.2805   43.7664   33.8250 C   0  0  0  0  0  0  0  0  0  0  0  0
   11.4111   43.5919   34.3667 O   0  0  0  0  0  0  0  0  0  0  0  0
    9.3621   42.7248   33.7344 O   0  0  0  0  0  0  0  0  0  0  0  0
    9.8903   41.2264   34.2936 P   0  0  0  0  0  0  0  0  0  0  0  0
   10.3732   41.4564   35.8831 O   0  0  0  0  0  0  0  0  0  0  0  0
    9.9458   45.0736   33.2113 C   0  0  1  0  0  0  0  0  0  0  0  0
   11.0265   46.0293   33.4706 N   0  0  0  0  0  0  0  0  0  0  0  0
    9.7535   44.8539   31.6951 C   0  0  0  0  0  0  0  0  0  0  0  0
    8.7955   45.8411   31.0850 C   0  0  0  0  0  0  0  0  0  0  0  0
    7.4087   45.6002   31.1001 C   0  0  0  0  0  0  0  0  0  0  0  0
    9.2831   46.9874   30.4395 C   0  0  0  0  0  0  0  0  0  0  0  0
    6.5281   46.5006   30.4845 C   0  0  0  0  0  0  0  0  0  0  0  0
    8.4027   47.8884   29.8296 C   0  0  0  0  0  0  0  0  0  0  0  0
    7.0134   47.6523   29.8501 C   0  0  0  0  0  0  0  0  0  0  0  0
    6.0869   48.5269   29.2592 O   0  0  0  0  0  0  0  0  0  0  0  0
    6.4068   49.7882   28.6696 C   0  0  0  0  0  0  0  0  0  0  0  0
    6.8311   50.7834   29.7269 C   0  0  0  0  0  0  0  0  0  0  0  0
    6.0451   50.8878   30.8986 C   0  0  0  0  0  0  0  0  0  0  0  0
    8.0136   51.5840   29.5990 C   0  0  0  0  0  0  0  0  0  0  0  0
    6.4789   51.7302   31.9139 C   0  0  0  0  0  0  0  0  0  0  0  0
    8.4152   52.4106   30.6724 C   0  0  0  0  0  0  0  0  0  0  0  0
    8.7963   51.5897   28.3956 N   0  0  0  0  0  0  0  0  0  0  0  0
    5.8890   51.9734   33.1394 O   0  0  0  0  0  0  0  0  0  0  0  0
    7.6172   52.4543   31.8084 C   0  0  0  0  0  0  0  0  0  0  0  0
   10.1644   51.7125   28.4714 O   0  0  0  0  0  0  0  0  0  0  0  0
    8.2394   51.7305   27.2874 O   0  0  0  0  0  0  0  0  0  0  0  0
    6.7110   52.9114   33.8475 C   0  0  0  0  0  0  0  0  0  0  0  0
    7.8032   53.1924   32.9614 O   0  0  0  0  0  0  0  0  0  0  0  0
    8.8128   40.1841   34.2125 O   0  0  0  0  0  0  0  0  0  0  0  0
   11.2416   40.7945   33.3692 O   0  0  0  0  0  0  0  0  0  0  0  0
   10.9178   40.6904   31.9968 C   0  0  0  0  0  0  0  0  0  0  0  0
   11.5181   39.3813   31.4408 C   0  0  0  0  0  0  0  0  0  0  0  0
   12.7497   39.0870   32.0746 O   0  0  0  0  0  0  0  0  0  0  0  0
   10.6045   38.1891   31.6655 C   0  0  0  0  0  0  0  0  0  0  0  0
   12.9344   37.6801   32.0290 C   0  0  0  0  0  0  0  0  0  0  0  0
    9.6418   38.0758   30.6441 O   0  0  0  0  0  0  0  0  0  0  0  0
   11.5741   37.0170   31.7045 C   0  0  0  0  0  0  0  0  0  0  0  0
   13.4851   37.2126   33.3241 N   0  0  0  0  0  0  0  0  0  0  0  0
   11.6079   36.3407   30.4680 O   0  0  0  0  0  0  0  0  0  0  0  0
   14.4801   36.3321   33.5727 C   0  0  0  0  0  0  0  0  0  0  0  0
   13.1140   37.6277   34.5693 C   0  0  0  0  0  0  0  0  0  0  0  0
   15.2073   35.6155   32.6739 N   0  0  0  0  0  0  0  0  0  0  0  0
   14.6758   36.2306   34.9182 C   0  0  0  0  0  0  0  0  0  0  0  0
   13.8217   37.0451   35.5785 N   0  0  0  0  0  0  0  0  0  0  0  0
   16.1639   34.7602   33.1546 C   0  0  0  0  0  0  0  0  0  0  0  0
   15.6526   35.3506   35.4130 C   0  0  0  0  0  0  0  0  0  0  0  0
   16.3794   34.6316   34.5041 N   0  0  0  0  0  0  0  0  0  0  0  0
   15.9001   35.1933   36.8089 N   0  0  0  0  0  0  0  0  0  0  0  0
    8.9995   45.4381   33.6724 H   0  0  0  0  0  0  0  0  0  0  0  0
   10.7761   46.9369   33.0156 H   0  0  0  0  0  0  0  0  0  0  0  0
   11.0503   46.2279   34.4980 H   0  0  0  0  0  0  0  0  0  0  0  0
    9.3634   43.8353   31.4716 H   0  0  0  0  0  0  0  0  0  0  0  0
   10.7406   44.9069   31.1836 H   0  0  0  0  0  0  0  0  0  0  0  0
    7.0130   44.7157   31.5841 H   0  0  0  0  0  0  0  0  0  0  0  0
   10.3474   47.1851   30.4048 H   0  0  0  0  0  0  0  0  0  0  0  0
    5.4637   46.3042   30.5053 H   0  0  0  0  0  0  0  0  0  0  0  0
    8.8154   48.7585   29.3401 H   0  0  0  0  0  0  0  0  0  0  0  0
    5.4952   50.1797   28.1720 H   0  0  0  0  0  0  0  0  0  0  0  0
    7.1714   49.6317   27.8834 H   0  0  0  0  0  0  0  0  0  0  0  0
    5.1380   50.3099   31.0241 H   0  0  0  0  0  0  0  0  0  0  0  0
    9.3066   53.0216   30.6108 H   0  0  0  0  0  0  0  0  0  0  0  0
    7.0878   52.4580   34.7883 H   0  0  0  0  0  0  0  0  0  0  0  0
    6.1401   53.8398   34.0583 H   0  0  0  0  0  0  0  0  0  0  0  0
   11.3944   41.5458   31.4719 H   0  0  0  0  0  0  0  0  0  0  0  0
    9.8288   40.7385   31.7615 H   0  0  0  0  0  0  0  0  0  0  0  0
   11.6994   39.5068   30.3484 H   0  0  0  0  0  0  0  0  0  0  0  0
   10.1090   38.2634   32.6632 H   0  0  0  0  0  0  0  0  0  0  0  0
   13.6662   37.4515   31.2224 H   0  0  0  0  0  0  0  0  0  0  0  0
    8.9009   38.6924   30.8794 H   0  0  0  0  0  0  0  0  0  0  0  0
   11.2650   36.3083   32.5087 H   0  0  0  0  0  0  0  0  0  0  0  0
   12.1372   35.5141   30.6163 H   0  0  0  0  0  0  0  0  0  0  0  0
   12.3297   38.3530   34.7450 H   0  0  0  0  0  0  0  0  0  0  0  0
   16.7558   34.1781   32.4619 H   0  0  0  0  0  0  0  0  0  0  0  0
   16.6346   34.5300   37.1414 H   0  0  0  0  0  0  0  0  0  0  0  0
   15.3533   35.7360   37.5138 H   0  0  0  0  0  0  0  0  0  0  0  0
  1  2  2  0
  1  3  1  0
  3  4  1  0
  4  5  1  0
  6  1  1  0
  7  6  1  0
  6  8  1  0
  8  9  1  0
  9 10  2  0
 11  9  1  0
 10 12  1  0
 13 11  2  0
 12 14  2  0
 14 13  1  0
 14 15  1  0
 15 16  1  0
 16 17  1  0
 17 18  2  0
 19 17  1  0
 18 20  1  0
 21 19  2  0
 19 22  1  0
 20 23  1  0
 20 24  2  0
 24 21  1  0
 22 25  1  0
 22 26  2  0
 23 27  1  0
 24 28  1  0
 27 28  1  0
  4 29  2  0
  4 30  1  0
 31 30  1  0
 31 32  1  0
 32 33  1  0
 32 34  1  0
 33 35  1  0
 34 36  1  0
 34 37  1  0
 37 35  1  0
 35 38  1  0
 37 39  1  0
 40 38  1  0
 41 38  1  0
 42 40  2  0
 40 43  1  0
 44 41  2  0
 45 42  1  0
 43 46  2  0
 43 44  1  0
 47 45  2  0
 47 46  1  0
 46 48  1  0
  6 49  1  1
  7 50  1  0
  7 51  1  0
  8 52  1  0
  8 53  1  0
 10 54  1  0
 11 55  1  0
 12 56  1  0
 13 57  1  0
 16 58  1  0
 16 59  1  0
 18 60  1  0
 21 61  1  0
 27 62  1  0
 27 63  1  0
 31 64  1  0
 31 65  1  0
 32 66  1  0
 34 67  1  0
 35 68  1  0
 36 69  1  0
 37 70  1  0
 39 71  1  0
 41 72  1  0
 45 73  1  0
 48 74  1  0
 48 75  1  0
M  CHG  3   5  -1  22   1  25  -1
M  END
>  <EmbedRMS>  (106) 
0.0826590630035

$$$$

     RDKit          3D

 75 80  0  0  0  0  0  0  0  0999 V2000
   10.2834   43.7662   33.8255 C   0  0  0  0  0  0  0  0  0  0  0  0
   11.4101   43.5930   34.3752 O   0  0  0  0  0  0  0  0  0  0  0  0
    9.3636   42.7255   33.7348 O   0  0  0  0  0  0  0  0  0  0  0  0
    9.8905   41.2266   34.2933 P   0  0  0  0  0  0  0  0  0  0  0  0
   10.3743   41.4557   35.8827 O   0  0  0  0  0  0  0  0  0  0  0  0
    9.9547   45.0695   33.2034 C   0  0  1  0  0  0  0  0  0  0  0  0
   11.0273   46.0322   33.4758 N   0  0  0  0  0  0  0  0  0  0  0  0
    9.7471   44.8483   31.6873 C   0  0  0  0  0  0  0  0  0  0  0  0
    8.7926   45.8407   31.0840 C   0  0  0  0  0  0  0  0  0  0  0  0
    7.4058   45.6013   31.0999 C   0  0  0  0  0  0  0  0  0  0  0  0
    9.2817   46.9883   30.4427 C   0  0  0  0  0  0  0  0  0  0  0  0
    6.5245   46.5017   30.4861 C   0  0  0  0  0  0  0  0  0  0  0  0
    8.4003   47.8889   29.8335 C   0  0  0  0  0  0  0  0  0  0  0  0
    7.0189   47.6548   29.8434 C   0  0  0  0  0  0  0  0  0  0  0  0
    6.1831   48.5866   29.2077 O   0  0  0  0  0  0  0  0  0  0  0  0
    4.7811   48.4245   28.9884 C   0  0  0  0  0  0  0  0  0  0  0  0
    4.5135   47.3275   27.9839 C   0  0  0  0  0  0  0  0  0  0  0  0
    3.6236   46.2883   28.3442 C   0  0  0  0  0  0  0  0  0  0  0  0
    5.1633   47.2895   26.7052 C   0  0  0  0  0  0  0  0  0  0  0  0
    3.4285   45.2437   27.4507 C   0  0  0  0  0  0  0  0  0  0  0  0
    4.9338   46.1916   25.8425 C   0  0  0  0  0  0  0  0  0  0  0  0
    6.0566   48.3336   26.2784 N   0  0  0  0  0  0  0  0  0  0  0  0
    2.6230   44.1303   27.5934 O   0  0  0  0  0  0  0  0  0  0  0  0
    4.0584   45.1956   26.2544 C   0  0  0  0  0  0  0  0  0  0  0  0
    5.7722   49.6528   26.5434 O   0  0  0  0  0  0  0  0  0  0  0  0
    7.0130   48.0673   25.5214 O   0  0  0  0  0  0  0  0  0  0  0  0
    2.7568   43.3328   26.4090 C   0  0  0  0  0  0  0  0  0  0  0  0
    3.6822   44.0497   25.5804 O   0  0  0  0  0  0  0  0  0  0  0  0
    8.8121   40.1851   34.2128 O   0  0  0  0  0  0  0  0  0  0  0  0
   11.2403   40.7946   33.3668 O   0  0  0  0  0  0  0  0  0  0  0  0
   10.9126   40.6859   31.9953 C   0  0  0  0  0  0  0  0  0  0  0  0
   11.5175   39.3787   31.4405 C   0  0  0  0  0  0  0  0  0  0  0  0
   12.7490   39.0864   32.0752 O   0  0  0  0  0  0  0  0  0  0  0  0
   10.6060   38.1868   31.6656 C   0  0  0  0  0  0  0  0  0  0  0  0
   12.9355   37.6796   32.0292 C   0  0  0  0  0  0  0  0  0  0  0  0
    9.6399   38.0903   30.6471 O   0  0  0  0  0  0  0  0  0  0  0  0
   11.5765   37.0145   31.7044 C   0  0  0  0  0  0  0  0  0  0  0  0
   13.4858   37.2125   33.3244 N   0  0  0  0  0  0  0  0  0  0  0  0
   11.6101   36.3397   30.4673 O   0  0  0  0  0  0  0  0  0  0  0  0
   14.4805   36.3319   33.5729 C   0  0  0  0  0  0  0  0  0  0  0  0
   13.1143   37.6276   34.5694 C   0  0  0  0  0  0  0  0  0  0  0  0
   15.2076   35.6153   32.6741 N   0  0  0  0  0  0  0  0  0  0  0  0
   14.6760   36.2304   34.9184 C   0  0  0  0  0  0  0  0  0  0  0  0
   13.8219   37.0449   35.5786 N   0  0  0  0  0  0  0  0  0  0  0  0
   16.1641   34.7600   33.1548 C   0  0  0  0  0  0  0  0  0  0  0  0
   15.6528   35.3505   35.4132 C   0  0  0  0  0  0  0  0  0  0  0  0
   16.3795   34.6314   34.5043 N   0  0  0  0  0  0  0  0  0  0  0  0
   15.9002   35.1931   36.8091 N   0  0  0  0  0  0  0  0  0  0  0  0
    9.0120   45.4317   33.6710 H   0  0  0  0  0  0  0  0  0  0  0  0
   10.7260   46.9688   33.1213 H   0  0  0  0  0  0  0  0  0  0  0  0
   11.8908   45.7659   32.9474 H   0  0  0  0  0  0  0  0  0  0  0  0
   10.7236   44.8823   31.1556 H   0  0  0  0  0  0  0  0  0  0  0  0
    9.3425   43.8330   31.4756 H   0  0  0  0  0  0  0  0  0  0  0  0
    7.0098   44.7175   31.5849 H   0  0  0  0  0  0  0  0  0  0  0  0
   10.3459   47.1869   30.4111 H   0  0  0  0  0  0  0  0  0  0  0  0
    5.4658   46.2928   30.5256 H   0  0  0  0  0  0  0  0  0  0  0  0
    8.7936   48.7701   29.3425 H   0  0  0  0  0  0  0  0  0  0  0  0
    4.3659   49.3765   28.5996 H   0  0  0  0  0  0  0  0  0  0  0  0
    4.2702   48.2382   29.9579 H   0  0  0  0  0  0  0  0  0  0  0  0
    3.1111   46.2846   29.2980 H   0  0  0  0  0  0  0  0  0  0  0  0
    5.4110   46.1255   24.8732 H   0  0  0  0  0  0  0  0  0  0  0  0
    1.7765   43.2392   25.8963 H   0  0  0  0  0  0  0  0  0  0  0  0
    3.1657   42.3326   26.6635 H   0  0  0  0  0  0  0  0  0  0  0  0
    9.8215   40.7200   31.7636 H   0  0  0  0  0  0  0  0  0  0  0  0
   11.3803   41.5437   31.4663 H   0  0  0  0  0  0  0  0  0  0  0  0
   11.6998   39.5041   30.3482 H   0  0  0  0  0  0  0  0  0  0  0  0
   10.1085   38.2767   32.6603 H   0  0  0  0  0  0  0  0  0  0  0  0
   13.6679   37.4520   31.2229 H   0  0  0  0  0  0  0  0  0  0  0  0
    9.0016   37.3868   30.9350 H   0  0  0  0  0  0  0  0  0  0  0  0
   11.2666   36.3062   32.5084 H   0  0  0  0  0  0  0  0  0  0  0  0
   12.1389   35.5126   30.6150 H   0  0  0  0  0  0  0  0  0  0  0  0
   12.3300   38.3529   34.7449 H   0  0  0  0  0  0  0  0  0  0  0  0
   16.7560   34.1779   32.4621 H   0  0  0  0  0  0  0  0  0  0  0  0
   15.3534   35.7359   37.5140 H   0  0  0  0  0  0  0  0  0  0  0  0
   16.6347   34.5298   37.1416 H   0  0  0  0  0  0  0  0  0  0  0  0
  1  2  2  0
  1  3  1  0
  3  4  1  0
  4  5  1  0
  6  1  1  0
  7  6  1  0
  6  8  1  0
  8  9  1  0
  9 10  2  0
 11  9  1  0
 10 12  1  0
 13 11  2  0
 12 14  2  0
 14 13  1  0
 14 15  1  0
 15 16  1  0
 16 17  1  0
 17 18  2  0
 19 17  1  0
 18 20  1  0
 21 19  2  0
 19 22  1  0
 20 23  1  0
 20 24  2  0
 24 21  1  0
 22 25  1  0
 22 26  2  0
 23 27  1  0
 24 28  1  0
 27 28  1  0
  4 29  2  0
  4 30  1  0
 31 30  1  0
 31 32  1  0
 32 33  1  0
 32 34  1  0
 33 35  1  0
 34 36  1  0
 34 37  1  0
 37 35  1  0
 35 38  1  0
 37 39  1  0
 40 38  1  0
 41 38  1  0
 42 40  2  0
 40 43  1  0
 44 41  2  0
 45 42  1  0
 43 46  2  0
 43 44  1  0
 47 45  2  0
 47 46  1  0
 46 48  1  0
  6 49  1  1
  7 50  1  0
  7 51  1  0
  8 52  1  0
  8 53  1  0
 10 54  1  0
 11 55  1  0
 12 56  1  0
 13 57  1  0
 16 58  1  0
 16 59  1  0
 18 60  1  0
 21 61  1  0
 27 62  1  0
 27 63  1  0
 31 64  1  0
 31 65  1  0
 32 66  1  0
 34 67  1  0
 35 68  1  0
 36 69  1  0
 37 70  1  0
 39 71  1  0
 41 72  1  0
 45 73  1  0
 48 74  1  0
 48 75  1  0
M  CHG  3   5  -1  22   1  25  -1
M  END
>  <EmbedRMS>  (107) 
0.0824002023705

$$$$

     RDKit          3D

 75 80  0  0  0  0  0  0  0  0999 V2000
   10.2837   43.7628   33.8278 C   0  0  0  0  0  0  0  0  0  0  0  0
   11.4103   43.5864   34.3766 O   0  0  0  0  0  0  0  0  0  0  0  0
    9.3628   42.7238   33.7358 O   0  0  0  0  0  0  0  0  0  0  0  0
    9.8893   41.2251   34.2943 P   0  0  0  0  0  0  0  0  0  0  0  0
   10.3731   41.4545   35.8837 O   0  0  0  0  0  0  0  0  0  0  0  0
    9.9548   45.0701   33.2065 C   0  0  1  0  0  0  0  0  0  0  0  0
   11.0198   46.0482   33.4569 N   0  0  0  0  0  0  0  0  0  0  0  0
    9.7501   44.8508   31.6925 C   0  0  0  0  0  0  0  0  0  0  0  0
    8.7942   45.8417   31.0870 C   0  0  0  0  0  0  0  0  0  0  0  0
    7.4074   45.6008   31.0996 C   0  0  0  0  0  0  0  0  0  0  0  0
    9.2831   46.9889   30.4446 C   0  0  0  0  0  0  0  0  0  0  0  0
    6.5281   46.5018   30.4837 C   0  0  0  0  0  0  0  0  0  0  0  0
    8.4033   47.8892   29.8322 C   0  0  0  0  0  0  0  0  0  0  0  0
    7.0149   47.6527   29.8485 C   0  0  0  0  0  0  0  0  0  0  0  0
    6.0891   48.5256   29.2546 O   0  0  0  0  0  0  0  0  0  0  0  0
    6.4073   49.7631   28.6139 C   0  0  0  0  0  0  0  0  0  0  0  0
    6.8874   50.7962   29.6108 C   0  0  0  0  0  0  0  0  0  0  0  0
    6.2157   50.8904   30.8537 C   0  0  0  0  0  0  0  0  0  0  0  0
    7.9165   51.7448   29.2967 C   0  0  0  0  0  0  0  0  0  0  0  0
    6.5994   51.8867   31.7419 C   0  0  0  0  0  0  0  0  0  0  0  0
    8.2530   52.7470   30.2337 C   0  0  0  0  0  0  0  0  0  0  0  0
    8.5983   51.7346   28.0346 N   0  0  0  0  0  0  0  0  0  0  0  0
    6.0965   52.1563   33.0001 O   0  0  0  0  0  0  0  0  0  0  0  0
    7.5751   52.7756   31.4451 C   0  0  0  0  0  0  0  0  0  0  0  0
    8.8195   52.9225   27.3769 O   0  0  0  0  0  0  0  0  0  0  0  0
    9.2306   50.7217   27.6728 O   0  0  0  0  0  0  0  0  0  0  0  0
    6.8055   53.2861   33.5271 C   0  0  0  0  0  0  0  0  0  0  0  0
    7.7395   53.6506   32.5016 O   0  0  0  0  0  0  0  0  0  0  0  0
    8.8113   40.1835   34.2130 O   0  0  0  0  0  0  0  0  0  0  0  0
   11.2397   40.7943   33.3684 O   0  0  0  0  0  0  0  0  0  0  0  0
   10.9125   40.6875   31.9969 C   0  0  0  0  0  0  0  0  0  0  0  0
   11.5169   39.3810   31.4420 C   0  0  0  0  0  0  0  0  0  0  0  0
   12.7500   39.0880   32.0758 O   0  0  0  0  0  0  0  0  0  0  0  0
   10.6043   38.1892   31.6659 C   0  0  0  0  0  0  0  0  0  0  0  0
   12.9395   37.6813   32.0279 C   0  0  0  0  0  0  0  0  0  0  0  0
    9.6353   38.0951   30.6499 O   0  0  0  0  0  0  0  0  0  0  0  0
   11.5804   37.0190   31.6934 C   0  0  0  0  0  0  0  0  0  0  0  0
   13.4851   37.2118   33.3244 N   0  0  0  0  0  0  0  0  0  0  0  0
   11.6118   36.3188   30.4673 O   0  0  0  0  0  0  0  0  0  0  0  0
   14.4801   36.3316   33.5732 C   0  0  0  0  0  0  0  0  0  0  0  0
   13.1139   37.6277   34.5692 C   0  0  0  0  0  0  0  0  0  0  0  0
   15.2076   35.6154   32.6744 N   0  0  0  0  0  0  0  0  0  0  0  0
   14.6756   36.2303   34.9186 C   0  0  0  0  0  0  0  0  0  0  0  0
   13.8215   37.0451   35.5786 N   0  0  0  0  0  0  0  0  0  0  0  0
   16.1642   34.7602   33.1551 C   0  0  0  0  0  0  0  0  0  0  0  0
   15.6526   35.3505   35.4134 C   0  0  0  0  0  0  0  0  0  0  0  0
   16.3796   34.6316   34.5045 N   0  0  0  0  0  0  0  0  0  0  0  0
   15.9001   35.1933   36.8093 N   0  0  0  0  0  0  0  0  0  0  0  0
    9.0098   45.4351   33.6671 H   0  0  0  0  0  0  0  0  0  0  0  0
   11.1134   46.1994   34.4881 H   0  0  0  0  0  0  0  0  0  0  0  0
   11.9348   45.6933   33.0925 H   0  0  0  0  0  0  0  0  0  0  0  0
   10.7304   44.8923   31.1676 H   0  0  0  0  0  0  0  0  0  0  0  0
    9.3509   43.8343   31.4764 H   0  0  0  0  0  0  0  0  0  0  0  0
    7.0107   44.7157   31.5816 H   0  0  0  0  0  0  0  0  0  0  0  0
   10.3474   47.1879   30.4157 H   0  0  0  0  0  0  0  0  0  0  0  0
    5.4636   46.3055   30.5023 H   0  0  0  0  0  0  0  0  0  0  0  0
    8.8145   48.7618   29.3493 H   0  0  0  0  0  0  0  0  0  0  0  0
    7.1225   49.5761   27.7912 H   0  0  0  0  0  0  0  0  0  0  0  0
    5.4792   50.1526   28.1463 H   0  0  0  0  0  0  0  0  0  0  0  0
    5.4129   50.2136   31.1175 H   0  0  0  0  0  0  0  0  0  0  0  0
    9.0245   53.4767   30.0236 H   0  0  0  0  0  0  0  0  0  0  0  0
    6.1033   54.1237   33.7211 H   0  0  0  0  0  0  0  0  0  0  0  0
    7.3460   53.0019   34.4543 H   0  0  0  0  0  0  0  0  0  0  0  0
   11.3812   41.5456   31.4692 H   0  0  0  0  0  0  0  0  0  0  0  0
    9.8216   40.7223   31.7644 H   0  0  0  0  0  0  0  0  0  0  0  0
   11.6985   39.5089   30.3498 H   0  0  0  0  0  0  0  0  0  0  0  0
   10.1109   38.2736   32.6630 H   0  0  0  0  0  0  0  0  0  0  0  0
   13.6783   37.4561   31.2271 H   0  0  0  0  0  0  0  0  0  0  0  0
    9.0020   37.3859   30.9348 H   0  0  0  0  0  0  0  0  0  0  0  0
   11.2808   36.3052   32.4921 H   0  0  0  0  0  0  0  0  0  0  0  0
   11.8818   36.9599   29.7584 H   0  0  0  0  0  0  0  0  0  0  0  0
   12.3303   38.3538   34.7445 H   0  0  0  0  0  0  0  0  0  0  0  0
   16.7564   34.1783   32.4624 H   0  0  0  0  0  0  0  0  0  0  0  0
   16.6347   34.5301   37.1418 H   0  0  0  0  0  0  0  0  0  0  0  0
   15.3532   35.7359   37.5142 H   0  0  0  0  0  0  0  0  0  0  0  0
  1  2  2  0
  1  3  1  0
  3  4  1  0
  4  5  1  0
  6  1  1  0
  7  6  1  0
  6  8  1  0
  8  9  1  0
  9 10  2  0
 11  9  1  0
 10 12  1  0
 13 11  2  0
 12 14  2  0
 14 13  1  0
 14 15  1  0
 15 16  1  0
 16 17  1  0
 17 18  2  0
 19 17  1  0
 18 20  1  0
 21 19  2  0
 19 22  1  0
 20 23  1  0
 20 24  2  0
 24 21  1  0
 22 25  1  0
 22 26  2  0
 23 27  1  0
 24 28  1  0
 27 28  1  0
  4 29  2  0
  4 30  1  0
 31 30  1  0
 31 32  1  0
 32 33  1  0
 32 34  1  0
 33 35  1  0
 34 36  1  0
 34 37  1  0
 37 35  1  0
 35 38  1  0
 37 39  1  0
 40 38  1  0
 41 38  1  0
 42 40  2  0
 40 43  1  0
 44 41  2  0
 45 42  1  0
 43 46  2  0
 43 44  1  0
 47 45  2  0
 47 46  1  0
 46 48  1  0
  6 49  1  1
  7 50  1  0
  7 51  1  0
  8 52  1  0
  8 53  1  0
 10 54  1  0
 11 55  1  0
 12 56  1  0
 13 57  1  0
 16 58  1  0
 16 59  1  0
 18 60  1  0
 21 61  1  0
 27 62  1  0
 27 63  1  0
 31 64  1  0
 31 65  1  0
 32 66  1  0
 34 67  1  0
 35 68  1  0
 36 69  1  0
 37 70  1  0
 39 71  1  0
 41 72  1  0
 45 73  1  0
 48 74  1  0
 48 75  1  0
M  CHG  3   5  -1  22   1  25  -1
M  END
>  <EmbedRMS>  (108) 
0.0824723936477

$$$$

     RDKit          3D

 75 80  0  0  0  0  0  0  0  0999 V2000
   10.2839   43.7626   33.8276 C   0  0  0  0  0  0  0  0  0  0  0  0
   11.4104   43.5863   34.3766 O   0  0  0  0  0  0  0  0  0  0  0  0
    9.3631   42.7236   33.7353 O   0  0  0  0  0  0  0  0  0  0  0  0
    9.8894   41.2249   34.2944 P   0  0  0  0  0  0  0  0  0  0  0  0
   10.3727   41.4547   35.8838 O   0  0  0  0  0  0  0  0  0  0  0  0
    9.9549   45.0700   33.2064 C   0  0  1  0  0  0  0  0  0  0  0  0
   11.0198   46.0481   33.4571 N   0  0  0  0  0  0  0  0  0  0  0  0
    9.7505   44.8512   31.6923 C   0  0  0  0  0  0  0  0  0  0  0  0
    8.7943   45.8419   31.0869 C   0  0  0  0  0  0  0  0  0  0  0  0
    7.4074   45.6004   31.1004 C   0  0  0  0  0  0  0  0  0  0  0  0
    9.2827   46.9894   30.4445 C   0  0  0  0  0  0  0  0  0  0  0  0
    6.5254   46.4998   30.4851 C   0  0  0  0  0  0  0  0  0  0  0  0
    8.4011   47.8885   29.8330 C   0  0  0  0  0  0  0  0  0  0  0  0
    7.0197   47.6551   29.8461 C   0  0  0  0  0  0  0  0  0  0  0  0
    6.1803   48.5872   29.2190 O   0  0  0  0  0  0  0  0  0  0  0  0
    4.7599   48.4848   29.1643 C   0  0  0  0  0  0  0  0  0  0  0  0
    4.2002   49.6797   28.4381 C   0  0  0  0  0  0  0  0  0  0  0  0
    3.8257   49.5247   27.0827 C   0  0  0  0  0  0  0  0  0  0  0  0
    4.0147   50.9490   29.0836 C   0  0  0  0  0  0  0  0  0  0  0  0
    3.2689   50.6112   26.4214 C   0  0  0  0  0  0  0  0  0  0  0  0
    3.4293   52.0143   28.3599 C   0  0  0  0  0  0  0  0  0  0  0  0
    4.3886   51.1717   30.4562 N   0  0  0  0  0  0  0  0  0  0  0  0
    2.8308   50.6883   25.1133 O   0  0  0  0  0  0  0  0  0  0  0  0
    3.0766   51.8021   27.0335 C   0  0  0  0  0  0  0  0  0  0  0  0
    3.7280   52.1214   31.2015 O   0  0  0  0  0  0  0  0  0  0  0  0
    5.4082   50.6374   30.9376 O   0  0  0  0  0  0  0  0  0  0  0  0
    2.3318   52.0144   24.8914 C   0  0  0  0  0  0  0  0  0  0  0  0
    2.5075   52.6922   26.1431 O   0  0  0  0  0  0  0  0  0  0  0  0
    8.8114   40.1834   34.2129 O   0  0  0  0  0  0  0  0  0  0  0  0
   11.2402   40.7930   33.3696 O   0  0  0  0  0  0  0  0  0  0  0  0
   10.9151   40.6903   31.9975 C   0  0  0  0  0  0  0  0  0  0  0  0
   11.5252   39.3885   31.4375 C   0  0  0  0  0  0  0  0  0  0  0  0
   12.7500   39.0873   32.0798 O   0  0  0  0  0  0  0  0  0  0  0  0
   10.6092   38.1925   31.6469 C   0  0  0  0  0  0  0  0  0  0  0  0
   12.9332   37.6792   32.0294 C   0  0  0  0  0  0  0  0  0  0  0  0
    9.6122   38.0894   30.6542 O   0  0  0  0  0  0  0  0  0  0  0  0
   11.5743   37.0144   31.7024 C   0  0  0  0  0  0  0  0  0  0  0  0
   13.4844   37.2108   33.3241 N   0  0  0  0  0  0  0  0  0  0  0  0
   11.6297   36.3238   30.4740 O   0  0  0  0  0  0  0  0  0  0  0  0
   14.4802   36.3313   33.5726 C   0  0  0  0  0  0  0  0  0  0  0  0
   13.1138   37.6266   34.5692 C   0  0  0  0  0  0  0  0  0  0  0  0
   15.2075   35.6149   32.6739 N   0  0  0  0  0  0  0  0  0  0  0  0
   14.6761   36.2303   34.9181 C   0  0  0  0  0  0  0  0  0  0  0  0
   13.8220   37.0447   35.5785 N   0  0  0  0  0  0  0  0  0  0  0  0
   16.1643   34.7600   33.1547 C   0  0  0  0  0  0  0  0  0  0  0  0
   15.6529   35.3505   35.4130 C   0  0  0  0  0  0  0  0  0  0  0  0
   16.3798   34.6315   34.5042 N   0  0  0  0  0  0  0  0  0  0  0  0
   15.9003   35.1932   36.8090 N   0  0  0  0  0  0  0  0  0  0  0  0
    9.0099   45.4348   33.6670 H   0  0  0  0  0  0  0  0  0  0  0  0
   11.1133   46.1992   34.4884 H   0  0  0  0  0  0  0  0  0  0  0  0
   11.9349   45.6934   33.0928 H   0  0  0  0  0  0  0  0  0  0  0  0
   10.7308   44.8932   31.1675 H   0  0  0  0  0  0  0  0  0  0  0  0
    9.3518   43.8345   31.4759 H   0  0  0  0  0  0  0  0  0  0  0  0
    7.0123   44.7147   31.5827 H   0  0  0  0  0  0  0  0  0  0  0  0
   10.3467   47.1896   30.4151 H   0  0  0  0  0  0  0  0  0  0  0  0
    5.4658   46.2862   30.5119 H   0  0  0  0  0  0  0  0  0  0  0  0
    8.7937   48.7710   29.3439 H   0  0  0  0  0  0  0  0  0  0  0  0
    4.3312   48.4278   30.1878 H   0  0  0  0  0  0  0  0  0  0  0  0
    4.4840   47.5462   28.6352 H   0  0  0  0  0  0  0  0  0  0  0  0
    3.9576   48.5848   26.5614 H   0  0  0  0  0  0  0  0  0  0  0  0
    3.2691   52.9844   28.8121 H   0  0  0  0  0  0  0  0  0  0  0  0
    2.9208   52.5185   24.0968 H   0  0  0  0  0  0  0  0  0  0  0  0
    1.2553   51.9796   24.6223 H   0  0  0  0  0  0  0  0  0  0  0  0
    9.8243   40.7216   31.7640 H   0  0  0  0  0  0  0  0  0  0  0  0
   11.3806   41.5528   31.4740 H   0  0  0  0  0  0  0  0  0  0  0  0
   11.7265   39.5311   30.3512 H   0  0  0  0  0  0  0  0  0  0  0  0
   10.1110   38.2746   32.6387 H   0  0  0  0  0  0  0  0  0  0  0  0
   13.6652   37.4518   31.2226 H   0  0  0  0  0  0  0  0  0  0  0  0
   10.0511   38.1142   29.7645 H   0  0  0  0  0  0  0  0  0  0  0  0
   11.2762   36.3141   32.5189 H   0  0  0  0  0  0  0  0  0  0  0  0
   10.8593   35.6977   30.4640 H   0  0  0  0  0  0  0  0  0  0  0  0
   12.3294   38.3518   34.7449 H   0  0  0  0  0  0  0  0  0  0  0  0
   16.7564   34.1780   32.4620 H   0  0  0  0  0  0  0  0  0  0  0  0
   16.6349   34.5300   37.1415 H   0  0  0  0  0  0  0  0  0  0  0  0
   15.3534   35.7359   37.5138 H   0  0  0  0  0  0  0  0  0  0  0  0
  1  2  2  0
  1  3  1  0
  3  4  1  0
  4  5  1  0
  6  1  1  0
  7  6  1  0
  6  8  1  0
  8  9  1  0
  9 10  2  0
 11  9  1  0
 10 12  1  0
 13 11  2  0
 12 14  2  0
 14 13  1  0
 14 15  1  0
 15 16  1  0
 16 17  1  0
 17 18  2  0
 19 17  1  0
 18 20  1  0
 21 19  2  0
 19 22  1  0
 20 23  1  0
 20 24  2  0
 24 21  1  0
 22 25  1  0
 22 26  2  0
 23 27  1  0
 24 28  1  0
 27 28  1  0
  4 29  2  0
  4 30  1  0
 31 30  1  0
 31 32  1  0
 32 33  1  0
 32 34  1  0
 33 35  1  0
 34 36  1  0
 34 37  1  0
 37 35  1  0
 35 38  1  0
 37 39  1  0
 40 38  1  0
 41 38  1  0
 42 40  2  0
 40 43  1  0
 44 41  2  0
 45 42  1  0
 43 46  2  0
 43 44  1  0
 47 45  2  0
 47 46  1  0
 46 48  1  0
  6 49  1  1
  7 50  1  0
  7 51  1  0
  8 52  1  0
  8 53  1  0
 10 54  1  0
 11 55  1  0
 12 56  1  0
 13 57  1  0
 16 58  1  0
 16 59  1  0
 18 60  1  0
 21 61  1  0
 27 62  1  0
 27 63  1  0
 31 64  1  0
 31 65  1  0
 32 66  1  0
 34 67  1  0
 35 68  1  0
 36 69  1  0
 37 70  1  0
 39 71  1  0
 41 72  1  0
 45 73  1  0
 48 74  1  0
 48 75  1  0
M  CHG  3   5  -1  22   1  25  -1
M  END
>  <EmbedRMS>  (109) 
0.0827055551782

$$$$

     RDKit          3D

 75 80  0  0  0  0  0  0  0  0999 V2000
   10.2834   43.7662   33.8257 C   0  0  0  0  0  0  0  0  0  0  0  0
   11.4102   43.5930   34.3752 O   0  0  0  0  0  0  0  0  0  0  0  0
    9.3637   42.7255   33.7349 O   0  0  0  0  0  0  0  0  0  0  0  0
    9.8905   41.2266   34.2934 P   0  0  0  0  0  0  0  0  0  0  0  0
   10.3743   41.4557   35.8827 O   0  0  0  0  0  0  0  0  0  0  0  0
    9.9546   45.0695   33.2036 C   0  0  1  0  0  0  0  0  0  0  0  0
   11.0274   46.0322   33.4757 N   0  0  0  0  0  0  0  0  0  0  0  0
    9.7466   44.8481   31.6877 C   0  0  0  0  0  0  0  0  0  0  0  0
    8.7923   45.8409   31.0845 C   0  0  0  0  0  0  0  0  0  0  0  0
    7.4054   45.6015   31.0991 C   0  0  0  0  0  0  0  0  0  0  0  0
    9.2824   46.9880   30.4423 C   0  0  0  0  0  0  0  0  0  0  0  0
    6.5264   46.5030   30.4838 C   0  0  0  0  0  0  0  0  0  0  0  0
    8.4032   47.8902   29.8315 C   0  0  0  0  0  0  0  0  0  0  0  0
    7.0143   47.6525   29.8474 C   0  0  0  0  0  0  0  0  0  0  0  0
    6.0933   48.5243   29.2487 O   0  0  0  0  0  0  0  0  0  0  0  0
    6.4440   49.7318   28.5781 C   0  0  0  0  0  0  0  0  0  0  0  0
    5.1935   50.4103   28.0858 C   0  0  0  0  0  0  0  0  0  0  0  0
    4.8156   50.2216   26.7357 C   0  0  0  0  0  0  0  0  0  0  0  0
    4.4001   51.2538   28.9323 C   0  0  0  0  0  0  0  0  0  0  0  0
    3.6884   50.8825   26.2656 C   0  0  0  0  0  0  0  0  0  0  0  0
    3.2695   51.9115   28.3913 C   0  0  0  0  0  0  0  0  0  0  0  0
    4.7281   51.4611   30.3185 N   0  0  0  0  0  0  0  0  0  0  0  0
    3.1405   50.8512   24.9976 O   0  0  0  0  0  0  0  0  0  0  0  0
    2.9500   51.6938   27.0573 C   0  0  0  0  0  0  0  0  0  0  0  0
    5.1936   50.4248   31.0937 O   0  0  0  0  0  0  0  0  0  0  0  0
    4.4360   52.5399   30.8750 O   0  0  0  0  0  0  0  0  0  0  0  0
    1.9830   51.6979   24.9950 C   0  0  0  0  0  0  0  0  0  0  0  0
    1.8979   52.2159   26.3296 O   0  0  0  0  0  0  0  0  0  0  0  0
    8.8122   40.1851   34.2128 O   0  0  0  0  0  0  0  0  0  0  0  0
   11.2403   40.7946   33.3668 O   0  0  0  0  0  0  0  0  0  0  0  0
   10.9126   40.6859   31.9954 C   0  0  0  0  0  0  0  0  0  0  0  0
   11.5175   39.3787   31.4405 C   0  0  0  0  0  0  0  0  0  0  0  0
   12.7490   39.0864   32.0752 O   0  0  0  0  0  0  0  0  0  0  0  0
   10.6061   38.1868   31.6656 C   0  0  0  0  0  0  0  0  0  0  0  0
   12.9355   37.6796   32.0292 C   0  0  0  0  0  0  0  0  0  0  0  0
    9.6399   38.0903   30.6471 O   0  0  0  0  0  0  0  0  0  0  0  0
   11.5765   37.0145   31.7044 C   0  0  0  0  0  0  0  0  0  0  0  0
   13.4858   37.2125   33.3244 N   0  0  0  0  0  0  0  0  0  0  0  0
   11.6101   36.3397   30.4673 O   0  0  0  0  0  0  0  0  0  0  0  0
   14.4805   36.3319   33.5729 C   0  0  0  0  0  0  0  0  0  0  0  0
   13.1144   37.6277   34.5694 C   0  0  0  0  0  0  0  0  0  0  0  0
   15.2076   35.6153   32.6741 N   0  0  0  0  0  0  0  0  0  0  0  0
   14.6760   36.2304   34.9184 C   0  0  0  0  0  0  0  0  0  0  0  0
   13.8219   37.0449   35.5786 N   0  0  0  0  0  0  0  0  0  0  0  0
   16.1641   34.7600   33.1548 C   0  0  0  0  0  0  0  0  0  0  0  0
   15.6528   35.3505   35.4132 C   0  0  0  0  0  0  0  0  0  0  0  0
   16.3795   34.6314   34.5043 N   0  0  0  0  0  0  0  0  0  0  0  0
   15.9002   35.1931   36.8091 N   0  0  0  0  0  0  0  0  0  0  0  0
    9.0121   45.4318   33.6715 H   0  0  0  0  0  0  0  0  0  0  0  0
   11.8906   45.7658   32.9470 H   0  0  0  0  0  0  0  0  0  0  0  0
   10.7260   46.9688   33.1214 H   0  0  0  0  0  0  0  0  0  0  0  0
   10.7230   44.8815   31.1557 H   0  0  0  0  0  0  0  0  0  0  0  0
    9.3414   43.8330   31.4763 H   0  0  0  0  0  0  0  0  0  0  0  0
    7.0083   44.7168   31.5814 H   0  0  0  0  0  0  0  0  0  0  0  0
   10.3470   47.1850   30.4115 H   0  0  0  0  0  0  0  0  0  0  0  0
    5.4617   46.3073   30.5021 H   0  0  0  0  0  0  0  0  0  0  0  0
    8.8142   48.7652   29.3471 H   0  0  0  0  0  0  0  0  0  0  0  0
    7.1139   49.4925   27.7230 H   0  0  0  0  0  0  0  0  0  0  0  0
    7.0033   50.4091   29.2584 H   0  0  0  0  0  0  0  0  0  0  0  0
    5.3865   49.5858   26.0706 H   0  0  0  0  0  0  0  0  0  0  0  0
    2.6486   52.5588   28.9972 H   0  0  0  0  0  0  0  0  0  0  0  0
    2.1159   52.5278   24.2696 H   0  0  0  0  0  0  0  0  0  0  0  0
    1.0748   51.1062   24.7550 H   0  0  0  0  0  0  0  0  0  0  0  0
    9.8215   40.7200   31.7636 H   0  0  0  0  0  0  0  0  0  0  0  0
   11.3803   41.5437   31.4663 H   0  0  0  0  0  0  0  0  0  0  0  0
   11.6998   39.5041   30.3482 H   0  0  0  0  0  0  0  0  0  0  0  0
   10.1085   38.2767   32.6603 H   0  0  0  0  0  0  0  0  0  0  0  0
   13.6679   37.4520   31.2229 H   0  0  0  0  0  0  0  0  0  0  0  0
    9.0016   37.3868   30.9349 H   0  0  0  0  0  0  0  0  0  0  0  0
   11.2666   36.3062   32.5084 H   0  0  0  0  0  0  0  0  0  0  0  0
   12.1389   35.5126   30.6150 H   0  0  0  0  0  0  0  0  0  0  0  0
   12.3300   38.3529   34.7449 H   0  0  0  0  0  0  0  0  0  0  0  0
   16.7560   34.1779   32.4620 H   0  0  0  0  0  0  0  0  0  0  0  0
   16.6347   34.5298   37.1416 H   0  0  0  0  0  0  0  0  0  0  0  0
   15.3534   35.7359   37.5140 H   0  0  0  0  0  0  0  0  0  0  0  0
  1  2  2  0
  1  3  1  0
  3  4  1  0
  4  5  1  0
  6  1  1  0
  7  6  1  0
  6  8  1  0
  8  9  1  0
  9 10  2  0
 11  9  1  0
 10 12  1  0
 13 11  2  0
 12 14  2  0
 14 13  1  0
 14 15  1  0
 15 16  1  0
 16 17  1  0
 17 18  2  0
 19 17  1  0
 18 20  1  0
 21 19  2  0
 19 22  1  0
 20 23  1  0
 20 24  2  0
 24 21  1  0
 22 25  1  0
 22 26  2  0
 23 27  1  0
 24 28  1  0
 27 28  1  0
  4 29  2  0
  4 30  1  0
 31 30  1  0
 31 32  1  0
 32 33  1  0
 32 34  1  0
 33 35  1  0
 34 36  1  0
 34 37  1  0
 37 35  1  0
 35 38  1  0
 37 39  1  0
 40 38  1  0
 41 38  1  0
 42 40  2  0
 40 43  1  0
 44 41  2  0
 45 42  1  0
 43 46  2  0
 43 44  1  0
 47 45  2  0
 47 46  1  0
 46 48  1  0
  6 49  1  1
  7 50  1  0
  7 51  1  0
  8 52  1  0
  8 53  1  0
 10 54  1  0
 11 55  1  0
 12 56  1  0
 13 57  1  0
 16 58  1  0
 16 59  1  0
 18 60  1  0
 21 61  1  0
 27 62  1  0
 27 63  1  0
 31 64  1  0
 31 65  1  0
 32 66  1  0
 34 67  1  0
 35 68  1  0
 36 69  1  0
 37 70  1  0
 39 71  1  0
 41 72  1  0
 45 73  1  0
 48 74  1  0
 48 75  1  0
M  CHG  3   5  -1  22   1  25  -1
M  END
>  <EmbedRMS>  (110) 
0.0823990892424

$$$$

     RDKit          3D

 75 80  0  0  0  0  0  0  0  0999 V2000
   10.2805   43.7664   33.8249 C   0  0  0  0  0  0  0  0  0  0  0  0
   11.4111   43.5919   34.3667 O   0  0  0  0  0  0  0  0  0  0  0  0
    9.3622   42.7247   33.7342 O   0  0  0  0  0  0  0  0  0  0  0  0
    9.8904   41.2264   34.2936 P   0  0  0  0  0  0  0  0  0  0  0  0
   10.3731   41.4565   35.8831 O   0  0  0  0  0  0  0  0  0  0  0  0
    9.9459   45.0736   33.2113 C   0  0  1  0  0  0  0  0  0  0  0  0
   11.0265   46.0293   33.4710 N   0  0  0  0  0  0  0  0  0  0  0  0
    9.7540   44.8543   31.6950 C   0  0  0  0  0  0  0  0  0  0  0  0
    8.7957   45.8414   31.0851 C   0  0  0  0  0  0  0  0  0  0  0  0
    7.4090   45.5997   31.1006 C   0  0  0  0  0  0  0  0  0  0  0  0
    9.2825   46.9876   30.4389 C   0  0  0  0  0  0  0  0  0  0  0  0
    6.5261   46.4982   30.4853 C   0  0  0  0  0  0  0  0  0  0  0  0
    8.3997   47.8868   29.8299 C   0  0  0  0  0  0  0  0  0  0  0  0
    7.0181   47.6560   29.8491 C   0  0  0  0  0  0  0  0  0  0  0  0
    6.1792   48.5950   29.2282 O   0  0  0  0  0  0  0  0  0  0  0  0
    4.7524   48.5989   29.2936 C   0  0  0  0  0  0  0  0  0  0  0  0
    4.2754   48.9189   30.6916 C   0  0  0  0  0  0  0  0  0  0  0  0
    3.3641   48.0312   31.3107 C   0  0  0  0  0  0  0  0  0  0  0  0
    4.7500   50.0628   31.4160 C   0  0  0  0  0  0  0  0  0  0  0  0
    2.9777   48.2853   32.6199 C   0  0  0  0  0  0  0  0  0  0  0  0
    4.3296   50.2616   32.7524 C   0  0  0  0  0  0  0  0  0  0  0  0
    5.6566   51.0109   30.8246 N   0  0  0  0  0  0  0  0  0  0  0  0
    2.1163   47.5572   33.4179 O   0  0  0  0  0  0  0  0  0  0  0  0
    3.4425   49.3510   33.3113 C   0  0  0  0  0  0  0  0  0  0  0  0
    5.5085   51.4005   29.5140 O   0  0  0  0  0  0  0  0  0  0  0  0
    6.4848   51.6132   31.5388 O   0  0  0  0  0  0  0  0  0  0  0  0
    2.0359   48.2100   34.6923 C   0  0  0  0  0  0  0  0  0  0  0  0
    2.8977   49.3509   34.5810 O   0  0  0  0  0  0  0  0  0  0  0  0
    8.8128   40.1842   34.2124 O   0  0  0  0  0  0  0  0  0  0  0  0
   11.2419   40.7944   33.3695 O   0  0  0  0  0  0  0  0  0  0  0  0
   10.9185   40.6911   31.9969 C   0  0  0  0  0  0  0  0  0  0  0  0
   11.5172   39.3814   31.4407 C   0  0  0  0  0  0  0  0  0  0  0  0
   12.7492   39.0856   32.0729 O   0  0  0  0  0  0  0  0  0  0  0  0
   10.6023   38.1908   31.6665 C   0  0  0  0  0  0  0  0  0  0  0  0
   12.9319   37.6781   32.0281 C   0  0  0  0  0  0  0  0  0  0  0  0
    9.6392   38.0797   30.6452 O   0  0  0  0  0  0  0  0  0  0  0  0
   11.5715   37.0165   31.7056 C   0  0  0  0  0  0  0  0  0  0  0  0
   13.4847   37.2121   33.3235 N   0  0  0  0  0  0  0  0  0  0  0  0
   11.6187   36.3384   30.4695 O   0  0  0  0  0  0  0  0  0  0  0  0
   14.4801   36.3321   33.5724 C   0  0  0  0  0  0  0  0  0  0  0  0
   13.1137   37.6275   34.5688 C   0  0  0  0  0  0  0  0  0  0  0  0
   15.2073   35.6153   32.6738 N   0  0  0  0  0  0  0  0  0  0  0  0
   14.6759   36.2308   34.9179 C   0  0  0  0  0  0  0  0  0  0  0  0
   13.8216   37.0452   35.5781 N   0  0  0  0  0  0  0  0  0  0  0  0
   16.1640   34.7602   33.1546 C   0  0  0  0  0  0  0  0  0  0  0  0
   15.6526   35.3508   35.4129 C   0  0  0  0  0  0  0  0  0  0  0  0
   16.3794   34.6317   34.5041 N   0  0  0  0  0  0  0  0  0  0  0  0
   15.8999   35.1935   36.8088 N   0  0  0  0  0  0  0  0  0  0  0  0
    8.9994   45.4380   33.6722 H   0  0  0  0  0  0  0  0  0  0  0  0
   11.0500   46.2277   34.4984 H   0  0  0  0  0  0  0  0  0  0  0  0
   10.7762   46.9370   33.0161 H   0  0  0  0  0  0  0  0  0  0  0  0
    9.3646   43.8355   31.4710 H   0  0  0  0  0  0  0  0  0  0  0  0
   10.7412   44.9081   31.1837 H   0  0  0  0  0  0  0  0  0  0  0  0
    7.0151   44.7135   31.5829 H   0  0  0  0  0  0  0  0  0  0  0  0
   10.3463   47.1873   30.4043 H   0  0  0  0  0  0  0  0  0  0  0  0
    5.4695   46.2767   30.5065 H   0  0  0  0  0  0  0  0  0  0  0  0
    8.7914   48.7697   29.3407 H   0  0  0  0  0  0  0  0  0  0  0  0
    4.3630   49.3683   28.5963 H   0  0  0  0  0  0  0  0  0  0  0  0
    4.3590   47.6250   28.9298 H   0  0  0  0  0  0  0  0  0  0  0  0
    2.9803   47.1601   30.7948 H   0  0  0  0  0  0  0  0  0  0  0  0
    4.6713   51.1094   33.3320 H   0  0  0  0  0  0  0  0  0  0  0  0
    2.3982   47.5329   35.4941 H   0  0  0  0  0  0  0  0  0  0  0  0
    0.9934   48.5353   34.8922 H   0  0  0  0  0  0  0  0  0  0  0  0
   11.3966   41.5459   31.4726 H   0  0  0  0  0  0  0  0  0  0  0  0
    9.8298   40.7409   31.7611 H   0  0  0  0  0  0  0  0  0  0  0  0
   11.6975   39.5066   30.3481 H   0  0  0  0  0  0  0  0  0  0  0  0
   10.1077   38.2647   32.6646 H   0  0  0  0  0  0  0  0  0  0  0  0
   13.6621   37.4468   31.2209 H   0  0  0  0  0  0  0  0  0  0  0  0
    8.8974   38.6942   30.8832 H   0  0  0  0  0  0  0  0  0  0  0  0
   11.2806   36.3073   32.5170 H   0  0  0  0  0  0  0  0  0  0  0  0
   10.8493   35.7110   30.4586 H   0  0  0  0  0  0  0  0  0  0  0  0
   12.3290   38.3524   34.7444 H   0  0  0  0  0  0  0  0  0  0  0  0
   16.7559   34.1780   32.4619 H   0  0  0  0  0  0  0  0  0  0  0  0
   15.3531   35.7362   37.5137 H   0  0  0  0  0  0  0  0  0  0  0  0
   16.6344   34.5301   37.1414 H   0  0  0  0  0  0  0  0  0  0  0  0
  1  2  2  0
  1  3  1  0
  3  4  1  0
  4  5  1  0
  6  1  1  0
  7  6  1  0
  6  8  1  0
  8  9  1  0
  9 10  2  0
 11  9  1  0
 10 12  1  0
 13 11  2  0
 12 14  2  0
 14 13  1  0
 14 15  1  0
 15 16  1  0
 16 17  1  0
 17 18  2  0
 19 17  1  0
 18 20  1  0
 21 19  2  0
 19 22  1  0
 20 23  1  0
 20 24  2  0
 24 21  1  0
 22 25  1  0
 22 26  2  0
 23 27  1  0
 24 28  1  0
 27 28  1  0
  4 29  2  0
  4 30  1  0
 31 30  1  0
 31 32  1  0
 32 33  1  0
 32 34  1  0
 33 35  1  0
 34 36  1  0
 34 37  1  0
 37 35  1  0
 35 38  1  0
 37 39  1  0
 40 38  1  0
 41 38  1  0
 42 40  2  0
 40 43  1  0
 44 41  2  0
 45 42  1  0
 43 46  2  0
 43 44  1  0
 47 45  2  0
 47 46  1  0
 46 48  1  0
  6 49  1  1
  7 50  1  0
  7 51  1  0
  8 52  1  0
  8 53  1  0
 10 54  1  0
 11 55  1  0
 12 56  1  0
 13 57  1  0
 16 58  1  0
 16 59  1  0
 18 60  1  0
 21 61  1  0
 27 62  1  0
 27 63  1  0
 31 64  1  0
 31 65  1  0
 32 66  1  0
 34 67  1  0
 35 68  1  0
 36 69  1  0
 37 70  1  0
 39 71  1  0
 41 72  1  0
 45 73  1  0
 48 74  1  0
 48 75  1  0
M  CHG  3   5  -1  22   1  25  -1
M  END
>  <EmbedRMS>  (111) 
0.0827608395251

$$$$

     RDKit          3D

 75 80  0  0  0  0  0  0  0  0999 V2000
   10.2837   43.7628   33.8277 C   0  0  0  0  0  0  0  0  0  0  0  0
   11.4103   43.5865   34.3765 O   0  0  0  0  0  0  0  0  0  0  0  0
    9.3630   42.7237   33.7354 O   0  0  0  0  0  0  0  0  0  0  0  0
    9.8900   41.2248   34.2933 P   0  0  0  0  0  0  0  0  0  0  0  0
   10.3734   41.4541   35.8828 O   0  0  0  0  0  0  0  0  0  0  0  0
    9.9546   45.0700   33.2063 C   0  0  1  0  0  0  0  0  0  0  0  0
   11.0193   46.0483   33.4569 N   0  0  0  0  0  0  0  0  0  0  0  0
    9.7504   44.8508   31.6923 C   0  0  0  0  0  0  0  0  0  0  0  0
    8.7945   45.8416   31.0867 C   0  0  0  0  0  0  0  0  0  0  0  0
    7.4079   45.5994   31.0989 C   0  0  0  0  0  0  0  0  0  0  0  0
    9.2828   46.9883   30.4429 C   0  0  0  0  0  0  0  0  0  0  0  0
    6.5262   46.4986   30.4836 C   0  0  0  0  0  0  0  0  0  0  0  0
    8.4009   47.8876   29.8321 C   0  0  0  0  0  0  0  0  0  0  0  0
    7.0189   47.6581   29.8516 C   0  0  0  0  0  0  0  0  0  0  0  0
    6.1796   48.6031   29.2401 O   0  0  0  0  0  0  0  0  0  0  0  0
    4.7546   48.6287   29.3389 C   0  0  0  0  0  0  0  0  0  0  0  0
    4.3153   48.9293   30.7542 C   0  0  0  0  0  0  0  0  0  0  0  0
    3.4143   48.0372   31.3819 C   0  0  0  0  0  0  0  0  0  0  0  0
    4.8200   50.0558   31.4874 C   0  0  0  0  0  0  0  0  0  0  0  0
    3.0710   48.2664   32.7076 C   0  0  0  0  0  0  0  0  0  0  0  0
    4.4442   50.2283   32.8399 C   0  0  0  0  0  0  0  0  0  0  0  0
    5.7161   51.0119   30.8931 N   0  0  0  0  0  0  0  0  0  0  0  0
    2.2301   47.5274   33.5169 O   0  0  0  0  0  0  0  0  0  0  0  0
    3.5675   49.3126   33.4070 C   0  0  0  0  0  0  0  0  0  0  0  0
    6.6338   51.6733   31.6774 O   0  0  0  0  0  0  0  0  0  0  0  0
    5.5686   51.3740   29.7084 O   0  0  0  0  0  0  0  0  0  0  0  0
    2.1986   48.1506   34.8081 C   0  0  0  0  0  0  0  0  0  0  0  0
    3.0651   49.2875   34.6937 O   0  0  0  0  0  0  0  0  0  0  0  0
    8.8117   40.1834   34.2121 O   0  0  0  0  0  0  0  0  0  0  0  0
   11.2405   40.7939   33.3672 O   0  0  0  0  0  0  0  0  0  0  0  0
   10.9138   40.6865   31.9955 C   0  0  0  0  0  0  0  0  0  0  0  0
   11.5169   39.3788   31.4403 C   0  0  0  0  0  0  0  0  0  0  0  0
   12.7486   39.0851   32.0736 O   0  0  0  0  0  0  0  0  0  0  0  0
   10.6039   38.1885   31.6668 C   0  0  0  0  0  0  0  0  0  0  0  0
   12.9328   37.6777   32.0286 C   0  0  0  0  0  0  0  0  0  0  0  0
    9.6372   38.0935   30.6483 O   0  0  0  0  0  0  0  0  0  0  0  0
   11.5736   37.0143   31.7056 C   0  0  0  0  0  0  0  0  0  0  0  0
   13.4853   37.2120   33.3240 N   0  0  0  0  0  0  0  0  0  0  0  0
   11.6209   36.3381   30.4685 O   0  0  0  0  0  0  0  0  0  0  0  0
   14.4803   36.3319   33.5728 C   0  0  0  0  0  0  0  0  0  0  0  0
   13.1140   37.6274   34.5690 C   0  0  0  0  0  0  0  0  0  0  0  0
   15.2072   35.6149   32.6740 N   0  0  0  0  0  0  0  0  0  0  0  0
   14.6760   36.2306   34.9183 C   0  0  0  0  0  0  0  0  0  0  0  0
   13.8217   37.0451   35.5784 N   0  0  0  0  0  0  0  0  0  0  0  0
   16.1641   34.7599   33.1547 C   0  0  0  0  0  0  0  0  0  0  0  0
   15.6528   35.3507   35.4131 C   0  0  0  0  0  0  0  0  0  0  0  0
   16.3797   34.6316   34.5042 N   0  0  0  0  0  0  0  0  0  0  0  0
   15.9000   35.1932   36.8090 N   0  0  0  0  0  0  0  0  0  0  0  0
    9.0094   45.4346   33.6667 H   0  0  0  0  0  0  0  0  0  0  0  0
   11.9344   45.6935   33.0927 H   0  0  0  0  0  0  0  0  0  0  0  0
   11.1127   46.2001   34.4881 H   0  0  0  0  0  0  0  0  0  0  0  0
   10.7308   44.8927   31.1679 H   0  0  0  0  0  0  0  0  0  0  0  0
    9.3518   43.8340   31.4761 H   0  0  0  0  0  0  0  0  0  0  0  0
    7.0131   44.7117   31.5776 H   0  0  0  0  0  0  0  0  0  0  0  0
   10.3469   47.1882   30.4130 H   0  0  0  0  0  0  0  0  0  0  0  0
    5.4698   46.2759   30.5005 H   0  0  0  0  0  0  0  0  0  0  0  0
    8.7933   48.7720   29.3461 H   0  0  0  0  0  0  0  0  0  0  0  0
    4.3627   49.4182   28.6655 H   0  0  0  0  0  0  0  0  0  0  0  0
    4.3377   47.6676   28.9670 H   0  0  0  0  0  0  0  0  0  0  0  0
    3.0082   47.1797   30.8601 H   0  0  0  0  0  0  0  0  0  0  0  0
    4.8119   51.0602   33.4268 H   0  0  0  0  0  0  0  0  0  0  0  0
    2.5829   47.4522   35.5804 H   0  0  0  0  0  0  0  0  0  0  0  0
    1.1661   48.4785   35.0518 H   0  0  0  0  0  0  0  0  0  0  0  0
    9.8230   40.7222   31.7630 H   0  0  0  0  0  0  0  0  0  0  0  0
   11.3834   41.5438   31.4674 H   0  0  0  0  0  0  0  0  0  0  0  0
   11.6982   39.5041   30.3477 H   0  0  0  0  0  0  0  0  0  0  0  0
   10.1086   38.2789   32.6625 H   0  0  0  0  0  0  0  0  0  0  0  0
   13.6635   37.4476   31.2216 H   0  0  0  0  0  0  0  0  0  0  0  0
    8.9761   37.4189   30.9534 H   0  0  0  0  0  0  0  0  0  0  0  0
   11.2815   36.3060   32.5173 H   0  0  0  0  0  0  0  0  0  0  0  0
   10.8658   35.6936   30.4653 H   0  0  0  0  0  0  0  0  0  0  0  0
   12.3293   38.3523   34.7441 H   0  0  0  0  0  0  0  0  0  0  0  0
   16.7559   34.1777   32.4620 H   0  0  0  0  0  0  0  0  0  0  0  0
   16.6347   34.5300   37.1417 H   0  0  0  0  0  0  0  0  0  0  0  0
   15.3533   35.7363   37.5136 H   0  0  0  0  0  0  0  0  0  0  0  0
  1  2  2  0
  1  3  1  0
  3  4  1  0
  4  5  1  0
  6  1  1  0
  7  6  1  0
  6  8  1  0
  8  9  1  0
  9 10  2  0
 11  9  1  0
 10 12  1  0
 13 11  2  0
 12 14  2  0
 14 13  1  0
 14 15  1  0
 15 16  1  0
 16 17  1  0
 17 18  2  0
 19 17  1  0
 18 20  1  0
 21 19  2  0
 19 22  1  0
 20 23  1  0
 20 24  2  0
 24 21  1  0
 22 25  1  0
 22 26  2  0
 23 27  1  0
 24 28  1  0
 27 28  1  0
  4 29  2  0
  4 30  1  0
 31 30  1  0
 31 32  1  0
 32 33  1  0
 32 34  1  0
 33 35  1  0
 34 36  1  0
 34 37  1  0
 37 35  1  0
 35 38  1  0
 37 39  1  0
 40 38  1  0
 41 38  1  0
 42 40  2  0
 40 43  1  0
 44 41  2  0
 45 42  1  0
 43 46  2  0
 43 44  1  0
 47 45  2  0
 47 46  1  0
 46 48  1  0
  6 49  1  1
  7 50  1  0
  7 51  1  0
  8 52  1  0
  8 53  1  0
 10 54  1  0
 11 55  1  0
 12 56  1  0
 13 57  1  0
 16 58  1  0
 16 59  1  0
 18 60  1  0
 21 61  1  0
 27 62  1  0
 27 63  1  0
 31 64  1  0
 31 65  1  0
 32 66  1  0
 34 67  1  0
 35 68  1  0
 36 69  1  0
 37 70  1  0
 39 71  1  0
 41 72  1  0
 45 73  1  0
 48 74  1  0
 48 75  1  0
M  CHG  3   5  -1  22   1  25  -1
M  END
>  <EmbedRMS>  (112) 
0.0834635494253

$$$$

     RDKit          3D

 75 80  0  0  0  0  0  0  0  0999 V2000
   10.2835   43.7661   33.8257 C   0  0  0  0  0  0  0  0  0  0  0  0
   11.4102   43.5929   34.3752 O   0  0  0  0  0  0  0  0  0  0  0  0
    9.3637   42.7255   33.7350 O   0  0  0  0  0  0  0  0  0  0  0  0
    9.8902   41.2267   34.2942 P   0  0  0  0  0  0  0  0  0  0  0  0
   10.3736   41.4560   35.8836 O   0  0  0  0  0  0  0  0  0  0  0  0
    9.9547   45.0694   33.2036 C   0  0  1  0  0  0  0  0  0  0  0  0
   11.0275   46.0321   33.4756 N   0  0  0  0  0  0  0  0  0  0  0  0
    9.7464   44.8481   31.6878 C   0  0  0  0  0  0  0  0  0  0  0  0
    8.7922   45.8412   31.0849 C   0  0  0  0  0  0  0  0  0  0  0  0
    7.4055   45.6016   31.0990 C   0  0  0  0  0  0  0  0  0  0  0  0
    9.2824   46.9876   30.4421 C   0  0  0  0  0  0  0  0  0  0  0  0
    6.5266   46.5027   30.4831 C   0  0  0  0  0  0  0  0  0  0  0  0
    8.4035   47.8898   29.8313 C   0  0  0  0  0  0  0  0  0  0  0  0
    7.0138   47.6534   29.8481 C   0  0  0  0  0  0  0  0  0  0  0  0
    6.0895   48.5208   29.2408 O   0  0  0  0  0  0  0  0  0  0  0  0
    6.4108   49.7778   28.6397 C   0  0  0  0  0  0  0  0  0  0  0  0
    6.9597   49.6469   27.2300 C   0  0  0  0  0  0  0  0  0  0  0  0
    7.1340   48.3669   26.6409 C   0  0  0  0  0  0  0  0  0  0  0  0
    7.2437   50.8174   26.4479 C   0  0  0  0  0  0  0  0  0  0  0  0
    7.5916   48.2929   25.3323 C   0  0  0  0  0  0  0  0  0  0  0  0
    7.6948   50.6760   25.1146 C   0  0  0  0  0  0  0  0  0  0  0  0
    7.0491   52.1435   26.9715 N   0  0  0  0  0  0  0  0  0  0  0  0
    7.8358   47.1658   24.5713 O   0  0  0  0  0  0  0  0  0  0  0  0
    7.8604   49.3978   24.6018 C   0  0  0  0  0  0  0  0  0  0  0  0
    7.4755   52.4687   28.2376 O   0  0  0  0  0  0  0  0  0  0  0  0
    6.6625   53.0600   26.2169 O   0  0  0  0  0  0  0  0  0  0  0  0
    8.2901   47.5936   23.2802 C   0  0  0  0  0  0  0  0  0  0  0  0
    8.2904   49.0263   23.3424 O   0  0  0  0  0  0  0  0  0  0  0  0
    8.8121   40.1850   34.2131 O   0  0  0  0  0  0  0  0  0  0  0  0
   11.2404   40.7941   33.3690 O   0  0  0  0  0  0  0  0  0  0  0  0
   10.9143   40.6898   31.9972 C   0  0  0  0  0  0  0  0  0  0  0  0
   11.5261   39.3885   31.4376 C   0  0  0  0  0  0  0  0  0  0  0  0
   12.7504   39.0888   32.0816 O   0  0  0  0  0  0  0  0  0  0  0  0
   10.6115   38.1910   31.6460 C   0  0  0  0  0  0  0  0  0  0  0  0
   12.9357   37.6812   32.0303 C   0  0  0  0  0  0  0  0  0  0  0  0
    9.6145   38.0859   30.6534 O   0  0  0  0  0  0  0  0  0  0  0  0
   11.5769   37.0148   31.7012 C   0  0  0  0  0  0  0  0  0  0  0  0
   13.4849   37.2112   33.3247 N   0  0  0  0  0  0  0  0  0  0  0  0
   11.6193   36.3261   30.4724 O   0  0  0  0  0  0  0  0  0  0  0  0
   14.4802   36.3313   33.5730 C   0  0  0  0  0  0  0  0  0  0  0  0
   13.1141   37.6268   34.5698 C   0  0  0  0  0  0  0  0  0  0  0  0
   15.2075   35.6151   32.6741 N   0  0  0  0  0  0  0  0  0  0  0  0
   14.6761   36.2300   34.9184 C   0  0  0  0  0  0  0  0  0  0  0  0
   13.8220   37.0445   35.5789 N   0  0  0  0  0  0  0  0  0  0  0  0
   16.1642   34.7600   33.1547 C   0  0  0  0  0  0  0  0  0  0  0  0
   15.6529   35.3503   35.4131 C   0  0  0  0  0  0  0  0  0  0  0  0
   16.3798   34.6314   34.5042 N   0  0  0  0  0  0  0  0  0  0  0  0
   15.9004   35.1930   36.8090 N   0  0  0  0  0  0  0  0  0  0  0  0
    9.0122   45.4317   33.6716 H   0  0  0  0  0  0  0  0  0  0  0  0
   10.7261   46.9687   33.1212 H   0  0  0  0  0  0  0  0  0  0  0  0
   11.8907   45.7657   32.9469 H   0  0  0  0  0  0  0  0  0  0  0  0
   10.7227   44.8813   31.1556 H   0  0  0  0  0  0  0  0  0  0  0  0
    9.3410   43.8331   31.4764 H   0  0  0  0  0  0  0  0  0  0  0  0
    7.0083   44.7164   31.5804 H   0  0  0  0  0  0  0  0  0  0  0  0
   10.3473   47.1825   30.4079 H   0  0  0  0  0  0  0  0  0  0  0  0
    5.4623   46.3052   30.4989 H   0  0  0  0  0  0  0  0  0  0  0  0
    8.8180   48.7560   29.3350 H   0  0  0  0  0  0  0  0  0  0  0  0
    5.4774   50.3769   28.5911 H   0  0  0  0  0  0  0  0  0  0  0  0
    7.1221   50.3204   29.2944 H   0  0  0  0  0  0  0  0  0  0  0  0
    6.9095   47.4496   27.1656 H   0  0  0  0  0  0  0  0  0  0  0  0
    7.9171   51.5387   24.4998 H   0  0  0  0  0  0  0  0  0  0  0  0
    7.5909   47.2445   22.4918 H   0  0  0  0  0  0  0  0  0  0  0  0
    9.3176   47.2181   23.0906 H   0  0  0  0  0  0  0  0  0  0  0  0
   11.3779   41.5526   31.4727 H   0  0  0  0  0  0  0  0  0  0  0  0
    9.8233   40.7191   31.7647 H   0  0  0  0  0  0  0  0  0  0  0  0
   11.7283   39.5312   30.3515 H   0  0  0  0  0  0  0  0  0  0  0  0
   10.1127   38.2734   32.6376 H   0  0  0  0  0  0  0  0  0  0  0  0
   13.6692   37.4566   31.2242 H   0  0  0  0  0  0  0  0  0  0  0  0
   10.0533   38.1118   29.7636 H   0  0  0  0  0  0  0  0  0  0  0  0
   11.2607   36.3148   32.5102 H   0  0  0  0  0  0  0  0  0  0  0  0
   12.1496   35.5023   30.6324 H   0  0  0  0  0  0  0  0  0  0  0  0
   12.3301   38.3524   34.7455 H   0  0  0  0  0  0  0  0  0  0  0  0
   16.7563   34.1781   32.4619 H   0  0  0  0  0  0  0  0  0  0  0  0
   16.6351   34.5299   37.1416 H   0  0  0  0  0  0  0  0  0  0  0  0
   15.3536   35.7357   37.5139 H   0  0  0  0  0  0  0  0  0  0  0  0
  1  2  2  0
  1  3  1  0
  3  4  1  0
  4  5  1  0
  6  1  1  0
  7  6  1  0
  6  8  1  0
  8  9  1  0
  9 10  2  0
 11  9  1  0
 10 12  1  0
 13 11  2  0
 12 14  2  0
 14 13  1  0
 14 15  1  0
 15 16  1  0
 16 17  1  0
 17 18  2  0
 19 17  1  0
 18 20  1  0
 21 19  2  0
 19 22  1  0
 20 23  1  0
 20 24  2  0
 24 21  1  0
 22 25  1  0
 22 26  2  0
 23 27  1  0
 24 28  1  0
 27 28  1  0
  4 29  2  0
  4 30  1  0
 31 30  1  0
 31 32  1  0
 32 33  1  0
 32 34  1  0
 33 35  1  0
 34 36  1  0
 34 37  1  0
 37 35  1  0
 35 38  1  0
 37 39  1  0
 40 38  1  0
 41 38  1  0
 42 40  2  0
 40 43  1  0
 44 41  2  0
 45 42  1  0
 43 46  2  0
 43 44  1  0
 47 45  2  0
 47 46  1  0
 46 48  1  0
  6 49  1  1
  7 50  1  0
  7 51  1  0
  8 52  1  0
  8 53  1  0
 10 54  1  0
 11 55  1  0
 12 56  1  0
 13 57  1  0
 16 58  1  0
 16 59  1  0
 18 60  1  0
 21 61  1  0
 27 62  1  0
 27 63  1  0
 31 64  1  0
 31 65  1  0
 32 66  1  0
 34 67  1  0
 35 68  1  0
 36 69  1  0
 37 70  1  0
 39 71  1  0
 41 72  1  0
 45 73  1  0
 48 74  1  0
 48 75  1  0
M  CHG  3   5  -1  22   1  25  -1
M  END
>  <EmbedRMS>  (113) 
0.0816158458703

$$$$

     RDKit          3D

 75 80  0  0  0  0  0  0  0  0999 V2000
   10.2837   43.7627   33.8276 C   0  0  0  0  0  0  0  0  0  0  0  0
   11.4102   43.5864   34.3766 O   0  0  0  0  0  0  0  0  0  0  0  0
    9.3628   42.7238   33.7358 O   0  0  0  0  0  0  0  0  0  0  0  0
    9.8893   41.2251   34.2943 P   0  0  0  0  0  0  0  0  0  0  0  0
   10.3731   41.4545   35.8837 O   0  0  0  0  0  0  0  0  0  0  0  0
    9.9547   45.0699   33.2061 C   0  0  1  0  0  0  0  0  0  0  0  0
   11.0197   46.0481   33.4566 N   0  0  0  0  0  0  0  0  0  0  0  0
    9.7503   44.8505   31.6921 C   0  0  0  0  0  0  0  0  0  0  0  0
    8.7943   45.8410   31.0859 C   0  0  0  0  0  0  0  0  0  0  0  0
    7.4075   45.6014   31.1009 C   0  0  0  0  0  0  0  0  0  0  0  0
    9.2829   46.9894   30.4457 C   0  0  0  0  0  0  0  0  0  0  0  0
    6.5282   46.5033   30.4864 C   0  0  0  0  0  0  0  0  0  0  0  0
    8.4030   47.8910   29.8348 C   0  0  0  0  0  0  0  0  0  0  0  0
    7.0154   47.6496   29.8431 C   0  0  0  0  0  0  0  0  0  0  0  0
    6.0885   48.5151   29.2415 O   0  0  0  0  0  0  0  0  0  0  0  0
    6.3921   49.5340   28.2875 C   0  0  0  0  0  0  0  0  0  0  0  0
    6.7779   48.9281   26.9579 C   0  0  0  0  0  0  0  0  0  0  0  0
    8.1294   49.0154   26.5459 C   0  0  0  0  0  0  0  0  0  0  0  0
    5.8121   48.3223   26.0838 C   0  0  0  0  0  0  0  0  0  0  0  0
    8.4840   48.4837   25.3139 C   0  0  0  0  0  0  0  0  0  0  0  0
    6.2352   47.8077   24.8346 C   0  0  0  0  0  0  0  0  0  0  0  0
    4.4112   48.2643   26.4140 N   0  0  0  0  0  0  0  0  0  0  0  0
    9.7311   48.4496   24.7201 O   0  0  0  0  0  0  0  0  0  0  0  0
    7.5777   47.9037   24.4953 C   0  0  0  0  0  0  0  0  0  0  0  0
    3.9941   47.9946   27.6956 O   0  0  0  0  0  0  0  0  0  0  0  0
    3.5554   48.3065   25.5058 O   0  0  0  0  0  0  0  0  0  0  0  0
    9.5972   47.8029   23.4471 C   0  0  0  0  0  0  0  0  0  0  0  0
    8.2059   47.4713   23.3432 O   0  0  0  0  0  0  0  0  0  0  0  0
    8.8113   40.1835   34.2130 O   0  0  0  0  0  0  0  0  0  0  0  0
   11.2397   40.7943   33.3684 O   0  0  0  0  0  0  0  0  0  0  0  0
   10.9125   40.6875   31.9969 C   0  0  0  0  0  0  0  0  0  0  0  0
   11.5169   39.3810   31.4420 C   0  0  0  0  0  0  0  0  0  0  0  0
   12.7500   39.0881   32.0758 O   0  0  0  0  0  0  0  0  0  0  0  0
   10.6043   38.1892   31.6658 C   0  0  0  0  0  0  0  0  0  0  0  0
   12.9395   37.6813   32.0279 C   0  0  0  0  0  0  0  0  0  0  0  0
    9.6353   38.0951   30.6499 O   0  0  0  0  0  0  0  0  0  0  0  0
   11.5804   37.0191   31.6934 C   0  0  0  0  0  0  0  0  0  0  0  0
   13.4851   37.2119   33.3244 N   0  0  0  0  0  0  0  0  0  0  0  0
   11.6118   36.3188   30.4673 O   0  0  0  0  0  0  0  0  0  0  0  0
   14.4801   36.3316   33.5732 C   0  0  0  0  0  0  0  0  0  0  0  0
   13.1139   37.6277   34.5692 C   0  0  0  0  0  0  0  0  0  0  0  0
   15.2076   35.6154   32.6744 N   0  0  0  0  0  0  0  0  0  0  0  0
   14.6756   36.2303   34.9186 C   0  0  0  0  0  0  0  0  0  0  0  0
   13.8215   37.0451   35.5786 N   0  0  0  0  0  0  0  0  0  0  0  0
   16.1642   34.7602   33.1551 C   0  0  0  0  0  0  0  0  0  0  0  0
   15.6526   35.3505   35.4134 C   0  0  0  0  0  0  0  0  0  0  0  0
   16.3796   34.6316   34.5045 N   0  0  0  0  0  0  0  0  0  0  0  0
   15.9001   35.1933   36.8093 N   0  0  0  0  0  0  0  0  0  0  0  0
    9.0097   45.4350   33.6666 H   0  0  0  0  0  0  0  0  0  0  0  0
   11.1133   46.1993   34.4879 H   0  0  0  0  0  0  0  0  0  0  0  0
   11.9347   45.6932   33.0923 H   0  0  0  0  0  0  0  0  0  0  0  0
   10.7306   44.8920   31.1673 H   0  0  0  0  0  0  0  0  0  0  0  0
    9.3512   43.8339   31.4761 H   0  0  0  0  0  0  0  0  0  0  0  0
    7.0106   44.7169   31.5839 H   0  0  0  0  0  0  0  0  0  0  0  0
   10.3467   47.1921   30.4235 H   0  0  0  0  0  0  0  0  0  0  0  0
    5.4637   46.3063   30.5039 H   0  0  0  0  0  0  0  0  0  0  0  0
    8.8144   48.7779   29.3798 H   0  0  0  0  0  0  0  0  0  0  0  0
    7.1833   50.2046   28.6853 H   0  0  0  0  0  0  0  0  0  0  0  0
    5.4960   50.1736   28.1457 H   0  0  0  0  0  0  0  0  0  0  0  0
    8.8824   49.4940   27.1573 H   0  0  0  0  0  0  0  0  0  0  0  0
    5.5376   47.3433   24.1496 H   0  0  0  0  0  0  0  0  0  0  0  0
   10.2142   46.8804   23.4182 H   0  0  0  0  0  0  0  0  0  0  0  0
    9.8877   48.4973   22.6311 H   0  0  0  0  0  0  0  0  0  0  0  0
    9.8216   40.7222   31.7644 H   0  0  0  0  0  0  0  0  0  0  0  0
   11.3811   41.5456   31.4692 H   0  0  0  0  0  0  0  0  0  0  0  0
   11.6986   39.5089   30.3498 H   0  0  0  0  0  0  0  0  0  0  0  0
   10.1109   38.2736   32.6629 H   0  0  0  0  0  0  0  0  0  0  0  0
   13.6783   37.4561   31.2271 H   0  0  0  0  0  0  0  0  0  0  0  0
    9.0020   37.3859   30.9347 H   0  0  0  0  0  0  0  0  0  0  0  0
   11.2808   36.3052   32.4921 H   0  0  0  0  0  0  0  0  0  0  0  0
   11.8819   36.9599   29.7584 H   0  0  0  0  0  0  0  0  0  0  0  0
   12.3303   38.3538   34.7445 H   0  0  0  0  0  0  0  0  0  0  0  0
   16.7563   34.1782   32.4623 H   0  0  0  0  0  0  0  0  0  0  0  0
   15.3532   35.7359   37.5142 H   0  0  0  0  0  0  0  0  0  0  0  0
   16.6347   34.5301   37.1418 H   0  0  0  0  0  0  0  0  0  0  0  0
  1  2  2  0
  1  3  1  0
  3  4  1  0
  4  5  1  0
  6  1  1  0
  7  6  1  0
  6  8  1  0
  8  9  1  0
  9 10  2  0
 11  9  1  0
 10 12  1  0
 13 11  2  0
 12 14  2  0
 14 13  1  0
 14 15  1  0
 15 16  1  0
 16 17  1  0
 17 18  2  0
 19 17  1  0
 18 20  1  0
 21 19  2  0
 19 22  1  0
 20 23  1  0
 20 24  2  0
 24 21  1  0
 22 25  1  0
 22 26  2  0
 23 27  1  0
 24 28  1  0
 27 28  1  0
  4 29  2  0
  4 30  1  0
 31 30  1  0
 31 32  1  0
 32 33  1  0
 32 34  1  0
 33 35  1  0
 34 36  1  0
 34 37  1  0
 37 35  1  0
 35 38  1  0
 37 39  1  0
 40 38  1  0
 41 38  1  0
 42 40  2  0
 40 43  1  0
 44 41  2  0
 45 42  1  0
 43 46  2  0
 43 44  1  0
 47 45  2  0
 47 46  1  0
 46 48  1  0
  6 49  1  1
  7 50  1  0
  7 51  1  0
  8 52  1  0
  8 53  1  0
 10 54  1  0
 11 55  1  0
 12 56  1  0
 13 57  1  0
 16 58  1  0
 16 59  1  0
 18 60  1  0
 21 61  1  0
 27 62  1  0
 27 63  1  0
 31 64  1  0
 31 65  1  0
 32 66  1  0
 34 67  1  0
 35 68  1  0
 36 69  1  0
 37 70  1  0
 39 71  1  0
 41 72  1  0
 45 73  1  0
 48 74  1  0
 48 75  1  0
M  CHG  3   5  -1  22   1  25  -1
M  END
>  <EmbedRMS>  (114) 
0.0825028905896

$$$$

     RDKit          3D

 75 80  0  0  0  0  0  0  0  0999 V2000
   10.2834   43.7662   33.8255 C   0  0  0  0  0  0  0  0  0  0  0  0
   11.4101   43.5930   34.3752 O   0  0  0  0  0  0  0  0  0  0  0  0
    9.3637   42.7255   33.7348 O   0  0  0  0  0  0  0  0  0  0  0  0
    9.8903   41.2267   34.2942 P   0  0  0  0  0  0  0  0  0  0  0  0
   10.3735   41.4561   35.8836 O   0  0  0  0  0  0  0  0  0  0  0  0
    9.9547   45.0694   33.2032 C   0  0  1  0  0  0  0  0  0  0  0  0
   11.0273   46.0322   33.4757 N   0  0  0  0  0  0  0  0  0  0  0  0
    9.7473   44.8480   31.6872 C   0  0  0  0  0  0  0  0  0  0  0  0
    8.7928   45.8402   31.0833 C   0  0  0  0  0  0  0  0  0  0  0  0
    7.4059   45.6016   31.1001 C   0  0  0  0  0  0  0  0  0  0  0  0
    9.2817   46.9883   30.4429 C   0  0  0  0  0  0  0  0  0  0  0  0
    6.5246   46.5027   30.4869 C   0  0  0  0  0  0  0  0  0  0  0  0
    8.4001   47.8892   29.8347 C   0  0  0  0  0  0  0  0  0  0  0  0
    7.0187   47.6539   29.8421 C   0  0  0  0  0  0  0  0  0  0  0  0
    6.1847   48.5891   29.2094 O   0  0  0  0  0  0  0  0  0  0  0  0
    4.8148   48.3855   28.8588 C   0  0  0  0  0  0  0  0  0  0  0  0
    4.6906   47.4049   27.7148 C   0  0  0  0  0  0  0  0  0  0  0  0
    4.1201   46.1367   27.9804 C   0  0  0  0  0  0  0  0  0  0  0  0
    5.0810   47.7352   26.3699 C   0  0  0  0  0  0  0  0  0  0  0  0
    3.9820   45.2372   26.9329 C   0  0  0  0  0  0  0  0  0  0  0  0
    4.9045   46.7761   25.3443 C   0  0  0  0  0  0  0  0  0  0  0  0
    5.6015   49.0306   26.0107 N   0  0  0  0  0  0  0  0  0  0  0  0
    3.4665   43.9557   26.9638 O   0  0  0  0  0  0  0  0  0  0  0  0
    4.3595   45.5423   25.6714 C   0  0  0  0  0  0  0  0  0  0  0  0
    5.4389   49.5021   24.7281 O   0  0  0  0  0  0  0  0  0  0  0  0
    6.3176   49.6820   26.7968 O   0  0  0  0  0  0  0  0  0  0  0  0
    3.5280   43.4223   25.6340 C   0  0  0  0  0  0  0  0  0  0  0  0
    4.1040   44.4686   24.8402 O   0  0  0  0  0  0  0  0  0  0  0  0
    8.8121   40.1850   34.2131 O   0  0  0  0  0  0  0  0  0  0  0  0
   11.2407   40.7939   33.3693 O   0  0  0  0  0  0  0  0  0  0  0  0
   10.9151   40.6905   31.9974 C   0  0  0  0  0  0  0  0  0  0  0  0
   11.5252   39.3886   31.4375 C   0  0  0  0  0  0  0  0  0  0  0  0
   12.7500   39.0874   32.0799 O   0  0  0  0  0  0  0  0  0  0  0  0
   10.6092   38.1926   31.6470 C   0  0  0  0  0  0  0  0  0  0  0  0
   12.9332   37.6792   32.0294 C   0  0  0  0  0  0  0  0  0  0  0  0
    9.6122   38.0895   30.6542 O   0  0  0  0  0  0  0  0  0  0  0  0
   11.5743   37.0145   31.7024 C   0  0  0  0  0  0  0  0  0  0  0  0
   13.4844   37.2108   33.3241 N   0  0  0  0  0  0  0  0  0  0  0  0
   11.6297   36.3239   30.4740 O   0  0  0  0  0  0  0  0  0  0  0  0
   14.4802   36.3313   33.5727 C   0  0  0  0  0  0  0  0  0  0  0  0
   13.1138   37.6267   34.5692 C   0  0  0  0  0  0  0  0  0  0  0  0
   15.2075   35.6149   32.6739 N   0  0  0  0  0  0  0  0  0  0  0  0
   14.6761   36.2303   34.9182 C   0  0  0  0  0  0  0  0  0  0  0  0
   13.8220   37.0447   35.5785 N   0  0  0  0  0  0  0  0  0  0  0  0
   16.1643   34.7600   33.1547 C   0  0  0  0  0  0  0  0  0  0  0  0
   15.6529   35.3505   35.4130 C   0  0  0  0  0  0  0  0  0  0  0  0
   16.3798   34.6315   34.5042 N   0  0  0  0  0  0  0  0  0  0  0  0
   15.9003   35.1932   36.8090 N   0  0  0  0  0  0  0  0  0  0  0  0
    9.0119   45.4317   33.6707 H   0  0  0  0  0  0  0  0  0  0  0  0
   10.7259   46.9688   33.1212 H   0  0  0  0  0  0  0  0  0  0  0  0
   11.8907   45.7659   32.9474 H   0  0  0  0  0  0  0  0  0  0  0  0
    9.3427   43.8327   31.4756 H   0  0  0  0  0  0  0  0  0  0  0  0
   10.7238   44.8820   31.1555 H   0  0  0  0  0  0  0  0  0  0  0  0
    7.0097   44.7199   31.5886 H   0  0  0  0  0  0  0  0  0  0  0  0
   10.3459   47.1874   30.4120 H   0  0  0  0  0  0  0  0  0  0  0  0
    5.4666   46.3013   30.5417 H   0  0  0  0  0  0  0  0  0  0  0  0
    8.7933   48.7713   29.3452 H   0  0  0  0  0  0  0  0  0  0  0  0
    4.2398   48.0607   29.7522 H   0  0  0  0  0  0  0  0  0  0  0  0
    4.3729   49.3560   28.5504 H   0  0  0  0  0  0  0  0  0  0  0  0
    3.7818   45.8594   28.9698 H   0  0  0  0  0  0  0  0  0  0  0  0
    5.1873   46.9842   24.3206 H   0  0  0  0  0  0  0  0  0  0  0  0
    4.1773   42.5221   25.6109 H   0  0  0  0  0  0  0  0  0  0  0  0
    2.5074   43.1820   25.2690 H   0  0  0  0  0  0  0  0  0  0  0  0
    9.8242   40.7216   31.7643 H   0  0  0  0  0  0  0  0  0  0  0  0
   11.3802   41.5529   31.4733 H   0  0  0  0  0  0  0  0  0  0  0  0
   11.7266   39.5311   30.3513 H   0  0  0  0  0  0  0  0  0  0  0  0
   10.1110   38.2747   32.6387 H   0  0  0  0  0  0  0  0  0  0  0  0
   13.6652   37.4519   31.2226 H   0  0  0  0  0  0  0  0  0  0  0  0
   10.0511   38.1143   29.7645 H   0  0  0  0  0  0  0  0  0  0  0  0
   11.2762   36.3141   32.5189 H   0  0  0  0  0  0  0  0  0  0  0  0
   10.8593   35.6978   30.4640 H   0  0  0  0  0  0  0  0  0  0  0  0
   12.3294   38.3518   34.7449 H   0  0  0  0  0  0  0  0  0  0  0  0
   16.7564   34.1780   32.4620 H   0  0  0  0  0  0  0  0  0  0  0  0
   15.3534   35.7359   37.5138 H   0  0  0  0  0  0  0  0  0  0  0  0
   16.6349   34.5300   37.1415 H   0  0  0  0  0  0  0  0  0  0  0  0
  1  2  2  0
  1  3  1  0
  3  4  1  0
  4  5  1  0
  6  1  1  0
  7  6  1  0
  6  8  1  0
  8  9  1  0
  9 10  2  0
 11  9  1  0
 10 12  1  0
 13 11  2  0
 12 14  2  0
 14 13  1  0
 14 15  1  0
 15 16  1  0
 16 17  1  0
 17 18  2  0
 19 17  1  0
 18 20  1  0
 21 19  2  0
 19 22  1  0
 20 23  1  0
 20 24  2  0
 24 21  1  0
 22 25  1  0
 22 26  2  0
 23 27  1  0
 24 28  1  0
 27 28  1  0
  4 29  2  0
  4 30  1  0
 31 30  1  0
 31 32  1  0
 32 33  1  0
 32 34  1  0
 33 35  1  0
 34 36  1  0
 34 37  1  0
 37 35  1  0
 35 38  1  0
 37 39  1  0
 40 38  1  0
 41 38  1  0
 42 40  2  0
 40 43  1  0
 44 41  2  0
 45 42  1  0
 43 46  2  0
 43 44  1  0
 47 45  2  0
 47 46  1  0
 46 48  1  0
  6 49  1  1
  7 50  1  0
  7 51  1  0
  8 52  1  0
  8 53  1  0
 10 54  1  0
 11 55  1  0
 12 56  1  0
 13 57  1  0
 16 58  1  0
 16 59  1  0
 18 60  1  0
 21 61  1  0
 27 62  1  0
 27 63  1  0
 31 64  1  0
 31 65  1  0
 32 66  1  0
 34 67  1  0
 35 68  1  0
 36 69  1  0
 37 70  1  0
 39 71  1  0
 41 72  1  0
 45 73  1  0
 48 74  1  0
 48 75  1  0
M  CHG  3   5  -1  22   1  25  -1
M  END
>  <EmbedRMS>  (115) 
0.0818392237814

$$$$

     RDKit          3D

 75 80  0  0  0  0  0  0  0  0999 V2000
   10.2839   43.7626   33.8276 C   0  0  0  0  0  0  0  0  0  0  0  0
   11.4104   43.5863   34.3767 O   0  0  0  0  0  0  0  0  0  0  0  0
    9.3631   42.7235   33.7353 O   0  0  0  0  0  0  0  0  0  0  0  0
    9.8898   41.2247   34.2935 P   0  0  0  0  0  0  0  0  0  0  0  0
   10.3735   41.4542   35.8829 O   0  0  0  0  0  0  0  0  0  0  0  0
    9.9548   45.0699   33.2065 C   0  0  1  0  0  0  0  0  0  0  0  0
   11.0199   46.0480   33.4569 N   0  0  0  0  0  0  0  0  0  0  0  0
    9.7499   44.8509   31.6925 C   0  0  0  0  0  0  0  0  0  0  0  0
    8.7941   45.8422   31.0876 C   0  0  0  0  0  0  0  0  0  0  0  0
    7.4073   45.6011   31.1001 C   0  0  0  0  0  0  0  0  0  0  0  0
    9.2833   46.9889   30.4446 C   0  0  0  0  0  0  0  0  0  0  0  0
    6.5279   46.5015   30.4834 C   0  0  0  0  0  0  0  0  0  0  0  0
    8.4040   47.8896   29.8320 C   0  0  0  0  0  0  0  0  0  0  0  0
    7.0144   47.6522   29.8481 C   0  0  0  0  0  0  0  0  0  0  0  0
    6.0898   48.5183   29.2393 O   0  0  0  0  0  0  0  0  0  0  0  0
    6.4109   49.7736   28.6347 C   0  0  0  0  0  0  0  0  0  0  0  0
    6.9608   49.6387   27.2257 C   0  0  0  0  0  0  0  0  0  0  0  0
    7.1333   48.3569   26.6397 C   0  0  0  0  0  0  0  0  0  0  0  0
    7.2469   50.8069   26.4410 C   0  0  0  0  0  0  0  0  0  0  0  0
    7.5916   48.2792   25.3315 C   0  0  0  0  0  0  0  0  0  0  0  0
    7.6986   50.6616   25.1083 C   0  0  0  0  0  0  0  0  0  0  0  0
    7.0540   52.1344   26.9613 N   0  0  0  0  0  0  0  0  0  0  0  0
    7.8343   47.1499   24.5732 O   0  0  0  0  0  0  0  0  0  0  0  0
    7.8625   49.3819   24.5986 C   0  0  0  0  0  0  0  0  0  0  0  0
    7.4818   52.4624   28.2262 O   0  0  0  0  0  0  0  0  0  0  0  0
    6.6681   53.0494   26.2045 O   0  0  0  0  0  0  0  0  0  0  0  0
    8.2900   47.5740   23.2813 C   0  0  0  0  0  0  0  0  0  0  0  0
    8.2926   49.0068   23.3402 O   0  0  0  0  0  0  0  0  0  0  0  0
    8.8115   40.1834   34.2126 O   0  0  0  0  0  0  0  0  0  0  0  0
   11.2402   40.7936   33.3673 O   0  0  0  0  0  0  0  0  0  0  0  0
   10.9134   40.6864   31.9955 C   0  0  0  0  0  0  0  0  0  0  0  0
   11.5166   39.3786   31.4404 C   0  0  0  0  0  0  0  0  0  0  0  0
   12.7486   39.0849   32.0734 O   0  0  0  0  0  0  0  0  0  0  0  0
   10.6039   38.1883   31.6669 C   0  0  0  0  0  0  0  0  0  0  0  0
   12.9329   37.6775   32.0284 C   0  0  0  0  0  0  0  0  0  0  0  0
    9.6373   38.0938   30.6484 O   0  0  0  0  0  0  0  0  0  0  0  0
   11.5737   37.0140   31.7055 C   0  0  0  0  0  0  0  0  0  0  0  0
   13.4853   37.2120   33.3238 N   0  0  0  0  0  0  0  0  0  0  0  0
   11.6210   36.3379   30.4683 O   0  0  0  0  0  0  0  0  0  0  0  0
   14.4804   36.3319   33.5726 C   0  0  0  0  0  0  0  0  0  0  0  0
   13.1141   37.6275   34.5689 C   0  0  0  0  0  0  0  0  0  0  0  0
   15.2076   35.6152   32.6740 N   0  0  0  0  0  0  0  0  0  0  0  0
   14.6761   36.2306   34.9181 C   0  0  0  0  0  0  0  0  0  0  0  0
   13.8218   37.0451   35.5783 N   0  0  0  0  0  0  0  0  0  0  0  0
   16.1642   34.7600   33.1548 C   0  0  0  0  0  0  0  0  0  0  0  0
   15.6527   35.3507   35.4131 C   0  0  0  0  0  0  0  0  0  0  0  0
   16.3796   34.6315   34.5043 N   0  0  0  0  0  0  0  0  0  0  0  0
   15.9001   35.1933   36.8090 N   0  0  0  0  0  0  0  0  0  0  0  0
    9.0100   45.4349   33.6674 H   0  0  0  0  0  0  0  0  0  0  0  0
   11.9348   45.6932   33.0923 H   0  0  0  0  0  0  0  0  0  0  0  0
   11.1137   46.1991   34.4882 H   0  0  0  0  0  0  0  0  0  0  0  0
    9.3504   43.8345   31.4764 H   0  0  0  0  0  0  0  0  0  0  0  0
   10.7301   44.8922   31.1676 H   0  0  0  0  0  0  0  0  0  0  0  0
    7.0108   44.7156   31.5814 H   0  0  0  0  0  0  0  0  0  0  0  0
   10.3480   47.1856   30.4125 H   0  0  0  0  0  0  0  0  0  0  0  0
    5.4637   46.3030   30.4985 H   0  0  0  0  0  0  0  0  0  0  0  0
    8.8181   48.7560   29.3356 H   0  0  0  0  0  0  0  0  0  0  0  0
    5.4774   50.3724   28.5837 H   0  0  0  0  0  0  0  0  0  0  0  0
    7.1217   50.3184   29.2882 H   0  0  0  0  0  0  0  0  0  0  0  0
    6.9070   47.4412   27.1663 H   0  0  0  0  0  0  0  0  0  0  0  0
    7.9226   51.5225   24.4915 H   0  0  0  0  0  0  0  0  0  0  0  0
    9.3169   47.1964   23.0932 H   0  0  0  0  0  0  0  0  0  0  0  0
    7.5906   47.2241   22.4934 H   0  0  0  0  0  0  0  0  0  0  0  0
    9.8226   40.7225   31.7629 H   0  0  0  0  0  0  0  0  0  0  0  0
   11.3830   41.5437   31.4675 H   0  0  0  0  0  0  0  0  0  0  0  0
   11.6978   39.5037   30.3478 H   0  0  0  0  0  0  0  0  0  0  0  0
   10.1084   38.2785   32.6626 H   0  0  0  0  0  0  0  0  0  0  0  0
   13.6638   37.4472   31.2214 H   0  0  0  0  0  0  0  0  0  0  0  0
    8.9763   37.4190   30.9532 H   0  0  0  0  0  0  0  0  0  0  0  0
   11.2821   36.3053   32.5171 H   0  0  0  0  0  0  0  0  0  0  0  0
   10.8658   35.6935   30.4652 H   0  0  0  0  0  0  0  0  0  0  0  0
   12.3294   38.3523   34.7444 H   0  0  0  0  0  0  0  0  0  0  0  0
   16.7561   34.1778   32.4621 H   0  0  0  0  0  0  0  0  0  0  0  0
   15.3533   35.7361   37.5138 H   0  0  0  0  0  0  0  0  0  0  0  0
   16.6345   34.5300   37.1416 H   0  0  0  0  0  0  0  0  0  0  0  0
  1  2  2  0
  1  3  1  0
  3  4  1  0
  4  5  1  0
  6  1  1  0
  7  6  1  0
  6  8  1  0
  8  9  1  0
  9 10  2  0
 11  9  1  0
 10 12  1  0
 13 11  2  0
 12 14  2  0
 14 13  1  0
 14 15  1  0
 15 16  1  0
 16 17  1  0
 17 18  2  0
 19 17  1  0
 18 20  1  0
 21 19  2  0
 19 22  1  0
 20 23  1  0
 20 24  2  0
 24 21  1  0
 22 25  1  0
 22 26  2  0
 23 27  1  0
 24 28  1  0
 27 28  1  0
  4 29  2  0
  4 30  1  0
 31 30  1  0
 31 32  1  0
 32 33  1  0
 32 34  1  0
 33 35  1  0
 34 36  1  0
 34 37  1  0
 37 35  1  0
 35 38  1  0
 37 39  1  0
 40 38  1  0
 41 38  1  0
 42 40  2  0
 40 43  1  0
 44 41  2  0
 45 42  1  0
 43 46  2  0
 43 44  1  0
 47 45  2  0
 47 46  1  0
 46 48  1  0
  6 49  1  1
  7 50  1  0
  7 51  1  0
  8 52  1  0
  8 53  1  0
 10 54  1  0
 11 55  1  0
 12 56  1  0
 13 57  1  0
 16 58  1  0
 16 59  1  0
 18 60  1  0
 21 61  1  0
 27 62  1  0
 27 63  1  0
 31 64  1  0
 31 65  1  0
 32 66  1  0
 34 67  1  0
 35 68  1  0
 36 69  1  0
 37 70  1  0
 39 71  1  0
 41 72  1  0
 45 73  1  0
 48 74  1  0
 48 75  1  0
M  CHG  3   5  -1  22   1  25  -1
M  END
>  <EmbedRMS>  (116) 
0.0834411559731

$$$$

     RDKit          3D

 75 80  0  0  0  0  0  0  0  0999 V2000
   10.2805   43.7663   33.8249 C   0  0  0  0  0  0  0  0  0  0  0  0
   11.4111   43.5919   34.3668 O   0  0  0  0  0  0  0  0  0  0  0  0
    9.3622   42.7247   33.7341 O   0  0  0  0  0  0  0  0  0  0  0  0
    9.8904   41.2264   34.2936 P   0  0  0  0  0  0  0  0  0  0  0  0
   10.3731   41.4565   35.8831 O   0  0  0  0  0  0  0  0  0  0  0  0
    9.9460   45.0736   33.2112 C   0  0  1  0  0  0  0  0  0  0  0  0
   11.0266   46.0292   33.4709 N   0  0  0  0  0  0  0  0  0  0  0  0
    9.7540   44.8541   31.6948 C   0  0  0  0  0  0  0  0  0  0  0  0
    8.7957   45.8411   31.0848 C   0  0  0  0  0  0  0  0  0  0  0  0
    7.4089   45.6002   31.1012 C   0  0  0  0  0  0  0  0  0  0  0  0
    9.2824   46.9881   30.4399 C   0  0  0  0  0  0  0  0  0  0  0  0
    6.5263   46.4995   30.4868 C   0  0  0  0  0  0  0  0  0  0  0  0
    8.3995   47.8875   29.8313 C   0  0  0  0  0  0  0  0  0  0  0  0
    7.0181   47.6537   29.8454 C   0  0  0  0  0  0  0  0  0  0  0  0
    6.1801   48.5853   29.2118 O   0  0  0  0  0  0  0  0  0  0  0  0
    4.7597   48.4782   29.0927 C   0  0  0  0  0  0  0  0  0  0  0  0
    4.3646   47.3514   28.1623 C   0  0  0  0  0  0  0  0  0  0  0  0
    5.1066   47.1765   26.9692 C   0  0  0  0  0  0  0  0  0  0  0  0
    3.2078   46.5355   28.3942 C   0  0  0  0  0  0  0  0  0  0  0  0
    4.7017   46.1957   26.0733 C   0  0  0  0  0  0  0  0  0  0  0  0
    2.8346   45.5642   27.4387 C   0  0  0  0  0  0  0  0  0  0  0  0
    2.3852   46.6984   29.5581 N   0  0  0  0  0  0  0  0  0  0  0  0
    5.2743   45.8461   24.8654 O   0  0  0  0  0  0  0  0  0  0  0  0
    3.6139   45.4235   26.2981 C   0  0  0  0  0  0  0  0  0  0  0  0
    1.0161   46.6881   29.4243 O   0  0  0  0  0  0  0  0  0  0  0  0
    2.8778   46.5644   30.6965 O   0  0  0  0  0  0  0  0  0  0  0  0
    4.4958   44.7836   24.2980 C   0  0  0  0  0  0  0  0  0  0  0  0
    3.4451   44.5455   25.2447 O   0  0  0  0  0  0  0  0  0  0  0  0
    8.8129   40.1841   34.2125 O   0  0  0  0  0  0  0  0  0  0  0  0
   11.2419   40.7944   33.3695 O   0  0  0  0  0  0  0  0  0  0  0  0
   10.9185   40.6911   31.9969 C   0  0  0  0  0  0  0  0  0  0  0  0
   11.5172   39.3814   31.4407 C   0  0  0  0  0  0  0  0  0  0  0  0
   12.7492   39.0855   32.0728 O   0  0  0  0  0  0  0  0  0  0  0  0
   10.6023   38.1908   31.6665 C   0  0  0  0  0  0  0  0  0  0  0  0
   12.9319   37.6781   32.0281 C   0  0  0  0  0  0  0  0  0  0  0  0
    9.6391   38.0798   30.6452 O   0  0  0  0  0  0  0  0  0  0  0  0
   11.5715   37.0165   31.7056 C   0  0  0  0  0  0  0  0  0  0  0  0
   13.4846   37.2121   33.3235 N   0  0  0  0  0  0  0  0  0  0  0  0
   11.6187   36.3383   30.4694 O   0  0  0  0  0  0  0  0  0  0  0  0
   14.4801   36.3321   33.5724 C   0  0  0  0  0  0  0  0  0  0  0  0
   13.1137   37.6276   34.5688 C   0  0  0  0  0  0  0  0  0  0  0  0
   15.2073   35.6153   32.6738 N   0  0  0  0  0  0  0  0  0  0  0  0
   14.6759   36.2308   34.9179 C   0  0  0  0  0  0  0  0  0  0  0  0
   13.8217   37.0452   35.5781 N   0  0  0  0  0  0  0  0  0  0  0  0
   16.1639   34.7601   33.1546 C   0  0  0  0  0  0  0  0  0  0  0  0
   15.6526   35.3508   35.4129 C   0  0  0  0  0  0  0  0  0  0  0  0
   16.3794   34.6317   34.5041 N   0  0  0  0  0  0  0  0  0  0  0  0
   15.8999   35.1935   36.8088 N   0  0  0  0  0  0  0  0  0  0  0  0
    8.9995   45.4380   33.6722 H   0  0  0  0  0  0  0  0  0  0  0  0
   10.7764   46.9369   33.0159 H   0  0  0  0  0  0  0  0  0  0  0  0
   11.0502   46.2276   34.4983 H   0  0  0  0  0  0  0  0  0  0  0  0
   10.7411   44.9078   31.1834 H   0  0  0  0  0  0  0  0  0  0  0  0
    9.3644   43.8354   31.4710 H   0  0  0  0  0  0  0  0  0  0  0  0
    7.0146   44.7155   31.5859 H   0  0  0  0  0  0  0  0  0  0  0  0
   10.3462   47.1880   30.4055 H   0  0  0  0  0  0  0  0  0  0  0  0
    5.4695   46.2854   30.5176 H   0  0  0  0  0  0  0  0  0  0  0  0
    8.7915   48.7688   29.3395 H   0  0  0  0  0  0  0  0  0  0  0  0
    4.3827   49.4250   28.6533 H   0  0  0  0  0  0  0  0  0  0  0  0
    4.3129   48.3967   30.1012 H   0  0  0  0  0  0  0  0  0  0  0  0
    5.9681   47.7915   26.7415 H   0  0  0  0  0  0  0  0  0  0  0  0
    1.9660   44.9353   27.5861 H   0  0  0  0  0  0  0  0  0  0  0  0
    4.0687   45.0988   23.3230 H   0  0  0  0  0  0  0  0  0  0  0  0
    5.1186   43.8721   24.1795 H   0  0  0  0  0  0  0  0  0  0  0  0
   11.3966   41.5459   31.4725 H   0  0  0  0  0  0  0  0  0  0  0  0
    9.8298   40.7408   31.7612 H   0  0  0  0  0  0  0  0  0  0  0  0
   11.6975   39.5066   30.3481 H   0  0  0  0  0  0  0  0  0  0  0  0
   10.1076   38.2647   32.6645 H   0  0  0  0  0  0  0  0  0  0  0  0
   13.6622   37.4467   31.2209 H   0  0  0  0  0  0  0  0  0  0  0  0
    8.8974   38.6944   30.8831 H   0  0  0  0  0  0  0  0  0  0  0  0
   11.2806   36.3074   32.5171 H   0  0  0  0  0  0  0  0  0  0  0  0
   10.8493   35.7110   30.4584 H   0  0  0  0  0  0  0  0  0  0  0  0
   12.3290   38.3524   34.7444 H   0  0  0  0  0  0  0  0  0  0  0  0
   16.7559   34.1780   32.4619 H   0  0  0  0  0  0  0  0  0  0  0  0
   15.3531   35.7362   37.5137 H   0  0  0  0  0  0  0  0  0  0  0  0
   16.6343   34.5301   37.1415 H   0  0  0  0  0  0  0  0  0  0  0  0
  1  2  2  0
  1  3  1  0
  3  4  1  0
  4  5  1  0
  6  1  1  0
  7  6  1  0
  6  8  1  0
  8  9  1  0
  9 10  2  0
 11  9  1  0
 10 12  1  0
 13 11  2  0
 12 14  2  0
 14 13  1  0
 14 15  1  0
 15 16  1  0
 16 17  1  0
 17 18  2  0
 19 17  1  0
 18 20  1  0
 21 19  2  0
 19 22  1  0
 20 23  1  0
 20 24  2  0
 24 21  1  0
 22 25  1  0
 22 26  2  0
 23 27  1  0
 24 28  1  0
 27 28  1  0
  4 29  2  0
  4 30  1  0
 31 30  1  0
 31 32  1  0
 32 33  1  0
 32 34  1  0
 33 35  1  0
 34 36  1  0
 34 37  1  0
 37 35  1  0
 35 38  1  0
 37 39  1  0
 40 38  1  0
 41 38  1  0
 42 40  2  0
 40 43  1  0
 44 41  2  0
 45 42  1  0
 43 46  2  0
 43 44  1  0
 47 45  2  0
 47 46  1  0
 46 48  1  0
  6 49  1  1
  7 50  1  0
  7 51  1  0
  8 52  1  0
  8 53  1  0
 10 54  1  0
 11 55  1  0
 12 56  1  0
 13 57  1  0
 16 58  1  0
 16 59  1  0
 18 60  1  0
 21 61  1  0
 27 62  1  0
 27 63  1  0
 31 64  1  0
 31 65  1  0
 32 66  1  0
 34 67  1  0
 35 68  1  0
 36 69  1  0
 37 70  1  0
 39 71  1  0
 41 72  1  0
 45 73  1  0
 48 74  1  0
 48 75  1  0
M  CHG  3   5  -1  22   1  25  -1
M  END
>  <EmbedRMS>  (117) 
0.0827572940771

$$$$

     RDKit          3D

 75 80  0  0  0  0  0  0  0  0999 V2000
   10.2838   43.7627   33.8276 C   0  0  0  0  0  0  0  0  0  0  0  0
   11.4103   43.5863   34.3766 O   0  0  0  0  0  0  0  0  0  0  0  0
    9.3628   42.7238   33.7357 O   0  0  0  0  0  0  0  0  0  0  0  0
    9.8890   41.2252   34.2949 P   0  0  0  0  0  0  0  0  0  0  0  0
   10.3724   41.4548   35.8843 O   0  0  0  0  0  0  0  0  0  0  0  0
    9.9549   45.0700   33.2063 C   0  0  1  0  0  0  0  0  0  0  0  0
   11.0199   46.0481   33.4570 N   0  0  0  0  0  0  0  0  0  0  0  0
    9.7506   44.8511   31.6922 C   0  0  0  0  0  0  0  0  0  0  0  0
    8.7944   45.8418   31.0869 C   0  0  0  0  0  0  0  0  0  0  0  0
    7.4077   45.6007   31.1005 C   0  0  0  0  0  0  0  0  0  0  0  0
    9.2826   46.9894   30.4448 C   0  0  0  0  0  0  0  0  0  0  0  0
    6.5261   46.5004   30.4856 C   0  0  0  0  0  0  0  0  0  0  0  0
    8.4007   47.8883   29.8334 C   0  0  0  0  0  0  0  0  0  0  0  0
    7.0191   47.6545   29.8450 C   0  0  0  0  0  0  0  0  0  0  0  0
    6.1823   48.5861   29.2098 O   0  0  0  0  0  0  0  0  0  0  0  0
    4.7621   48.4792   29.0883 C   0  0  0  0  0  0  0  0  0  0  0  0
    4.3684   47.3525   28.1572 C   0  0  0  0  0  0  0  0  0  0  0  0
    5.1120   47.1779   26.9650 C   0  0  0  0  0  0  0  0  0  0  0  0
    3.2114   46.5363   28.3873 C   0  0  0  0  0  0  0  0  0  0  0  0
    4.7086   46.1971   26.0685 C   0  0  0  0  0  0  0  0  0  0  0  0
    2.8398   45.5650   27.4312 C   0  0  0  0  0  0  0  0  0  0  0  0
    2.3870   46.6992   29.5500 N   0  0  0  0  0  0  0  0  0  0  0  0
    5.2829   45.8478   24.8614 O   0  0  0  0  0  0  0  0  0  0  0  0
    3.6207   45.4246   26.2917 C   0  0  0  0  0  0  0  0  0  0  0  0
    1.0181   46.6885   29.4140 O   0  0  0  0  0  0  0  0  0  0  0  0
    2.8779   46.5655   30.6892 O   0  0  0  0  0  0  0  0  0  0  0  0
    4.5056   44.7851   24.2928 C   0  0  0  0  0  0  0  0  0  0  0  0
    3.4536   44.5466   25.2381 O   0  0  0  0  0  0  0  0  0  0  0  0
    8.8112   40.1834   34.2131 O   0  0  0  0  0  0  0  0  0  0  0  0
   11.2398   40.7938   33.3702 O   0  0  0  0  0  0  0  0  0  0  0  0
   10.9144   40.6912   31.9983 C   0  0  0  0  0  0  0  0  0  0  0  0
   11.5270   39.3911   31.4385 C   0  0  0  0  0  0  0  0  0  0  0  0
   12.7520   39.0911   32.0836 O   0  0  0  0  0  0  0  0  0  0  0  0
   10.6113   38.1931   31.6451 C   0  0  0  0  0  0  0  0  0  0  0  0
   12.9413   37.6837   32.0297 C   0  0  0  0  0  0  0  0  0  0  0  0
    9.6064   38.0877   30.6599 O   0  0  0  0  0  0  0  0  0  0  0  0
   11.5822   37.0197   31.6876 C   0  0  0  0  0  0  0  0  0  0  0  0
   13.4840   37.2104   33.3254 N   0  0  0  0  0  0  0  0  0  0  0  0
   11.6179   36.3071   30.4690 O   0  0  0  0  0  0  0  0  0  0  0  0
   14.4797   36.3309   33.5738 C   0  0  0  0  0  0  0  0  0  0  0  0
   13.1136   37.6269   34.5702 C   0  0  0  0  0  0  0  0  0  0  0  0
   15.2074   35.6152   32.6747 N   0  0  0  0  0  0  0  0  0  0  0  0
   14.6756   36.2298   34.9190 C   0  0  0  0  0  0  0  0  0  0  0  0
   13.8217   37.0445   35.5793 N   0  0  0  0  0  0  0  0  0  0  0  0
   16.1643   34.7603   33.1551 C   0  0  0  0  0  0  0  0  0  0  0  0
   15.6528   35.3503   35.4136 C   0  0  0  0  0  0  0  0  0  0  0  0
   16.3798   34.6316   34.5046 N   0  0  0  0  0  0  0  0  0  0  0  0
   15.9004   35.1931   36.8094 N   0  0  0  0  0  0  0  0  0  0  0  0
    9.0099   45.4350   33.6669 H   0  0  0  0  0  0  0  0  0  0  0  0
   11.9350   45.6933   33.0928 H   0  0  0  0  0  0  0  0  0  0  0  0
   11.1133   46.1992   34.4883 H   0  0  0  0  0  0  0  0  0  0  0  0
    9.3517   43.8345   31.4759 H   0  0  0  0  0  0  0  0  0  0  0  0
   10.7309   44.8931   31.1675 H   0  0  0  0  0  0  0  0  0  0  0  0
    7.0123   44.7152   31.5830 H   0  0  0  0  0  0  0  0  0  0  0  0
   10.3466   47.1897   30.4151 H   0  0  0  0  0  0  0  0  0  0  0  0
    5.4693   46.2862   30.5142 H   0  0  0  0  0  0  0  0  0  0  0  0
    8.7936   48.7697   29.3427 H   0  0  0  0  0  0  0  0  0  0  0  0
    4.3136   48.3978   30.0960 H   0  0  0  0  0  0  0  0  0  0  0  0
    4.3861   49.4261   28.6482 H   0  0  0  0  0  0  0  0  0  0  0  0
    5.9736   47.7933   26.7386 H   0  0  0  0  0  0  0  0  0  0  0  0
    1.9712   44.9358   27.5775 H   0  0  0  0  0  0  0  0  0  0  0  0
    4.0798   45.1002   23.3172 H   0  0  0  0  0  0  0  0  0  0  0  0
    5.1288   43.8739   24.1752 H   0  0  0  0  0  0  0  0  0  0  0  0
   11.3780   41.5548   31.4750 H   0  0  0  0  0  0  0  0  0  0  0  0
    9.8235   40.7202   31.7651 H   0  0  0  0  0  0  0  0  0  0  0  0
   11.7311   39.5363   30.3531 H   0  0  0  0  0  0  0  0  0  0  0  0
   10.1203   38.2695   32.6409 H   0  0  0  0  0  0  0  0  0  0  0  0
   13.6850   37.4638   31.2321 H   0  0  0  0  0  0  0  0  0  0  0  0
   10.0250   38.1792   29.7654 H   0  0  0  0  0  0  0  0  0  0  0  0
   11.2757   36.3135   32.4907 H   0  0  0  0  0  0  0  0  0  0  0  0
   11.9838   36.9111   29.7708 H   0  0  0  0  0  0  0  0  0  0  0  0
   12.3307   38.3536   34.7457 H   0  0  0  0  0  0  0  0  0  0  0  0
   16.7566   34.1786   32.4623 H   0  0  0  0  0  0  0  0  0  0  0  0
   15.3535   35.7355   37.5144 H   0  0  0  0  0  0  0  0  0  0  0  0
   16.6353   34.5301   37.1419 H   0  0  0  0  0  0  0  0  0  0  0  0
  1  2  2  0
  1  3  1  0
  3  4  1  0
  4  5  1  0
  6  1  1  0
  7  6  1  0
  6  8  1  0
  8  9  1  0
  9 10  2  0
 11  9  1  0
 10 12  1  0
 13 11  2  0
 12 14  2  0
 14 13  1  0
 14 15  1  0
 15 16  1  0
 16 17  1  0
 17 18  2  0
 19 17  1  0
 18 20  1  0
 21 19  2  0
 19 22  1  0
 20 23  1  0
 20 24  2  0
 24 21  1  0
 22 25  1  0
 22 26  2  0
 23 27  1  0
 24 28  1  0
 27 28  1  0
  4 29  2  0
  4 30  1  0
 31 30  1  0
 31 32  1  0
 32 33  1  0
 32 34  1  0
 33 35  1  0
 34 36  1  0
 34 37  1  0
 37 35  1  0
 35 38  1  0
 37 39  1  0
 40 38  1  0
 41 38  1  0
 42 40  2  0
 40 43  1  0
 44 41  2  0
 45 42  1  0
 43 46  2  0
 43 44  1  0
 47 45  2  0
 47 46  1  0
 46 48  1  0
  6 49  1  1
  7 50  1  0
  7 51  1  0
  8 52  1  0
  8 53  1  0
 10 54  1  0
 11 55  1  0
 12 56  1  0
 13 57  1  0
 16 58  1  0
 16 59  1  0
 18 60  1  0
 21 61  1  0
 27 62  1  0
 27 63  1  0
 31 64  1  0
 31 65  1  0
 32 66  1  0
 34 67  1  0
 35 68  1  0
 36 69  1  0
 37 70  1  0
 39 71  1  0
 41 72  1  0
 45 73  1  0
 48 74  1  0
 48 75  1  0
M  CHG  3   5  -1  22   1  25  -1
M  END
>  <EmbedRMS>  (118) 
0.0817360030037

$$$$

     RDKit          3D

 75 80  0  0  0  0  0  0  0  0999 V2000
   10.2803   43.7665   33.8251 C   0  0  0  0  0  0  0  0  0  0  0  0
   11.4110   43.5919   34.3666 O   0  0  0  0  0  0  0  0  0  0  0  0
    9.3616   42.7251   33.7349 O   0  0  0  0  0  0  0  0  0  0  0  0
    9.8899   41.2268   34.2940 P   0  0  0  0  0  0  0  0  0  0  0  0
   10.3739   41.4566   35.8831 O   0  0  0  0  0  0  0  0  0  0  0  0
    9.9459   45.0736   33.2112 C   0  0  1  0  0  0  0  0  0  0  0  0
   11.0267   46.0291   33.4705 N   0  0  0  0  0  0  0  0  0  0  0  0
    9.7535   44.8538   31.6949 C   0  0  0  0  0  0  0  0  0  0  0  0
    8.7955   45.8410   31.0848 C   0  0  0  0  0  0  0  0  0  0  0  0
    7.4086   45.6007   31.1010 C   0  0  0  0  0  0  0  0  0  0  0  0
    9.2828   46.9877   30.4400 C   0  0  0  0  0  0  0  0  0  0  0  0
    6.5282   46.5014   30.4856 C   0  0  0  0  0  0  0  0  0  0  0  0
    8.4020   47.8890   29.8310 C   0  0  0  0  0  0  0  0  0  0  0  0
    7.0140   47.6509   29.8470 C   0  0  0  0  0  0  0  0  0  0  0  0
    6.0879   48.5177   29.2448 O   0  0  0  0  0  0  0  0  0  0  0  0
    6.4126   49.7038   28.5163 C   0  0  0  0  0  0  0  0  0  0  0  0
    7.0984   49.3797   27.2063 C   0  0  0  0  0  0  0  0  0  0  0  0
    6.6061   48.2933   26.4433 C   0  0  0  0  0  0  0  0  0  0  0  0
    8.1468   50.1968   26.6670 C   0  0  0  0  0  0  0  0  0  0  0  0
    7.1790   48.0388   25.2042 C   0  0  0  0  0  0  0  0  0  0  0  0
    8.6800   49.8990   25.3931 C   0  0  0  0  0  0  0  0  0  0  0  0
    8.6531   51.3417   27.3675 N   0  0  0  0  0  0  0  0  0  0  0  0
    6.8687   47.0381   24.3035 O   0  0  0  0  0  0  0  0  0  0  0  0
    8.1722   48.8074   24.7013 C   0  0  0  0  0  0  0  0  0  0  0  0
    8.8758   52.5112   26.6783 O   0  0  0  0  0  0  0  0  0  0  0  0
    9.1524   51.2103   28.5033 O   0  0  0  0  0  0  0  0  0  0  0  0
    7.7256   47.1880   23.1632 C   0  0  0  0  0  0  0  0  0  0  0  0
    8.5413   48.3302   23.4583 O   0  0  0  0  0  0  0  0  0  0  0  0
    8.8123   40.1845   34.2134 O   0  0  0  0  0  0  0  0  0  0  0  0
   11.2400   40.7954   33.3680 O   0  0  0  0  0  0  0  0  0  0  0  0
   10.9124   40.6877   31.9967 C   0  0  0  0  0  0  0  0  0  0  0  0
   11.5169   39.3811   31.4420 C   0  0  0  0  0  0  0  0  0  0  0  0
   12.7500   39.0881   32.0759 O   0  0  0  0  0  0  0  0  0  0  0  0
   10.6043   38.1893   31.6659 C   0  0  0  0  0  0  0  0  0  0  0  0
   12.9395   37.6814   32.0280 C   0  0  0  0  0  0  0  0  0  0  0  0
    9.6353   38.0951   30.6499 O   0  0  0  0  0  0  0  0  0  0  0  0
   11.5803   37.0191   31.6934 C   0  0  0  0  0  0  0  0  0  0  0  0
   13.4851   37.2118   33.3244 N   0  0  0  0  0  0  0  0  0  0  0  0
   11.6118   36.3189   30.4673 O   0  0  0  0  0  0  0  0  0  0  0  0
   14.4801   36.3317   33.5732 C   0  0  0  0  0  0  0  0  0  0  0  0
   13.1139   37.6277   34.5692 C   0  0  0  0  0  0  0  0  0  0  0  0
   15.2076   35.6154   32.6744 N   0  0  0  0  0  0  0  0  0  0  0  0
   14.6756   36.2303   34.9186 C   0  0  0  0  0  0  0  0  0  0  0  0
   13.8215   37.0450   35.5786 N   0  0  0  0  0  0  0  0  0  0  0  0
   16.1642   34.7602   33.1551 C   0  0  0  0  0  0  0  0  0  0  0  0
   15.6526   35.3506   35.4134 C   0  0  0  0  0  0  0  0  0  0  0  0
   16.3796   34.6316   34.5046 N   0  0  0  0  0  0  0  0  0  0  0  0
   15.9001   35.1933   36.8093 N   0  0  0  0  0  0  0  0  0  0  0  0
    8.9996   45.4383   33.6723 H   0  0  0  0  0  0  0  0  0  0  0  0
   11.0505   46.2278   34.4979 H   0  0  0  0  0  0  0  0  0  0  0  0
   10.7766   46.9368   33.0154 H   0  0  0  0  0  0  0  0  0  0  0  0
    9.3635   43.8352   31.4715 H   0  0  0  0  0  0  0  0  0  0  0  0
   10.7406   44.9070   31.1835 H   0  0  0  0  0  0  0  0  0  0  0  0
    7.0129   44.7164   31.5852 H   0  0  0  0  0  0  0  0  0  0  0  0
   10.3470   47.1864   30.4064 H   0  0  0  0  0  0  0  0  0  0  0  0
    5.4640   46.3038   30.5041 H   0  0  0  0  0  0  0  0  0  0  0  0
    8.8122   48.7619   29.3479 H   0  0  0  0  0  0  0  0  0  0  0  0
    5.4633   50.2274   28.2783 H   0  0  0  0  0  0  0  0  0  0  0  0
    6.9957   50.3838   29.1650 H   0  0  0  0  0  0  0  0  0  0  0  0
    5.7955   47.6706   26.8003 H   0  0  0  0  0  0  0  0  0  0  0  0
    9.4706   50.4986   24.9605 H   0  0  0  0  0  0  0  0  0  0  0  0
    8.3605   46.2858   23.0387 H   0  0  0  0  0  0  0  0  0  0  0  0
    7.1215   47.3741   22.2506 H   0  0  0  0  0  0  0  0  0  0  0  0
    9.8215   40.7220   31.7645 H   0  0  0  0  0  0  0  0  0  0  0  0
   11.3807   41.5455   31.4682 H   0  0  0  0  0  0  0  0  0  0  0  0
   11.6986   39.5088   30.3498 H   0  0  0  0  0  0  0  0  0  0  0  0
   10.1108   38.2737   32.6630 H   0  0  0  0  0  0  0  0  0  0  0  0
   13.6783   37.4562   31.2271 H   0  0  0  0  0  0  0  0  0  0  0  0
    9.0020   37.3860   30.9348 H   0  0  0  0  0  0  0  0  0  0  0  0
   11.2807   36.3053   32.4921 H   0  0  0  0  0  0  0  0  0  0  0  0
   11.8819   36.9600   29.7584 H   0  0  0  0  0  0  0  0  0  0  0  0
   12.3303   38.3538   34.7445 H   0  0  0  0  0  0  0  0  0  0  0  0
   16.7563   34.1783   32.4624 H   0  0  0  0  0  0  0  0  0  0  0  0
   15.3532   35.7359   37.5142 H   0  0  0  0  0  0  0  0  0  0  0  0
   16.6348   34.5301   37.1419 H   0  0  0  0  0  0  0  0  0  0  0  0
  1  2  2  0
  1  3  1  0
  3  4  1  0
  4  5  1  0
  6  1  1  0
  7  6  1  0
  6  8  1  0
  8  9  1  0
  9 10  2  0
 11  9  1  0
 10 12  1  0
 13 11  2  0
 12 14  2  0
 14 13  1  0
 14 15  1  0
 15 16  1  0
 16 17  1  0
 17 18  2  0
 19 17  1  0
 18 20  1  0
 21 19  2  0
 19 22  1  0
 20 23  1  0
 20 24  2  0
 24 21  1  0
 22 25  1  0
 22 26  2  0
 23 27  1  0
 24 28  1  0
 27 28  1  0
  4 29  2  0
  4 30  1  0
 31 30  1  0
 31 32  1  0
 32 33  1  0
 32 34  1  0
 33 35  1  0
 34 36  1  0
 34 37  1  0
 37 35  1  0
 35 38  1  0
 37 39  1  0
 40 38  1  0
 41 38  1  0
 42 40  2  0
 40 43  1  0
 44 41  2  0
 45 42  1  0
 43 46  2  0
 43 44  1  0
 47 45  2  0
 47 46  1  0
 46 48  1  0
  6 49  1  1
  7 50  1  0
  7 51  1  0
  8 52  1  0
  8 53  1  0
 10 54  1  0
 11 55  1  0
 12 56  1  0
 13 57  1  0
 16 58  1  0
 16 59  1  0
 18 60  1  0
 21 61  1  0
 27 62  1  0
 27 63  1  0
 31 64  1  0
 31 65  1  0
 32 66  1  0
 34 67  1  0
 35 68  1  0
 36 69  1  0
 37 70  1  0
 39 71  1  0
 41 72  1  0
 45 73  1  0
 48 74  1  0
 48 75  1  0
M  CHG  3   5  -1  22   1  25  -1
M  END
>  <EmbedRMS>  (119) 
0.0813950727359

$$$$

     RDKit          3D

 75 80  0  0  0  0  0  0  0  0999 V2000
   10.2805   43.7664   33.8250 C   0  0  0  0  0  0  0  0  0  0  0  0
   11.4111   43.5920   34.3667 O   0  0  0  0  0  0  0  0  0  0  0  0
    9.3622   42.7247   33.7343 O   0  0  0  0  0  0  0  0  0  0  0  0
    9.8904   41.2264   34.2937 P   0  0  0  0  0  0  0  0  0  0  0  0
   10.3732   41.4564   35.8832 O   0  0  0  0  0  0  0  0  0  0  0  0
    9.9458   45.0736   33.2113 C   0  0  1  0  0  0  0  0  0  0  0  0
   11.0265   46.0293   33.4706 N   0  0  0  0  0  0  0  0  0  0  0  0
    9.7535   44.8539   31.6951 C   0  0  0  0  0  0  0  0  0  0  0  0
    8.7955   45.8411   31.0850 C   0  0  0  0  0  0  0  0  0  0  0  0
    7.4087   45.6002   31.1001 C   0  0  0  0  0  0  0  0  0  0  0  0
    9.2831   46.9874   30.4395 C   0  0  0  0  0  0  0  0  0  0  0  0
    6.5281   46.5006   30.4845 C   0  0  0  0  0  0  0  0  0  0  0  0
    8.4027   47.8885   29.8296 C   0  0  0  0  0  0  0  0  0  0  0  0
    7.0134   47.6524   29.8501 C   0  0  0  0  0  0  0  0  0  0  0  0
    6.0868   48.5268   29.2593 O   0  0  0  0  0  0  0  0  0  0  0  0
    6.4065   49.7880   28.6691 C   0  0  0  0  0  0  0  0  0  0  0  0
    6.8319   50.7835   29.7252 C   0  0  0  0  0  0  0  0  0  0  0  0
    6.0506   50.8868   30.9002 C   0  0  0  0  0  0  0  0  0  0  0  0
    8.0119   51.5849   29.5915 C   0  0  0  0  0  0  0  0  0  0  0  0
    6.4870   51.7311   31.9130 C   0  0  0  0  0  0  0  0  0  0  0  0
    8.4162   52.4150   30.6623 C   0  0  0  0  0  0  0  0  0  0  0  0
    8.7822   51.5903   28.3801 N   0  0  0  0  0  0  0  0  0  0  0  0
    5.9018   51.9742   33.1407 O   0  0  0  0  0  0  0  0  0  0  0  0
    7.6231   52.4579   31.8018 C   0  0  0  0  0  0  0  0  0  0  0  0
    8.1539   51.7522   27.1669 O   0  0  0  0  0  0  0  0  0  0  0  0
   10.0261   51.6825   28.4320 O   0  0  0  0  0  0  0  0  0  0  0  0
    6.7246   52.9149   33.8443 C   0  0  0  0  0  0  0  0  0  0  0  0
    7.8123   53.1977   32.9532 O   0  0  0  0  0  0  0  0  0  0  0  0
    8.8129   40.1841   34.2125 O   0  0  0  0  0  0  0  0  0  0  0  0
   11.2419   40.7944   33.3695 O   0  0  0  0  0  0  0  0  0  0  0  0
   10.9185   40.6911   31.9970 C   0  0  0  0  0  0  0  0  0  0  0  0
   11.5172   39.3814   31.4407 C   0  0  0  0  0  0  0  0  0  0  0  0
   12.7492   39.0856   32.0729 O   0  0  0  0  0  0  0  0  0  0  0  0
   10.6023   38.1908   31.6665 C   0  0  0  0  0  0  0  0  0  0  0  0
   12.9319   37.6781   32.0281 C   0  0  0  0  0  0  0  0  0  0  0  0
    9.6392   38.0797   30.6452 O   0  0  0  0  0  0  0  0  0  0  0  0
   11.5715   37.0165   31.7056 C   0  0  0  0  0  0  0  0  0  0  0  0
   13.4847   37.2121   33.3235 N   0  0  0  0  0  0  0  0  0  0  0  0
   11.6187   36.3384   30.4694 O   0  0  0  0  0  0  0  0  0  0  0  0
   14.4801   36.3321   33.5724 C   0  0  0  0  0  0  0  0  0  0  0  0
   13.1137   37.6276   34.5688 C   0  0  0  0  0  0  0  0  0  0  0  0
   15.2073   35.6153   32.6738 N   0  0  0  0  0  0  0  0  0  0  0  0
   14.6759   36.2308   34.9179 C   0  0  0  0  0  0  0  0  0  0  0  0
   13.8216   37.0452   35.5781 N   0  0  0  0  0  0  0  0  0  0  0  0
   16.1640   34.7602   33.1546 C   0  0  0  0  0  0  0  0  0  0  0  0
   15.6526   35.3508   35.4129 C   0  0  0  0  0  0  0  0  0  0  0  0
   16.3794   34.6317   34.5041 N   0  0  0  0  0  0  0  0  0  0  0  0
   15.8999   35.1935   36.8088 N   0  0  0  0  0  0  0  0  0  0  0  0
    8.9995   45.4381   33.6724 H   0  0  0  0  0  0  0  0  0  0  0  0
   10.7760   46.9369   33.0157 H   0  0  0  0  0  0  0  0  0  0  0  0
   11.0502   46.2279   34.4980 H   0  0  0  0  0  0  0  0  0  0  0  0
   10.7406   44.9069   31.1836 H   0  0  0  0  0  0  0  0  0  0  0  0
    9.3634   43.8353   31.4716 H   0  0  0  0  0  0  0  0  0  0  0  0
    7.0131   44.7157   31.5841 H   0  0  0  0  0  0  0  0  0  0  0  0
   10.3474   47.1851   30.4047 H   0  0  0  0  0  0  0  0  0  0  0  0
    5.4637   46.3042   30.5053 H   0  0  0  0  0  0  0  0  0  0  0  0
    8.8154   48.7586   29.3402 H   0  0  0  0  0  0  0  0  0  0  0  0
    7.1720   49.6319   27.8836 H   0  0  0  0  0  0  0  0  0  0  0  0
    5.4949   50.1794   28.1715 H   0  0  0  0  0  0  0  0  0  0  0  0
    5.1452   50.3072   31.0299 H   0  0  0  0  0  0  0  0  0  0  0  0
    9.3056   53.0284   30.5957 H   0  0  0  0  0  0  0  0  0  0  0  0
    6.1522   53.8422   34.0566 H   0  0  0  0  0  0  0  0  0  0  0  0
    7.1066   52.4635   34.7839 H   0  0  0  0  0  0  0  0  0  0  0  0
    9.8298   40.7408   31.7611 H   0  0  0  0  0  0  0  0  0  0  0  0
   11.3966   41.5460   31.4726 H   0  0  0  0  0  0  0  0  0  0  0  0
   11.6975   39.5066   30.3481 H   0  0  0  0  0  0  0  0  0  0  0  0
   10.1076   38.2647   32.6645 H   0  0  0  0  0  0  0  0  0  0  0  0
   13.6621   37.4468   31.2209 H   0  0  0  0  0  0  0  0  0  0  0  0
    8.8974   38.6942   30.8832 H   0  0  0  0  0  0  0  0  0  0  0  0
   11.2806   36.3073   32.5170 H   0  0  0  0  0  0  0  0  0  0  0  0
   10.8493   35.7110   30.4585 H   0  0  0  0  0  0  0  0  0  0  0  0
   12.3291   38.3524   34.7444 H   0  0  0  0  0  0  0  0  0  0  0  0
   16.7559   34.1780   32.4619 H   0  0  0  0  0  0  0  0  0  0  0  0
   16.6344   34.5301   37.1414 H   0  0  0  0  0  0  0  0  0  0  0  0
   15.3531   35.7362   37.5137 H   0  0  0  0  0  0  0  0  0  0  0  0
  1  2  2  0
  1  3  1  0
  3  4  1  0
  4  5  1  0
  6  1  1  0
  7  6  1  0
  6  8  1  0
  8  9  1  0
  9 10  2  0
 11  9  1  0
 10 12  1  0
 13 11  2  0
 12 14  2  0
 14 13  1  0
 14 15  1  0
 15 16  1  0
 16 17  1  0
 17 18  2  0
 19 17  1  0
 18 20  1  0
 21 19  2  0
 19 22  1  0
 20 23  1  0
 20 24  2  0
 24 21  1  0
 22 25  1  0
 22 26  2  0
 23 27  1  0
 24 28  1  0
 27 28  1  0
  4 29  2  0
  4 30  1  0
 31 30  1  0
 31 32  1  0
 32 33  1  0
 32 34  1  0
 33 35  1  0
 34 36  1  0
 34 37  1  0
 37 35  1  0
 35 38  1  0
 37 39  1  0
 40 38  1  0
 41 38  1  0
 42 40  2  0
 40 43  1  0
 44 41  2  0
 45 42  1  0
 43 46  2  0
 43 44  1  0
 47 45  2  0
 47 46  1  0
 46 48  1  0
  6 49  1  1
  7 50  1  0
  7 51  1  0
  8 52  1  0
  8 53  1  0
 10 54  1  0
 11 55  1  0
 12 56  1  0
 13 57  1  0
 16 58  1  0
 16 59  1  0
 18 60  1  0
 21 61  1  0
 27 62  1  0
 27 63  1  0
 31 64  1  0
 31 65  1  0
 32 66  1  0
 34 67  1  0
 35 68  1  0
 36 69  1  0
 37 70  1  0
 39 71  1  0
 41 72  1  0
 45 73  1  0
 48 74  1  0
 48 75  1  0
M  CHG  3   5  -1  22   1  25  -1
M  END
>  <EmbedRMS>  (120) 
0.0827721483813

$$$$

     RDKit          3D

 75 80  0  0  0  0  0  0  0  0999 V2000
   10.2838   43.7626   33.8276 C   0  0  0  0  0  0  0  0  0  0  0  0
   11.4103   43.5863   34.3766 O   0  0  0  0  0  0  0  0  0  0  0  0
    9.3630   42.7236   33.7354 O   0  0  0  0  0  0  0  0  0  0  0  0
    9.8897   41.2248   34.2935 P   0  0  0  0  0  0  0  0  0  0  0  0
   10.3735   41.4542   35.8829 O   0  0  0  0  0  0  0  0  0  0  0  0
    9.9548   45.0699   33.2063 C   0  0  1  0  0  0  0  0  0  0  0  0
   11.0198   46.0480   33.4567 N   0  0  0  0  0  0  0  0  0  0  0  0
    9.7501   44.8507   31.6923 C   0  0  0  0  0  0  0  0  0  0  0  0
    8.7942   45.8416   31.0867 C   0  0  0  0  0  0  0  0  0  0  0  0
    7.4073   45.6013   31.1004 C   0  0  0  0  0  0  0  0  0  0  0  0
    9.2832   46.9892   30.4451 C   0  0  0  0  0  0  0  0  0  0  0  0
    6.5278   46.5023   30.4848 C   0  0  0  0  0  0  0  0  0  0  0  0
    8.4037   47.8903   29.8334 C   0  0  0  0  0  0  0  0  0  0  0  0
    7.0148   47.6509   29.8458 C   0  0  0  0  0  0  0  0  0  0  0  0
    6.0903   48.5176   29.2404 O   0  0  0  0  0  0  0  0  0  0  0  0
    6.4278   49.6723   28.4698 C   0  0  0  0  0  0  0  0  0  0  0  0
    7.0634   49.2749   27.1559 C   0  0  0  0  0  0  0  0  0  0  0  0
    6.4488   48.2481   26.4011 C   0  0  0  0  0  0  0  0  0  0  0  0
    8.2764   49.8706   26.6772 C   0  0  0  0  0  0  0  0  0  0  0  0
    7.0756   47.8143   25.2401 C   0  0  0  0  0  0  0  0  0  0  0  0
    8.8779   49.3760   25.4980 C   0  0  0  0  0  0  0  0  0  0  0  0
    8.8918   50.9787   27.3511 N   0  0  0  0  0  0  0  0  0  0  0  0
    6.6724   46.8246   24.3644 O   0  0  0  0  0  0  0  0  0  0  0  0
    8.2420   48.3497   24.8112 C   0  0  0  0  0  0  0  0  0  0  0  0
   10.2634   51.0795   27.3876 O   0  0  0  0  0  0  0  0  0  0  0  0
    8.2062   51.9664   27.6864 O   0  0  0  0  0  0  0  0  0  0  0  0
    7.6496   46.7344   23.3186 C   0  0  0  0  0  0  0  0  0  0  0  0
    8.6340   47.7260   23.6424 O   0  0  0  0  0  0  0  0  0  0  0  0
    8.8114   40.1834   34.2127 O   0  0  0  0  0  0  0  0  0  0  0  0
   11.2398   40.7937   33.3671 O   0  0  0  0  0  0  0  0  0  0  0  0
   10.9125   40.6857   31.9955 C   0  0  0  0  0  0  0  0  0  0  0  0
   11.5175   39.3786   31.4405 C   0  0  0  0  0  0  0  0  0  0  0  0
   12.7490   39.0863   32.0751 O   0  0  0  0  0  0  0  0  0  0  0  0
   10.6061   38.1867   31.6656 C   0  0  0  0  0  0  0  0  0  0  0  0
   12.9356   37.6796   32.0292 C   0  0  0  0  0  0  0  0  0  0  0  0
    9.6399   38.0902   30.6471 O   0  0  0  0  0  0  0  0  0  0  0  0
   11.5765   37.0145   31.7043 C   0  0  0  0  0  0  0  0  0  0  0  0
   13.4858   37.2125   33.3244 N   0  0  0  0  0  0  0  0  0  0  0  0
   11.6101   36.3396   30.4673 O   0  0  0  0  0  0  0  0  0  0  0  0
   14.4805   36.3319   33.5729 C   0  0  0  0  0  0  0  0  0  0  0  0
   13.1143   37.6276   34.5694 C   0  0  0  0  0  0  0  0  0  0  0  0
   15.2076   35.6153   32.6741 N   0  0  0  0  0  0  0  0  0  0  0  0
   14.6760   36.2304   34.9184 C   0  0  0  0  0  0  0  0  0  0  0  0
   13.8219   37.0449   35.5786 N   0  0  0  0  0  0  0  0  0  0  0  0
   16.1641   34.7600   33.1548 C   0  0  0  0  0  0  0  0  0  0  0  0
   15.6528   35.3505   35.4132 C   0  0  0  0  0  0  0  0  0  0  0  0
   16.3795   34.6314   34.5043 N   0  0  0  0  0  0  0  0  0  0  0  0
   15.9002   35.1932   36.8091 N   0  0  0  0  0  0  0  0  0  0  0  0
    9.0099   45.4349   33.6670 H   0  0  0  0  0  0  0  0  0  0  0  0
   11.9348   45.6932   33.0923 H   0  0  0  0  0  0  0  0  0  0  0  0
   11.1135   46.1992   34.4880 H   0  0  0  0  0  0  0  0  0  0  0  0
   10.7304   44.8922   31.1674 H   0  0  0  0  0  0  0  0  0  0  0  0
    9.3508   43.8342   31.4762 H   0  0  0  0  0  0  0  0  0  0  0  0
    7.0107   44.7163   31.5826 H   0  0  0  0  0  0  0  0  0  0  0  0
   10.3475   47.1889   30.4177 H   0  0  0  0  0  0  0  0  0  0  0  0
    5.4635   46.3045   30.5012 H   0  0  0  0  0  0  0  0  0  0  0  0
    8.8163   48.7674   29.3565 H   0  0  0  0  0  0  0  0  0  0  0  0
    7.0680   50.3368   29.0828 H   0  0  0  0  0  0  0  0  0  0  0  0
    5.4921   50.2265   28.2475 H   0  0  0  0  0  0  0  0  0  0  0  0
    5.5245   47.7853   26.7235 H   0  0  0  0  0  0  0  0  0  0  0  0
    9.7974   49.7987   25.1140 H   0  0  0  0  0  0  0  0  0  0  0  0
    8.1112   45.7248   23.3103 H   0  0  0  0  0  0  0  0  0  0  0  0
    7.1839   46.9631   22.3371 H   0  0  0  0  0  0  0  0  0  0  0  0
   11.3807   41.5436   31.4670 H   0  0  0  0  0  0  0  0  0  0  0  0
    9.8216   40.7200   31.7634 H   0  0  0  0  0  0  0  0  0  0  0  0
   11.6998   39.5042   30.3481 H   0  0  0  0  0  0  0  0  0  0  0  0
   10.1085   38.2766   32.6603 H   0  0  0  0  0  0  0  0  0  0  0  0
   13.6680   37.4519   31.2229 H   0  0  0  0  0  0  0  0  0  0  0  0
    9.0016   37.3867   30.9349 H   0  0  0  0  0  0  0  0  0  0  0  0
   11.2667   36.3061   32.5083 H   0  0  0  0  0  0  0  0  0  0  0  0
   12.1389   35.5126   30.6150 H   0  0  0  0  0  0  0  0  0  0  0  0
   12.3300   38.3529   34.7449 H   0  0  0  0  0  0  0  0  0  0  0  0
   16.7560   34.1779   32.4621 H   0  0  0  0  0  0  0  0  0  0  0  0
   16.6347   34.5298   37.1416 H   0  0  0  0  0  0  0  0  0  0  0  0
   15.3534   35.7359   37.5140 H   0  0  0  0  0  0  0  0  0  0  0  0
  1  2  2  0
  1  3  1  0
  3  4  1  0
  4  5  1  0
  6  1  1  0
  7  6  1  0
  6  8  1  0
  8  9  1  0
  9 10  2  0
 11  9  1  0
 10 12  1  0
 13 11  2  0
 12 14  2  0
 14 13  1  0
 14 15  1  0
 15 16  1  0
 16 17  1  0
 17 18  2  0
 19 17  1  0
 18 20  1  0
 21 19  2  0
 19 22  1  0
 20 23  1  0
 20 24  2  0
 24 21  1  0
 22 25  1  0
 22 26  2  0
 23 27  1  0
 24 28  1  0
 27 28  1  0
  4 29  2  0
  4 30  1  0
 31 30  1  0
 31 32  1  0
 32 33  1  0
 32 34  1  0
 33 35  1  0
 34 36  1  0
 34 37  1  0
 37 35  1  0
 35 38  1  0
 37 39  1  0
 40 38  1  0
 41 38  1  0
 42 40  2  0
 40 43  1  0
 44 41  2  0
 45 42  1  0
 43 46  2  0
 43 44  1  0
 47 45  2  0
 47 46  1  0
 46 48  1  0
  6 49  1  1
  7 50  1  0
  7 51  1  0
  8 52  1  0
  8 53  1  0
 10 54  1  0
 11 55  1  0
 12 56  1  0
 13 57  1  0
 16 58  1  0
 16 59  1  0
 18 60  1  0
 21 61  1  0
 27 62  1  0
 27 63  1  0
 31 64  1  0
 31 65  1  0
 32 66  1  0
 34 67  1  0
 35 68  1  0
 36 69  1  0
 37 70  1  0
 39 71  1  0
 41 72  1  0
 45 73  1  0
 48 74  1  0
 48 75  1  0
M  CHG  3   5  -1  22   1  25  -1
M  END
>  <EmbedRMS>  (121) 
0.0832989055714

$$$$

     RDKit          3D

 75 80  0  0  0  0  0  0  0  0999 V2000
   10.2835   43.7662   33.8258 C   0  0  0  0  0  0  0  0  0  0  0  0
   11.4103   43.5931   34.3753 O   0  0  0  0  0  0  0  0  0  0  0  0
    9.3638   42.7255   33.7352 O   0  0  0  0  0  0  0  0  0  0  0  0
    9.8904   41.2268   34.2946 P   0  0  0  0  0  0  0  0  0  0  0  0
   10.3729   41.4561   35.8842 O   0  0  0  0  0  0  0  0  0  0  0  0
    9.9546   45.0695   33.2037 C   0  0  1  0  0  0  0  0  0  0  0  0
   11.0272   46.0323   33.4756 N   0  0  0  0  0  0  0  0  0  0  0  0
    9.7465   44.8480   31.6878 C   0  0  0  0  0  0  0  0  0  0  0  0
    8.7922   45.8409   31.0848 C   0  0  0  0  0  0  0  0  0  0  0  0
    7.4055   45.6011   31.0983 C   0  0  0  0  0  0  0  0  0  0  0  0
    9.2823   46.9873   30.4418 C   0  0  0  0  0  0  0  0  0  0  0  0
    6.5268   46.5026   30.4826 C   0  0  0  0  0  0  0  0  0  0  0  0
    8.4033   47.8891   29.8306 C   0  0  0  0  0  0  0  0  0  0  0  0
    7.0140   47.6546   29.8502 C   0  0  0  0  0  0  0  0  0  0  0  0
    6.0883   48.5293   29.2593 O   0  0  0  0  0  0  0  0  0  0  0  0
    6.3935   49.8182   28.7248 C   0  0  0  0  0  0  0  0  0  0  0  0
    6.7810   50.7812   29.8238 C   0  0  0  0  0  0  0  0  0  0  0  0
    8.0150   51.4646   29.7139 C   0  0  0  0  0  0  0  0  0  0  0  0
    5.9598   50.9875   30.9834 C   0  0  0  0  0  0  0  0  0  0  0  0
    8.4062   52.2965   30.7543 C   0  0  0  0  0  0  0  0  0  0  0  0
    6.4191   51.8375   32.0161 C   0  0  0  0  0  0  0  0  0  0  0  0
    4.6833   50.3416   31.1391 N   0  0  0  0  0  0  0  0  0  0  0  0
    9.5613   53.0463   30.8666 O   0  0  0  0  0  0  0  0  0  0  0  0
    7.6441   52.4723   31.8580 C   0  0  0  0  0  0  0  0  0  0  0  0
    4.2077   50.0564   32.3984 O   0  0  0  0  0  0  0  0  0  0  0  0
    3.9226   50.1865   30.1622 O   0  0  0  0  0  0  0  0  0  0  0  0
    9.5197   53.7372   32.1226 C   0  0  0  0  0  0  0  0  0  0  0  0
    8.2786   53.3426   32.7233 O   0  0  0  0  0  0  0  0  0  0  0  0
    8.8125   40.1848   34.2126 O   0  0  0  0  0  0  0  0  0  0  0  0
   11.2416   40.7948   33.3707 O   0  0  0  0  0  0  0  0  0  0  0  0
   10.9179   40.6922   31.9984 C   0  0  0  0  0  0  0  0  0  0  0  0
   11.5175   39.3838   31.4423 C   0  0  0  0  0  0  0  0  0  0  0  0
   12.7508   39.0887   32.0752 O   0  0  0  0  0  0  0  0  0  0  0  0
   10.6028   38.1916   31.6659 C   0  0  0  0  0  0  0  0  0  0  0  0
   12.9385   37.6819   32.0278 C   0  0  0  0  0  0  0  0  0  0  0  0
    9.6371   38.0806   30.6470 O   0  0  0  0  0  0  0  0  0  0  0  0
   11.5780   37.0215   31.6935 C   0  0  0  0  0  0  0  0  0  0  0  0
   13.4844   37.2119   33.3242 N   0  0  0  0  0  0  0  0  0  0  0  0
   11.6095   36.3202   30.4679 O   0  0  0  0  0  0  0  0  0  0  0  0
   14.4797   36.3318   33.5730 C   0  0  0  0  0  0  0  0  0  0  0  0
   13.1135   37.6278   34.5691 C   0  0  0  0  0  0  0  0  0  0  0  0
   15.2073   35.6155   32.6742 N   0  0  0  0  0  0  0  0  0  0  0  0
   14.6754   36.2305   34.9184 C   0  0  0  0  0  0  0  0  0  0  0  0
   13.8213   37.0452   35.5785 N   0  0  0  0  0  0  0  0  0  0  0  0
   16.1640   34.7604   33.1549 C   0  0  0  0  0  0  0  0  0  0  0  0
   15.6524   35.3507   35.4132 C   0  0  0  0  0  0  0  0  0  0  0  0
   16.3794   34.6318   34.5044 N   0  0  0  0  0  0  0  0  0  0  0  0
   15.8999   35.1934   36.8091 N   0  0  0  0  0  0  0  0  0  0  0  0
    9.0120   45.4317   33.6716 H   0  0  0  0  0  0  0  0  0  0  0  0
   11.8904   45.7661   32.9468 H   0  0  0  0  0  0  0  0  0  0  0  0
   10.7257   46.9689   33.1213 H   0  0  0  0  0  0  0  0  0  0  0  0
    9.3412   43.8329   31.4765 H   0  0  0  0  0  0  0  0  0  0  0  0
   10.7228   44.8813   31.1558 H   0  0  0  0  0  0  0  0  0  0  0  0
    7.0082   44.7162   31.5801 H   0  0  0  0  0  0  0  0  0  0  0  0
   10.3471   47.1828   30.4085 H   0  0  0  0  0  0  0  0  0  0  0  0
    5.4621   46.3075   30.5021 H   0  0  0  0  0  0  0  0  0  0  0  0
    8.8176   48.7559   29.3378 H   0  0  0  0  0  0  0  0  0  0  0  0
    7.1863   49.7241   27.9513 H   0  0  0  0  0  0  0  0  0  0  0  0
    5.4977   50.2112   28.2020 H   0  0  0  0  0  0  0  0  0  0  0  0
    8.6588   51.3397   28.8525 H   0  0  0  0  0  0  0  0  0  0  0  0
    5.8313   52.0122   32.9078 H   0  0  0  0  0  0  0  0  0  0  0  0
    9.5336   54.8350   31.9577 H   0  0  0  0  0  0  0  0  0  0  0  0
   10.3715   53.4236   32.7618 H   0  0  0  0  0  0  0  0  0  0  0  0
    9.8291   40.7409   31.7627 H   0  0  0  0  0  0  0  0  0  0  0  0
   11.3952   41.5478   31.4744 H   0  0  0  0  0  0  0  0  0  0  0  0
   11.6981   39.5115   30.3500 H   0  0  0  0  0  0  0  0  0  0  0  0
   10.1117   38.2604   32.6661 H   0  0  0  0  0  0  0  0  0  0  0  0
   13.6767   37.4556   31.2267 H   0  0  0  0  0  0  0  0  0  0  0  0
    8.8961   38.6952   30.8872 H   0  0  0  0  0  0  0  0  0  0  0  0
   11.2791   36.3072   32.4922 H   0  0  0  0  0  0  0  0  0  0  0  0
   11.8828   36.9598   29.7589 H   0  0  0  0  0  0  0  0  0  0  0  0
   12.3300   38.3539   34.7446 H   0  0  0  0  0  0  0  0  0  0  0  0
   16.7561   34.1785   32.4622 H   0  0  0  0  0  0  0  0  0  0  0  0
   16.6346   34.5303   37.1417 H   0  0  0  0  0  0  0  0  0  0  0  0
   15.3530   35.7361   37.5140 H   0  0  0  0  0  0  0  0  0  0  0  0
  1  2  2  0
  1  3  1  0
  3  4  1  0
  4  5  1  0
  6  1  1  0
  7  6  1  0
  6  8  1  0
  8  9  1  0
  9 10  2  0
 11  9  1  0
 10 12  1  0
 13 11  2  0
 12 14  2  0
 14 13  1  0
 14 15  1  0
 15 16  1  0
 16 17  1  0
 17 18  2  0
 19 17  1  0
 18 20  1  0
 21 19  2  0
 19 22  1  0
 20 23  1  0
 20 24  2  0
 24 21  1  0
 22 25  1  0
 22 26  2  0
 23 27  1  0
 24 28  1  0
 27 28  1  0
  4 29  2  0
  4 30  1  0
 31 30  1  0
 31 32  1  0
 32 33  1  0
 32 34  1  0
 33 35  1  0
 34 36  1  0
 34 37  1  0
 37 35  1  0
 35 38  1  0
 37 39  1  0
 40 38  1  0
 41 38  1  0
 42 40  2  0
 40 43  1  0
 44 41  2  0
 45 42  1  0
 43 46  2  0
 43 44  1  0
 47 45  2  0
 47 46  1  0
 46 48  1  0
  6 49  1  1
  7 50  1  0
  7 51  1  0
  8 52  1  0
  8 53  1  0
 10 54  1  0
 11 55  1  0
 12 56  1  0
 13 57  1  0
 16 58  1  0
 16 59  1  0
 18 60  1  0
 21 61  1  0
 27 62  1  0
 27 63  1  0
 31 64  1  0
 31 65  1  0
 32 66  1  0
 34 67  1  0
 35 68  1  0
 36 69  1  0
 37 70  1  0
 39 71  1  0
 41 72  1  0
 45 73  1  0
 48 74  1  0
 48 75  1  0
M  CHG  3   5  -1  22   1  25  -1
M  END
>  <EmbedRMS>  (122) 
0.0819788719175

$$$$

     RDKit          3D

 75 80  0  0  0  0  0  0  0  0999 V2000
   10.2834   43.7662   33.8255 C   0  0  0  0  0  0  0  0  0  0  0  0
   11.4102   43.5930   34.3752 O   0  0  0  0  0  0  0  0  0  0  0  0
    9.3636   42.7255   33.7349 O   0  0  0  0  0  0  0  0  0  0  0  0
    9.8902   41.2267   34.2942 P   0  0  0  0  0  0  0  0  0  0  0  0
   10.3736   41.4561   35.8836 O   0  0  0  0  0  0  0  0  0  0  0  0
    9.9548   45.0695   33.2034 C   0  0  1  0  0  0  0  0  0  0  0  0
   11.0274   46.0322   33.4758 N   0  0  0  0  0  0  0  0  0  0  0  0
    9.7471   44.8483   31.6874 C   0  0  0  0  0  0  0  0  0  0  0  0
    8.7925   45.8407   31.0841 C   0  0  0  0  0  0  0  0  0  0  0  0
    7.4058   45.6011   31.0998 C   0  0  0  0  0  0  0  0  0  0  0  0
    9.2817   46.9883   30.4425 C   0  0  0  0  0  0  0  0  0  0  0  0
    6.5245   46.5015   30.4860 C   0  0  0  0  0  0  0  0  0  0  0  0
    8.4004   47.8888   29.8330 C   0  0  0  0  0  0  0  0  0  0  0  0
    7.0189   47.6553   29.8439 C   0  0  0  0  0  0  0  0  0  0  0  0
    6.1818   48.5870   29.2087 O   0  0  0  0  0  0  0  0  0  0  0  0
    4.7693   48.4473   29.0463 C   0  0  0  0  0  0  0  0  0  0  0  0
    4.4473   47.3411   28.0665 C   0  0  0  0  0  0  0  0  0  0  0  0
    5.1676   47.2947   26.8497 C   0  0  0  0  0  0  0  0  0  0  0  0
    3.4753   46.3271   28.3485 C   0  0  0  0  0  0  0  0  0  0  0  0
    4.9414   46.2301   25.9868 C   0  0  0  0  0  0  0  0  0  0  0  0
    3.2990   45.2580   27.4400 C   0  0  0  0  0  0  0  0  0  0  0  0
    2.6491   46.3846   29.5211 N   0  0  0  0  0  0  0  0  0  0  0  0
    5.5354   45.9721   24.7664 O   0  0  0  0  0  0  0  0  0  0  0  0
    4.0514   45.2515   26.2724 C   0  0  0  0  0  0  0  0  0  0  0  0
    1.9893   47.5488   29.8404 O   0  0  0  0  0  0  0  0  0  0  0  0
    2.3407   45.3332   30.1193 O   0  0  0  0  0  0  0  0  0  0  0  0
    4.9812   44.7527   24.2538 C   0  0  0  0  0  0  0  0  0  0  0  0
    4.0375   44.3265   25.2463 O   0  0  0  0  0  0  0  0  0  0  0  0
    8.8120   40.1850   34.2131 O   0  0  0  0  0  0  0  0  0  0  0  0
   11.2404   40.7941   33.3690 O   0  0  0  0  0  0  0  0  0  0  0  0
   10.9143   40.6898   31.9972 C   0  0  0  0  0  0  0  0  0  0  0  0
   11.5261   39.3885   31.4376 C   0  0  0  0  0  0  0  0  0  0  0  0
   12.7504   39.0888   32.0816 O   0  0  0  0  0  0  0  0  0  0  0  0
   10.6115   38.1910   31.6460 C   0  0  0  0  0  0  0  0  0  0  0  0
   12.9357   37.6812   32.0303 C   0  0  0  0  0  0  0  0  0  0  0  0
    9.6145   38.0859   30.6533 O   0  0  0  0  0  0  0  0  0  0  0  0
   11.5769   37.0148   31.7012 C   0  0  0  0  0  0  0  0  0  0  0  0
   13.4849   37.2112   33.3247 N   0  0  0  0  0  0  0  0  0  0  0  0
   11.6193   36.3261   30.4724 O   0  0  0  0  0  0  0  0  0  0  0  0
   14.4802   36.3313   33.5730 C   0  0  0  0  0  0  0  0  0  0  0  0
   13.1141   37.6268   34.5698 C   0  0  0  0  0  0  0  0  0  0  0  0
   15.2075   35.6151   32.6741 N   0  0  0  0  0  0  0  0  0  0  0  0
   14.6761   36.2300   34.9184 C   0  0  0  0  0  0  0  0  0  0  0  0
   13.8220   37.0445   35.5789 N   0  0  0  0  0  0  0  0  0  0  0  0
   16.1642   34.7600   33.1547 C   0  0  0  0  0  0  0  0  0  0  0  0
   15.6529   35.3503   35.4131 C   0  0  0  0  0  0  0  0  0  0  0  0
   16.3797   34.6314   34.5042 N   0  0  0  0  0  0  0  0  0  0  0  0
   15.9004   35.1930   36.8090 N   0  0  0  0  0  0  0  0  0  0  0  0
    9.0121   45.4317   33.6711 H   0  0  0  0  0  0  0  0  0  0  0  0
   11.8908   45.7658   32.9474 H   0  0  0  0  0  0  0  0  0  0  0  0
   10.7261   46.9688   33.1214 H   0  0  0  0  0  0  0  0  0  0  0  0
    9.3425   43.8330   31.4757 H   0  0  0  0  0  0  0  0  0  0  0  0
   10.7236   44.8823   31.1556 H   0  0  0  0  0  0  0  0  0  0  0  0
    7.0099   44.7167   31.5838 H   0  0  0  0  0  0  0  0  0  0  0  0
   10.3459   47.1868   30.4110 H   0  0  0  0  0  0  0  0  0  0  0  0
    5.4657   46.2899   30.5215 H   0  0  0  0  0  0  0  0  0  0  0  0
    8.7938   48.7700   29.3423 H   0  0  0  0  0  0  0  0  0  0  0  0
    4.3076   48.2959   30.0420 H   0  0  0  0  0  0  0  0  0  0  0  0
    4.3712   49.3990   28.6368 H   0  0  0  0  0  0  0  0  0  0  0  0
    5.8993   48.0517   26.5966 H   0  0  0  0  0  0  0  0  0  0  0  0
    2.5773   44.4731   27.6260 H   0  0  0  0  0  0  0  0  0  0  0  0
    5.7786   43.9902   24.1310 H   0  0  0  0  0  0  0  0  0  0  0  0
    4.4642   44.9413   23.2896 H   0  0  0  0  0  0  0  0  0  0  0  0
    9.8233   40.7191   31.7647 H   0  0  0  0  0  0  0  0  0  0  0  0
   11.3779   41.5526   31.4726 H   0  0  0  0  0  0  0  0  0  0  0  0
   11.7283   39.5312   30.3515 H   0  0  0  0  0  0  0  0  0  0  0  0
   10.1127   38.2734   32.6376 H   0  0  0  0  0  0  0  0  0  0  0  0
   13.6692   37.4566   31.2242 H   0  0  0  0  0  0  0  0  0  0  0  0
   10.0533   38.1119   29.7635 H   0  0  0  0  0  0  0  0  0  0  0  0
   11.2607   36.3148   32.5102 H   0  0  0  0  0  0  0  0  0  0  0  0
   12.1496   35.5023   30.6324 H   0  0  0  0  0  0  0  0  0  0  0  0
   12.3301   38.3524   34.7455 H   0  0  0  0  0  0  0  0  0  0  0  0
   16.7563   34.1781   32.4619 H   0  0  0  0  0  0  0  0  0  0  0  0
   15.3536   35.7357   37.5139 H   0  0  0  0  0  0  0  0  0  0  0  0
   16.6351   34.5298   37.1415 H   0  0  0  0  0  0  0  0  0  0  0  0
  1  2  2  0
  1  3  1  0
  3  4  1  0
  4  5  1  0
  6  1  1  0
  7  6  1  0
  6  8  1  0
  8  9  1  0
  9 10  2  0
 11  9  1  0
 10 12  1  0
 13 11  2  0
 12 14  2  0
 14 13  1  0
 14 15  1  0
 15 16  1  0
 16 17  1  0
 17 18  2  0
 19 17  1  0
 18 20  1  0
 21 19  2  0
 19 22  1  0
 20 23  1  0
 20 24  2  0
 24 21  1  0
 22 25  1  0
 22 26  2  0
 23 27  1  0
 24 28  1  0
 27 28  1  0
  4 29  2  0
  4 30  1  0
 31 30  1  0
 31 32  1  0
 32 33  1  0
 32 34  1  0
 33 35  1  0
 34 36  1  0
 34 37  1  0
 37 35  1  0
 35 38  1  0
 37 39  1  0
 40 38  1  0
 41 38  1  0
 42 40  2  0
 40 43  1  0
 44 41  2  0
 45 42  1  0
 43 46  2  0
 43 44  1  0
 47 45  2  0
 47 46  1  0
 46 48  1  0
  6 49  1  1
  7 50  1  0
  7 51  1  0
  8 52  1  0
  8 53  1  0
 10 54  1  0
 11 55  1  0
 12 56  1  0
 13 57  1  0
 16 58  1  0
 16 59  1  0
 18 60  1  0
 21 61  1  0
 27 62  1  0
 27 63  1  0
 31 64  1  0
 31 65  1  0
 32 66  1  0
 34 67  1  0
 35 68  1  0
 36 69  1  0
 37 70  1  0
 39 71  1  0
 41 72  1  0
 45 73  1  0
 48 74  1  0
 48 75  1  0
M  CHG  3   5  -1  22   1  25  -1
M  END
>  <EmbedRMS>  (123) 
0.0816192092843

$$$$

     RDKit          3D

 75 80  0  0  0  0  0  0  0  0999 V2000
   10.2839   43.7626   33.8276 C   0  0  0  0  0  0  0  0  0  0  0  0
   11.4104   43.5863   34.3767 O   0  0  0  0  0  0  0  0  0  0  0  0
    9.3634   42.7234   33.7351 O   0  0  0  0  0  0  0  0  0  0  0  0
    9.8899   41.2247   34.2940 P   0  0  0  0  0  0  0  0  0  0  0  0
   10.3723   41.4545   35.8837 O   0  0  0  0  0  0  0  0  0  0  0  0
    9.9549   45.0700   33.2065 C   0  0  1  0  0  0  0  0  0  0  0  0
   11.0197   46.0482   33.4573 N   0  0  0  0  0  0  0  0  0  0  0  0
    9.7505   44.8513   31.6924 C   0  0  0  0  0  0  0  0  0  0  0  0
    8.7944   45.8421   31.0873 C   0  0  0  0  0  0  0  0  0  0  0  0
    7.4077   45.6002   31.0999 C   0  0  0  0  0  0  0  0  0  0  0  0
    9.2827   46.9889   30.4439 C   0  0  0  0  0  0  0  0  0  0  0  0
    6.5260   46.4991   30.4840 C   0  0  0  0  0  0  0  0  0  0  0  0
    8.4010   47.8875   29.8320 C   0  0  0  0  0  0  0  0  0  0  0  0
    7.0191   47.6566   29.8484 C   0  0  0  0  0  0  0  0  0  0  0  0
    6.1817   48.5952   29.2248 O   0  0  0  0  0  0  0  0  0  0  0  0
    4.7548   48.6007   29.2879 C   0  0  0  0  0  0  0  0  0  0  0  0
    4.2766   48.9283   30.6840 C   0  0  0  0  0  0  0  0  0  0  0  0
    3.3780   48.0348   31.3133 C   0  0  0  0  0  0  0  0  0  0  0  0
    4.7362   50.0869   31.3968 C   0  0  0  0  0  0  0  0  0  0  0  0
    2.9908   48.2961   32.6207 C   0  0  0  0  0  0  0  0  0  0  0  0
    4.3162   50.2917   32.7315 C   0  0  0  0  0  0  0  0  0  0  0  0
    5.6287   51.0453   30.8004 N   0  0  0  0  0  0  0  0  0  0  0  0
    2.1408   47.5643   33.4273 O   0  0  0  0  0  0  0  0  0  0  0  0
    3.4428   49.3745   33.3009 C   0  0  0  0  0  0  0  0  0  0  0  0
    6.4976   51.7596   31.5930 O   0  0  0  0  0  0  0  0  0  0  0  0
    5.5140   51.3637   29.5993 O   0  0  0  0  0  0  0  0  0  0  0  0
    2.0543   48.2280   34.6957 C   0  0  0  0  0  0  0  0  0  0  0  0
    2.9006   49.3791   34.5717 O   0  0  0  0  0  0  0  0  0  0  0  0
    8.8119   40.1831   34.2121 O   0  0  0  0  0  0  0  0  0  0  0  0
   11.2415   40.7932   33.3699 O   0  0  0  0  0  0  0  0  0  0  0  0
   10.9186   40.6909   31.9972 C   0  0  0  0  0  0  0  0  0  0  0  0
   11.5172   39.3814   31.4407 C   0  0  0  0  0  0  0  0  0  0  0  0
   12.7493   39.0855   32.0727 O   0  0  0  0  0  0  0  0  0  0  0  0
   10.6023   38.1907   31.6665 C   0  0  0  0  0  0  0  0  0  0  0  0
   12.9319   37.6781   32.0281 C   0  0  0  0  0  0  0  0  0  0  0  0
    9.6392   38.0797   30.6452 O   0  0  0  0  0  0  0  0  0  0  0  0
   11.5715   37.0165   31.7056 C   0  0  0  0  0  0  0  0  0  0  0  0
   13.4847   37.2121   33.3235 N   0  0  0  0  0  0  0  0  0  0  0  0
   11.6187   36.3383   30.4694 O   0  0  0  0  0  0  0  0  0  0  0  0
   14.4801   36.3321   33.5724 C   0  0  0  0  0  0  0  0  0  0  0  0
   13.1137   37.6275   34.5687 C   0  0  0  0  0  0  0  0  0  0  0  0
   15.2073   35.6153   32.6738 N   0  0  0  0  0  0  0  0  0  0  0  0
   14.6759   36.2308   34.9179 C   0  0  0  0  0  0  0  0  0  0  0  0
   13.8216   37.0452   35.5781 N   0  0  0  0  0  0  0  0  0  0  0  0
   16.1640   34.7602   33.1546 C   0  0  0  0  0  0  0  0  0  0  0  0
   15.6526   35.3508   35.4129 C   0  0  0  0  0  0  0  0  0  0  0  0
   16.3794   34.6317   34.5041 N   0  0  0  0  0  0  0  0  0  0  0  0
   15.8999   35.1935   36.8088 N   0  0  0  0  0  0  0  0  0  0  0  0
    9.0098   45.4348   33.6671 H   0  0  0  0  0  0  0  0  0  0  0  0
   11.1130   46.1993   34.4886 H   0  0  0  0  0  0  0  0  0  0  0  0
   11.9349   45.6935   33.0931 H   0  0  0  0  0  0  0  0  0  0  0  0
    9.3518   43.8346   31.4759 H   0  0  0  0  0  0  0  0  0  0  0  0
   10.7309   44.8934   31.1678 H   0  0  0  0  0  0  0  0  0  0  0  0
    7.0128   44.7132   31.5799 H   0  0  0  0  0  0  0  0  0  0  0  0
   10.3467   47.1890   30.4140 H   0  0  0  0  0  0  0  0  0  0  0  0
    5.4694   46.2771   30.5025 H   0  0  0  0  0  0  0  0  0  0  0  0
    8.7935   48.7705   29.3437 H   0  0  0  0  0  0  0  0  0  0  0  0
    4.3609   47.6255   28.9280 H   0  0  0  0  0  0  0  0  0  0  0  0
    4.3675   49.3675   28.5863 H   0  0  0  0  0  0  0  0  0  0  0  0
    3.0045   47.1539   30.8065 H   0  0  0  0  0  0  0  0  0  0  0  0
    4.6467   51.1495   33.3028 H   0  0  0  0  0  0  0  0  0  0  0  0
    2.4272   47.5634   35.5031 H   0  0  0  0  0  0  0  0  0  0  0  0
    1.0080   48.5412   34.8947 H   0  0  0  0  0  0  0  0  0  0  0  0
   11.3972   41.5459   31.4735 H   0  0  0  0  0  0  0  0  0  0  0  0
    9.8300   40.7410   31.7611 H   0  0  0  0  0  0  0  0  0  0  0  0
   11.6974   39.5067   30.3480 H   0  0  0  0  0  0  0  0  0  0  0  0
   10.1077   38.2647   32.6645 H   0  0  0  0  0  0  0  0  0  0  0  0
   13.6621   37.4467   31.2208 H   0  0  0  0  0  0  0  0  0  0  0  0
    8.8974   38.6943   30.8831 H   0  0  0  0  0  0  0  0  0  0  0  0
   11.2806   36.3073   32.5170 H   0  0  0  0  0  0  0  0  0  0  0  0
   10.8492   35.7110   30.4585 H   0  0  0  0  0  0  0  0  0  0  0  0
   12.3290   38.3524   34.7444 H   0  0  0  0  0  0  0  0  0  0  0  0
   16.7559   34.1780   32.4619 H   0  0  0  0  0  0  0  0  0  0  0  0
   16.6344   34.5301   37.1414 H   0  0  0  0  0  0  0  0  0  0  0  0
   15.3532   35.7362   37.5137 H   0  0  0  0  0  0  0  0  0  0  0  0
  1  2  2  0
  1  3  1  0
  3  4  1  0
  4  5  1  0
  6  1  1  0
  7  6  1  0
  6  8  1  0
  8  9  1  0
  9 10  2  0
 11  9  1  0
 10 12  1  0
 13 11  2  0
 12 14  2  0
 14 13  1  0
 14 15  1  0
 15 16  1  0
 16 17  1  0
 17 18  2  0
 19 17  1  0
 18 20  1  0
 21 19  2  0
 19 22  1  0
 20 23  1  0
 20 24  2  0
 24 21  1  0
 22 25  1  0
 22 26  2  0
 23 27  1  0
 24 28  1  0
 27 28  1  0
  4 29  2  0
  4 30  1  0
 31 30  1  0
 31 32  1  0
 32 33  1  0
 32 34  1  0
 33 35  1  0
 34 36  1  0
 34 37  1  0
 37 35  1  0
 35 38  1  0
 37 39  1  0
 40 38  1  0
 41 38  1  0
 42 40  2  0
 40 43  1  0
 44 41  2  0
 45 42  1  0
 43 46  2  0
 43 44  1  0
 47 45  2  0
 47 46  1  0
 46 48  1  0
  6 49  1  1
  7 50  1  0
  7 51  1  0
  8 52  1  0
  8 53  1  0
 10 54  1  0
 11 55  1  0
 12 56  1  0
 13 57  1  0
 16 58  1  0
 16 59  1  0
 18 60  1  0
 21 61  1  0
 27 62  1  0
 27 63  1  0
 31 64  1  0
 31 65  1  0
 32 66  1  0
 34 67  1  0
 35 68  1  0
 36 69  1  0
 37 70  1  0
 39 71  1  0
 41 72  1  0
 45 73  1  0
 48 74  1  0
 48 75  1  0
M  CHG  3   5  -1  22   1  25  -1
M  END
>  <EmbedRMS>  (124) 
0.0838154294879

$$$$

     RDKit          3D

 75 80  0  0  0  0  0  0  0  0999 V2000
   10.2838   43.7626   33.8275 C   0  0  0  0  0  0  0  0  0  0  0  0
   11.4103   43.5863   34.3765 O   0  0  0  0  0  0  0  0  0  0  0  0
    9.3629   42.7236   33.7354 O   0  0  0  0  0  0  0  0  0  0  0  0
    9.8893   41.2249   34.2944 P   0  0  0  0  0  0  0  0  0  0  0  0
   10.3727   41.4547   35.8838 O   0  0  0  0  0  0  0  0  0  0  0  0
    9.9549   45.0699   33.2060 C   0  0  1  0  0  0  0  0  0  0  0  0
   11.0197   46.0480   33.4569 N   0  0  0  0  0  0  0  0  0  0  0  0
    9.7507   44.8507   31.6918 C   0  0  0  0  0  0  0  0  0  0  0  0
    8.7947   45.8411   31.0857 C   0  0  0  0  0  0  0  0  0  0  0  0
    7.4078   45.6011   31.1009 C   0  0  0  0  0  0  0  0  0  0  0  0
    9.2827   46.9897   30.4455 C   0  0  0  0  0  0  0  0  0  0  0  0
    6.5258   46.5014   30.4871 C   0  0  0  0  0  0  0  0  0  0  0  0
    8.4006   47.8893   29.8357 C   0  0  0  0  0  0  0  0  0  0  0  0
    7.0194   47.6526   29.8418 C   0  0  0  0  0  0  0  0  0  0  0  0
    6.1851   48.5870   29.2086 O   0  0  0  0  0  0  0  0  0  0  0  0
    4.8236   48.3734   28.8330 C   0  0  0  0  0  0  0  0  0  0  0  0
    4.7313   47.4173   27.6665 C   0  0  0  0  0  0  0  0  0  0  0  0
    4.2171   46.1193   27.9003 C   0  0  0  0  0  0  0  0  0  0  0  0
    5.0934   47.8022   26.3304 C   0  0  0  0  0  0  0  0  0  0  0  0
    4.1043   45.2461   26.8273 C   0  0  0  0  0  0  0  0  0  0  0  0
    4.9448   46.8687   25.2766 C   0  0  0  0  0  0  0  0  0  0  0  0
    5.5582   49.1288   26.0153 N   0  0  0  0  0  0  0  0  0  0  0  0
    3.6417   43.9443   26.8244 O   0  0  0  0  0  0  0  0  0  0  0  0
    4.4544   45.6042   25.5715 C   0  0  0  0  0  0  0  0  0  0  0  0
    6.4095   49.8024   26.8585 O   0  0  0  0  0  0  0  0  0  0  0  0
    5.3143   49.6242   24.8953 O   0  0  0  0  0  0  0  0  0  0  0  0
    3.7091   43.4541   25.4785 C   0  0  0  0  0  0  0  0  0  0  0  0
    4.2329   44.5464   24.7108 O   0  0  0  0  0  0  0  0  0  0  0  0
    8.8113   40.1833   34.2130 O   0  0  0  0  0  0  0  0  0  0  0  0
   11.2399   40.7932   33.3693 O   0  0  0  0  0  0  0  0  0  0  0  0
   10.9142   40.6896   31.9974 C   0  0  0  0  0  0  0  0  0  0  0  0
   11.5260   39.3884   31.4376 C   0  0  0  0  0  0  0  0  0  0  0  0
   12.7504   39.0888   32.0815 O   0  0  0  0  0  0  0  0  0  0  0  0
   10.6114   38.1909   31.6461 C   0  0  0  0  0  0  0  0  0  0  0  0
   12.9357   37.6812   32.0303 C   0  0  0  0  0  0  0  0  0  0  0  0
    9.6145   38.0858   30.6534 O   0  0  0  0  0  0  0  0  0  0  0  0
   11.5769   37.0148   31.7012 C   0  0  0  0  0  0  0  0  0  0  0  0
   13.4849   37.2112   33.3247 N   0  0  0  0  0  0  0  0  0  0  0  0
   11.6193   36.3261   30.4723 O   0  0  0  0  0  0  0  0  0  0  0  0
   14.4802   36.3314   33.5730 C   0  0  0  0  0  0  0  0  0  0  0  0
   13.1141   37.6269   34.5698 C   0  0  0  0  0  0  0  0  0  0  0  0
   15.2074   35.6151   32.6741 N   0  0  0  0  0  0  0  0  0  0  0  0
   14.6761   36.2301   34.9184 C   0  0  0  0  0  0  0  0  0  0  0  0
   13.8221   37.0446   35.5789 N   0  0  0  0  0  0  0  0  0  0  0  0
   16.1642   34.7600   33.1547 C   0  0  0  0  0  0  0  0  0  0  0  0
   15.6530   35.3504   35.4131 C   0  0  0  0  0  0  0  0  0  0  0  0
   16.3797   34.6314   34.5041 N   0  0  0  0  0  0  0  0  0  0  0  0
   15.9005   35.1930   36.8090 N   0  0  0  0  0  0  0  0  0  0  0  0
    9.0098   45.4349   33.6664 H   0  0  0  0  0  0  0  0  0  0  0  0
   11.1129   46.1991   34.4883 H   0  0  0  0  0  0  0  0  0  0  0  0
   11.9349   45.6933   33.0928 H   0  0  0  0  0  0  0  0  0  0  0  0
   10.7312   44.8926   31.1672 H   0  0  0  0  0  0  0  0  0  0  0  0
    9.3519   43.8341   31.4756 H   0  0  0  0  0  0  0  0  0  0  0  0
    7.0120   44.7193   31.5898 H   0  0  0  0  0  0  0  0  0  0  0  0
   10.3466   47.1907   30.4168 H   0  0  0  0  0  0  0  0  0  0  0  0
    5.4679   46.2999   30.5430 H   0  0  0  0  0  0  0  0  0  0  0  0
    8.7934   48.7717   29.3465 H   0  0  0  0  0  0  0  0  0  0  0  0
    4.3739   49.3449   28.5393 H   0  0  0  0  0  0  0  0  0  0  0  0
    4.2376   48.0211   29.7084 H   0  0  0  0  0  0  0  0  0  0  0  0
    3.9004   45.7998   28.8839 H   0  0  0  0  0  0  0  0  0  0  0  0
    5.2074   47.1211   24.2573 H   0  0  0  0  0  0  0  0  0  0  0  0
    2.6950   43.1833   25.1171 H   0  0  0  0  0  0  0  0  0  0  0  0
    4.3940   42.5823   25.4210 H   0  0  0  0  0  0  0  0  0  0  0  0
    9.8233   40.7191   31.7644 H   0  0  0  0  0  0  0  0  0  0  0  0
   11.3781   41.5526   31.4734 H   0  0  0  0  0  0  0  0  0  0  0  0
   11.7281   39.5312   30.3515 H   0  0  0  0  0  0  0  0  0  0  0  0
   10.1127   38.2733   32.6377 H   0  0  0  0  0  0  0  0  0  0  0  0
   13.6693   37.4565   31.2242 H   0  0  0  0  0  0  0  0  0  0  0  0
   10.0533   38.1118   29.7636 H   0  0  0  0  0  0  0  0  0  0  0  0
   11.2607   36.3147   32.5101 H   0  0  0  0  0  0  0  0  0  0  0  0
   12.1495   35.5022   30.6323 H   0  0  0  0  0  0  0  0  0  0  0  0
   12.3301   38.3525   34.7455 H   0  0  0  0  0  0  0  0  0  0  0  0
   16.7561   34.1780   32.4619 H   0  0  0  0  0  0  0  0  0  0  0  0
   15.3536   35.7355   37.5140 H   0  0  0  0  0  0  0  0  0  0  0  0
   16.6351   34.5296   37.1414 H   0  0  0  0  0  0  0  0  0  0  0  0
  1  2  2  0
  1  3  1  0
  3  4  1  0
  4  5  1  0
  6  1  1  0
  7  6  1  0
  6  8  1  0
  8  9  1  0
  9 10  2  0
 11  9  1  0
 10 12  1  0
 13 11  2  0
 12 14  2  0
 14 13  1  0
 14 15  1  0
 15 16  1  0
 16 17  1  0
 17 18  2  0
 19 17  1  0
 18 20  1  0
 21 19  2  0
 19 22  1  0
 20 23  1  0
 20 24  2  0
 24 21  1  0
 22 25  1  0
 22 26  2  0
 23 27  1  0
 24 28  1  0
 27 28  1  0
  4 29  2  0
  4 30  1  0
 31 30  1  0
 31 32  1  0
 32 33  1  0
 32 34  1  0
 33 35  1  0
 34 36  1  0
 34 37  1  0
 37 35  1  0
 35 38  1  0
 37 39  1  0
 40 38  1  0
 41 38  1  0
 42 40  2  0
 40 43  1  0
 44 41  2  0
 45 42  1  0
 43 46  2  0
 43 44  1  0
 47 45  2  0
 47 46  1  0
 46 48  1  0
  6 49  1  1
  7 50  1  0
  7 51  1  0
  8 52  1  0
  8 53  1  0
 10 54  1  0
 11 55  1  0
 12 56  1  0
 13 57  1  0
 16 58  1  0
 16 59  1  0
 18 60  1  0
 21 61  1  0
 27 62  1  0
 27 63  1  0
 31 64  1  0
 31 65  1  0
 32 66  1  0
 34 67  1  0
 35 68  1  0
 36 69  1  0
 37 70  1  0
 39 71  1  0
 41 72  1  0
 45 73  1  0
 48 74  1  0
 48 75  1  0
M  CHG  3   5  -1  22   1  25  -1
M  END
>  <EmbedRMS>  (125) 
0.082542338301

$$$$

     RDKit          3D

 75 80  0  0  0  0  0  0  0  0999 V2000
   10.2834   43.7662   33.8257 C   0  0  0  0  0  0  0  0  0  0  0  0
   11.4102   43.5930   34.3752 O   0  0  0  0  0  0  0  0  0  0  0  0
    9.3635   42.7257   33.7352 O   0  0  0  0  0  0  0  0  0  0  0  0
    9.8899   41.2270   34.2947 P   0  0  0  0  0  0  0  0  0  0  0  0
   10.3732   41.4563   35.8841 O   0  0  0  0  0  0  0  0  0  0  0  0
    9.9548   45.0696   33.2035 C   0  0  1  0  0  0  0  0  0  0  0  0
   11.0274   46.0322   33.4759 N   0  0  0  0  0  0  0  0  0  0  0  0
    9.7471   44.8484   31.6875 C   0  0  0  0  0  0  0  0  0  0  0  0
    8.7925   45.8409   31.0843 C   0  0  0  0  0  0  0  0  0  0  0  0
    7.4056   45.6009   31.0995 C   0  0  0  0  0  0  0  0  0  0  0  0
    9.2817   46.9881   30.4420 C   0  0  0  0  0  0  0  0  0  0  0  0
    6.5242   46.5010   30.4850 C   0  0  0  0  0  0  0  0  0  0  0  0
    8.4005   47.8886   29.8322 C   0  0  0  0  0  0  0  0  0  0  0  0
    7.0189   47.6560   29.8459 C   0  0  0  0  0  0  0  0  0  0  0  0
    6.1796   48.5881   29.2184 O   0  0  0  0  0  0  0  0  0  0  0  0
    4.7585   48.4821   29.1569 C   0  0  0  0  0  0  0  0  0  0  0  0
    4.1908   49.6888   28.4505 C   0  0  0  0  0  0  0  0  0  0  0  0
    4.6138   50.9693   28.8787 C   0  0  0  0  0  0  0  0  0  0  0  0
    3.2730   49.5812   27.3537 C   0  0  0  0  0  0  0  0  0  0  0  0
    4.1595   52.0835   28.1848 C   0  0  0  0  0  0  0  0  0  0  0  0
    2.8592   50.7492   26.6739 C   0  0  0  0  0  0  0  0  0  0  0  0
    2.7309   48.3177   26.9413 N   0  0  0  0  0  0  0  0  0  0  0  0
    4.4492   53.4150   28.4131 O   0  0  0  0  0  0  0  0  0  0  0  0
    3.3247   51.9776   27.1251 C   0  0  0  0  0  0  0  0  0  0  0  0
    2.4977   48.0785   25.6067 O   0  0  0  0  0  0  0  0  0  0  0  0
    2.2353   47.5445   27.7867 O   0  0  0  0  0  0  0  0  0  0  0  0
    3.7497   54.1941   27.4329 C   0  0  0  0  0  0  0  0  0  0  0  0
    3.0439   53.2370   26.6311 O   0  0  0  0  0  0  0  0  0  0  0  0
    8.8120   40.1851   34.2133 O   0  0  0  0  0  0  0  0  0  0  0  0
   11.2403   40.7947   33.3700 O   0  0  0  0  0  0  0  0  0  0  0  0
   10.9145   40.6914   31.9982 C   0  0  0  0  0  0  0  0  0  0  0  0
   11.5270   39.3912   31.4385 C   0  0  0  0  0  0  0  0  0  0  0  0
   12.7520   39.0911   32.0836 O   0  0  0  0  0  0  0  0  0  0  0  0
   10.6113   38.1932   31.6451 C   0  0  0  0  0  0  0  0  0  0  0  0
   12.9413   37.6838   32.0297 C   0  0  0  0  0  0  0  0  0  0  0  0
    9.6064   38.0878   30.6599 O   0  0  0  0  0  0  0  0  0  0  0  0
   11.5822   37.0198   31.6877 C   0  0  0  0  0  0  0  0  0  0  0  0
   13.4840   37.2104   33.3254 N   0  0  0  0  0  0  0  0  0  0  0  0
   11.6179   36.3072   30.4690 O   0  0  0  0  0  0  0  0  0  0  0  0
   14.4797   36.3309   33.5738 C   0  0  0  0  0  0  0  0  0  0  0  0
   13.1136   37.6269   34.5702 C   0  0  0  0  0  0  0  0  0  0  0  0
   15.2074   35.6152   32.6747 N   0  0  0  0  0  0  0  0  0  0  0  0
   14.6756   36.2298   34.9190 C   0  0  0  0  0  0  0  0  0  0  0  0
   13.8217   37.0445   35.5793 N   0  0  0  0  0  0  0  0  0  0  0  0
   16.1643   34.7603   33.1551 C   0  0  0  0  0  0  0  0  0  0  0  0
   15.6528   35.3503   35.4136 C   0  0  0  0  0  0  0  0  0  0  0  0
   16.3798   34.6316   34.5046 N   0  0  0  0  0  0  0  0  0  0  0  0
   15.9004   35.1930   36.8094 N   0  0  0  0  0  0  0  0  0  0  0  0
    9.0121   45.4319   33.6712 H   0  0  0  0  0  0  0  0  0  0  0  0
   10.7262   46.9688   33.1214 H   0  0  0  0  0  0  0  0  0  0  0  0
   11.8909   45.7658   32.9476 H   0  0  0  0  0  0  0  0  0  0  0  0
   10.7236   44.8825   31.1557 H   0  0  0  0  0  0  0  0  0  0  0  0
    9.3426   43.8331   31.4758 H   0  0  0  0  0  0  0  0  0  0  0  0
    7.0100   44.7156   31.5821 H   0  0  0  0  0  0  0  0  0  0  0  0
   10.3460   47.1865   30.4104 H   0  0  0  0  0  0  0  0  0  0  0  0
    5.4643   46.2885   30.5131 H   0  0  0  0  0  0  0  0  0  0  0  0
    8.7935   48.7707   29.3427 H   0  0  0  0  0  0  0  0  0  0  0  0
    4.5041   47.5391   28.6344 H   0  0  0  0  0  0  0  0  0  0  0  0
    4.3436   48.4496   30.1873 H   0  0  0  0  0  0  0  0  0  0  0  0
    5.2927   51.0902   29.7137 H   0  0  0  0  0  0  0  0  0  0  0  0
    2.1714   50.7020   25.8395 H   0  0  0  0  0  0  0  0  0  0  0  0
    4.4706   54.7609   26.8071 H   0  0  0  0  0  0  0  0  0  0  0  0
    3.0328   54.8814   27.9290 H   0  0  0  0  0  0  0  0  0  0  0  0
    9.8235   40.7201   31.7654 H   0  0  0  0  0  0  0  0  0  0  0  0
   11.3777   41.5549   31.4744 H   0  0  0  0  0  0  0  0  0  0  0  0
   11.7312   39.5363   30.3532 H   0  0  0  0  0  0  0  0  0  0  0  0
   10.1203   38.2696   32.6410 H   0  0  0  0  0  0  0  0  0  0  0  0
   13.6850   37.4639   31.2321 H   0  0  0  0  0  0  0  0  0  0  0  0
   10.0251   38.1793   29.7654 H   0  0  0  0  0  0  0  0  0  0  0  0
   11.2757   36.3135   32.4907 H   0  0  0  0  0  0  0  0  0  0  0  0
   11.9838   36.9111   29.7708 H   0  0  0  0  0  0  0  0  0  0  0  0
   12.3307   38.3536   34.7457 H   0  0  0  0  0  0  0  0  0  0  0  0
   16.7566   34.1787   32.4623 H   0  0  0  0  0  0  0  0  0  0  0  0
   16.6353   34.5301   37.1419 H   0  0  0  0  0  0  0  0  0  0  0  0
   15.3535   35.7355   37.5144 H   0  0  0  0  0  0  0  0  0  0  0  0
  1  2  2  0
  1  3  1  0
  3  4  1  0
  4  5  1  0
  6  1  1  0
  7  6  1  0
  6  8  1  0
  8  9  1  0
  9 10  2  0
 11  9  1  0
 10 12  1  0
 13 11  2  0
 12 14  2  0
 14 13  1  0
 14 15  1  0
 15 16  1  0
 16 17  1  0
 17 18  2  0
 19 17  1  0
 18 20  1  0
 21 19  2  0
 19 22  1  0
 20 23  1  0
 20 24  2  0
 24 21  1  0
 22 25  1  0
 22 26  2  0
 23 27  1  0
 24 28  1  0
 27 28  1  0
  4 29  2  0
  4 30  1  0
 31 30  1  0
 31 32  1  0
 32 33  1  0
 32 34  1  0
 33 35  1  0
 34 36  1  0
 34 37  1  0
 37 35  1  0
 35 38  1  0
 37 39  1  0
 40 38  1  0
 41 38  1  0
 42 40  2  0
 40 43  1  0
 44 41  2  0
 45 42  1  0
 43 46  2  0
 43 44  1  0
 47 45  2  0
 47 46  1  0
 46 48  1  0
  6 49  1  1
  7 50  1  0
  7 51  1  0
  8 52  1  0
  8 53  1  0
 10 54  1  0
 11 55  1  0
 12 56  1  0
 13 57  1  0
 16 58  1  0
 16 59  1  0
 18 60  1  0
 21 61  1  0
 27 62  1  0
 27 63  1  0
 31 64  1  0
 31 65  1  0
 32 66  1  0
 34 67  1  0
 35 68  1  0
 36 69  1  0
 37 70  1  0
 39 71  1  0
 41 72  1  0
 45 73  1  0
 48 74  1  0
 48 75  1  0
M  CHG  3   5  -1  22   1  25  -1
M  END
>  <EmbedRMS>  (126) 
0.0808168308929

$$$$

     RDKit          3D

 75 80  0  0  0  0  0  0  0  0999 V2000
   10.2803   43.7665   33.8250 C   0  0  0  0  0  0  0  0  0  0  0  0
   11.4110   43.5919   34.3666 O   0  0  0  0  0  0  0  0  0  0  0  0
    9.3616   42.7251   33.7349 O   0  0  0  0  0  0  0  0  0  0  0  0
    9.8896   41.2269   34.2945 P   0  0  0  0  0  0  0  0  0  0  0  0
   10.3732   41.4568   35.8838 O   0  0  0  0  0  0  0  0  0  0  0  0
    9.9459   45.0736   33.2111 C   0  0  1  0  0  0  0  0  0  0  0  0
   11.0267   46.0291   33.4705 N   0  0  0  0  0  0  0  0  0  0  0  0
    9.7535   44.8538   31.6949 C   0  0  0  0  0  0  0  0  0  0  0  0
    8.7955   45.8409   31.0846 C   0  0  0  0  0  0  0  0  0  0  0  0
    7.4086   45.6008   31.1012 C   0  0  0  0  0  0  0  0  0  0  0  0
    9.2830   46.9879   30.4401 C   0  0  0  0  0  0  0  0  0  0  0  0
    6.5280   46.5015   30.4861 C   0  0  0  0  0  0  0  0  0  0  0  0
    8.4025   47.8895   29.8312 C   0  0  0  0  0  0  0  0  0  0  0  0
    7.0137   47.6501   29.8462 C   0  0  0  0  0  0  0  0  0  0  0  0
    6.0881   48.5169   29.2426 O   0  0  0  0  0  0  0  0  0  0  0  0
    6.4241   49.6703   28.4696 C   0  0  0  0  0  0  0  0  0  0  0  0
    7.0556   49.2706   27.1545 C   0  0  0  0  0  0  0  0  0  0  0  0
    6.4372   48.2444   26.4022 C   0  0  0  0  0  0  0  0  0  0  0  0
    8.2686   49.8635   26.6722 C   0  0  0  0  0  0  0  0  0  0  0  0
    7.0601   47.8082   25.2400 C   0  0  0  0  0  0  0  0  0  0  0  0
    8.8662   49.3666   25.4919 C   0  0  0  0  0  0  0  0  0  0  0  0
    8.8879   50.9709   27.3435 N   0  0  0  0  0  0  0  0  0  0  0  0
    6.6528   46.8185   24.3663 O   0  0  0  0  0  0  0  0  0  0  0  0
    8.2265   48.3409   24.8077 C   0  0  0  0  0  0  0  0  0  0  0  0
   10.2598   51.0688   27.3767 O   0  0  0  0  0  0  0  0  0  0  0  0
    8.2052   51.9605   27.6793 O   0  0  0  0  0  0  0  0  0  0  0  0
    7.6272   46.7255   23.3181 C   0  0  0  0  0  0  0  0  0  0  0  0
    8.6143   47.7154   23.6385 O   0  0  0  0  0  0  0  0  0  0  0  0
    8.8122   40.1844   34.2135 O   0  0  0  0  0  0  0  0  0  0  0  0
   11.2401   40.7950   33.3698 O   0  0  0  0  0  0  0  0  0  0  0  0
   10.9143   40.6914   31.9981 C   0  0  0  0  0  0  0  0  0  0  0  0
   11.5270   39.3912   31.4385 C   0  0  0  0  0  0  0  0  0  0  0  0
   12.7519   39.0911   32.0837 O   0  0  0  0  0  0  0  0  0  0  0  0
   10.6113   38.1932   31.6451 C   0  0  0  0  0  0  0  0  0  0  0  0
   12.9413   37.6838   32.0297 C   0  0  0  0  0  0  0  0  0  0  0  0
    9.6064   38.0877   30.6599 O   0  0  0  0  0  0  0  0  0  0  0  0
   11.5822   37.0197   31.6877 C   0  0  0  0  0  0  0  0  0  0  0  0
   13.4840   37.2105   33.3254 N   0  0  0  0  0  0  0  0  0  0  0  0
   11.6179   36.3072   30.4690 O   0  0  0  0  0  0  0  0  0  0  0  0
   14.4797   36.3309   33.5738 C   0  0  0  0  0  0  0  0  0  0  0  0
   13.1137   37.6269   34.5702 C   0  0  0  0  0  0  0  0  0  0  0  0
   15.2074   35.6152   32.6747 N   0  0  0  0  0  0  0  0  0  0  0  0
   14.6756   36.2298   34.9190 C   0  0  0  0  0  0  0  0  0  0  0  0
   13.8217   37.0445   35.5793 N   0  0  0  0  0  0  0  0  0  0  0  0
   16.1643   34.7603   33.1551 C   0  0  0  0  0  0  0  0  0  0  0  0
   15.6528   35.3503   35.4136 C   0  0  0  0  0  0  0  0  0  0  0  0
   16.3798   34.6316   34.5046 N   0  0  0  0  0  0  0  0  0  0  0  0
   15.9004   35.1930   36.8094 N   0  0  0  0  0  0  0  0  0  0  0  0
    8.9996   45.4383   33.6722 H   0  0  0  0  0  0  0  0  0  0  0  0
   10.7765   46.9368   33.0154 H   0  0  0  0  0  0  0  0  0  0  0  0
   11.0505   46.2278   34.4978 H   0  0  0  0  0  0  0  0  0  0  0  0
    9.3635   43.8352   31.4715 H   0  0  0  0  0  0  0  0  0  0  0  0
   10.7406   44.9069   31.1833 H   0  0  0  0  0  0  0  0  0  0  0  0
    7.0130   44.7166   31.5856 H   0  0  0  0  0  0  0  0  0  0  0  0
   10.3471   47.1872   30.4080 H   0  0  0  0  0  0  0  0  0  0  0  0
    5.4637   46.3037   30.5046 H   0  0  0  0  0  0  0  0  0  0  0  0
    8.8142   48.7663   29.3531 H   0  0  0  0  0  0  0  0  0  0  0  0
    5.4883   50.2249   28.2494 H   0  0  0  0  0  0  0  0  0  0  0  0
    7.0665   50.3352   29.0800 H   0  0  0  0  0  0  0  0  0  0  0  0
    5.5128   47.7837   26.7274 H   0  0  0  0  0  0  0  0  0  0  0  0
    9.7855   49.7871   25.1052 H   0  0  0  0  0  0  0  0  0  0  0  0
    7.1594   46.9541   22.3376 H   0  0  0  0  0  0  0  0  0  0  0  0
    8.0867   45.7149   23.3096 H   0  0  0  0  0  0  0  0  0  0  0  0
   11.3774   41.5548   31.4741 H   0  0  0  0  0  0  0  0  0  0  0  0
    9.8233   40.7200   31.7652 H   0  0  0  0  0  0  0  0  0  0  0  0
   11.7312   39.5362   30.3532 H   0  0  0  0  0  0  0  0  0  0  0  0
   10.1202   38.2696   32.6410 H   0  0  0  0  0  0  0  0  0  0  0  0
   13.6850   37.4639   31.2321 H   0  0  0  0  0  0  0  0  0  0  0  0
   10.0251   38.1793   29.7654 H   0  0  0  0  0  0  0  0  0  0  0  0
   11.2757   36.3135   32.4907 H   0  0  0  0  0  0  0  0  0  0  0  0
   11.9839   36.9111   29.7708 H   0  0  0  0  0  0  0  0  0  0  0  0
   12.3307   38.3536   34.7458 H   0  0  0  0  0  0  0  0  0  0  0  0
   16.7566   34.1786   32.4623 H   0  0  0  0  0  0  0  0  0  0  0  0
   16.6353   34.5300   37.1419 H   0  0  0  0  0  0  0  0  0  0  0  0
   15.3535   35.7355   37.5144 H   0  0  0  0  0  0  0  0  0  0  0  0
  1  2  2  0
  1  3  1  0
  3  4  1  0
  4  5  1  0
  6  1  1  0
  7  6  1  0
  6  8  1  0
  8  9  1  0
  9 10  2  0
 11  9  1  0
 10 12  1  0
 13 11  2  0
 12 14  2  0
 14 13  1  0
 14 15  1  0
 15 16  1  0
 16 17  1  0
 17 18  2  0
 19 17  1  0
 18 20  1  0
 21 19  2  0
 19 22  1  0
 20 23  1  0
 20 24  2  0
 24 21  1  0
 22 25  1  0
 22 26  2  0
 23 27  1  0
 24 28  1  0
 27 28  1  0
  4 29  2  0
  4 30  1  0
 31 30  1  0
 31 32  1  0
 32 33  1  0
 32 34  1  0
 33 35  1  0
 34 36  1  0
 34 37  1  0
 37 35  1  0
 35 38  1  0
 37 39  1  0
 40 38  1  0
 41 38  1  0
 42 40  2  0
 40 43  1  0
 44 41  2  0
 45 42  1  0
 43 46  2  0
 43 44  1  0
 47 45  2  0
 47 46  1  0
 46 48  1  0
  6 49  1  1
  7 50  1  0
  7 51  1  0
  8 52  1  0
  8 53  1  0
 10 54  1  0
 11 55  1  0
 12 56  1  0
 13 57  1  0
 16 58  1  0
 16 59  1  0
 18 60  1  0
 21 61  1  0
 27 62  1  0
 27 63  1  0
 31 64  1  0
 31 65  1  0
 32 66  1  0
 34 67  1  0
 35 68  1  0
 36 69  1  0
 37 70  1  0
 39 71  1  0
 41 72  1  0
 45 73  1  0
 48 74  1  0
 48 75  1  0
M  CHG  3   5  -1  22   1  25  -1
M  END
>  <EmbedRMS>  (127) 
0.0806575022569

$$$$

     RDKit          3D

 75 80  0  0  0  0  0  0  0  0999 V2000
   10.2803   43.7664   33.8249 C   0  0  0  0  0  0  0  0  0  0  0  0
   11.4110   43.5919   34.3666 O   0  0  0  0  0  0  0  0  0  0  0  0
    9.3618   42.7250   33.7345 O   0  0  0  0  0  0  0  0  0  0  0  0
    9.8898   41.2267   34.2939 P   0  0  0  0  0  0  0  0  0  0  0  0
   10.3735   41.4566   35.8832 O   0  0  0  0  0  0  0  0  0  0  0  0
    9.9459   45.0736   33.2109 C   0  0  1  0  0  0  0  0  0  0  0  0
   11.0266   46.0292   33.4707 N   0  0  0  0  0  0  0  0  0  0  0  0
    9.7542   44.8539   31.6945 C   0  0  0  0  0  0  0  0  0  0  0  0
    8.7960   45.8406   31.0838 C   0  0  0  0  0  0  0  0  0  0  0  0
    7.4091   45.6007   31.1019 C   0  0  0  0  0  0  0  0  0  0  0  0
    9.2824   46.9884   30.4405 C   0  0  0  0  0  0  0  0  0  0  0  0
    6.5260   46.5005   30.4885 C   0  0  0  0  0  0  0  0  0  0  0  0
    8.3993   47.8884   29.8333 C   0  0  0  0  0  0  0  0  0  0  0  0
    7.0183   47.6519   29.8423 C   0  0  0  0  0  0  0  0  0  0  0  0
    6.1826   48.5854   29.2094 O   0  0  0  0  0  0  0  0  0  0  0  0
    4.8132   48.3790   28.8586 C   0  0  0  0  0  0  0  0  0  0  0  0
    4.6910   47.3951   27.7171 C   0  0  0  0  0  0  0  0  0  0  0  0
    4.1211   46.1273   27.9858 C   0  0  0  0  0  0  0  0  0  0  0  0
    5.0828   47.7216   26.3717 C   0  0  0  0  0  0  0  0  0  0  0  0
    3.9853   45.2243   26.9409 C   0  0  0  0  0  0  0  0  0  0  0  0
    4.9088   46.7590   25.3489 C   0  0  0  0  0  0  0  0  0  0  0  0
    5.6025   49.0164   26.0090 N   0  0  0  0  0  0  0  0  0  0  0  0
    3.4709   43.9424   26.9752 O   0  0  0  0  0  0  0  0  0  0  0  0
    4.3644   45.5257   25.6791 C   0  0  0  0  0  0  0  0  0  0  0  0
    5.4426   49.4828   24.7241 O   0  0  0  0  0  0  0  0  0  0  0  0
    6.3150   49.6722   26.7946 O   0  0  0  0  0  0  0  0  0  0  0  0
    3.5350   43.4048   25.6472 C   0  0  0  0  0  0  0  0  0  0  0  0
    4.1112   44.4491   24.8510 O   0  0  0  0  0  0  0  0  0  0  0  0
    8.8122   40.1844   34.2133 O   0  0  0  0  0  0  0  0  0  0  0  0
   11.2402   40.7944   33.3688 O   0  0  0  0  0  0  0  0  0  0  0  0
   10.9142   40.6898   31.9970 C   0  0  0  0  0  0  0  0  0  0  0  0
   11.5260   39.3884   31.4376 C   0  0  0  0  0  0  0  0  0  0  0  0
   12.7504   39.0888   32.0816 O   0  0  0  0  0  0  0  0  0  0  0  0
   10.6114   38.1909   31.6460 C   0  0  0  0  0  0  0  0  0  0  0  0
   12.9357   37.6812   32.0303 C   0  0  0  0  0  0  0  0  0  0  0  0
    9.6145   38.0858   30.6533 O   0  0  0  0  0  0  0  0  0  0  0  0
   11.5769   37.0148   31.7012 C   0  0  0  0  0  0  0  0  0  0  0  0
   13.4849   37.2112   33.3247 N   0  0  0  0  0  0  0  0  0  0  0  0
   11.6193   36.3261   30.4724 O   0  0  0  0  0  0  0  0  0  0  0  0
   14.4802   36.3313   33.5730 C   0  0  0  0  0  0  0  0  0  0  0  0
   13.1141   37.6268   34.5698 C   0  0  0  0  0  0  0  0  0  0  0  0
   15.2075   35.6151   32.6741 N   0  0  0  0  0  0  0  0  0  0  0  0
   14.6761   36.2300   34.9184 C   0  0  0  0  0  0  0  0  0  0  0  0
   13.8220   37.0445   35.5789 N   0  0  0  0  0  0  0  0  0  0  0  0
   16.1642   34.7600   33.1547 C   0  0  0  0  0  0  0  0  0  0  0  0
   15.6529   35.3503   35.4131 C   0  0  0  0  0  0  0  0  0  0  0  0
   16.3797   34.6314   34.5042 N   0  0  0  0  0  0  0  0  0  0  0  0
   15.9004   35.1930   36.8090 N   0  0  0  0  0  0  0  0  0  0  0  0
    8.9994   45.4381   33.6717 H   0  0  0  0  0  0  0  0  0  0  0  0
   11.0500   46.2277   34.4981 H   0  0  0  0  0  0  0  0  0  0  0  0
   10.7764   46.9368   33.0157 H   0  0  0  0  0  0  0  0  0  0  0  0
   10.7414   44.9076   31.1833 H   0  0  0  0  0  0  0  0  0  0  0  0
    9.3647   43.8351   31.4708 H   0  0  0  0  0  0  0  0  0  0  0  0
    7.0144   44.7195   31.5926 H   0  0  0  0  0  0  0  0  0  0  0  0
   10.3462   47.1889   30.4070 H   0  0  0  0  0  0  0  0  0  0  0  0
    5.4683   46.2983   30.5446 H   0  0  0  0  0  0  0  0  0  0  0  0
    8.7912   48.7703   29.3425 H   0  0  0  0  0  0  0  0  0  0  0  0
    4.2383   48.0556   29.7525 H   0  0  0  0  0  0  0  0  0  0  0  0
    4.3701   49.3480   28.5474 H   0  0  0  0  0  0  0  0  0  0  0  0
    3.7817   45.8526   28.9756 H   0  0  0  0  0  0  0  0  0  0  0  0
    5.1929   46.9641   24.3249 H   0  0  0  0  0  0  0  0  0  0  0  0
    4.1852   42.5052   25.6280 H   0  0  0  0  0  0  0  0  0  0  0  0
    2.5152   43.1623   25.2815 H   0  0  0  0  0  0  0  0  0  0  0  0
    9.8231   40.7190   31.7645 H   0  0  0  0  0  0  0  0  0  0  0  0
   11.3777   41.5526   31.4723 H   0  0  0  0  0  0  0  0  0  0  0  0
   11.7283   39.5311   30.3515 H   0  0  0  0  0  0  0  0  0  0  0  0
   10.1127   38.2734   32.6376 H   0  0  0  0  0  0  0  0  0  0  0  0
   13.6692   37.4566   31.2242 H   0  0  0  0  0  0  0  0  0  0  0  0
   10.0533   38.1118   29.7635 H   0  0  0  0  0  0  0  0  0  0  0  0
   11.2607   36.3148   32.5102 H   0  0  0  0  0  0  0  0  0  0  0  0
   12.1496   35.5023   30.6324 H   0  0  0  0  0  0  0  0  0  0  0  0
   12.3301   38.3524   34.7455 H   0  0  0  0  0  0  0  0  0  0  0  0
   16.7562   34.1781   32.4619 H   0  0  0  0  0  0  0  0  0  0  0  0
   16.6351   34.5298   37.1416 H   0  0  0  0  0  0  0  0  0  0  0  0
   15.3536   35.7357   37.5140 H   0  0  0  0  0  0  0  0  0  0  0  0
  1  2  2  0
  1  3  1  0
  3  4  1  0
  4  5  1  0
  6  1  1  0
  7  6  1  0
  6  8  1  0
  8  9  1  0
  9 10  2  0
 11  9  1  0
 10 12  1  0
 13 11  2  0
 12 14  2  0
 14 13  1  0
 14 15  1  0
 15 16  1  0
 16 17  1  0
 17 18  2  0
 19 17  1  0
 18 20  1  0
 21 19  2  0
 19 22  1  0
 20 23  1  0
 20 24  2  0
 24 21  1  0
 22 25  1  0
 22 26  2  0
 23 27  1  0
 24 28  1  0
 27 28  1  0
  4 29  2  0
  4 30  1  0
 31 30  1  0
 31 32  1  0
 32 33  1  0
 32 34  1  0
 33 35  1  0
 34 36  1  0
 34 37  1  0
 37 35  1  0
 35 38  1  0
 37 39  1  0
 40 38  1  0
 41 38  1  0
 42 40  2  0
 40 43  1  0
 44 41  2  0
 45 42  1  0
 43 46  2  0
 43 44  1  0
 47 45  2  0
 47 46  1  0
 46 48  1  0
  6 49  1  1
  7 50  1  0
  7 51  1  0
  8 52  1  0
  8 53  1  0
 10 54  1  0
 11 55  1  0
 12 56  1  0
 13 57  1  0
 16 58  1  0
 16 59  1  0
 18 60  1  0
 21 61  1  0
 27 62  1  0
 27 63  1  0
 31 64  1  0
 31 65  1  0
 32 66  1  0
 34 67  1  0
 35 68  1  0
 36 69  1  0
 37 70  1  0
 39 71  1  0
 41 72  1  0
 45 73  1  0
 48 74  1  0
 48 75  1  0
M  CHG  3   5  -1  22   1  25  -1
M  END
>  <EmbedRMS>  (128) 
0.0814640995134

$$$$

     RDKit          3D

 75 80  0  0  0  0  0  0  0  0999 V2000
   10.2837   43.7628   33.8277 C   0  0  0  0  0  0  0  0  0  0  0  0
   11.4102   43.5863   34.3766 O   0  0  0  0  0  0  0  0  0  0  0  0
    9.3628   42.7238   33.7357 O   0  0  0  0  0  0  0  0  0  0  0  0
    9.8893   41.2251   34.2943 P   0  0  0  0  0  0  0  0  0  0  0  0
   10.3730   41.4545   35.8836 O   0  0  0  0  0  0  0  0  0  0  0  0
    9.9548   45.0701   33.2064 C   0  0  1  0  0  0  0  0  0  0  0  0
   11.0197   46.0482   33.4571 N   0  0  0  0  0  0  0  0  0  0  0  0
    9.7506   44.8511   31.6923 C   0  0  0  0  0  0  0  0  0  0  0  0
    8.7945   45.8418   31.0869 C   0  0  0  0  0  0  0  0  0  0  0  0
    7.4077   45.6004   31.1002 C   0  0  0  0  0  0  0  0  0  0  0  0
    9.2827   46.9890   30.4441 C   0  0  0  0  0  0  0  0  0  0  0  0
    6.5262   46.4998   30.4847 C   0  0  0  0  0  0  0  0  0  0  0  0
    8.4008   47.8879   29.8328 C   0  0  0  0  0  0  0  0  0  0  0  0
    7.0190   47.6557   29.8471 C   0  0  0  0  0  0  0  0  0  0  0  0
    6.1810   48.5938   29.2229 O   0  0  0  0  0  0  0  0  0  0  0  0
    4.7534   48.5351   29.1835 C   0  0  0  0  0  0  0  0  0  0  0  0
    4.1493   48.7608   30.5526 C   0  0  0  0  0  0  0  0  0  0  0  0
    4.7219   49.7512   31.3869 C   0  0  0  0  0  0  0  0  0  0  0  0
    2.9597   48.0857   30.9808 C   0  0  0  0  0  0  0  0  0  0  0  0
    4.1239   50.0126   32.6129 C   0  0  0  0  0  0  0  0  0  0  0  0
    2.3869   48.4037   32.2330 C   0  0  0  0  0  0  0  0  0  0  0  0
    2.3085   47.1101   30.1552 N   0  0  0  0  0  0  0  0  0  0  0  0
    4.5115   50.9176   33.5823 O   0  0  0  0  0  0  0  0  0  0  0  0
    3.0061   49.3671   33.0184 C   0  0  0  0  0  0  0  0  0  0  0  0
    2.9786   45.9692   29.7805 O   0  0  0  0  0  0  0  0  0  0  0  0
    1.0704   47.1571   30.0042 O   0  0  0  0  0  0  0  0  0  0  0  0
    3.5773   50.8311   34.6670 C   0  0  0  0  0  0  0  0  0  0  0  0
    2.6322   49.8299   34.2653 O   0  0  0  0  0  0  0  0  0  0  0  0
    8.8112   40.1835   34.2130 O   0  0  0  0  0  0  0  0  0  0  0  0
   11.2397   40.7943   33.3684 O   0  0  0  0  0  0  0  0  0  0  0  0
   10.9125   40.6875   31.9969 C   0  0  0  0  0  0  0  0  0  0  0  0
   11.5169   39.3810   31.4420 C   0  0  0  0  0  0  0  0  0  0  0  0
   12.7500   39.0880   32.0758 O   0  0  0  0  0  0  0  0  0  0  0  0
   10.6043   38.1892   31.6658 C   0  0  0  0  0  0  0  0  0  0  0  0
   12.9395   37.6813   32.0279 C   0  0  0  0  0  0  0  0  0  0  0  0
    9.6353   38.0951   30.6499 O   0  0  0  0  0  0  0  0  0  0  0  0
   11.5804   37.0190   31.6934 C   0  0  0  0  0  0  0  0  0  0  0  0
   13.4851   37.2119   33.3244 N   0  0  0  0  0  0  0  0  0  0  0  0
   11.6118   36.3188   30.4673 O   0  0  0  0  0  0  0  0  0  0  0  0
   14.4801   36.3316   33.5732 C   0  0  0  0  0  0  0  0  0  0  0  0
   13.1139   37.6277   34.5692 C   0  0  0  0  0  0  0  0  0  0  0  0
   15.2076   35.6154   32.6744 N   0  0  0  0  0  0  0  0  0  0  0  0
   14.6756   36.2303   34.9186 C   0  0  0  0  0  0  0  0  0  0  0  0
   13.8215   37.0451   35.5786 N   0  0  0  0  0  0  0  0  0  0  0  0
   16.1642   34.7602   33.1551 C   0  0  0  0  0  0  0  0  0  0  0  0
   15.6526   35.3505   35.4134 C   0  0  0  0  0  0  0  0  0  0  0  0
   16.3796   34.6316   34.5045 N   0  0  0  0  0  0  0  0  0  0  0  0
   15.9001   35.1933   36.8093 N   0  0  0  0  0  0  0  0  0  0  0  0
    9.0097   45.4350   33.6669 H   0  0  0  0  0  0  0  0  0  0  0  0
   11.9349   45.6934   33.0930 H   0  0  0  0  0  0  0  0  0  0  0  0
   11.1131   46.1994   34.4885 H   0  0  0  0  0  0  0  0  0  0  0  0
    9.3519   43.8345   31.4759 H   0  0  0  0  0  0  0  0  0  0  0  0
   10.7310   44.8931   31.1677 H   0  0  0  0  0  0  0  0  0  0  0  0
    7.0124   44.7150   31.5827 H   0  0  0  0  0  0  0  0  0  0  0  0
   10.3467   47.1893   30.4145 H   0  0  0  0  0  0  0  0  0  0  0  0
    5.4693   46.2857   30.5133 H   0  0  0  0  0  0  0  0  0  0  0  0
    8.7934   48.7709   29.3446 H   0  0  0  0  0  0  0  0  0  0  0  0
    4.4390   47.5824   28.7172 H   0  0  0  0  0  0  0  0  0  0  0  0
    4.3967   49.3494   28.5191 H   0  0  0  0  0  0  0  0  0  0  0  0
    5.6016   50.3065   31.0873 H   0  0  0  0  0  0  0  0  0  0  0  0
    1.4893   47.9096   32.5823 H   0  0  0  0  0  0  0  0  0  0  0  0
    3.0652   51.8054   34.8114 H   0  0  0  0  0  0  0  0  0  0  0  0
    4.0963   50.5168   35.5967 H   0  0  0  0  0  0  0  0  0  0  0  0
    9.8216   40.7222   31.7644 H   0  0  0  0  0  0  0  0  0  0  0  0
   11.3811   41.5456   31.4692 H   0  0  0  0  0  0  0  0  0  0  0  0
   11.6985   39.5089   30.3498 H   0  0  0  0  0  0  0  0  0  0  0  0
   10.1109   38.2736   32.6630 H   0  0  0  0  0  0  0  0  0  0  0  0
   13.6783   37.4561   31.2271 H   0  0  0  0  0  0  0  0  0  0  0  0
    9.0020   37.3859   30.9348 H   0  0  0  0  0  0  0  0  0  0  0  0
   11.2808   36.3052   32.4921 H   0  0  0  0  0  0  0  0  0  0  0  0
   11.8818   36.9599   29.7584 H   0  0  0  0  0  0  0  0  0  0  0  0
   12.3303   38.3538   34.7445 H   0  0  0  0  0  0  0  0  0  0  0  0
   16.7564   34.1783   32.4624 H   0  0  0  0  0  0  0  0  0  0  0  0
   15.3532   35.7359   37.5142 H   0  0  0  0  0  0  0  0  0  0  0  0
   16.6348   34.5301   37.1418 H   0  0  0  0  0  0  0  0  0  0  0  0
  1  2  2  0
  1  3  1  0
  3  4  1  0
  4  5  1  0
  6  1  1  0
  7  6  1  0
  6  8  1  0
  8  9  1  0
  9 10  2  0
 11  9  1  0
 10 12  1  0
 13 11  2  0
 12 14  2  0
 14 13  1  0
 14 15  1  0
 15 16  1  0
 16 17  1  0
 17 18  2  0
 19 17  1  0
 18 20  1  0
 21 19  2  0
 19 22  1  0
 20 23  1  0
 20 24  2  0
 24 21  1  0
 22 25  1  0
 22 26  2  0
 23 27  1  0
 24 28  1  0
 27 28  1  0
  4 29  2  0
  4 30  1  0
 31 30  1  0
 31 32  1  0
 32 33  1  0
 32 34  1  0
 33 35  1  0
 34 36  1  0
 34 37  1  0
 37 35  1  0
 35 38  1  0
 37 39  1  0
 40 38  1  0
 41 38  1  0
 42 40  2  0
 40 43  1  0
 44 41  2  0
 45 42  1  0
 43 46  2  0
 43 44  1  0
 47 45  2  0
 47 46  1  0
 46 48  1  0
  6 49  1  1
  7 50  1  0
  7 51  1  0
  8 52  1  0
  8 53  1  0
 10 54  1  0
 11 55  1  0
 12 56  1  0
 13 57  1  0
 16 58  1  0
 16 59  1  0
 18 60  1  0
 21 61  1  0
 27 62  1  0
 27 63  1  0
 31 64  1  0
 31 65  1  0
 32 66  1  0
 34 67  1  0
 35 68  1  0
 36 69  1  0
 37 70  1  0
 39 71  1  0
 41 72  1  0
 45 73  1  0
 48 74  1  0
 48 75  1  0
M  CHG  3   5  -1  22   1  25  -1
M  END
>  <EmbedRMS>  (129) 
0.0824612122737

$$$$

     RDKit          3D

 75 80  0  0  0  0  0  0  0  0999 V2000
   10.2838   43.7627   33.8275 C   0  0  0  0  0  0  0  0  0  0  0  0
   11.4103   43.5863   34.3766 O   0  0  0  0  0  0  0  0  0  0  0  0
    9.3631   42.7236   33.7352 O   0  0  0  0  0  0  0  0  0  0  0  0
    9.8897   41.2248   34.2935 P   0  0  0  0  0  0  0  0  0  0  0  0
   10.3734   41.4543   35.8829 O   0  0  0  0  0  0  0  0  0  0  0  0
    9.9548   45.0702   33.2067 C   0  0  1  0  0  0  0  0  0  0  0  0
   11.0198   46.0482   33.4573 N   0  0  0  0  0  0  0  0  0  0  0  0
    9.7500   44.8517   31.6926 C   0  0  0  0  0  0  0  0  0  0  0  0
    8.7939   45.8430   31.0881 C   0  0  0  0  0  0  0  0  0  0  0  0
    7.4065   45.6001   31.0994 C   0  0  0  0  0  0  0  0  0  0  0  0
    9.2831   46.9898   30.4429 C   0  0  0  0  0  0  0  0  0  0  0  0
    6.5262   46.4992   30.4816 C   0  0  0  0  0  0  0  0  0  0  0  0
    8.4013   47.8880   29.8293 C   0  0  0  0  0  0  0  0  0  0  0  0
    7.0206   47.6541   29.8540 C   0  0  0  0  0  0  0  0  0  0  0  0
    6.1594   48.5614   29.2305 O   0  0  0  0  0  0  0  0  0  0  0  0
    5.2918   49.4297   29.9589 C   0  0  0  0  0  0  0  0  0  0  0  0
    4.1450   48.6729   30.5842 C   0  0  0  0  0  0  0  0  0  0  0  0
    4.1808   48.4457   31.9807 C   0  0  0  0  0  0  0  0  0  0  0  0
    3.0219   48.2069   29.8193 C   0  0  0  0  0  0  0  0  0  0  0  0
    3.1202   47.7715   32.5695 C   0  0  0  0  0  0  0  0  0  0  0  0
    1.9652   47.5382   30.4810 C   0  0  0  0  0  0  0  0  0  0  0  0
    2.9180   48.4200   28.3985 N   0  0  0  0  0  0  0  0  0  0  0  0
    2.9474   47.4360   33.8986 O   0  0  0  0  0  0  0  0  0  0  0  0
    2.0590   47.3381   31.8520 C   0  0  0  0  0  0  0  0  0  0  0  0
    1.6788   48.4816   27.8034 O   0  0  0  0  0  0  0  0  0  0  0  0
    3.9295   48.3994   27.6688 O   0  0  0  0  0  0  0  0  0  0  0  0
    1.6959   46.7468   34.0214 C   0  0  0  0  0  0  0  0  0  0  0  0
    1.1613   46.7066   32.6912 O   0  0  0  0  0  0  0  0  0  0  0  0
    8.8114   40.1834   34.2126 O   0  0  0  0  0  0  0  0  0  0  0  0
   11.2401   40.7936   33.3673 O   0  0  0  0  0  0  0  0  0  0  0  0
   10.9134   40.6864   31.9955 C   0  0  0  0  0  0  0  0  0  0  0  0
   11.5166   39.3786   31.4404 C   0  0  0  0  0  0  0  0  0  0  0  0
   12.7486   39.0848   32.0734 O   0  0  0  0  0  0  0  0  0  0  0  0
   10.6039   38.1883   31.6669 C   0  0  0  0  0  0  0  0  0  0  0  0
   12.9329   37.6775   32.0284 C   0  0  0  0  0  0  0  0  0  0  0  0
    9.6373   38.0938   30.6484 O   0  0  0  0  0  0  0  0  0  0  0  0
   11.5737   37.0140   31.7055 C   0  0  0  0  0  0  0  0  0  0  0  0
   13.4853   37.2120   33.3238 N   0  0  0  0  0  0  0  0  0  0  0  0
   11.6210   36.3378   30.4683 O   0  0  0  0  0  0  0  0  0  0  0  0
   14.4804   36.3319   33.5726 C   0  0  0  0  0  0  0  0  0  0  0  0
   13.1141   37.6275   34.5689 C   0  0  0  0  0  0  0  0  0  0  0  0
   15.2076   35.6152   32.6740 N   0  0  0  0  0  0  0  0  0  0  0  0
   14.6761   36.2306   34.9181 C   0  0  0  0  0  0  0  0  0  0  0  0
   13.8218   37.0451   35.5783 N   0  0  0  0  0  0  0  0  0  0  0  0
   16.1642   34.7600   33.1548 C   0  0  0  0  0  0  0  0  0  0  0  0
   15.6527   35.3507   35.4131 C   0  0  0  0  0  0  0  0  0  0  0  0
   16.3795   34.6315   34.5043 N   0  0  0  0  0  0  0  0  0  0  0  0
   15.9001   35.1933   36.8090 N   0  0  0  0  0  0  0  0  0  0  0  0
    9.0098   45.4350   33.6675 H   0  0  0  0  0  0  0  0  0  0  0  0
   11.1134   46.1992   34.4886 H   0  0  0  0  0  0  0  0  0  0  0  0
   11.9348   45.6934   33.0929 H   0  0  0  0  0  0  0  0  0  0  0  0
    9.3510   43.8352   31.4761 H   0  0  0  0  0  0  0  0  0  0  0  0
   10.7302   44.8937   31.1677 H   0  0  0  0  0  0  0  0  0  0  0  0
    7.0110   44.7111   31.5751 H   0  0  0  0  0  0  0  0  0  0  0  0
   10.3472   47.1889   30.4117 H   0  0  0  0  0  0  0  0  0  0  0  0
    5.4668   46.2822   30.4765 H   0  0  0  0  0  0  0  0  0  0  0  0
    8.7909   48.7698   29.3369 H   0  0  0  0  0  0  0  0  0  0  0  0
    4.8926   50.2085   29.2761 H   0  0  0  0  0  0  0  0  0  0  0  0
    5.8850   49.9682   30.7308 H   0  0  0  0  0  0  0  0  0  0  0  0
    5.0127   48.7787   32.5885 H   0  0  0  0  0  0  0  0  0  0  0  0
    1.1015   47.1722   29.9413 H   0  0  0  0  0  0  0  0  0  0  0  0
    1.0124   47.3083   34.6923 H   0  0  0  0  0  0  0  0  0  0  0  0
    1.8606   45.7160   34.3994 H   0  0  0  0  0  0  0  0  0  0  0  0
   11.3831   41.5437   31.4675 H   0  0  0  0  0  0  0  0  0  0  0  0
    9.8226   40.7225   31.7628 H   0  0  0  0  0  0  0  0  0  0  0  0
   11.6978   39.5037   30.3478 H   0  0  0  0  0  0  0  0  0  0  0  0
   10.1084   38.2785   32.6626 H   0  0  0  0  0  0  0  0  0  0  0  0
   13.6638   37.4471   31.2214 H   0  0  0  0  0  0  0  0  0  0  0  0
    8.9763   37.4190   30.9531 H   0  0  0  0  0  0  0  0  0  0  0  0
   11.2821   36.3053   32.5171 H   0  0  0  0  0  0  0  0  0  0  0  0
   10.8658   35.6934   30.4652 H   0  0  0  0  0  0  0  0  0  0  0  0
   12.3293   38.3523   34.7444 H   0  0  0  0  0  0  0  0  0  0  0  0
   16.7561   34.1778   32.4621 H   0  0  0  0  0  0  0  0  0  0  0  0
   16.6345   34.5300   37.1416 H   0  0  0  0  0  0  0  0  0  0  0  0
   15.3533   35.7361   37.5138 H   0  0  0  0  0  0  0  0  0  0  0  0
  1  2  2  0
  1  3  1  0
  3  4  1  0
  4  5  1  0
  6  1  1  0
  7  6  1  0
  6  8  1  0
  8  9  1  0
  9 10  2  0
 11  9  1  0
 10 12  1  0
 13 11  2  0
 12 14  2  0
 14 13  1  0
 14 15  1  0
 15 16  1  0
 16 17  1  0
 17 18  2  0
 19 17  1  0
 18 20  1  0
 21 19  2  0
 19 22  1  0
 20 23  1  0
 20 24  2  0
 24 21  1  0
 22 25  1  0
 22 26  2  0
 23 27  1  0
 24 28  1  0
 27 28  1  0
  4 29  2  0
  4 30  1  0
 31 30  1  0
 31 32  1  0
 32 33  1  0
 32 34  1  0
 33 35  1  0
 34 36  1  0
 34 37  1  0
 37 35  1  0
 35 38  1  0
 37 39  1  0
 40 38  1  0
 41 38  1  0
 42 40  2  0
 40 43  1  0
 44 41  2  0
 45 42  1  0
 43 46  2  0
 43 44  1  0
 47 45  2  0
 47 46  1  0
 46 48  1  0
  6 49  1  1
  7 50  1  0
  7 51  1  0
  8 52  1  0
  8 53  1  0
 10 54  1  0
 11 55  1  0
 12 56  1  0
 13 57  1  0
 16 58  1  0
 16 59  1  0
 18 60  1  0
 21 61  1  0
 27 62  1  0
 27 63  1  0
 31 64  1  0
 31 65  1  0
 32 66  1  0
 34 67  1  0
 35 68  1  0
 36 69  1  0
 37 70  1  0
 39 71  1  0
 41 72  1  0
 45 73  1  0
 48 74  1  0
 48 75  1  0
M  CHG  3   5  -1  22   1  25  -1
M  END
>  <EmbedRMS>  (130) 
0.0834883799642

$$$$

     RDKit          3D

 75 80  0  0  0  0  0  0  0  0999 V2000
   10.2840   43.7626   33.8275 C   0  0  0  0  0  0  0  0  0  0  0  0
   11.4104   43.5863   34.3767 O   0  0  0  0  0  0  0  0  0  0  0  0
    9.3634   42.7234   33.7351 O   0  0  0  0  0  0  0  0  0  0  0  0
    9.8899   41.2247   34.2940 P   0  0  0  0  0  0  0  0  0  0  0  0
   10.3724   41.4545   35.8837 O   0  0  0  0  0  0  0  0  0  0  0  0
    9.9549   45.0699   33.2064 C   0  0  1  0  0  0  0  0  0  0  0  0
   11.0198   46.0481   33.4571 N   0  0  0  0  0  0  0  0  0  0  0  0
    9.7506   44.8512   31.6922 C   0  0  0  0  0  0  0  0  0  0  0  0
    8.7943   45.8419   31.0869 C   0  0  0  0  0  0  0  0  0  0  0  0
    7.4074   45.6004   31.1005 C   0  0  0  0  0  0  0  0  0  0  0  0
    9.2827   46.9894   30.4445 C   0  0  0  0  0  0  0  0  0  0  0  0
    6.5254   46.4998   30.4852 C   0  0  0  0  0  0  0  0  0  0  0  0
    8.4010   47.8885   29.8331 C   0  0  0  0  0  0  0  0  0  0  0  0
    7.0197   47.6548   29.8459 C   0  0  0  0  0  0  0  0  0  0  0  0
    6.1806   48.5851   29.2159 O   0  0  0  0  0  0  0  0  0  0  0  0
    4.7623   48.4667   29.1329 C   0  0  0  0  0  0  0  0  0  0  0  0
    4.2033   49.6208   28.3402 C   0  0  0  0  0  0  0  0  0  0  0  0
    3.2413   50.4572   28.9551 C   0  0  0  0  0  0  0  0  0  0  0  0
    4.6476   49.9156   27.0074 C   0  0  0  0  0  0  0  0  0  0  0  0
    2.7639   51.5510   28.2453 C   0  0  0  0  0  0  0  0  0  0  0  0
    4.1328   51.0529   26.3405 C   0  0  0  0  0  0  0  0  0  0  0  0
    5.6207   49.0969   26.3323 N   0  0  0  0  0  0  0  0  0  0  0  0
    1.8352   52.4938   28.6425 O   0  0  0  0  0  0  0  0  0  0  0  0
    3.1922   51.8375   26.9946 C   0  0  0  0  0  0  0  0  0  0  0  0
    5.5966   47.7274   26.4550 O   0  0  0  0  0  0  0  0  0  0  0  0
    6.3979   49.6090   25.5002 O   0  0  0  0  0  0  0  0  0  0  0  0
    1.6704   53.4316   27.5699 C   0  0  0  0  0  0  0  0  0  0  0  0
    2.5553   52.9753   26.5377 O   0  0  0  0  0  0  0  0  0  0  0  0
    8.8119   40.1831   34.2121 O   0  0  0  0  0  0  0  0  0  0  0  0
   11.2416   40.7932   33.3699 O   0  0  0  0  0  0  0  0  0  0  0  0
   10.9186   40.6909   31.9972 C   0  0  0  0  0  0  0  0  0  0  0  0
   11.5172   39.3814   31.4407 C   0  0  0  0  0  0  0  0  0  0  0  0
   12.7493   39.0855   32.0727 O   0  0  0  0  0  0  0  0  0  0  0  0
   10.6023   38.1907   31.6665 C   0  0  0  0  0  0  0  0  0  0  0  0
   12.9319   37.6781   32.0281 C   0  0  0  0  0  0  0  0  0  0  0  0
    9.6392   38.0797   30.6452 O   0  0  0  0  0  0  0  0  0  0  0  0
   11.5715   37.0165   31.7056 C   0  0  0  0  0  0  0  0  0  0  0  0
   13.4847   37.2121   33.3235 N   0  0  0  0  0  0  0  0  0  0  0  0
   11.6187   36.3383   30.4694 O   0  0  0  0  0  0  0  0  0  0  0  0
   14.4801   36.3321   33.5724 C   0  0  0  0  0  0  0  0  0  0  0  0
   13.1137   37.6275   34.5687 C   0  0  0  0  0  0  0  0  0  0  0  0
   15.2073   35.6153   32.6738 N   0  0  0  0  0  0  0  0  0  0  0  0
   14.6759   36.2308   34.9179 C   0  0  0  0  0  0  0  0  0  0  0  0
   13.8216   37.0452   35.5781 N   0  0  0  0  0  0  0  0  0  0  0  0
   16.1640   34.7601   33.1546 C   0  0  0  0  0  0  0  0  0  0  0  0
   15.6526   35.3508   35.4129 C   0  0  0  0  0  0  0  0  0  0  0  0
   16.3794   34.6317   34.5041 N   0  0  0  0  0  0  0  0  0  0  0  0
   15.8999   35.1935   36.8088 N   0  0  0  0  0  0  0  0  0  0  0  0
    9.0099   45.4347   33.6670 H   0  0  0  0  0  0  0  0  0  0  0  0
   11.1132   46.1992   34.4884 H   0  0  0  0  0  0  0  0  0  0  0  0
   11.9349   45.6934   33.0928 H   0  0  0  0  0  0  0  0  0  0  0  0
   10.7309   44.8932   31.1675 H   0  0  0  0  0  0  0  0  0  0  0  0
    9.3519   43.8345   31.4758 H   0  0  0  0  0  0  0  0  0  0  0  0
    7.0123   44.7149   31.5832 H   0  0  0  0  0  0  0  0  0  0  0  0
   10.3467   47.1895   30.4148 H   0  0  0  0  0  0  0  0  0  0  0  0
    5.4657   46.2869   30.5133 H   0  0  0  0  0  0  0  0  0  0  0  0
    8.7936   48.7704   29.3427 H   0  0  0  0  0  0  0  0  0  0  0  0
    4.4804   47.5115   28.6432 H   0  0  0  0  0  0  0  0  0  0  0  0
    4.3409   48.4523   30.1619 H   0  0  0  0  0  0  0  0  0  0  0  0
    2.8818   50.2687   29.9588 H   0  0  0  0  0  0  0  0  0  0  0  0
    4.4462   51.3092   25.3366 H   0  0  0  0  0  0  0  0  0  0  0  0
    1.9620   54.4500   27.9020 H   0  0  0  0  0  0  0  0  0  0  0  0
    0.6211   53.4203   27.2077 H   0  0  0  0  0  0  0  0  0  0  0  0
   11.3972   41.5459   31.4735 H   0  0  0  0  0  0  0  0  0  0  0  0
    9.8300   40.7410   31.7610 H   0  0  0  0  0  0  0  0  0  0  0  0
   11.6974   39.5067   30.3480 H   0  0  0  0  0  0  0  0  0  0  0  0
   10.1077   38.2647   32.6645 H   0  0  0  0  0  0  0  0  0  0  0  0
   13.6621   37.4467   31.2208 H   0  0  0  0  0  0  0  0  0  0  0  0
    8.8975   38.6943   30.8831 H   0  0  0  0  0  0  0  0  0  0  0  0
   11.2806   36.3073   32.5170 H   0  0  0  0  0  0  0  0  0  0  0  0
   10.8493   35.7110   30.4585 H   0  0  0  0  0  0  0  0  0  0  0  0
   12.3290   38.3524   34.7444 H   0  0  0  0  0  0  0  0  0  0  0  0
   16.7559   34.1780   32.4619 H   0  0  0  0  0  0  0  0  0  0  0  0
   15.3531   35.7362   37.5137 H   0  0  0  0  0  0  0  0  0  0  0  0
   16.6344   34.5301   37.1414 H   0  0  0  0  0  0  0  0  0  0  0  0
  1  2  2  0
  1  3  1  0
  3  4  1  0
  4  5  1  0
  6  1  1  0
  7  6  1  0
  6  8  1  0
  8  9  1  0
  9 10  2  0
 11  9  1  0
 10 12  1  0
 13 11  2  0
 12 14  2  0
 14 13  1  0
 14 15  1  0
 15 16  1  0
 16 17  1  0
 17 18  2  0
 19 17  1  0
 18 20  1  0
 21 19  2  0
 19 22  1  0
 20 23  1  0
 20 24  2  0
 24 21  1  0
 22 25  1  0
 22 26  2  0
 23 27  1  0
 24 28  1  0
 27 28  1  0
  4 29  2  0
  4 30  1  0
 31 30  1  0
 31 32  1  0
 32 33  1  0
 32 34  1  0
 33 35  1  0
 34 36  1  0
 34 37  1  0
 37 35  1  0
 35 38  1  0
 37 39  1  0
 40 38  1  0
 41 38  1  0
 42 40  2  0
 40 43  1  0
 44 41  2  0
 45 42  1  0
 43 46  2  0
 43 44  1  0
 47 45  2  0
 47 46  1  0
 46 48  1  0
  6 49  1  1
  7 50  1  0
  7 51  1  0
  8 52  1  0
  8 53  1  0
 10 54  1  0
 11 55  1  0
 12 56  1  0
 13 57  1  0
 16 58  1  0
 16 59  1  0
 18 60  1  0
 21 61  1  0
 27 62  1  0
 27 63  1  0
 31 64  1  0
 31 65  1  0
 32 66  1  0
 34 67  1  0
 35 68  1  0
 36 69  1  0
 37 70  1  0
 39 71  1  0
 41 72  1  0
 45 73  1  0
 48 74  1  0
 48 75  1  0
M  CHG  3   5  -1  22   1  25  -1
M  END
>  <EmbedRMS>  (131) 
0.0838191061278

$$$$

     RDKit          3D

 75 80  0  0  0  0  0  0  0  0999 V2000
   10.2835   43.7661   33.8256 C   0  0  0  0  0  0  0  0  0  0  0  0
   11.4102   43.5930   34.3752 O   0  0  0  0  0  0  0  0  0  0  0  0
    9.3638   42.7254   33.7349 O   0  0  0  0  0  0  0  0  0  0  0  0
    9.8907   41.2265   34.2934 P   0  0  0  0  0  0  0  0  0  0  0  0
   10.3743   41.4557   35.8828 O   0  0  0  0  0  0  0  0  0  0  0  0
    9.9546   45.0695   33.2036 C   0  0  1  0  0  0  0  0  0  0  0  0
   11.0274   46.0321   33.4756 N   0  0  0  0  0  0  0  0  0  0  0  0
    9.7465   44.8481   31.6877 C   0  0  0  0  0  0  0  0  0  0  0  0
    8.7923   45.8409   31.0844 C   0  0  0  0  0  0  0  0  0  0  0  0
    7.4054   45.6015   31.0990 C   0  0  0  0  0  0  0  0  0  0  0  0
    9.2824   46.9880   30.4423 C   0  0  0  0  0  0  0  0  0  0  0  0
    6.5264   46.5032   30.4839 C   0  0  0  0  0  0  0  0  0  0  0  0
    8.4032   47.8902   29.8316 C   0  0  0  0  0  0  0  0  0  0  0  0
    7.0144   47.6526   29.8475 C   0  0  0  0  0  0  0  0  0  0  0  0
    6.0937   48.5234   29.2472 O   0  0  0  0  0  0  0  0  0  0  0  0
    6.4460   49.7165   28.5509 C   0  0  0  0  0  0  0  0  0  0  0  0
    5.2030   50.3659   27.9979 C   0  0  0  0  0  0  0  0  0  0  0  0
    4.9087   51.6953   28.3843 C   0  0  0  0  0  0  0  0  0  0  0  0
    4.2975   49.6644   27.1328 C   0  0  0  0  0  0  0  0  0  0  0  0
    3.7373   52.2769   27.9176 C   0  0  0  0  0  0  0  0  0  0  0  0
    3.1129   50.3073   26.7007 C   0  0  0  0  0  0  0  0  0  0  0  0
    4.5487   48.3127   26.7051 N   0  0  0  0  0  0  0  0  0  0  0  0
    3.2512   53.5465   28.1646 O   0  0  0  0  0  0  0  0  0  0  0  0
    2.8767   51.6119   27.1135 C   0  0  0  0  0  0  0  0  0  0  0  0
    5.8193   47.9020   26.3763 O   0  0  0  0  0  0  0  0  0  0  0  0
    3.5931   47.5434   26.4735 O   0  0  0  0  0  0  0  0  0  0  0  0
    2.0048   53.6859   27.4688 C   0  0  0  0  0  0  0  0  0  0  0  0
    1.8034   52.4276   26.8109 O   0  0  0  0  0  0  0  0  0  0  0  0
    8.8123   40.1850   34.2127 O   0  0  0  0  0  0  0  0  0  0  0  0
   11.2407   40.7945   33.3670 O   0  0  0  0  0  0  0  0  0  0  0  0
   10.9134   40.6866   31.9954 C   0  0  0  0  0  0  0  0  0  0  0  0
   11.5166   39.3787   31.4404 C   0  0  0  0  0  0  0  0  0  0  0  0
   12.7486   39.0849   32.0735 O   0  0  0  0  0  0  0  0  0  0  0  0
   10.6039   38.1884   31.6669 C   0  0  0  0  0  0  0  0  0  0  0  0
   12.9329   37.6776   32.0284 C   0  0  0  0  0  0  0  0  0  0  0  0
    9.6373   38.0938   30.6484 O   0  0  0  0  0  0  0  0  0  0  0  0
   11.5737   37.0141   31.7055 C   0  0  0  0  0  0  0  0  0  0  0  0
   13.4853   37.2120   33.3238 N   0  0  0  0  0  0  0  0  0  0  0  0
   11.6210   36.3379   30.4683 O   0  0  0  0  0  0  0  0  0  0  0  0
   14.4804   36.3319   33.5726 C   0  0  0  0  0  0  0  0  0  0  0  0
   13.1141   37.6275   34.5689 C   0  0  0  0  0  0  0  0  0  0  0  0
   15.2076   35.6152   32.6740 N   0  0  0  0  0  0  0  0  0  0  0  0
   14.6761   36.2306   34.9181 C   0  0  0  0  0  0  0  0  0  0  0  0
   13.8218   37.0451   35.5783 N   0  0  0  0  0  0  0  0  0  0  0  0
   16.1642   34.7600   33.1548 C   0  0  0  0  0  0  0  0  0  0  0  0
   15.6528   35.3507   35.4131 C   0  0  0  0  0  0  0  0  0  0  0  0
   16.3796   34.6315   34.5043 N   0  0  0  0  0  0  0  0  0  0  0  0
   15.9001   35.1933   36.8090 N   0  0  0  0  0  0  0  0  0  0  0  0
    9.0121   45.4317   33.6715 H   0  0  0  0  0  0  0  0  0  0  0  0
   10.7260   46.9687   33.1214 H   0  0  0  0  0  0  0  0  0  0  0  0
   11.8906   45.7658   32.9469 H   0  0  0  0  0  0  0  0  0  0  0  0
    9.3414   43.8330   31.4763 H   0  0  0  0  0  0  0  0  0  0  0  0
   10.7229   44.8814   31.1556 H   0  0  0  0  0  0  0  0  0  0  0  0
    7.0082   44.7167   31.5810 H   0  0  0  0  0  0  0  0  0  0  0  0
   10.3470   47.1850   30.4117 H   0  0  0  0  0  0  0  0  0  0  0  0
    5.4618   46.3070   30.5012 H   0  0  0  0  0  0  0  0  0  0  0  0
    8.8141   48.7659   29.3484 H   0  0  0  0  0  0  0  0  0  0  0  0
    6.9720   50.4011   29.2520 H   0  0  0  0  0  0  0  0  0  0  0  0
    7.1450   49.4888   27.7193 H   0  0  0  0  0  0  0  0  0  0  0  0
    5.5658   52.2572   29.0360 H   0  0  0  0  0  0  0  0  0  0  0  0
    2.4047   49.8095   26.0509 H   0  0  0  0  0  0  0  0  0  0  0  0
    2.0720   54.5032   26.7205 H   0  0  0  0  0  0  0  0  0  0  0  0
    1.1822   53.8776   28.1893 H   0  0  0  0  0  0  0  0  0  0  0  0
   11.3827   41.5438   31.4669 H   0  0  0  0  0  0  0  0  0  0  0  0
    9.8225   40.7225   31.7632 H   0  0  0  0  0  0  0  0  0  0  0  0
   11.6978   39.5037   30.3478 H   0  0  0  0  0  0  0  0  0  0  0  0
   10.1084   38.2786   32.6627 H   0  0  0  0  0  0  0  0  0  0  0  0
   13.6638   37.4472   31.2214 H   0  0  0  0  0  0  0  0  0  0  0  0
    8.9763   37.4191   30.9532 H   0  0  0  0  0  0  0  0  0  0  0  0
   11.2821   36.3054   32.5171 H   0  0  0  0  0  0  0  0  0  0  0  0
   10.8658   35.6935   30.4652 H   0  0  0  0  0  0  0  0  0  0  0  0
   12.3293   38.3523   34.7444 H   0  0  0  0  0  0  0  0  0  0  0  0
   16.7561   34.1778   32.4621 H   0  0  0  0  0  0  0  0  0  0  0  0
   16.6345   34.5300   37.1416 H   0  0  0  0  0  0  0  0  0  0  0  0
   15.3533   35.7361   37.5138 H   0  0  0  0  0  0  0  0  0  0  0  0
  1  2  2  0
  1  3  1  0
  3  4  1  0
  4  5  1  0
  6  1  1  0
  7  6  1  0
  6  8  1  0
  8  9  1  0
  9 10  2  0
 11  9  1  0
 10 12  1  0
 13 11  2  0
 12 14  2  0
 14 13  1  0
 14 15  1  0
 15 16  1  0
 16 17  1  0
 17 18  2  0
 19 17  1  0
 18 20  1  0
 21 19  2  0
 19 22  1  0
 20 23  1  0
 20 24  2  0
 24 21  1  0
 22 25  1  0
 22 26  2  0
 23 27  1  0
 24 28  1  0
 27 28  1  0
  4 29  2  0
  4 30  1  0
 31 30  1  0
 31 32  1  0
 32 33  1  0
 32 34  1  0
 33 35  1  0
 34 36  1  0
 34 37  1  0
 37 35  1  0
 35 38  1  0
 37 39  1  0
 40 38  1  0
 41 38  1  0
 42 40  2  0
 40 43  1  0
 44 41  2  0
 45 42  1  0
 43 46  2  0
 43 44  1  0
 47 45  2  0
 47 46  1  0
 46 48  1  0
  6 49  1  1
  7 50  1  0
  7 51  1  0
  8 52  1  0
  8 53  1  0
 10 54  1  0
 11 55  1  0
 12 56  1  0
 13 57  1  0
 16 58  1  0
 16 59  1  0
 18 60  1  0
 21 61  1  0
 27 62  1  0
 27 63  1  0
 31 64  1  0
 31 65  1  0
 32 66  1  0
 34 67  1  0
 35 68  1  0
 36 69  1  0
 37 70  1  0
 39 71  1  0
 41 72  1  0
 45 73  1  0
 48 74  1  0
 48 75  1  0
M  CHG  3   5  -1  22   1  25  -1
M  END
>  <EmbedRMS>  (132) 
0.0825600970218

$$$$

     RDKit          3D

 75 80  0  0  0  0  0  0  0  0999 V2000
   10.2805   43.7663   33.8249 C   0  0  0  0  0  0  0  0  0  0  0  0
   11.4111   43.5919   34.3667 O   0  0  0  0  0  0  0  0  0  0  0  0
    9.3622   42.7247   33.7343 O   0  0  0  0  0  0  0  0  0  0  0  0
    9.8904   41.2264   34.2936 P   0  0  0  0  0  0  0  0  0  0  0  0
   10.3732   41.4564   35.8832 O   0  0  0  0  0  0  0  0  0  0  0  0
    9.9459   45.0735   33.2111 C   0  0  1  0  0  0  0  0  0  0  0  0
   11.0266   46.0291   33.4705 N   0  0  0  0  0  0  0  0  0  0  0  0
    9.7535   44.8538   31.6948 C   0  0  0  0  0  0  0  0  0  0  0  0
    8.7955   45.8409   31.0846 C   0  0  0  0  0  0  0  0  0  0  0  0
    7.4086   45.6008   31.1012 C   0  0  0  0  0  0  0  0  0  0  0  0
    9.2830   46.9879   30.4402 C   0  0  0  0  0  0  0  0  0  0  0  0
    6.5280   46.5015   30.4861 C   0  0  0  0  0  0  0  0  0  0  0  0
    8.4025   47.8895   29.8313 C   0  0  0  0  0  0  0  0  0  0  0  0
    7.0137   47.6501   29.8462 C   0  0  0  0  0  0  0  0  0  0  0  0
    6.0881   48.5167   29.2424 O   0  0  0  0  0  0  0  0  0  0  0  0
    6.4240   49.6707   28.4700 C   0  0  0  0  0  0  0  0  0  0  0  0
    7.0573   49.2725   27.1556 C   0  0  0  0  0  0  0  0  0  0  0  0
    6.4451   48.2427   26.4031 C   0  0  0  0  0  0  0  0  0  0  0  0
    8.2670   49.8714   26.6757 C   0  0  0  0  0  0  0  0  0  0  0  0
    7.0714   47.8100   25.2414 C   0  0  0  0  0  0  0  0  0  0  0  0
    8.8682   49.3789   25.4944 C   0  0  0  0  0  0  0  0  0  0  0  0
    8.8719   50.9853   27.3497 N   0  0  0  0  0  0  0  0  0  0  0  0
    6.6703   46.8181   24.3673 O   0  0  0  0  0  0  0  0  0  0  0  0
    8.2350   48.3496   24.8098 C   0  0  0  0  0  0  0  0  0  0  0  0
    8.1056   52.0705   27.7077 O   0  0  0  0  0  0  0  0  0  0  0  0
   10.1153   51.0804   27.4056 O   0  0  0  0  0  0  0  0  0  0  0  0
    7.6457   46.7309   23.3196 C   0  0  0  0  0  0  0  0  0  0  0  0
    8.6269   47.7265   23.6406 O   0  0  0  0  0  0  0  0  0  0  0  0
    8.8129   40.1841   34.2124 O   0  0  0  0  0  0  0  0  0  0  0  0
   11.2419   40.7944   33.3695 O   0  0  0  0  0  0  0  0  0  0  0  0
   10.9186   40.6911   31.9969 C   0  0  0  0  0  0  0  0  0  0  0  0
   11.5172   39.3814   31.4407 C   0  0  0  0  0  0  0  0  0  0  0  0
   12.7492   39.0856   32.0729 O   0  0  0  0  0  0  0  0  0  0  0  0
   10.6023   38.1908   31.6665 C   0  0  0  0  0  0  0  0  0  0  0  0
   12.9319   37.6781   32.0281 C   0  0  0  0  0  0  0  0  0  0  0  0
    9.6392   38.0797   30.6452 O   0  0  0  0  0  0  0  0  0  0  0  0
   11.5715   37.0165   31.7056 C   0  0  0  0  0  0  0  0  0  0  0  0
   13.4847   37.2121   33.3235 N   0  0  0  0  0  0  0  0  0  0  0  0
   11.6187   36.3384   30.4695 O   0  0  0  0  0  0  0  0  0  0  0  0
   14.4801   36.3321   33.5724 C   0  0  0  0  0  0  0  0  0  0  0  0
   13.1137   37.6275   34.5688 C   0  0  0  0  0  0  0  0  0  0  0  0
   15.2073   35.6153   32.6738 N   0  0  0  0  0  0  0  0  0  0  0  0
   14.6759   36.2308   34.9179 C   0  0  0  0  0  0  0  0  0  0  0  0
   13.8216   37.0452   35.5781 N   0  0  0  0  0  0  0  0  0  0  0  0
   16.1640   34.7602   33.1546 C   0  0  0  0  0  0  0  0  0  0  0  0
   15.6526   35.3508   35.4129 C   0  0  0  0  0  0  0  0  0  0  0  0
   16.3794   34.6317   34.5041 N   0  0  0  0  0  0  0  0  0  0  0  0
   15.8999   35.1934   36.8088 N   0  0  0  0  0  0  0  0  0  0  0  0
    8.9995   45.4380   33.6722 H   0  0  0  0  0  0  0  0  0  0  0  0
   11.0504   46.2277   34.4979 H   0  0  0  0  0  0  0  0  0  0  0  0
   10.7763   46.9368   33.0156 H   0  0  0  0  0  0  0  0  0  0  0  0
   10.7406   44.9069   31.1833 H   0  0  0  0  0  0  0  0  0  0  0  0
    9.3636   43.8352   31.4714 H   0  0  0  0  0  0  0  0  0  0  0  0
    7.0130   44.7166   31.5857 H   0  0  0  0  0  0  0  0  0  0  0  0
   10.3471   47.1872   30.4080 H   0  0  0  0  0  0  0  0  0  0  0  0
    5.4637   46.3038   30.5046 H   0  0  0  0  0  0  0  0  0  0  0  0
    8.8143   48.7663   29.3531 H   0  0  0  0  0  0  0  0  0  0  0  0
    7.0668   50.3354   29.0802 H   0  0  0  0  0  0  0  0  0  0  0  0
    5.4881   50.2249   28.2493 H   0  0  0  0  0  0  0  0  0  0  0  0
    5.5230   47.7770   26.7277 H   0  0  0  0  0  0  0  0  0  0  0  0
    9.7850   49.8054   25.1082 H   0  0  0  0  0  0  0  0  0  0  0  0
    8.1112   45.7230   23.3111 H   0  0  0  0  0  0  0  0  0  0  0  0
    7.1771   46.9570   22.3388 H   0  0  0  0  0  0  0  0  0  0  0  0
   11.3967   41.5459   31.4726 H   0  0  0  0  0  0  0  0  0  0  0  0
    9.8298   40.7409   31.7611 H   0  0  0  0  0  0  0  0  0  0  0  0
   11.6975   39.5066   30.3481 H   0  0  0  0  0  0  0  0  0  0  0  0
   10.1076   38.2647   32.6645 H   0  0  0  0  0  0  0  0  0  0  0  0
   13.6621   37.4468   31.2209 H   0  0  0  0  0  0  0  0  0  0  0  0
    8.8974   38.6943   30.8832 H   0  0  0  0  0  0  0  0  0  0  0  0
   11.2806   36.3073   32.5170 H   0  0  0  0  0  0  0  0  0  0  0  0
   10.8493   35.7110   30.4586 H   0  0  0  0  0  0  0  0  0  0  0  0
   12.3290   38.3524   34.7444 H   0  0  0  0  0  0  0  0  0  0  0  0
   16.7559   34.1780   32.4619 H   0  0  0  0  0  0  0  0  0  0  0  0
   16.6344   34.5301   37.1414 H   0  0  0  0  0  0  0  0  0  0  0  0
   15.3532   35.7362   37.5137 H   0  0  0  0  0  0  0  0  0  0  0  0
  1  2  2  0
  1  3  1  0
  3  4  1  0
  4  5  1  0
  6  1  1  0
  7  6  1  0
  6  8  1  0
  8  9  1  0
  9 10  2  0
 11  9  1  0
 10 12  1  0
 13 11  2  0
 12 14  2  0
 14 13  1  0
 14 15  1  0
 15 16  1  0
 16 17  1  0
 17 18  2  0
 19 17  1  0
 18 20  1  0
 21 19  2  0
 19 22  1  0
 20 23  1  0
 20 24  2  0
 24 21  1  0
 22 25  1  0
 22 26  2  0
 23 27  1  0
 24 28  1  0
 27 28  1  0
  4 29  2  0
  4 30  1  0
 31 30  1  0
 31 32  1  0
 32 33  1  0
 32 34  1  0
 33 35  1  0
 34 36  1  0
 34 37  1  0
 37 35  1  0
 35 38  1  0
 37 39  1  0
 40 38  1  0
 41 38  1  0
 42 40  2  0
 40 43  1  0
 44 41  2  0
 45 42  1  0
 43 46  2  0
 43 44  1  0
 47 45  2  0
 47 46  1  0
 46 48  1  0
  6 49  1  1
  7 50  1  0
  7 51  1  0
  8 52  1  0
  8 53  1  0
 10 54  1  0
 11 55  1  0
 12 56  1  0
 13 57  1  0
 16 58  1  0
 16 59  1  0
 18 60  1  0
 21 61  1  0
 27 62  1  0
 27 63  1  0
 31 64  1  0
 31 65  1  0
 32 66  1  0
 34 67  1  0
 35 68  1  0
 36 69  1  0
 37 70  1  0
 39 71  1  0
 41 72  1  0
 45 73  1  0
 48 74  1  0
 48 75  1  0
M  CHG  3   5  -1  22   1  25  -1
M  END
>  <EmbedRMS>  (133) 
0.0827750595141

$$$$

     RDKit          3D

 75 80  0  0  0  0  0  0  0  0999 V2000
   10.2803   43.7665   33.8251 C   0  0  0  0  0  0  0  0  0  0  0  0
   11.4110   43.5919   34.3667 O   0  0  0  0  0  0  0  0  0  0  0  0
    9.3616   42.7252   33.7349 O   0  0  0  0  0  0  0  0  0  0  0  0
    9.8896   41.2269   34.2945 P   0  0  0  0  0  0  0  0  0  0  0  0
   10.3732   41.4568   35.8838 O   0  0  0  0  0  0  0  0  0  0  0  0
    9.9458   45.0737   33.2113 C   0  0  1  0  0  0  0  0  0  0  0  0
   11.0266   46.0293   33.4706 N   0  0  0  0  0  0  0  0  0  0  0  0
    9.7534   44.8539   31.6951 C   0  0  0  0  0  0  0  0  0  0  0  0
    8.7955   45.8411   31.0850 C   0  0  0  0  0  0  0  0  0  0  0  0
    7.4087   45.6002   31.1001 C   0  0  0  0  0  0  0  0  0  0  0  0
    9.2831   46.9874   30.4395 C   0  0  0  0  0  0  0  0  0  0  0  0
    6.5281   46.5006   30.4845 C   0  0  0  0  0  0  0  0  0  0  0  0
    8.4027   47.8885   29.8296 C   0  0  0  0  0  0  0  0  0  0  0  0
    7.0134   47.6523   29.8500 C   0  0  0  0  0  0  0  0  0  0  0  0
    6.0869   48.5268   29.2591 O   0  0  0  0  0  0  0  0  0  0  0  0
    6.4069   49.7878   28.6688 C   0  0  0  0  0  0  0  0  0  0  0  0
    6.8314   50.7836   29.7255 C   0  0  0  0  0  0  0  0  0  0  0  0
    6.0459   50.8883   30.8975 C   0  0  0  0  0  0  0  0  0  0  0  0
    8.0136   51.5844   29.5967 C   0  0  0  0  0  0  0  0  0  0  0  0
    6.4799   51.7314   31.9122 C   0  0  0  0  0  0  0  0  0  0  0  0
    8.4155   52.4117   30.6696 C   0  0  0  0  0  0  0  0  0  0  0  0
    8.7957   51.5898   28.3930 N   0  0  0  0  0  0  0  0  0  0  0  0
    5.8905   51.9750   33.1378 O   0  0  0  0  0  0  0  0  0  0  0  0
    7.6180   52.4557   31.8059 C   0  0  0  0  0  0  0  0  0  0  0  0
   10.1639   51.7133   28.4680 O   0  0  0  0  0  0  0  0  0  0  0  0
    8.2383   51.7297   27.2849 O   0  0  0  0  0  0  0  0  0  0  0  0
    6.7126   52.9135   33.8452 C   0  0  0  0  0  0  0  0  0  0  0  0
    7.8043   53.1944   32.9585 O   0  0  0  0  0  0  0  0  0  0  0  0
    8.8122   40.1844   34.2135 O   0  0  0  0  0  0  0  0  0  0  0  0
   11.2401   40.7950   33.3698 O   0  0  0  0  0  0  0  0  0  0  0  0
   10.9143   40.6914   31.9981 C   0  0  0  0  0  0  0  0  0  0  0  0
   11.5269   39.3911   31.4385 C   0  0  0  0  0  0  0  0  0  0  0  0
   12.7519   39.0911   32.0837 O   0  0  0  0  0  0  0  0  0  0  0  0
   10.6113   38.1932   31.6451 C   0  0  0  0  0  0  0  0  0  0  0  0
   12.9413   37.6838   32.0297 C   0  0  0  0  0  0  0  0  0  0  0  0
    9.6064   38.0878   30.6599 O   0  0  0  0  0  0  0  0  0  0  0  0
   11.5822   37.0197   31.6877 C   0  0  0  0  0  0  0  0  0  0  0  0
   13.4840   37.2104   33.3254 N   0  0  0  0  0  0  0  0  0  0  0  0
   11.6179   36.3072   30.4690 O   0  0  0  0  0  0  0  0  0  0  0  0
   14.4797   36.3309   33.5738 C   0  0  0  0  0  0  0  0  0  0  0  0
   13.1136   37.6269   34.5702 C   0  0  0  0  0  0  0  0  0  0  0  0
   15.2074   35.6152   32.6747 N   0  0  0  0  0  0  0  0  0  0  0  0
   14.6756   36.2298   34.9190 C   0  0  0  0  0  0  0  0  0  0  0  0
   13.8217   37.0445   35.5793 N   0  0  0  0  0  0  0  0  0  0  0  0
   16.1643   34.7603   33.1551 C   0  0  0  0  0  0  0  0  0  0  0  0
   15.6528   35.3503   35.4136 C   0  0  0  0  0  0  0  0  0  0  0  0
   16.3798   34.6316   34.5046 N   0  0  0  0  0  0  0  0  0  0  0  0
   15.9004   35.1931   36.8094 N   0  0  0  0  0  0  0  0  0  0  0  0
    8.9995   45.4384   33.6724 H   0  0  0  0  0  0  0  0  0  0  0  0
   11.0504   46.2280   34.4979 H   0  0  0  0  0  0  0  0  0  0  0  0
   10.7763   46.9369   33.0155 H   0  0  0  0  0  0  0  0  0  0  0  0
   10.7405   44.9069   31.1836 H   0  0  0  0  0  0  0  0  0  0  0  0
    9.3634   43.8353   31.4717 H   0  0  0  0  0  0  0  0  0  0  0  0
    7.0130   44.7158   31.5841 H   0  0  0  0  0  0  0  0  0  0  0  0
   10.3474   47.1851   30.4047 H   0  0  0  0  0  0  0  0  0  0  0  0
    5.4637   46.3043   30.5053 H   0  0  0  0  0  0  0  0  0  0  0  0
    8.8154   48.7585   29.3401 H   0  0  0  0  0  0  0  0  0  0  0  0
    5.4953   50.1792   28.1711 H   0  0  0  0  0  0  0  0  0  0  0  0
    7.1714   49.6308   27.8827 H   0  0  0  0  0  0  0  0  0  0  0  0
    5.1390   50.3103   31.0237 H   0  0  0  0  0  0  0  0  0  0  0  0
    9.3066   53.0229   30.6072 H   0  0  0  0  0  0  0  0  0  0  0  0
    7.0899   52.4608   34.7860 H   0  0  0  0  0  0  0  0  0  0  0  0
    6.1415   53.8420   34.0557 H   0  0  0  0  0  0  0  0  0  0  0  0
    9.8233   40.7200   31.7652 H   0  0  0  0  0  0  0  0  0  0  0  0
   11.3775   41.5548   31.4741 H   0  0  0  0  0  0  0  0  0  0  0  0
   11.7312   39.5362   30.3532 H   0  0  0  0  0  0  0  0  0  0  0  0
   10.1202   38.2696   32.6410 H   0  0  0  0  0  0  0  0  0  0  0  0
   13.6850   37.4639   31.2321 H   0  0  0  0  0  0  0  0  0  0  0  0
   10.0251   38.1792   29.7654 H   0  0  0  0  0  0  0  0  0  0  0  0
   11.2757   36.3135   32.4907 H   0  0  0  0  0  0  0  0  0  0  0  0
   11.9838   36.9111   29.7708 H   0  0  0  0  0  0  0  0  0  0  0  0
   12.3307   38.3536   34.7458 H   0  0  0  0  0  0  0  0  0  0  0  0
   16.7566   34.1787   32.4623 H   0  0  0  0  0  0  0  0  0  0  0  0
   16.6353   34.5301   37.1419 H   0  0  0  0  0  0  0  0  0  0  0  0
   15.3535   35.7355   37.5144 H   0  0  0  0  0  0  0  0  0  0  0  0
  1  2  2  0
  1  3  1  0
  3  4  1  0
  4  5  1  0
  6  1  1  0
  7  6  1  0
  6  8  1  0
  8  9  1  0
  9 10  2  0
 11  9  1  0
 10 12  1  0
 13 11  2  0
 12 14  2  0
 14 13  1  0
 14 15  1  0
 15 16  1  0
 16 17  1  0
 17 18  2  0
 19 17  1  0
 18 20  1  0
 21 19  2  0
 19 22  1  0
 20 23  1  0
 20 24  2  0
 24 21  1  0
 22 25  1  0
 22 26  2  0
 23 27  1  0
 24 28  1  0
 27 28  1  0
  4 29  2  0
  4 30  1  0
 31 30  1  0
 31 32  1  0
 32 33  1  0
 32 34  1  0
 33 35  1  0
 34 36  1  0
 34 37  1  0
 37 35  1  0
 35 38  1  0
 37 39  1  0
 40 38  1  0
 41 38  1  0
 42 40  2  0
 40 43  1  0
 44 41  2  0
 45 42  1  0
 43 46  2  0
 43 44  1  0
 47 45  2  0
 47 46  1  0
 46 48  1  0
  6 49  1  1
  7 50  1  0
  7 51  1  0
  8 52  1  0
  8 53  1  0
 10 54  1  0
 11 55  1  0
 12 56  1  0
 13 57  1  0
 16 58  1  0
 16 59  1  0
 18 60  1  0
 21 61  1  0
 27 62  1  0
 27 63  1  0
 31 64  1  0
 31 65  1  0
 32 66  1  0
 34 67  1  0
 35 68  1  0
 36 69  1  0
 37 70  1  0
 39 71  1  0
 41 72  1  0
 45 73  1  0
 48 74  1  0
 48 75  1  0
M  CHG  3   5  -1  22   1  25  -1
M  END
>  <EmbedRMS>  (134) 
0.0806543587018

$$$$

     RDKit          3D

 75 80  0  0  0  0  0  0  0  0999 V2000
   10.2836   43.7625   33.8271 C   0  0  0  0  0  0  0  0  0  0  0  0
   11.4096   43.5863   34.3774 O   0  0  0  0  0  0  0  0  0  0  0  0
    9.3633   42.7236   33.7350 O   0  0  0  0  0  0  0  0  0  0  0  0
    9.8905   41.2258   34.2951 P   0  0  0  0  0  0  0  0  0  0  0  0
   10.3732   41.4567   35.8846 O   0  0  0  0  0  0  0  0  0  0  0  0
    9.9552   45.0699   33.2053 C   0  0  1  0  0  0  0  0  0  0  0  0
   11.0216   46.0462   33.4575 N   0  0  0  0  0  0  0  0  0  0  0  0
    9.7518   44.8505   31.6906 C   0  0  0  0  0  0  0  0  0  0  0  0
    8.7945   45.8398   31.0844 C   0  0  0  0  0  0  0  0  0  0  0  0
    7.4075   45.5945   31.0930 C   0  0  0  0  0  0  0  0  0  0  0  0
    9.2831   46.9902   30.4461 C   0  0  0  0  0  0  0  0  0  0  0  0
    6.5285   46.4940   30.4745 C   0  0  0  0  0  0  0  0  0  0  0  0
    8.4025   47.8956   29.8415 C   0  0  0  0  0  0  0  0  0  0  0  0
    7.0150   47.6530   29.8542 C   0  0  0  0  0  0  0  0  0  0  0  0
    6.0942   48.5343   29.2686 O   0  0  0  0  0  0  0  0  0  0  0  0
    6.3107   49.9364   29.1070 C   0  0  0  0  0  0  0  0  0  0  0  0
    6.4485   50.5992   30.4580 C   0  0  0  0  0  0  0  0  0  0  0  0
    7.6421   51.3099   30.7404 C   0  0  0  0  0  0  0  0  0  0  0  0
    5.4539   50.4509   31.4834 C   0  0  0  0  0  0  0  0  0  0  0  0
    7.8190   51.8271   32.0174 C   0  0  0  0  0  0  0  0  0  0  0  0
    5.6998   50.9936   32.7667 C   0  0  0  0  0  0  0  0  0  0  0  0
    4.2252   49.7346   31.2612 N   0  0  0  0  0  0  0  0  0  0  0  0
    8.8931   52.5416   32.5157 O   0  0  0  0  0  0  0  0  0  0  0  0
    6.8915   51.6717   32.9886 C   0  0  0  0  0  0  0  0  0  0  0  0
    3.5511   49.1777   32.3245 O   0  0  0  0  0  0  0  0  0  0  0  0
    3.6516   49.7749   30.1541 O   0  0  0  0  0  0  0  0  0  0  0  0
    8.6128   52.8645   33.8855 C   0  0  0  0  0  0  0  0  0  0  0  0
    7.3301   52.2810   34.1498 O   0  0  0  0  0  0  0  0  0  0  0  0
    8.8121   40.1848   34.2146 O   0  0  0  0  0  0  0  0  0  0  0  0
   11.2409   40.7940   33.3695 O   0  0  0  0  0  0  0  0  0  0  0  0
   10.9141   40.6910   31.9977 C   0  0  0  0  0  0  0  0  0  0  0  0
   11.5244   39.3891   31.4384 C   0  0  0  0  0  0  0  0  0  0  0  0
   12.7491   39.0880   32.0806 O   0  0  0  0  0  0  0  0  0  0  0  0
   10.6090   38.1929   31.6474 C   0  0  0  0  0  0  0  0  0  0  0  0
   12.9321   37.6799   32.0300 C   0  0  0  0  0  0  0  0  0  0  0  0
    9.6123   38.0915   30.6545 O   0  0  0  0  0  0  0  0  0  0  0  0
   11.5736   37.0143   31.7030 C   0  0  0  0  0  0  0  0  0  0  0  0
   13.4842   37.2115   33.3240 N   0  0  0  0  0  0  0  0  0  0  0  0
   11.6300   36.3236   30.4749 O   0  0  0  0  0  0  0  0  0  0  0  0
   14.4797   36.3315   33.5723 C   0  0  0  0  0  0  0  0  0  0  0  0
   13.1142   37.6281   34.5689 C   0  0  0  0  0  0  0  0  0  0  0  0
   15.2077   35.6160   32.6734 N   0  0  0  0  0  0  0  0  0  0  0  0
   14.6753   36.2295   34.9180 C   0  0  0  0  0  0  0  0  0  0  0  0
   13.8222   37.0454   35.5779 N   0  0  0  0  0  0  0  0  0  0  0  0
   16.1631   34.7592   33.1540 C   0  0  0  0  0  0  0  0  0  0  0  0
   15.6527   35.3498   35.4130 C   0  0  0  0  0  0  0  0  0  0  0  0
   16.3782   34.6299   34.5036 N   0  0  0  0  0  0  0  0  0  0  0  0
   15.9024   35.1933   36.8090 N   0  0  0  0  0  0  0  0  0  0  0  0
    9.0089   45.4355   33.6641 H   0  0  0  0  0  0  0  0  0  0  0  0
   11.1138   46.1971   34.4893 H   0  0  0  0  0  0  0  0  0  0  0  0
   11.9365   45.6883   33.0948 H   0  0  0  0  0  0  0  0  0  0  0  0
   10.7323   44.8899   31.1643 H   0  0  0  0  0  0  0  0  0  0  0  0
    9.3504   43.8349   31.4765 H   0  0  0  0  0  0  0  0  0  0  0  0
    7.0098   44.7064   31.5717 H   0  0  0  0  0  0  0  0  0  0  0  0
   10.3475   47.1915   30.4221 H   0  0  0  0  0  0  0  0  0  0  0  0
    5.4645   46.2937   30.4864 H   0  0  0  0  0  0  0  0  0  0  0  0
    8.8115   48.7715   29.3560 H   0  0  0  0  0  0  0  0  0  0  0  0
    5.4485   50.3800   28.5692 H   0  0  0  0  0  0  0  0  0  0  0  0
    7.1974   50.1127   28.4604 H   0  0  0  0  0  0  0  0  0  0  0  0
    8.4161   51.4387   29.9942 H   0  0  0  0  0  0  0  0  0  0  0  0
    4.9784   50.8989   33.5674 H   0  0  0  0  0  0  0  0  0  0  0  0
    9.3839   52.4164   34.5494 H   0  0  0  0  0  0  0  0  0  0  0  0
    8.5628   53.9647   34.0166 H   0  0  0  0  0  0  0  0  0  0  0  0
    9.8229   40.7218   31.7654 H   0  0  0  0  0  0  0  0  0  0  0  0
   11.3765   41.5545   31.4722 H   0  0  0  0  0  0  0  0  0  0  0  0
   11.7247   39.5323   30.3523 H   0  0  0  0  0  0  0  0  0  0  0  0
   10.1111   38.2749   32.6388 H   0  0  0  0  0  0  0  0  0  0  0  0
   13.6633   37.4536   31.2231 H   0  0  0  0  0  0  0  0  0  0  0  0
   10.0521   38.1177   29.7652 H   0  0  0  0  0  0  0  0  0  0  0  0
   11.2754   36.3130   32.5186 H   0  0  0  0  0  0  0  0  0  0  0  0
   10.8599   35.6973   30.4644 H   0  0  0  0  0  0  0  0  0  0  0  0
   12.3269   38.3507   34.7442 H   0  0  0  0  0  0  0  0  0  0  0  0
   16.7525   34.1751   32.4603 H   0  0  0  0  0  0  0  0  0  0  0  0
   15.3563   35.7347   37.5156 H   0  0  0  0  0  0  0  0  0  0  0  0
   16.6372   34.5288   37.1395 H   0  0  0  0  0  0  0  0  0  0  0  0
  1  2  2  0
  1  3  1  0
  3  4  1  0
  4  5  1  0
  6  1  1  0
  7  6  1  0
  6  8  1  0
  8  9  1  0
  9 10  2  0
 11  9  1  0
 10 12  1  0
 13 11  2  0
 12 14  2  0
 14 13  1  0
 14 15  1  0
 15 16  1  0
 16 17  1  0
 17 18  2  0
 19 17  1  0
 18 20  1  0
 21 19  2  0
 19 22  1  0
 20 23  1  0
 20 24  2  0
 24 21  1  0
 22 25  1  0
 22 26  2  0
 23 27  1  0
 24 28  1  0
 27 28  1  0
  4 29  2  0
  4 30  1  0
 31 30  1  0
 31 32  1  0
 32 33  1  0
 32 34  1  0
 33 35  1  0
 34 36  1  0
 34 37  1  0
 37 35  1  0
 35 38  1  0
 37 39  1  0
 40 38  1  0
 41 38  1  0
 42 40  2  0
 40 43  1  0
 44 41  2  0
 45 42  1  0
 43 46  2  0
 43 44  1  0
 47 45  2  0
 47 46  1  0
 46 48  1  0
  6 49  1  1
  7 50  1  0
  7 51  1  0
  8 52  1  0
  8 53  1  0
 10 54  1  0
 11 55  1  0
 12 56  1  0
 13 57  1  0
 16 58  1  0
 16 59  1  0
 18 60  1  0
 21 61  1  0
 27 62  1  0
 27 63  1  0
 31 64  1  0
 31 65  1  0
 32 66  1  0
 34 67  1  0
 35 68  1  0
 36 69  1  0
 37 70  1  0
 39 71  1  0
 41 72  1  0
 45 73  1  0
 48 74  1  0
 48 75  1  0
M  CHG  3   5  -1  22   1  25  -1
M  END
>  <EmbedRMS>  (135) 
0.0824238036703

$$$$

     RDKit          3D

 75 80  0  0  0  0  0  0  0  0999 V2000
   10.2839   43.7624   33.8279 C   0  0  0  0  0  0  0  0  0  0  0  0
   11.4104   43.5866   34.3768 O   0  0  0  0  0  0  0  0  0  0  0  0
    9.3631   42.7229   33.7365 O   0  0  0  0  0  0  0  0  0  0  0  0
    9.8894   41.2239   34.2945 P   0  0  0  0  0  0  0  0  0  0  0  0
   10.3717   41.4533   35.8846 O   0  0  0  0  0  0  0  0  0  0  0  0
    9.9550   45.0698   33.2058 C   0  0  1  0  0  0  0  0  0  0  0  0
   11.0208   46.0474   33.4547 N   0  0  0  0  0  0  0  0  0  0  0  0
    9.7507   44.8496   31.6922 C   0  0  0  0  0  0  0  0  0  0  0  0
    8.7943   45.8393   31.0851 C   0  0  0  0  0  0  0  0  0  0  0  0
    7.4066   45.6013   31.1011 C   0  0  0  0  0  0  0  0  0  0  0  0
    9.2828   46.9882   30.4446 C   0  0  0  0  0  0  0  0  0  0  0  0
    6.5287   46.5063   30.4893 C   0  0  0  0  0  0  0  0  0  0  0  0
    8.4032   47.8901   29.8342 C   0  0  0  0  0  0  0  0  0  0  0  0
    7.0172   47.6506   29.8451 C   0  0  0  0  0  0  0  0  0  0  0  0
    6.0976   48.5296   29.2544 O   0  0  0  0  0  0  0  0  0  0  0  0
    6.3432   49.3025   28.0776 C   0  0  0  0  0  0  0  0  0  0  0  0
    6.2967   48.4171   26.8518 C   0  0  0  0  0  0  0  0  0  0  0  0
    5.1545   47.5939   26.6877 C   0  0  0  0  0  0  0  0  0  0  0  0
    7.2953   48.4482   25.8203 C   0  0  0  0  0  0  0  0  0  0  0  0
    5.0417   46.8352   25.5307 C   0  0  0  0  0  0  0  0  0  0  0  0
    7.1185   47.6615   24.6579 C   0  0  0  0  0  0  0  0  0  0  0  0
    8.4659   49.2761   25.9133 N   0  0  0  0  0  0  0  0  0  0  0  0
    4.0240   45.9756   25.1621 O   0  0  0  0  0  0  0  0  0  0  0  0
    5.9821   46.8680   24.5580 C   0  0  0  0  0  0  0  0  0  0  0  0
    8.9434   49.9023   24.7837 O   0  0  0  0  0  0  0  0  0  0  0  0
    9.2159   49.1845   26.9062 O   0  0  0  0  0  0  0  0  0  0  0  0
    4.3505   45.4306   23.8757 C   0  0  0  0  0  0  0  0  0  0  0  0
    5.6087   46.0279   23.5253 O   0  0  0  0  0  0  0  0  0  0  0  0
    8.8106   40.1830   34.2131 O   0  0  0  0  0  0  0  0  0  0  0  0
   11.2405   40.7930   33.3686 O   0  0  0  0  0  0  0  0  0  0  0  0
   10.9170   40.6902   31.9957 C   0  0  0  0  0  0  0  0  0  0  0  0
   11.5170   39.3810   31.4393 C   0  0  0  0  0  0  0  0  0  0  0  0
   12.7490   39.0860   32.0719 O   0  0  0  0  0  0  0  0  0  0  0  0
   10.6027   38.1903   31.6662 C   0  0  0  0  0  0  0  0  0  0  0  0
   12.9324   37.6786   32.0277 C   0  0  0  0  0  0  0  0  0  0  0  0
    9.6394   38.0784   30.6453 O   0  0  0  0  0  0  0  0  0  0  0  0
   11.5717   37.0163   31.7054 C   0  0  0  0  0  0  0  0  0  0  0  0
   13.4856   37.2135   33.3231 N   0  0  0  0  0  0  0  0  0  0  0  0
   11.6190   36.3386   30.4691 O   0  0  0  0  0  0  0  0  0  0  0  0
   14.4812   36.3336   33.5723 C   0  0  0  0  0  0  0  0  0  0  0  0
   13.1139   37.6286   34.5682 C   0  0  0  0  0  0  0  0  0  0  0  0
   15.2078   35.6157   32.6741 N   0  0  0  0  0  0  0  0  0  0  0  0
   14.6763   36.2320   34.9179 C   0  0  0  0  0  0  0  0  0  0  0  0
   13.8213   37.0460   35.5777 N   0  0  0  0  0  0  0  0  0  0  0  0
   16.1639   34.7601   33.1555 C   0  0  0  0  0  0  0  0  0  0  0  0
   15.6523   35.3510   35.4133 C   0  0  0  0  0  0  0  0  0  0  0  0
   16.3788   34.6314   34.5049 N   0  0  0  0  0  0  0  0  0  0  0  0
   15.8990   35.1931   36.8092 N   0  0  0  0  0  0  0  0  0  0  0  0
    9.0098   45.4356   33.6666 H   0  0  0  0  0  0  0  0  0  0  0  0
   11.1146   46.1982   34.4855 H   0  0  0  0  0  0  0  0  0  0  0  0
   11.9367   45.6904   33.0944 H   0  0  0  0  0  0  0  0  0  0  0  0
   10.7311   44.8913   31.1664 H   0  0  0  0  0  0  0  0  0  0  0  0
    9.3519   43.8322   31.4803 H   0  0  0  0  0  0  0  0  0  0  0  0
    7.0050   44.7207   31.5877 H   0  0  0  0  0  0  0  0  0  0  0  0
   10.3459   47.1923   30.4205 H   0  0  0  0  0  0  0  0  0  0  0  0
    5.4644   46.3163   30.5123 H   0  0  0  0  0  0  0  0  0  0  0  0
    8.8106   48.7830   29.3882 H   0  0  0  0  0  0  0  0  0  0  0  0
    5.5244   50.0467   27.9814 H   0  0  0  0  0  0  0  0  0  0  0  0
    7.2722   49.8923   28.1762 H   0  0  0  0  0  0  0  0  0  0  0  0
    4.3704   47.5579   27.4353 H   0  0  0  0  0  0  0  0  0  0  0  0
    7.8476   47.6638   23.8573 H   0  0  0  0  0  0  0  0  0  0  0  0
    3.5735   45.7087   23.1318 H   0  0  0  0  0  0  0  0  0  0  0  0
    4.4570   44.3264   23.9440 H   0  0  0  0  0  0  0  0  0  0  0  0
    9.8278   40.7395   31.7600 H   0  0  0  0  0  0  0  0  0  0  0  0
   11.3947   41.5449   31.4706 H   0  0  0  0  0  0  0  0  0  0  0  0
   11.6982   39.5048   30.3462 H   0  0  0  0  0  0  0  0  0  0  0  0
   10.1083   38.2648   32.6645 H   0  0  0  0  0  0  0  0  0  0  0  0
   13.6636   37.4481   31.2207 H   0  0  0  0  0  0  0  0  0  0  0  0
    8.8984   38.6941   30.8824 H   0  0  0  0  0  0  0  0  0  0  0  0
   11.2770   36.3067   32.5155 H   0  0  0  0  0  0  0  0  0  0  0  0
   10.8497   35.7112   30.4584 H   0  0  0  0  0  0  0  0  0  0  0  0
   12.3277   38.3519   34.7437 H   0  0  0  0  0  0  0  0  0  0  0  0
   16.7562   34.1780   32.4634 H   0  0  0  0  0  0  0  0  0  0  0  0
   16.6341   34.5308   37.1431 H   0  0  0  0  0  0  0  0  0  0  0  0
   15.3519   35.7373   37.5125 H   0  0  0  0  0  0  0  0  0  0  0  0
  1  2  2  0
  1  3  1  0
  3  4  1  0
  4  5  1  0
  6  1  1  0
  7  6  1  0
  6  8  1  0
  8  9  1  0
  9 10  2  0
 11  9  1  0
 10 12  1  0
 13 11  2  0
 12 14  2  0
 14 13  1  0
 14 15  1  0
 15 16  1  0
 16 17  1  0
 17 18  2  0
 19 17  1  0
 18 20  1  0
 21 19  2  0
 19 22  1  0
 20 23  1  0
 20 24  2  0
 24 21  1  0
 22 25  1  0
 22 26  2  0
 23 27  1  0
 24 28  1  0
 27 28  1  0
  4 29  2  0
  4 30  1  0
 31 30  1  0
 31 32  1  0
 32 33  1  0
 32 34  1  0
 33 35  1  0
 34 36  1  0
 34 37  1  0
 37 35  1  0
 35 38  1  0
 37 39  1  0
 40 38  1  0
 41 38  1  0
 42 40  2  0
 40 43  1  0
 44 41  2  0
 45 42  1  0
 43 46  2  0
 43 44  1  0
 47 45  2  0
 47 46  1  0
 46 48  1  0
  6 49  1  1
  7 50  1  0
  7 51  1  0
  8 52  1  0
  8 53  1  0
 10 54  1  0
 11 55  1  0
 12 56  1  0
 13 57  1  0
 16 58  1  0
 16 59  1  0
 18 60  1  0
 21 61  1  0
 27 62  1  0
 27 63  1  0
 31 64  1  0
 31 65  1  0
 32 66  1  0
 34 67  1  0
 35 68  1  0
 36 69  1  0
 37 70  1  0
 39 71  1  0
 41 72  1  0
 45 73  1  0
 48 74  1  0
 48 75  1  0
M  CHG  3   5  -1  22   1  25  -1
M  END
>  <EmbedRMS>  (136) 
0.083949756644

$$$$

     RDKit          3D

 75 80  0  0  0  0  0  0  0  0999 V2000
   10.2804   43.7665   33.8250 C   0  0  0  0  0  0  0  0  0  0  0  0
   11.4111   43.5919   34.3667 O   0  0  0  0  0  0  0  0  0  0  0  0
    9.3619   42.7250   33.7347 O   0  0  0  0  0  0  0  0  0  0  0  0
    9.8900   41.2267   34.2944 P   0  0  0  0  0  0  0  0  0  0  0  0
   10.3728   41.4567   35.8838 O   0  0  0  0  0  0  0  0  0  0  0  0
    9.9459   45.0737   33.2113 C   0  0  1  0  0  0  0  0  0  0  0  0
   11.0266   46.0293   33.4710 N   0  0  0  0  0  0  0  0  0  0  0  0
    9.7540   44.8543   31.6950 C   0  0  0  0  0  0  0  0  0  0  0  0
    8.7957   45.8414   31.0851 C   0  0  0  0  0  0  0  0  0  0  0  0
    7.4090   45.5997   31.1006 C   0  0  0  0  0  0  0  0  0  0  0  0
    9.2825   46.9875   30.4389 C   0  0  0  0  0  0  0  0  0  0  0  0
    6.5262   46.4982   30.4853 C   0  0  0  0  0  0  0  0  0  0  0  0
    8.3997   47.8867   29.8299 C   0  0  0  0  0  0  0  0  0  0  0  0
    7.0181   47.6560   29.8491 C   0  0  0  0  0  0  0  0  0  0  0  0
    6.1793   48.5950   29.2279 O   0  0  0  0  0  0  0  0  0  0  0  0
    4.7526   48.6016   29.2959 C   0  0  0  0  0  0  0  0  0  0  0  0
    4.2796   48.9285   30.6939 C   0  0  0  0  0  0  0  0  0  0  0  0
    3.3825   48.0352   31.3257 C   0  0  0  0  0  0  0  0  0  0  0  0
    4.7427   50.0862   31.4061 C   0  0  0  0  0  0  0  0  0  0  0  0
    3.0003   48.2957   32.6347 C   0  0  0  0  0  0  0  0  0  0  0  0
    4.3278   50.2901   32.7426 C   0  0  0  0  0  0  0  0  0  0  0  0
    5.6339   51.0443   30.8073 N   0  0  0  0  0  0  0  0  0  0  0  0
    2.1526   47.5638   33.4438 O   0  0  0  0  0  0  0  0  0  0  0  0
    3.4556   49.3731   33.3143 C   0  0  0  0  0  0  0  0  0  0  0  0
    6.5062   51.7572   31.5974 O   0  0  0  0  0  0  0  0  0  0  0  0
    5.5152   51.3637   29.6070 O   0  0  0  0  0  0  0  0  0  0  0  0
    2.0713   48.2264   34.7131 C   0  0  0  0  0  0  0  0  0  0  0  0
    2.9181   49.3770   34.5871 O   0  0  0  0  0  0  0  0  0  0  0  0
    8.8127   40.1842   34.2128 O   0  0  0  0  0  0  0  0  0  0  0  0
   11.2414   40.7950   33.3705 O   0  0  0  0  0  0  0  0  0  0  0  0
   10.9178   40.6922   31.9983 C   0  0  0  0  0  0  0  0  0  0  0  0
   11.5175   39.3837   31.4423 C   0  0  0  0  0  0  0  0  0  0  0  0
   12.7507   39.0887   32.0753 O   0  0  0  0  0  0  0  0  0  0  0  0
   10.6027   38.1916   31.6659 C   0  0  0  0  0  0  0  0  0  0  0  0
   12.9384   37.6819   32.0278 C   0  0  0  0  0  0  0  0  0  0  0  0
    9.6371   38.0805   30.6470 O   0  0  0  0  0  0  0  0  0  0  0  0
   11.5780   37.0215   31.6935 C   0  0  0  0  0  0  0  0  0  0  0  0
   13.4844   37.2119   33.3242 N   0  0  0  0  0  0  0  0  0  0  0  0
   11.6095   36.3201   30.4679 O   0  0  0  0  0  0  0  0  0  0  0  0
   14.4797   36.3318   33.5730 C   0  0  0  0  0  0  0  0  0  0  0  0
   13.1136   37.6278   34.5691 C   0  0  0  0  0  0  0  0  0  0  0  0
   15.2073   35.6155   32.6742 N   0  0  0  0  0  0  0  0  0  0  0  0
   14.6754   36.2305   34.9184 C   0  0  0  0  0  0  0  0  0  0  0  0
   13.8213   37.0452   35.5785 N   0  0  0  0  0  0  0  0  0  0  0  0
   16.1640   34.7604   33.1549 C   0  0  0  0  0  0  0  0  0  0  0  0
   15.6524   35.3507   35.4132 C   0  0  0  0  0  0  0  0  0  0  0  0
   16.3794   34.6318   34.5044 N   0  0  0  0  0  0  0  0  0  0  0  0
   15.8999   35.1934   36.8091 N   0  0  0  0  0  0  0  0  0  0  0  0
    8.9994   45.4382   33.6723 H   0  0  0  0  0  0  0  0  0  0  0  0
   11.0501   46.2278   34.4984 H   0  0  0  0  0  0  0  0  0  0  0  0
   10.7763   46.9370   33.0160 H   0  0  0  0  0  0  0  0  0  0  0  0
    9.3646   43.8355   31.4712 H   0  0  0  0  0  0  0  0  0  0  0  0
   10.7412   44.9081   31.1837 H   0  0  0  0  0  0  0  0  0  0  0  0
    7.0151   44.7134   31.5827 H   0  0  0  0  0  0  0  0  0  0  0  0
   10.3464   47.1873   30.4043 H   0  0  0  0  0  0  0  0  0  0  0  0
    5.4696   46.2763   30.5059 H   0  0  0  0  0  0  0  0  0  0  0  0
    8.7914   48.7695   29.3406 H   0  0  0  0  0  0  0  0  0  0  0  0
    4.3567   47.6270   28.9367 H   0  0  0  0  0  0  0  0  0  0  0  0
    4.3636   49.3693   28.5963 H   0  0  0  0  0  0  0  0  0  0  0  0
    3.0066   47.1550   30.8195 H   0  0  0  0  0  0  0  0  0  0  0  0
    4.6610   51.1471   33.3134 H   0  0  0  0  0  0  0  0  0  0  0  0
    1.0260   48.5404   34.9162 H   0  0  0  0  0  0  0  0  0  0  0  0
    2.4467   47.5609   35.5185 H   0  0  0  0  0  0  0  0  0  0  0  0
   11.3950   41.5477   31.4741 H   0  0  0  0  0  0  0  0  0  0  0  0
    9.8290   40.7408   31.7625 H   0  0  0  0  0  0  0  0  0  0  0  0
   11.6982   39.5114   30.3500 H   0  0  0  0  0  0  0  0  0  0  0  0
   10.1117   38.2604   32.6661 H   0  0  0  0  0  0  0  0  0  0  0  0
   13.6767   37.4557   31.2267 H   0  0  0  0  0  0  0  0  0  0  0  0
    8.8960   38.6950   30.8873 H   0  0  0  0  0  0  0  0  0  0  0  0
   11.2791   36.3072   32.4922 H   0  0  0  0  0  0  0  0  0  0  0  0
   11.8828   36.9598   29.7589 H   0  0  0  0  0  0  0  0  0  0  0  0
   12.3300   38.3539   34.7446 H   0  0  0  0  0  0  0  0  0  0  0  0
   16.7561   34.1785   32.4622 H   0  0  0  0  0  0  0  0  0  0  0  0
   15.3531   35.7360   37.5140 H   0  0  0  0  0  0  0  0  0  0  0  0
   16.6347   34.5303   37.1416 H   0  0  0  0  0  0  0  0  0  0  0  0
  1  2  2  0
  1  3  1  0
  3  4  1  0
  4  5  1  0
  6  1  1  0
  7  6  1  0
  6  8  1  0
  8  9  1  0
  9 10  2  0
 11  9  1  0
 10 12  1  0
 13 11  2  0
 12 14  2  0
 14 13  1  0
 14 15  1  0
 15 16  1  0
 16 17  1  0
 17 18  2  0
 19 17  1  0
 18 20  1  0
 21 19  2  0
 19 22  1  0
 20 23  1  0
 20 24  2  0
 24 21  1  0
 22 25  1  0
 22 26  2  0
 23 27  1  0
 24 28  1  0
 27 28  1  0
  4 29  2  0
  4 30  1  0
 31 30  1  0
 31 32  1  0
 32 33  1  0
 32 34  1  0
 33 35  1  0
 34 36  1  0
 34 37  1  0
 37 35  1  0
 35 38  1  0
 37 39  1  0
 40 38  1  0
 41 38  1  0
 42 40  2  0
 40 43  1  0
 44 41  2  0
 45 42  1  0
 43 46  2  0
 43 44  1  0
 47 45  2  0
 47 46  1  0
 46 48  1  0
  6 49  1  1
  7 50  1  0
  7 51  1  0
  8 52  1  0
  8 53  1  0
 10 54  1  0
 11 55  1  0
 12 56  1  0
 13 57  1  0
 16 58  1  0
 16 59  1  0
 18 60  1  0
 21 61  1  0
 27 62  1  0
 27 63  1  0
 31 64  1  0
 31 65  1  0
 32 66  1  0
 34 67  1  0
 35 68  1  0
 36 69  1  0
 37 70  1  0
 39 71  1  0
 41 72  1  0
 45 73  1  0
 48 74  1  0
 48 75  1  0
M  CHG  3   5  -1  22   1  25  -1
M  END
>  <EmbedRMS>  (137) 
0.0817899223466

$$$$

     RDKit          3D

 75 80  0  0  0  0  0  0  0  0999 V2000
   10.2834   43.7662   33.8255 C   0  0  0  0  0  0  0  0  0  0  0  0
   11.4101   43.5930   34.3752 O   0  0  0  0  0  0  0  0  0  0  0  0
    9.3637   42.7255   33.7347 O   0  0  0  0  0  0  0  0  0  0  0  0
    9.8906   41.2266   34.2933 P   0  0  0  0  0  0  0  0  0  0  0  0
   10.3742   41.4557   35.8827 O   0  0  0  0  0  0  0  0  0  0  0  0
    9.9547   45.0695   33.2034 C   0  0  1  0  0  0  0  0  0  0  0  0
   11.0273   46.0322   33.4758 N   0  0  0  0  0  0  0  0  0  0  0  0
    9.7471   44.8483   31.6873 C   0  0  0  0  0  0  0  0  0  0  0  0
    8.7926   45.8407   31.0840 C   0  0  0  0  0  0  0  0  0  0  0  0
    7.4058   45.6013   31.0999 C   0  0  0  0  0  0  0  0  0  0  0  0
    9.2817   46.9883   30.4426 C   0  0  0  0  0  0  0  0  0  0  0  0
    6.5245   46.5018   30.4862 C   0  0  0  0  0  0  0  0  0  0  0  0
    8.4003   47.8889   29.8334 C   0  0  0  0  0  0  0  0  0  0  0  0
    7.0189   47.6548   29.8435 C   0  0  0  0  0  0  0  0  0  0  0  0
    6.1830   48.5867   29.2078 O   0  0  0  0  0  0  0  0  0  0  0  0
    4.7803   48.4263   28.9915 C   0  0  0  0  0  0  0  0  0  0  0  0
    4.5091   47.3286   27.9887 C   0  0  0  0  0  0  0  0  0  0  0  0
    3.6179   46.2914   28.3517 C   0  0  0  0  0  0  0  0  0  0  0  0
    5.1564   47.2881   26.7089 C   0  0  0  0  0  0  0  0  0  0  0  0
    3.4193   45.2462   27.4595 C   0  0  0  0  0  0  0  0  0  0  0  0
    4.9234   46.1898   25.8476 C   0  0  0  0  0  0  0  0  0  0  0  0
    6.0508   48.3303   26.2793 N   0  0  0  0  0  0  0  0  0  0  0  0
    2.6120   44.1345   27.6049 O   0  0  0  0  0  0  0  0  0  0  0  0
    4.0469   45.1957   26.2623 C   0  0  0  0  0  0  0  0  0  0  0  0
    5.7691   49.6502   26.5435 O   0  0  0  0  0  0  0  0  0  0  0  0
    7.0053   48.0615   25.5207 O   0  0  0  0  0  0  0  0  0  0  0  0
    2.7421   43.3356   26.4210 C   0  0  0  0  0  0  0  0  0  0  0  0
    3.6674   44.0498   25.5901 O   0  0  0  0  0  0  0  0  0  0  0  0
    8.8122   40.1851   34.2127 O   0  0  0  0  0  0  0  0  0  0  0  0
   11.2406   40.7945   33.3670 O   0  0  0  0  0  0  0  0  0  0  0  0
   10.9134   40.6866   31.9954 C   0  0  0  0  0  0  0  0  0  0  0  0
   11.5166   39.3787   31.4404 C   0  0  0  0  0  0  0  0  0  0  0  0
   12.7486   39.0849   32.0734 O   0  0  0  0  0  0  0  0  0  0  0  0
   10.6039   38.1884   31.6669 C   0  0  0  0  0  0  0  0  0  0  0  0
   12.9329   37.6776   32.0284 C   0  0  0  0  0  0  0  0  0  0  0  0
    9.6373   38.0938   30.6484 O   0  0  0  0  0  0  0  0  0  0  0  0
   11.5737   37.0141   31.7055 C   0  0  0  0  0  0  0  0  0  0  0  0
   13.4853   37.2120   33.3238 N   0  0  0  0  0  0  0  0  0  0  0  0
   11.6210   36.3379   30.4683 O   0  0  0  0  0  0  0  0  0  0  0  0
   14.4804   36.3319   33.5726 C   0  0  0  0  0  0  0  0  0  0  0  0
   13.1141   37.6275   34.5689 C   0  0  0  0  0  0  0  0  0  0  0  0
   15.2076   35.6152   32.6740 N   0  0  0  0  0  0  0  0  0  0  0  0
   14.6761   36.2306   34.9181 C   0  0  0  0  0  0  0  0  0  0  0  0
   13.8218   37.0451   35.5783 N   0  0  0  0  0  0  0  0  0  0  0  0
   16.1642   34.7600   33.1548 C   0  0  0  0  0  0  0  0  0  0  0  0
   15.6527   35.3507   35.4131 C   0  0  0  0  0  0  0  0  0  0  0  0
   16.3795   34.6315   34.5043 N   0  0  0  0  0  0  0  0  0  0  0  0
   15.9000   35.1933   36.8090 N   0  0  0  0  0  0  0  0  0  0  0  0
    9.0120   45.4317   33.6710 H   0  0  0  0  0  0  0  0  0  0  0  0
   11.8908   45.7659   32.9474 H   0  0  0  0  0  0  0  0  0  0  0  0
   10.7260   46.9688   33.1214 H   0  0  0  0  0  0  0  0  0  0  0  0
    9.3425   43.8330   31.4756 H   0  0  0  0  0  0  0  0  0  0  0  0
   10.7236   44.8823   31.1556 H   0  0  0  0  0  0  0  0  0  0  0  0
    7.0099   44.7175   31.5850 H   0  0  0  0  0  0  0  0  0  0  0  0
   10.3459   47.1869   30.4110 H   0  0  0  0  0  0  0  0  0  0  0  0
    5.4658   46.2929   30.5260 H   0  0  0  0  0  0  0  0  0  0  0  0
    8.7935   48.7700   29.3424 H   0  0  0  0  0  0  0  0  0  0  0  0
    4.2712   48.2415   29.9623 H   0  0  0  0  0  0  0  0  0  0  0  0
    4.3657   49.3784   28.6026 H   0  0  0  0  0  0  0  0  0  0  0  0
    3.1071   46.2897   29.3063 H   0  0  0  0  0  0  0  0  0  0  0  0
    5.3986   46.1218   24.8775 H   0  0  0  0  0  0  0  0  0  0  0  0
    1.7607   43.2433   25.9103 H   0  0  0  0  0  0  0  0  0  0  0  0
    3.1496   42.3348   26.6759 H   0  0  0  0  0  0  0  0  0  0  0  0
    9.8225   40.7225   31.7631 H   0  0  0  0  0  0  0  0  0  0  0  0
   11.3827   41.5438   31.4669 H   0  0  0  0  0  0  0  0  0  0  0  0
   11.6978   39.5037   30.3478 H   0  0  0  0  0  0  0  0  0  0  0  0
   10.1084   38.2787   32.6626 H   0  0  0  0  0  0  0  0  0  0  0  0
   13.6638   37.4472   31.2214 H   0  0  0  0  0  0  0  0  0  0  0  0
    8.9763   37.4191   30.9532 H   0  0  0  0  0  0  0  0  0  0  0  0
   11.2821   36.3054   32.5172 H   0  0  0  0  0  0  0  0  0  0  0  0
   10.8658   35.6936   30.4652 H   0  0  0  0  0  0  0  0  0  0  0  0
   12.3293   38.3523   34.7444 H   0  0  0  0  0  0  0  0  0  0  0  0
   16.7561   34.1778   32.4621 H   0  0  0  0  0  0  0  0  0  0  0  0
   16.6345   34.5300   37.1416 H   0  0  0  0  0  0  0  0  0  0  0  0
   15.3533   35.7361   37.5138 H   0  0  0  0  0  0  0  0  0  0  0  0
  1  2  2  0
  1  3  1  0
  3  4  1  0
  4  5  1  0
  6  1  1  0
  7  6  1  0
  6  8  1  0
  8  9  1  0
  9 10  2  0
 11  9  1  0
 10 12  1  0
 13 11  2  0
 12 14  2  0
 14 13  1  0
 14 15  1  0
 15 16  1  0
 16 17  1  0
 17 18  2  0
 19 17  1  0
 18 20  1  0
 21 19  2  0
 19 22  1  0
 20 23  1  0
 20 24  2  0
 24 21  1  0
 22 25  1  0
 22 26  2  0
 23 27  1  0
 24 28  1  0
 27 28  1  0
  4 29  2  0
  4 30  1  0
 31 30  1  0
 31 32  1  0
 32 33  1  0
 32 34  1  0
 33 35  1  0
 34 36  1  0
 34 37  1  0
 37 35  1  0
 35 38  1  0
 37 39  1  0
 40 38  1  0
 41 38  1  0
 42 40  2  0
 40 43  1  0
 44 41  2  0
 45 42  1  0
 43 46  2  0
 43 44  1  0
 47 45  2  0
 47 46  1  0
 46 48  1  0
  6 49  1  1
  7 50  1  0
  7 51  1  0
  8 52  1  0
  8 53  1  0
 10 54  1  0
 11 55  1  0
 12 56  1  0
 13 57  1  0
 16 58  1  0
 16 59  1  0
 18 60  1  0
 21 61  1  0
 27 62  1  0
 27 63  1  0
 31 64  1  0
 31 65  1  0
 32 66  1  0
 34 67  1  0
 35 68  1  0
 36 69  1  0
 37 70  1  0
 39 71  1  0
 41 72  1  0
 45 73  1  0
 48 74  1  0
 48 75  1  0
M  CHG  3   5  -1  22   1  25  -1
M  END
>  <EmbedRMS>  (138) 
0.0825617310952

$$$$

     RDKit          3D

 75 80  0  0  0  0  0  0  0  0999 V2000
   10.2838   43.7627   33.8276 C   0  0  0  0  0  0  0  0  0  0  0  0
   11.4103   43.5863   34.3766 O   0  0  0  0  0  0  0  0  0  0  0  0
    9.3630   42.7237   33.7354 O   0  0  0  0  0  0  0  0  0  0  0  0
    9.8893   41.2249   34.2943 P   0  0  0  0  0  0  0  0  0  0  0  0
   10.3727   41.4546   35.8837 O   0  0  0  0  0  0  0  0  0  0  0  0
    9.9548   45.0701   33.2065 C   0  0  1  0  0  0  0  0  0  0  0  0
   11.0198   46.0482   33.4572 N   0  0  0  0  0  0  0  0  0  0  0  0
    9.7506   44.8513   31.6924 C   0  0  0  0  0  0  0  0  0  0  0  0
    8.7944   45.8421   31.0873 C   0  0  0  0  0  0  0  0  0  0  0  0
    7.4077   45.6002   31.0998 C   0  0  0  0  0  0  0  0  0  0  0  0
    9.2827   46.9889   30.4438 C   0  0  0  0  0  0  0  0  0  0  0  0
    6.5259   46.4991   30.4840 C   0  0  0  0  0  0  0  0  0  0  0  0
    8.4009   47.8875   29.8320 C   0  0  0  0  0  0  0  0  0  0  0  0
    7.0191   47.6567   29.8486 C   0  0  0  0  0  0  0  0  0  0  0  0
    6.1816   48.5956   29.2255 O   0  0  0  0  0  0  0  0  0  0  0  0
    4.7547   48.6016   29.2895 C   0  0  0  0  0  0  0  0  0  0  0  0
    4.2775   48.9288   30.6861 C   0  0  0  0  0  0  0  0  0  0  0  0
    3.3792   48.0352   31.3156 C   0  0  0  0  0  0  0  0  0  0  0  0
    4.7379   50.0871   31.3991 C   0  0  0  0  0  0  0  0  0  0  0  0
    2.9929   48.2961   32.6234 C   0  0  0  0  0  0  0  0  0  0  0  0
    4.3188   50.2914   32.7342 C   0  0  0  0  0  0  0  0  0  0  0  0
    5.6302   51.0455   30.8025 N   0  0  0  0  0  0  0  0  0  0  0  0
    2.1433   47.5641   33.4303 O   0  0  0  0  0  0  0  0  0  0  0  0
    3.4455   49.3741   33.3038 C   0  0  0  0  0  0  0  0  0  0  0  0
    6.4993   51.7598   31.5949 O   0  0  0  0  0  0  0  0  0  0  0  0
    5.5152   51.3640   29.6015 O   0  0  0  0  0  0  0  0  0  0  0  0
    2.0577   48.2272   34.6990 C   0  0  0  0  0  0  0  0  0  0  0  0
    2.9042   49.3783   34.5749 O   0  0  0  0  0  0  0  0  0  0  0  0
    8.8113   40.1834   34.2130 O   0  0  0  0  0  0  0  0  0  0  0  0
   11.2399   40.7932   33.3693 O   0  0  0  0  0  0  0  0  0  0  0  0
   10.9143   40.6896   31.9973 C   0  0  0  0  0  0  0  0  0  0  0  0
   11.5261   39.3884   31.4375 C   0  0  0  0  0  0  0  0  0  0  0  0
   12.7504   39.0887   32.0815 O   0  0  0  0  0  0  0  0  0  0  0  0
   10.6115   38.1909   31.6460 C   0  0  0  0  0  0  0  0  0  0  0  0
   12.9357   37.6812   32.0303 C   0  0  0  0  0  0  0  0  0  0  0  0
    9.6146   38.0858   30.6533 O   0  0  0  0  0  0  0  0  0  0  0  0
   11.5769   37.0148   31.7012 C   0  0  0  0  0  0  0  0  0  0  0  0
   13.4849   37.2112   33.3247 N   0  0  0  0  0  0  0  0  0  0  0  0
   11.6193   36.3260   30.4724 O   0  0  0  0  0  0  0  0  0  0  0  0
   14.4802   36.3313   33.5730 C   0  0  0  0  0  0  0  0  0  0  0  0
   13.1141   37.6268   34.5697 C   0  0  0  0  0  0  0  0  0  0  0  0
   15.2075   35.6151   32.6741 N   0  0  0  0  0  0  0  0  0  0  0  0
   14.6761   36.2300   34.9184 C   0  0  0  0  0  0  0  0  0  0  0  0
   13.8220   37.0445   35.5789 N   0  0  0  0  0  0  0  0  0  0  0  0
   16.1642   34.7600   33.1547 C   0  0  0  0  0  0  0  0  0  0  0  0
   15.6529   35.3503   35.4131 C   0  0  0  0  0  0  0  0  0  0  0  0
   16.3798   34.6314   34.5042 N   0  0  0  0  0  0  0  0  0  0  0  0
   15.9004   35.1930   36.8090 N   0  0  0  0  0  0  0  0  0  0  0  0
    9.0098   45.4349   33.6671 H   0  0  0  0  0  0  0  0  0  0  0  0
   11.9349   45.6934   33.0931 H   0  0  0  0  0  0  0  0  0  0  0  0
   11.1131   46.1993   34.4886 H   0  0  0  0  0  0  0  0  0  0  0  0
    9.3519   43.8346   31.4759 H   0  0  0  0  0  0  0  0  0  0  0  0
   10.7309   44.8934   31.1677 H   0  0  0  0  0  0  0  0  0  0  0  0
    7.0128   44.7131   31.5797 H   0  0  0  0  0  0  0  0  0  0  0  0
   10.3467   47.1890   30.4139 H   0  0  0  0  0  0  0  0  0  0  0  0
    5.4694   46.2771   30.5026 H   0  0  0  0  0  0  0  0  0  0  0  0
    8.7935   48.7706   29.3438 H   0  0  0  0  0  0  0  0  0  0  0  0
    4.3602   47.6266   28.9295 H   0  0  0  0  0  0  0  0  0  0  0  0
    4.3673   49.3688   28.5885 H   0  0  0  0  0  0  0  0  0  0  0  0
    3.0053   47.1546   30.8088 H   0  0  0  0  0  0  0  0  0  0  0  0
    4.6498   51.1488   33.3056 H   0  0  0  0  0  0  0  0  0  0  0  0
    1.0116   48.5406   34.8988 H   0  0  0  0  0  0  0  0  0  0  0  0
    2.4311   47.5623   35.5059 H   0  0  0  0  0  0  0  0  0  0  0  0
    9.8234   40.7192   31.7644 H   0  0  0  0  0  0  0  0  0  0  0  0
   11.3783   41.5525   31.4733 H   0  0  0  0  0  0  0  0  0  0  0  0
   11.7283   39.5312   30.3515 H   0  0  0  0  0  0  0  0  0  0  0  0
   10.1127   38.2733   32.6376 H   0  0  0  0  0  0  0  0  0  0  0  0
   13.6692   37.4565   31.2242 H   0  0  0  0  0  0  0  0  0  0  0  0
   10.0533   38.1117   29.7635 H   0  0  0  0  0  0  0  0  0  0  0  0
   11.2607   36.3148   32.5102 H   0  0  0  0  0  0  0  0  0  0  0  0
   12.1496   35.5023   30.6324 H   0  0  0  0  0  0  0  0  0  0  0  0
   12.3301   38.3524   34.7455 H   0  0  0  0  0  0  0  0  0  0  0  0
   16.7563   34.1781   32.4619 H   0  0  0  0  0  0  0  0  0  0  0  0
   16.6351   34.5298   37.1416 H   0  0  0  0  0  0  0  0  0  0  0  0
   15.3536   35.7357   37.5139 H   0  0  0  0  0  0  0  0  0  0  0  0
  1  2  2  0
  1  3  1  0
  3  4  1  0
  4  5  1  0
  6  1  1  0
  7  6  1  0
  6  8  1  0
  8  9  1  0
  9 10  2  0
 11  9  1  0
 10 12  1  0
 13 11  2  0
 12 14  2  0
 14 13  1  0
 14 15  1  0
 15 16  1  0
 16 17  1  0
 17 18  2  0
 19 17  1  0
 18 20  1  0
 21 19  2  0
 19 22  1  0
 20 23  1  0
 20 24  2  0
 24 21  1  0
 22 25  1  0
 22 26  2  0
 23 27  1  0
 24 28  1  0
 27 28  1  0
  4 29  2  0
  4 30  1  0
 31 30  1  0
 31 32  1  0
 32 33  1  0
 32 34  1  0
 33 35  1  0
 34 36  1  0
 34 37  1  0
 37 35  1  0
 35 38  1  0
 37 39  1  0
 40 38  1  0
 41 38  1  0
 42 40  2  0
 40 43  1  0
 44 41  2  0
 45 42  1  0
 43 46  2  0
 43 44  1  0
 47 45  2  0
 47 46  1  0
 46 48  1  0
  6 49  1  1
  7 50  1  0
  7 51  1  0
  8 52  1  0
  8 53  1  0
 10 54  1  0
 11 55  1  0
 12 56  1  0
 13 57  1  0
 16 58  1  0
 16 59  1  0
 18 60  1  0
 21 61  1  0
 27 62  1  0
 27 63  1  0
 31 64  1  0
 31 65  1  0
 32 66  1  0
 34 67  1  0
 35 68  1  0
 36 69  1  0
 37 70  1  0
 39 71  1  0
 41 72  1  0
 45 73  1  0
 48 74  1  0
 48 75  1  0
M  CHG  3   5  -1  22   1  25  -1
M  END
>  <EmbedRMS>  (139) 
0.0825111750332

$$$$

     RDKit          3D

 75 80  0  0  0  0  0  0  0  0999 V2000
   10.2805   43.7664   33.8249 C   0  0  0  0  0  0  0  0  0  0  0  0
   11.4111   43.5919   34.3667 O   0  0  0  0  0  0  0  0  0  0  0  0
    9.3621   42.7247   33.7342 O   0  0  0  0  0  0  0  0  0  0  0  0
    9.8904   41.2264   34.2936 P   0  0  0  0  0  0  0  0  0  0  0  0
   10.3731   41.4565   35.8831 O   0  0  0  0  0  0  0  0  0  0  0  0
    9.9459   45.0736   33.2112 C   0  0  1  0  0  0  0  0  0  0  0  0
   11.0265   46.0293   33.4710 N   0  0  0  0  0  0  0  0  0  0  0  0
    9.7540   44.8542   31.6949 C   0  0  0  0  0  0  0  0  0  0  0  0
    8.7957   45.8412   31.0849 C   0  0  0  0  0  0  0  0  0  0  0  0
    7.4090   45.5997   31.1008 C   0  0  0  0  0  0  0  0  0  0  0  0
    9.2825   46.9876   30.4389 C   0  0  0  0  0  0  0  0  0  0  0  0
    6.5261   46.4983   30.4859 C   0  0  0  0  0  0  0  0  0  0  0  0
    8.3998   47.8870   29.8301 C   0  0  0  0  0  0  0  0  0  0  0  0
    7.0182   47.6558   29.8485 C   0  0  0  0  0  0  0  0  0  0  0  0
    6.1782   48.5944   29.2274 O   0  0  0  0  0  0  0  0  0  0  0  0
    4.7501   48.5623   29.2510 C   0  0  0  0  0  0  0  0  0  0  0  0
    4.2291   48.8580   30.6401 C   0  0  0  0  0  0  0  0  0  0  0  0
    4.7826   49.9556   31.3404 C   0  0  0  0  0  0  0  0  0  0  0  0
    3.2345   48.0456   31.2776 C   0  0  0  0  0  0  0  0  0  0  0  0
    4.3776   50.1776   32.6501 C   0  0  0  0  0  0  0  0  0  0  0  0
    2.8742   48.3087   32.6185 C   0  0  0  0  0  0  0  0  0  0  0  0
    2.5709   46.9788   30.5832 N   0  0  0  0  0  0  0  0  0  0  0  0
    4.7922   51.1660   33.5219 O   0  0  0  0  0  0  0  0  0  0  0  0
    3.4688   49.3851   33.2643 C   0  0  0  0  0  0  0  0  0  0  0  0
    2.2268   45.8325   31.2616 O   0  0  0  0  0  0  0  0  0  0  0  0
    2.0891   47.1748   29.4485 O   0  0  0  0  0  0  0  0  0  0  0  0
    4.0976   50.9809   34.7630 C   0  0  0  0  0  0  0  0  0  0  0  0
    3.2626   49.8335   34.5548 O   0  0  0  0  0  0  0  0  0  0  0  0
    8.8128   40.1841   34.2124 O   0  0  0  0  0  0  0  0  0  0  0  0
   11.2419   40.7944   33.3695 O   0  0  0  0  0  0  0  0  0  0  0  0
   10.9186   40.6911   31.9969 C   0  0  0  0  0  0  0  0  0  0  0  0
   11.5172   39.3814   31.4407 C   0  0  0  0  0  0  0  0  0  0  0  0
   12.7492   39.0856   32.0729 O   0  0  0  0  0  0  0  0  0  0  0  0
   10.6023   38.1908   31.6665 C   0  0  0  0  0  0  0  0  0  0  0  0
   12.9319   37.6781   32.0281 C   0  0  0  0  0  0  0  0  0  0  0  0
    9.6392   38.0797   30.6452 O   0  0  0  0  0  0  0  0  0  0  0  0
   11.5715   37.0166   31.7056 C   0  0  0  0  0  0  0  0  0  0  0  0
   13.4846   37.2121   33.3235 N   0  0  0  0  0  0  0  0  0  0  0  0
   11.6187   36.3384   30.4695 O   0  0  0  0  0  0  0  0  0  0  0  0
   14.4801   36.3321   33.5724 C   0  0  0  0  0  0  0  0  0  0  0  0
   13.1137   37.6275   34.5688 C   0  0  0  0  0  0  0  0  0  0  0  0
   15.2073   35.6153   32.6738 N   0  0  0  0  0  0  0  0  0  0  0  0
   14.6759   36.2308   34.9179 C   0  0  0  0  0  0  0  0  0  0  0  0
   13.8216   37.0452   35.5781 N   0  0  0  0  0  0  0  0  0  0  0  0
   16.1640   34.7602   33.1546 C   0  0  0  0  0  0  0  0  0  0  0  0
   15.6526   35.3508   35.4129 C   0  0  0  0  0  0  0  0  0  0  0  0
   16.3794   34.6317   34.5041 N   0  0  0  0  0  0  0  0  0  0  0  0
   15.8999   35.1935   36.8088 N   0  0  0  0  0  0  0  0  0  0  0  0
    8.9994   45.4380   33.6722 H   0  0  0  0  0  0  0  0  0  0  0  0
   10.7762   46.9370   33.0160 H   0  0  0  0  0  0  0  0  0  0  0  0
   11.0499   46.2277   34.4984 H   0  0  0  0  0  0  0  0  0  0  0  0
    9.3647   43.8355   31.4710 H   0  0  0  0  0  0  0  0  0  0  0  0
   10.7412   44.9081   31.1837 H   0  0  0  0  0  0  0  0  0  0  0  0
    7.0149   44.7142   31.5842 H   0  0  0  0  0  0  0  0  0  0  0  0
   10.3464   47.1872   30.4043 H   0  0  0  0  0  0  0  0  0  0  0  0
    5.4686   46.2793   30.5114 H   0  0  0  0  0  0  0  0  0  0  0  0
    8.7917   48.7696   29.3406 H   0  0  0  0  0  0  0  0  0  0  0  0
    4.4077   47.5868   28.8532 H   0  0  0  0  0  0  0  0  0  0  0  0
    4.3739   49.3500   28.5655 H   0  0  0  0  0  0  0  0  0  0  0  0
    5.5250   50.5998   30.8860 H   0  0  0  0  0  0  0  0  0  0  0  0
    2.1325   47.7098   33.1309 H   0  0  0  0  0  0  0  0  0  0  0  0
    4.8207   50.7850   35.5823 H   0  0  0  0  0  0  0  0  0  0  0  0
    3.4751   51.8714   34.9911 H   0  0  0  0  0  0  0  0  0  0  0  0
   11.3967   41.5459   31.4726 H   0  0  0  0  0  0  0  0  0  0  0  0
    9.8298   40.7409   31.7611 H   0  0  0  0  0  0  0  0  0  0  0  0
   11.6975   39.5066   30.3481 H   0  0  0  0  0  0  0  0  0  0  0  0
   10.1077   38.2648   32.6645 H   0  0  0  0  0  0  0  0  0  0  0  0
   13.6621   37.4468   31.2209 H   0  0  0  0  0  0  0  0  0  0  0  0
    8.8974   38.6942   30.8832 H   0  0  0  0  0  0  0  0  0  0  0  0
   11.2806   36.3073   32.5170 H   0  0  0  0  0  0  0  0  0  0  0  0
   10.8493   35.7110   30.4586 H   0  0  0  0  0  0  0  0  0  0  0  0
   12.3290   38.3524   34.7444 H   0  0  0  0  0  0  0  0  0  0  0  0
   16.7559   34.1780   32.4619 H   0  0  0  0  0  0  0  0  0  0  0  0
   16.6344   34.5301   37.1414 H   0  0  0  0  0  0  0  0  0  0  0  0
   15.3531   35.7362   37.5137 H   0  0  0  0  0  0  0  0  0  0  0  0
  1  2  2  0
  1  3  1  0
  3  4  1  0
  4  5  1  0
  6  1  1  0
  7  6  1  0
  6  8  1  0
  8  9  1  0
  9 10  2  0
 11  9  1  0
 10 12  1  0
 13 11  2  0
 12 14  2  0
 14 13  1  0
 14 15  1  0
 15 16  1  0
 16 17  1  0
 17 18  2  0
 19 17  1  0
 18 20  1  0
 21 19  2  0
 19 22  1  0
 20 23  1  0
 20 24  2  0
 24 21  1  0
 22 25  1  0
 22 26  2  0
 23 27  1  0
 24 28  1  0
 27 28  1  0
  4 29  2  0
  4 30  1  0
 31 30  1  0
 31 32  1  0
 32 33  1  0
 32 34  1  0
 33 35  1  0
 34 36  1  0
 34 37  1  0
 37 35  1  0
 35 38  1  0
 37 39  1  0
 40 38  1  0
 41 38  1  0
 42 40  2  0
 40 43  1  0
 44 41  2  0
 45 42  1  0
 43 46  2  0
 43 44  1  0
 47 45  2  0
 47 46  1  0
 46 48  1  0
  6 49  1  1
  7 50  1  0
  7 51  1  0
  8 52  1  0
  8 53  1  0
 10 54  1  0
 11 55  1  0
 12 56  1  0
 13 57  1  0
 16 58  1  0
 16 59  1  0
 18 60  1  0
 21 61  1  0
 27 62  1  0
 27 63  1  0
 31 64  1  0
 31 65  1  0
 32 66  1  0
 34 67  1  0
 35 68  1  0
 36 69  1  0
 37 70  1  0
 39 71  1  0
 41 72  1  0
 45 73  1  0
 48 74  1  0
 48 75  1  0
M  CHG  3   5  -1  22   1  25  -1
M  END
>  <EmbedRMS>  (140) 
0.082760621073

$$$$

     RDKit          3D

 75 80  0  0  0  0  0  0  0  0999 V2000
   10.2803   43.7665   33.8250 C   0  0  0  0  0  0  0  0  0  0  0  0
   11.4110   43.5919   34.3666 O   0  0  0  0  0  0  0  0  0  0  0  0
    9.3616   42.7252   33.7348 O   0  0  0  0  0  0  0  0  0  0  0  0
    9.8896   41.2269   34.2945 P   0  0  0  0  0  0  0  0  0  0  0  0
   10.3731   41.4568   35.8837 O   0  0  0  0  0  0  0  0  0  0  0  0
    9.9459   45.0737   33.2112 C   0  0  1  0  0  0  0  0  0  0  0  0
   11.0266   46.0293   33.4709 N   0  0  0  0  0  0  0  0  0  0  0  0
    9.7540   44.8542   31.6949 C   0  0  0  0  0  0  0  0  0  0  0  0
    8.7958   45.8411   31.0847 C   0  0  0  0  0  0  0  0  0  0  0  0
    7.4090   45.5999   31.1009 C   0  0  0  0  0  0  0  0  0  0  0  0
    9.2824   46.9877   30.4392 C   0  0  0  0  0  0  0  0  0  0  0  0
    6.5264   46.4989   30.4859 C   0  0  0  0  0  0  0  0  0  0  0  0
    8.3995   47.8872   29.8307 C   0  0  0  0  0  0  0  0  0  0  0  0
    7.0179   47.6550   29.8476 C   0  0  0  0  0  0  0  0  0  0  0  0
    6.1788   48.5930   29.2250 O   0  0  0  0  0  0  0  0  0  0  0  0
    4.7508   48.5380   29.1942 C   0  0  0  0  0  0  0  0  0  0  0  0
    4.1572   48.7734   30.5667 C   0  0  0  0  0  0  0  0  0  0  0  0
    4.7265   49.7842   31.3784 C   0  0  0  0  0  0  0  0  0  0  0  0
    2.9814   48.0888   31.0213 C   0  0  0  0  0  0  0  0  0  0  0  0
    4.1390   50.0588   32.6065 C   0  0  0  0  0  0  0  0  0  0  0  0
    2.4185   48.4224   32.2732 C   0  0  0  0  0  0  0  0  0  0  0  0
    2.3276   47.0919   30.2234 N   0  0  0  0  0  0  0  0  0  0  0  0
    4.5260   50.9847   33.5561 O   0  0  0  0  0  0  0  0  0  0  0  0
    3.0340   49.4065   33.0352 C   0  0  0  0  0  0  0  0  0  0  0  0
    0.9557   47.1010   30.1222 O   0  0  0  0  0  0  0  0  0  0  0  0
    2.9491   46.0718   29.8632 O   0  0  0  0  0  0  0  0  0  0  0  0
    3.6048   50.9052   34.6524 C   0  0  0  0  0  0  0  0  0  0  0  0
    2.6680   49.8859   34.2782 O   0  0  0  0  0  0  0  0  0  0  0  0
    8.8122   40.1844   34.2135 O   0  0  0  0  0  0  0  0  0  0  0  0
   11.2401   40.7950   33.3698 O   0  0  0  0  0  0  0  0  0  0  0  0
   10.9143   40.6914   31.9981 C   0  0  0  0  0  0  0  0  0  0  0  0
   11.5269   39.3912   31.4385 C   0  0  0  0  0  0  0  0  0  0  0  0
   12.7519   39.0911   32.0837 O   0  0  0  0  0  0  0  0  0  0  0  0
   10.6113   38.1932   31.6451 C   0  0  0  0  0  0  0  0  0  0  0  0
   12.9413   37.6838   32.0297 C   0  0  0  0  0  0  0  0  0  0  0  0
    9.6064   38.0878   30.6599 O   0  0  0  0  0  0  0  0  0  0  0  0
   11.5822   37.0197   31.6877 C   0  0  0  0  0  0  0  0  0  0  0  0
   13.4840   37.2104   33.3254 N   0  0  0  0  0  0  0  0  0  0  0  0
   11.6179   36.3072   30.4690 O   0  0  0  0  0  0  0  0  0  0  0  0
   14.4797   36.3309   33.5738 C   0  0  0  0  0  0  0  0  0  0  0  0
   13.1136   37.6269   34.5702 C   0  0  0  0  0  0  0  0  0  0  0  0
   15.2074   35.6152   32.6747 N   0  0  0  0  0  0  0  0  0  0  0  0
   14.6756   36.2298   34.9190 C   0  0  0  0  0  0  0  0  0  0  0  0
   13.8217   37.0445   35.5793 N   0  0  0  0  0  0  0  0  0  0  0  0
   16.1643   34.7603   33.1551 C   0  0  0  0  0  0  0  0  0  0  0  0
   15.6528   35.3503   35.4136 C   0  0  0  0  0  0  0  0  0  0  0  0
   16.3798   34.6316   34.5046 N   0  0  0  0  0  0  0  0  0  0  0  0
   15.9004   35.1930   36.8094 N   0  0  0  0  0  0  0  0  0  0  0  0
    8.9994   45.4383   33.6721 H   0  0  0  0  0  0  0  0  0  0  0  0
   10.7764   46.9370   33.0159 H   0  0  0  0  0  0  0  0  0  0  0  0
   11.0501   46.2278   34.4983 H   0  0  0  0  0  0  0  0  0  0  0  0
    9.3646   43.8354   31.4711 H   0  0  0  0  0  0  0  0  0  0  0  0
   10.7412   44.9079   31.1836 H   0  0  0  0  0  0  0  0  0  0  0  0
    7.0147   44.7152   31.5854 H   0  0  0  0  0  0  0  0  0  0  0  0
   10.3463   47.1876   30.4049 H   0  0  0  0  0  0  0  0  0  0  0  0
    5.4697   46.2844   30.5157 H   0  0  0  0  0  0  0  0  0  0  0  0
    8.7913   48.7698   29.3412 H   0  0  0  0  0  0  0  0  0  0  0  0
    4.4312   47.5859   28.7310 H   0  0  0  0  0  0  0  0  0  0  0  0
    4.3933   49.3513   28.5290 H   0  0  0  0  0  0  0  0  0  0  0  0
    5.5955   50.3456   31.0594 H   0  0  0  0  0  0  0  0  0  0  0  0
    1.5312   47.9235   32.6415 H   0  0  0  0  0  0  0  0  0  0  0  0
    3.0823   51.8756   34.7860 H   0  0  0  0  0  0  0  0  0  0  0  0
    4.1379   50.6133   35.5815 H   0  0  0  0  0  0  0  0  0  0  0  0
   11.3775   41.5548   31.4741 H   0  0  0  0  0  0  0  0  0  0  0  0
    9.8233   40.7200   31.7652 H   0  0  0  0  0  0  0  0  0  0  0  0
   11.7312   39.5361   30.3532 H   0  0  0  0  0  0  0  0  0  0  0  0
   10.1202   38.2696   32.6410 H   0  0  0  0  0  0  0  0  0  0  0  0
   13.6850   37.4639   31.2321 H   0  0  0  0  0  0  0  0  0  0  0  0
   10.0251   38.1792   29.7654 H   0  0  0  0  0  0  0  0  0  0  0  0
   11.2757   36.3135   32.4907 H   0  0  0  0  0  0  0  0  0  0  0  0
   11.9839   36.9111   29.7708 H   0  0  0  0  0  0  0  0  0  0  0  0
   12.3307   38.3536   34.7458 H   0  0  0  0  0  0  0  0  0  0  0  0
   16.7566   34.1787   32.4623 H   0  0  0  0  0  0  0  0  0  0  0  0
   16.6353   34.5301   37.1419 H   0  0  0  0  0  0  0  0  0  0  0  0
   15.3535   35.7355   37.5144 H   0  0  0  0  0  0  0  0  0  0  0  0
  1  2  2  0
  1  3  1  0
  3  4  1  0
  4  5  1  0
  6  1  1  0
  7  6  1  0
  6  8  1  0
  8  9  1  0
  9 10  2  0
 11  9  1  0
 10 12  1  0
 13 11  2  0
 12 14  2  0
 14 13  1  0
 14 15  1  0
 15 16  1  0
 16 17  1  0
 17 18  2  0
 19 17  1  0
 18 20  1  0
 21 19  2  0
 19 22  1  0
 20 23  1  0
 20 24  2  0
 24 21  1  0
 22 25  1  0
 22 26  2  0
 23 27  1  0
 24 28  1  0
 27 28  1  0
  4 29  2  0
  4 30  1  0
 31 30  1  0
 31 32  1  0
 32 33  1  0
 32 34  1  0
 33 35  1  0
 34 36  1  0
 34 37  1  0
 37 35  1  0
 35 38  1  0
 37 39  1  0
 40 38  1  0
 41 38  1  0
 42 40  2  0
 40 43  1  0
 44 41  2  0
 45 42  1  0
 43 46  2  0
 43 44  1  0
 47 45  2  0
 47 46  1  0
 46 48  1  0
  6 49  1  1
  7 50  1  0
  7 51  1  0
  8 52  1  0
  8 53  1  0
 10 54  1  0
 11 55  1  0
 12 56  1  0
 13 57  1  0
 16 58  1  0
 16 59  1  0
 18 60  1  0
 21 61  1  0
 27 62  1  0
 27 63  1  0
 31 64  1  0
 31 65  1  0
 32 66  1  0
 34 67  1  0
 35 68  1  0
 36 69  1  0
 37 70  1  0
 39 71  1  0
 41 72  1  0
 45 73  1  0
 48 74  1  0
 48 75  1  0
M  CHG  3   5  -1  22   1  25  -1
M  END
>  <EmbedRMS>  (141) 
0.0806477771292

$$$$

     RDKit          3D

 75 80  0  0  0  0  0  0  0  0999 V2000
   10.2804   43.7664   33.8250 C   0  0  0  0  0  0  0  0  0  0  0  0
   11.4111   43.5919   34.3667 O   0  0  0  0  0  0  0  0  0  0  0  0
    9.3619   42.7249   33.7347 O   0  0  0  0  0  0  0  0  0  0  0  0
    9.8900   41.2267   34.2944 P   0  0  0  0  0  0  0  0  0  0  0  0
   10.3728   41.4567   35.8839 O   0  0  0  0  0  0  0  0  0  0  0  0
    9.9459   45.0735   33.2112 C   0  0  1  0  0  0  0  0  0  0  0  0
   11.0267   46.0291   33.4706 N   0  0  0  0  0  0  0  0  0  0  0  0
    9.7535   44.8538   31.6950 C   0  0  0  0  0  0  0  0  0  0  0  0
    8.7955   45.8411   31.0848 C   0  0  0  0  0  0  0  0  0  0  0  0
    7.4085   45.6005   31.1008 C   0  0  0  0  0  0  0  0  0  0  0  0
    9.2831   46.9880   30.4398 C   0  0  0  0  0  0  0  0  0  0  0  0
    6.5278   46.5010   30.4854 C   0  0  0  0  0  0  0  0  0  0  0  0
    8.4024   47.8894   29.8302 C   0  0  0  0  0  0  0  0  0  0  0  0
    7.0139   47.6507   29.8479 C   0  0  0  0  0  0  0  0  0  0  0  0
    6.0917   48.5203   29.2483 O   0  0  0  0  0  0  0  0  0  0  0  0
    6.4420   49.7136   28.5513 C   0  0  0  0  0  0  0  0  0  0  0  0
    5.1967   50.3612   28.0005 C   0  0  0  0  0  0  0  0  0  0  0  0
    4.8891   51.6814   28.4072 C   0  0  0  0  0  0  0  0  0  0  0  0
    4.3014   49.6669   27.1168 C   0  0  0  0  0  0  0  0  0  0  0  0
    3.7159   52.2613   27.9433 C   0  0  0  0  0  0  0  0  0  0  0  0
    3.1149   50.3076   26.6895 C   0  0  0  0  0  0  0  0  0  0  0  0
    4.5595   48.3243   26.6648 N   0  0  0  0  0  0  0  0  0  0  0  0
    3.2178   53.5224   28.2088 O   0  0  0  0  0  0  0  0  0  0  0  0
    2.8656   51.6030   27.1229 C   0  0  0  0  0  0  0  0  0  0  0  0
    3.5096   47.4972   26.3374 O   0  0  0  0  0  0  0  0  0  0  0  0
    5.7206   47.9454   26.4096 O   0  0  0  0  0  0  0  0  0  0  0  0
    1.9745   53.6635   27.5080 C   0  0  0  0  0  0  0  0  0  0  0  0
    1.7874   52.4150   26.8276 O   0  0  0  0  0  0  0  0  0  0  0  0
    8.8127   40.1842   34.2128 O   0  0  0  0  0  0  0  0  0  0  0  0
   11.2414   40.7950   33.3705 O   0  0  0  0  0  0  0  0  0  0  0  0
   10.9178   40.6921   31.9983 C   0  0  0  0  0  0  0  0  0  0  0  0
   11.5175   39.3837   31.4423 C   0  0  0  0  0  0  0  0  0  0  0  0
   12.7507   39.0887   32.0753 O   0  0  0  0  0  0  0  0  0  0  0  0
   10.6027   38.1916   31.6659 C   0  0  0  0  0  0  0  0  0  0  0  0
   12.9384   37.6819   32.0278 C   0  0  0  0  0  0  0  0  0  0  0  0
    9.6371   38.0805   30.6470 O   0  0  0  0  0  0  0  0  0  0  0  0
   11.5780   37.0215   31.6935 C   0  0  0  0  0  0  0  0  0  0  0  0
   13.4844   37.2119   33.3242 N   0  0  0  0  0  0  0  0  0  0  0  0
   11.6095   36.3201   30.4679 O   0  0  0  0  0  0  0  0  0  0  0  0
   14.4797   36.3318   33.5730 C   0  0  0  0  0  0  0  0  0  0  0  0
   13.1136   37.6278   34.5691 C   0  0  0  0  0  0  0  0  0  0  0  0
   15.2073   35.6155   32.6742 N   0  0  0  0  0  0  0  0  0  0  0  0
   14.6754   36.2305   34.9184 C   0  0  0  0  0  0  0  0  0  0  0  0
   13.8213   37.0452   35.5785 N   0  0  0  0  0  0  0  0  0  0  0  0
   16.1640   34.7604   33.1549 C   0  0  0  0  0  0  0  0  0  0  0  0
   15.6524   35.3507   35.4132 C   0  0  0  0  0  0  0  0  0  0  0  0
   16.3794   34.6318   34.5044 N   0  0  0  0  0  0  0  0  0  0  0  0
   15.8999   35.1934   36.8091 N   0  0  0  0  0  0  0  0  0  0  0  0
    8.9996   45.4381   33.6724 H   0  0  0  0  0  0  0  0  0  0  0  0
   10.7764   46.9368   33.0157 H   0  0  0  0  0  0  0  0  0  0  0  0
   11.0505   46.2277   34.4980 H   0  0  0  0  0  0  0  0  0  0  0  0
   10.7406   44.9069   31.1835 H   0  0  0  0  0  0  0  0  0  0  0  0
    9.3635   43.8352   31.4716 H   0  0  0  0  0  0  0  0  0  0  0  0
    7.0130   44.7161   31.5849 H   0  0  0  0  0  0  0  0  0  0  0  0
   10.3473   47.1865   30.4067 H   0  0  0  0  0  0  0  0  0  0  0  0
    5.4634   46.3038   30.5041 H   0  0  0  0  0  0  0  0  0  0  0  0
    8.8120   48.7650   29.3458 H   0  0  0  0  0  0  0  0  0  0  0  0
    6.9682   50.3987   29.2517 H   0  0  0  0  0  0  0  0  0  0  0  0
    7.1403   49.4863   27.7187 H   0  0  0  0  0  0  0  0  0  0  0  0
    5.5373   52.2376   29.0726 H   0  0  0  0  0  0  0  0  0  0  0  0
    2.4143   49.8162   26.0268 H   0  0  0  0  0  0  0  0  0  0  0  0
    2.0395   54.4939   26.7740 H   0  0  0  0  0  0  0  0  0  0  0  0
    1.1461   53.8362   28.2265 H   0  0  0  0  0  0  0  0  0  0  0  0
   11.3950   41.5477   31.4741 H   0  0  0  0  0  0  0  0  0  0  0  0
    9.8290   40.7408   31.7625 H   0  0  0  0  0  0  0  0  0  0  0  0
   11.6982   39.5114   30.3500 H   0  0  0  0  0  0  0  0  0  0  0  0
   10.1117   38.2604   32.6661 H   0  0  0  0  0  0  0  0  0  0  0  0
   13.6767   37.4557   31.2267 H   0  0  0  0  0  0  0  0  0  0  0  0
    8.8960   38.6950   30.8873 H   0  0  0  0  0  0  0  0  0  0  0  0
   11.2792   36.3072   32.4922 H   0  0  0  0  0  0  0  0  0  0  0  0
   11.8828   36.9598   29.7589 H   0  0  0  0  0  0  0  0  0  0  0  0
   12.3300   38.3539   34.7446 H   0  0  0  0  0  0  0  0  0  0  0  0
   16.7561   34.1785   32.4622 H   0  0  0  0  0  0  0  0  0  0  0  0
   15.3531   35.7360   37.5140 H   0  0  0  0  0  0  0  0  0  0  0  0
   16.6347   34.5303   37.1416 H   0  0  0  0  0  0  0  0  0  0  0  0
  1  2  2  0
  1  3  1  0
  3  4  1  0
  4  5  1  0
  6  1  1  0
  7  6  1  0
  6  8  1  0
  8  9  1  0
  9 10  2  0
 11  9  1  0
 10 12  1  0
 13 11  2  0
 12 14  2  0
 14 13  1  0
 14 15  1  0
 15 16  1  0
 16 17  1  0
 17 18  2  0
 19 17  1  0
 18 20  1  0
 21 19  2  0
 19 22  1  0
 20 23  1  0
 20 24  2  0
 24 21  1  0
 22 25  1  0
 22 26  2  0
 23 27  1  0
 24 28  1  0
 27 28  1  0
  4 29  2  0
  4 30  1  0
 31 30  1  0
 31 32  1  0
 32 33  1  0
 32 34  1  0
 33 35  1  0
 34 36  1  0
 34 37  1  0
 37 35  1  0
 35 38  1  0
 37 39  1  0
 40 38  1  0
 41 38  1  0
 42 40  2  0
 40 43  1  0
 44 41  2  0
 45 42  1  0
 43 46  2  0
 43 44  1  0
 47 45  2  0
 47 46  1  0
 46 48  1  0
  6 49  1  1
  7 50  1  0
  7 51  1  0
  8 52  1  0
  8 53  1  0
 10 54  1  0
 11 55  1  0
 12 56  1  0
 13 57  1  0
 16 58  1  0
 16 59  1  0
 18 60  1  0
 21 61  1  0
 27 62  1  0
 27 63  1  0
 31 64  1  0
 31 65  1  0
 32 66  1  0
 34 67  1  0
 35 68  1  0
 36 69  1  0
 37 70  1  0
 39 71  1  0
 41 72  1  0
 45 73  1  0
 48 74  1  0
 48 75  1  0
M  CHG  3   5  -1  22   1  25  -1
M  END
>  <EmbedRMS>  (142) 
0.0818019673404

$$$$

     RDKit          3D

 75 80  0  0  0  0  0  0  0  0999 V2000
   10.2838   43.7627   33.8278 C   0  0  0  0  0  0  0  0  0  0  0  0
   11.4103   43.5863   34.3768 O   0  0  0  0  0  0  0  0  0  0  0  0
    9.3628   42.7238   33.7357 O   0  0  0  0  0  0  0  0  0  0  0  0
    9.8891   41.2252   34.2949 P   0  0  0  0  0  0  0  0  0  0  0  0
   10.3724   41.4549   35.8843 O   0  0  0  0  0  0  0  0  0  0  0  0
    9.9548   45.0701   33.2066 C   0  0  1  0  0  0  0  0  0  0  0  0
   11.0196   46.0482   33.4571 N   0  0  0  0  0  0  0  0  0  0  0  0
    9.7504   44.8513   31.6926 C   0  0  0  0  0  0  0  0  0  0  0  0
    8.7943   45.8421   31.0874 C   0  0  0  0  0  0  0  0  0  0  0  0
    7.4076   45.6003   31.1000 C   0  0  0  0  0  0  0  0  0  0  0  0
    9.2827   46.9889   30.4439 C   0  0  0  0  0  0  0  0  0  0  0  0
    6.5259   46.4993   30.4841 C   0  0  0  0  0  0  0  0  0  0  0  0
    8.4010   47.8874   29.8318 C   0  0  0  0  0  0  0  0  0  0  0  0
    7.0192   47.6566   29.8481 C   0  0  0  0  0  0  0  0  0  0  0  0
    6.1818   48.5948   29.2239 O   0  0  0  0  0  0  0  0  0  0  0  0
    4.7548   48.5975   29.2837 C   0  0  0  0  0  0  0  0  0  0  0  0
    4.2720   48.9216   30.6787 C   0  0  0  0  0  0  0  0  0  0  0  0
    3.3589   48.0350   31.2967 C   0  0  0  0  0  0  0  0  0  0  0  0
    4.7417   50.0690   31.4009 C   0  0  0  0  0  0  0  0  0  0  0  0
    2.9652   48.2940   32.6027 C   0  0  0  0  0  0  0  0  0  0  0  0
    4.3139   50.2726   32.7343 C   0  0  0  0  0  0  0  0  0  0  0  0
    5.6503   51.0161   30.8108 N   0  0  0  0  0  0  0  0  0  0  0  0
    2.1002   47.5683   33.3989 O   0  0  0  0  0  0  0  0  0  0  0  0
    3.4249   49.3632   33.2921 C   0  0  0  0  0  0  0  0  0  0  0  0
    5.5109   51.3983   29.4971 O   0  0  0  0  0  0  0  0  0  0  0  0
    6.4716   51.6246   31.5276 O   0  0  0  0  0  0  0  0  0  0  0  0
    2.0119   48.2264   34.6700 C   0  0  0  0  0  0  0  0  0  0  0  0
    2.8730   49.3679   34.5586 O   0  0  0  0  0  0  0  0  0  0  0  0
    8.8114   40.1832   34.2132 O   0  0  0  0  0  0  0  0  0  0  0  0
   11.2398   40.7938   33.3702 O   0  0  0  0  0  0  0  0  0  0  0  0
   10.9145   40.6912   31.9983 C   0  0  0  0  0  0  0  0  0  0  0  0
   11.5270   39.3911   31.4384 C   0  0  0  0  0  0  0  0  0  0  0  0
   12.7521   39.0911   32.0833 O   0  0  0  0  0  0  0  0  0  0  0  0
   10.6114   38.1932   31.6452 C   0  0  0  0  0  0  0  0  0  0  0  0
   12.9413   37.6837   32.0296 C   0  0  0  0  0  0  0  0  0  0  0  0
    9.6063   38.0878   30.6601 O   0  0  0  0  0  0  0  0  0  0  0  0
   11.5822   37.0197   31.6876 C   0  0  0  0  0  0  0  0  0  0  0  0
   13.4841   37.2105   33.3254 N   0  0  0  0  0  0  0  0  0  0  0  0
   11.6180   36.3072   30.4689 O   0  0  0  0  0  0  0  0  0  0  0  0
   14.4796   36.3309   33.5738 C   0  0  0  0  0  0  0  0  0  0  0  0
   13.1137   37.6269   34.5702 C   0  0  0  0  0  0  0  0  0  0  0  0
   15.2073   35.6152   32.6747 N   0  0  0  0  0  0  0  0  0  0  0  0
   14.6755   36.2297   34.9190 C   0  0  0  0  0  0  0  0  0  0  0  0
   13.8217   37.0445   35.5793 N   0  0  0  0  0  0  0  0  0  0  0  0
   16.1643   34.7603   33.1551 C   0  0  0  0  0  0  0  0  0  0  0  0
   15.6527   35.3503   35.4136 C   0  0  0  0  0  0  0  0  0  0  0  0
   16.3798   34.6316   34.5046 N   0  0  0  0  0  0  0  0  0  0  0  0
   15.9003   35.1931   36.8095 N   0  0  0  0  0  0  0  0  0  0  0  0
    9.0097   45.4350   33.6672 H   0  0  0  0  0  0  0  0  0  0  0  0
   11.9347   45.6933   33.0929 H   0  0  0  0  0  0  0  0  0  0  0  0
   11.1130   46.1993   34.4884 H   0  0  0  0  0  0  0  0  0  0  0  0
   10.7308   44.8934   31.1680 H   0  0  0  0  0  0  0  0  0  0  0  0
    9.3517   43.8346   31.4761 H   0  0  0  0  0  0  0  0  0  0  0  0
    7.0126   44.7134   31.5801 H   0  0  0  0  0  0  0  0  0  0  0  0
   10.3468   47.1888   30.4139 H   0  0  0  0  0  0  0  0  0  0  0  0
    5.4691   46.2779   30.5033 H   0  0  0  0  0  0  0  0  0  0  0  0
    8.7936   48.7703   29.3434 H   0  0  0  0  0  0  0  0  0  0  0  0
    4.3673   49.3642   28.5824 H   0  0  0  0  0  0  0  0  0  0  0  0
    4.3637   47.6221   28.9213 H   0  0  0  0  0  0  0  0  0  0  0  0
    2.9786   47.1615   30.7823 H   0  0  0  0  0  0  0  0  0  0  0  0
    4.6514   51.1232   33.3123 H   0  0  0  0  0  0  0  0  0  0  0  0
    0.9679   48.5512   34.8625 H   0  0  0  0  0  0  0  0  0  0  0  0
    2.3703   47.5532   35.4768 H   0  0  0  0  0  0  0  0  0  0  0  0
    9.8236   40.7204   31.7651 H   0  0  0  0  0  0  0  0  0  0  0  0
   11.3782   41.5548   31.4751 H   0  0  0  0  0  0  0  0  0  0  0  0
   11.7310   39.5362   30.3530 H   0  0  0  0  0  0  0  0  0  0  0  0
   10.1204   38.2696   32.6411 H   0  0  0  0  0  0  0  0  0  0  0  0
   13.6851   37.4636   31.2320 H   0  0  0  0  0  0  0  0  0  0  0  0
   10.0248   38.1790   29.7655 H   0  0  0  0  0  0  0  0  0  0  0  0
   11.2758   36.3134   32.4906 H   0  0  0  0  0  0  0  0  0  0  0  0
   11.9839   36.9113   29.7708 H   0  0  0  0  0  0  0  0  0  0  0  0
   12.3307   38.3535   34.7458 H   0  0  0  0  0  0  0  0  0  0  0  0
   16.7565   34.1786   32.4623 H   0  0  0  0  0  0  0  0  0  0  0  0
   15.3533   35.7355   37.5144 H   0  0  0  0  0  0  0  0  0  0  0  0
   16.6350   34.5300   37.1420 H   0  0  0  0  0  0  0  0  0  0  0  0
  1  2  2  0
  1  3  1  0
  3  4  1  0
  4  5  1  0
  6  1  1  0
  7  6  1  0
  6  8  1  0
  8  9  1  0
  9 10  2  0
 11  9  1  0
 10 12  1  0
 13 11  2  0
 12 14  2  0
 14 13  1  0
 14 15  1  0
 15 16  1  0
 16 17  1  0
 17 18  2  0
 19 17  1  0
 18 20  1  0
 21 19  2  0
 19 22  1  0
 20 23  1  0
 20 24  2  0
 24 21  1  0
 22 25  1  0
 22 26  2  0
 23 27  1  0
 24 28  1  0
 27 28  1  0
  4 29  2  0
  4 30  1  0
 31 30  1  0
 31 32  1  0
 32 33  1  0
 32 34  1  0
 33 35  1  0
 34 36  1  0
 34 37  1  0
 37 35  1  0
 35 38  1  0
 37 39  1  0
 40 38  1  0
 41 38  1  0
 42 40  2  0
 40 43  1  0
 44 41  2  0
 45 42  1  0
 43 46  2  0
 43 44  1  0
 47 45  2  0
 47 46  1  0
 46 48  1  0
  6 49  1  1
  7 50  1  0
  7 51  1  0
  8 52  1  0
  8 53  1  0
 10 54  1  0
 11 55  1  0
 12 56  1  0
 13 57  1  0
 16 58  1  0
 16 59  1  0
 18 60  1  0
 21 61  1  0
 27 62  1  0
 27 63  1  0
 31 64  1  0
 31 65  1  0
 32 66  1  0
 34 67  1  0
 35 68  1  0
 36 69  1  0
 37 70  1  0
 39 71  1  0
 41 72  1  0
 45 73  1  0
 48 74  1  0
 48 75  1  0
M  CHG  3   5  -1  22   1  25  -1
M  END
>  <EmbedRMS>  (143) 
0.0817365978707

$$$$

     RDKit          3D

 75 80  0  0  0  0  0  0  0  0999 V2000
   10.2837   43.7628   33.8277 C   0  0  0  0  0  0  0  0  0  0  0  0
   11.4102   43.5864   34.3766 O   0  0  0  0  0  0  0  0  0  0  0  0
    9.3628   42.7238   33.7357 O   0  0  0  0  0  0  0  0  0  0  0  0
    9.8893   41.2251   34.2943 P   0  0  0  0  0  0  0  0  0  0  0  0
   10.3730   41.4546   35.8836 O   0  0  0  0  0  0  0  0  0  0  0  0
    9.9548   45.0701   33.2063 C   0  0  1  0  0  0  0  0  0  0  0  0
   11.0197   46.0482   33.4570 N   0  0  0  0  0  0  0  0  0  0  0  0
    9.7506   44.8510   31.6921 C   0  0  0  0  0  0  0  0  0  0  0  0
    8.7945   45.8415   31.0863 C   0  0  0  0  0  0  0  0  0  0  0  0
    7.4077   45.6004   31.1007 C   0  0  0  0  0  0  0  0  0  0  0  0
    9.2827   46.9891   30.4443 C   0  0  0  0  0  0  0  0  0  0  0  0
    6.5256   46.4998   30.4859 C   0  0  0  0  0  0  0  0  0  0  0  0
    8.4010   47.8887   29.8337 C   0  0  0  0  0  0  0  0  0  0  0  0
    7.0195   47.6552   29.8454 C   0  0  0  0  0  0  0  0  0  0  0  0
    6.1798   48.5956   29.2242 O   0  0  0  0  0  0  0  0  0  0  0  0
    4.7644   48.4625   29.0713 C   0  0  0  0  0  0  0  0  0  0  0  0
    3.9865   48.8307   30.3230 C   0  0  0  0  0  0  0  0  0  0  0  0
    4.6701   49.2482   31.4956 C   0  0  0  0  0  0  0  0  0  0  0  0
    2.5486   48.8285   30.3191 C   0  0  0  0  0  0  0  0  0  0  0  0
    3.9237   49.6215   32.6047 C   0  0  0  0  0  0  0  0  0  0  0  0
    1.8463   49.2332   31.4779 C   0  0  0  0  0  0  0  0  0  0  0  0
    1.7872   48.4620   29.1535 N   0  0  0  0  0  0  0  0  0  0  0  0
    4.3757   50.0505   33.8379 O   0  0  0  0  0  0  0  0  0  0  0  0
    2.5725   49.6138   32.5967 C   0  0  0  0  0  0  0  0  0  0  0  0
    0.5596   49.0417   28.9288 O   0  0  0  0  0  0  0  0  0  0  0  0
    2.1339   47.5013   28.4372 O   0  0  0  0  0  0  0  0  0  0  0  0
    3.2313   50.3268   34.6568 C   0  0  0  0  0  0  0  0  0  0  0  0
    2.1003   50.0353   33.8248 O   0  0  0  0  0  0  0  0  0  0  0  0
    8.8113   40.1835   34.2130 O   0  0  0  0  0  0  0  0  0  0  0  0
   11.2397   40.7943   33.3684 O   0  0  0  0  0  0  0  0  0  0  0  0
   10.9125   40.6875   31.9969 C   0  0  0  0  0  0  0  0  0  0  0  0
   11.5169   39.3810   31.4420 C   0  0  0  0  0  0  0  0  0  0  0  0
   12.7500   39.0880   32.0758 O   0  0  0  0  0  0  0  0  0  0  0  0
   10.6043   38.1892   31.6658 C   0  0  0  0  0  0  0  0  0  0  0  0
   12.9395   37.6813   32.0279 C   0  0  0  0  0  0  0  0  0  0  0  0
    9.6353   38.0951   30.6499 O   0  0  0  0  0  0  0  0  0  0  0  0
   11.5804   37.0190   31.6934 C   0  0  0  0  0  0  0  0  0  0  0  0
   13.4851   37.2119   33.3244 N   0  0  0  0  0  0  0  0  0  0  0  0
   11.6118   36.3188   30.4673 O   0  0  0  0  0  0  0  0  0  0  0  0
   14.4801   36.3316   33.5732 C   0  0  0  0  0  0  0  0  0  0  0  0
   13.1139   37.6277   34.5692 C   0  0  0  0  0  0  0  0  0  0  0  0
   15.2076   35.6154   32.6744 N   0  0  0  0  0  0  0  0  0  0  0  0
   14.6756   36.2303   34.9186 C   0  0  0  0  0  0  0  0  0  0  0  0
   13.8215   37.0451   35.5786 N   0  0  0  0  0  0  0  0  0  0  0  0
   16.1642   34.7602   33.1551 C   0  0  0  0  0  0  0  0  0  0  0  0
   15.6526   35.3505   35.4134 C   0  0  0  0  0  0  0  0  0  0  0  0
   16.3796   34.6316   34.5046 N   0  0  0  0  0  0  0  0  0  0  0  0
   15.9001   35.1933   36.8093 N   0  0  0  0  0  0  0  0  0  0  0  0
    9.0097   45.4351   33.6666 H   0  0  0  0  0  0  0  0  0  0  0  0
   11.1129   46.1994   34.4884 H   0  0  0  0  0  0  0  0  0  0  0  0
   11.9348   45.6934   33.0930 H   0  0  0  0  0  0  0  0  0  0  0  0
    9.3520   43.8343   31.4758 H   0  0  0  0  0  0  0  0  0  0  0  0
   10.7311   44.8931   31.1676 H   0  0  0  0  0  0  0  0  0  0  0  0
    7.0124   44.7169   31.5866 H   0  0  0  0  0  0  0  0  0  0  0  0
   10.3467   47.1896   30.4153 H   0  0  0  0  0  0  0  0  0  0  0  0
    5.4657   46.2921   30.5281 H   0  0  0  0  0  0  0  0  0  0  0  0
    8.7936   48.7722   29.3466 H   0  0  0  0  0  0  0  0  0  0  0  0
    4.4470   49.1457   28.2558 H   0  0  0  0  0  0  0  0  0  0  0  0
    4.5322   47.4268   28.7495 H   0  0  0  0  0  0  0  0  0  0  0  0
    5.7475   49.3017   31.5530 H   0  0  0  0  0  0  0  0  0  0  0  0
    0.7644   49.2427   31.5080 H   0  0  0  0  0  0  0  0  0  0  0  0
    3.2300   49.6676   35.5501 H   0  0  0  0  0  0  0  0  0  0  0  0
    3.2219   51.3960   34.9555 H   0  0  0  0  0  0  0  0  0  0  0  0
   11.3811   41.5456   31.4692 H   0  0  0  0  0  0  0  0  0  0  0  0
    9.8216   40.7222   31.7644 H   0  0  0  0  0  0  0  0  0  0  0  0
   11.6985   39.5089   30.3498 H   0  0  0  0  0  0  0  0  0  0  0  0
   10.1109   38.2736   32.6629 H   0  0  0  0  0  0  0  0  0  0  0  0
   13.6783   37.4561   31.2271 H   0  0  0  0  0  0  0  0  0  0  0  0
    9.0020   37.3859   30.9347 H   0  0  0  0  0  0  0  0  0  0  0  0
   11.2808   36.3052   32.4921 H   0  0  0  0  0  0  0  0  0  0  0  0
   11.8818   36.9600   29.7584 H   0  0  0  0  0  0  0  0  0  0  0  0
   12.3303   38.3538   34.7445 H   0  0  0  0  0  0  0  0  0  0  0  0
   16.7564   34.1783   32.4624 H   0  0  0  0  0  0  0  0  0  0  0  0
   16.6348   34.5301   37.1418 H   0  0  0  0  0  0  0  0  0  0  0  0
   15.3532   35.7359   37.5142 H   0  0  0  0  0  0  0  0  0  0  0  0
  1  2  2  0
  1  3  1  0
  3  4  1  0
  4  5  1  0
  6  1  1  0
  7  6  1  0
  6  8  1  0
  8  9  1  0
  9 10  2  0
 11  9  1  0
 10 12  1  0
 13 11  2  0
 12 14  2  0
 14 13  1  0
 14 15  1  0
 15 16  1  0
 16 17  1  0
 17 18  2  0
 19 17  1  0
 18 20  1  0
 21 19  2  0
 19 22  1  0
 20 23  1  0
 20 24  2  0
 24 21  1  0
 22 25  1  0
 22 26  2  0
 23 27  1  0
 24 28  1  0
 27 28  1  0
  4 29  2  0
  4 30  1  0
 31 30  1  0
 31 32  1  0
 32 33  1  0
 32 34  1  0
 33 35  1  0
 34 36  1  0
 34 37  1  0
 37 35  1  0
 35 38  1  0
 37 39  1  0
 40 38  1  0
 41 38  1  0
 42 40  2  0
 40 43  1  0
 44 41  2  0
 45 42  1  0
 43 46  2  0
 43 44  1  0
 47 45  2  0
 47 46  1  0
 46 48  1  0
  6 49  1  1
  7 50  1  0
  7 51  1  0
  8 52  1  0
  8 53  1  0
 10 54  1  0
 11 55  1  0
 12 56  1  0
 13 57  1  0
 16 58  1  0
 16 59  1  0
 18 60  1  0
 21 61  1  0
 27 62  1  0
 27 63  1  0
 31 64  1  0
 31 65  1  0
 32 66  1  0
 34 67  1  0
 35 68  1  0
 36 69  1  0
 37 70  1  0
 39 71  1  0
 41 72  1  0
 45 73  1  0
 48 74  1  0
 48 75  1  0
M  CHG  3   5  -1  22   1  25  -1
M  END
>  <EmbedRMS>  (144) 
0.0824640887543

$$$$

     RDKit          3D

 75 80  0  0  0  0  0  0  0  0999 V2000
   10.2839   43.7626   33.8276 C   0  0  0  0  0  0  0  0  0  0  0  0
   11.4103   43.5864   34.3767 O   0  0  0  0  0  0  0  0  0  0  0  0
    9.3634   42.7234   33.7352 O   0  0  0  0  0  0  0  0  0  0  0  0
    9.8899   41.2247   34.2940 P   0  0  0  0  0  0  0  0  0  0  0  0
   10.3724   41.4545   35.8837 O   0  0  0  0  0  0  0  0  0  0  0  0
    9.9547   45.0699   33.2063 C   0  0  1  0  0  0  0  0  0  0  0  0
   11.0197   46.0481   33.4567 N   0  0  0  0  0  0  0  0  0  0  0  0
    9.7501   44.8506   31.6923 C   0  0  0  0  0  0  0  0  0  0  0  0
    8.7943   45.8414   31.0864 C   0  0  0  0  0  0  0  0  0  0  0  0
    7.4074   45.6009   31.0999 C   0  0  0  0  0  0  0  0  0  0  0  0
    9.2834   46.9891   30.4451 C   0  0  0  0  0  0  0  0  0  0  0  0
    6.5278   46.5022   30.4848 C   0  0  0  0  0  0  0  0  0  0  0  0
    8.4039   47.8901   29.8329 C   0  0  0  0  0  0  0  0  0  0  0  0
    7.0146   47.6515   29.8470 C   0  0  0  0  0  0  0  0  0  0  0  0
    6.0883   48.5277   29.2556 O   0  0  0  0  0  0  0  0  0  0  0  0
    6.4239   49.6894   28.4923 C   0  0  0  0  0  0  0  0  0  0  0  0
    6.7738   50.8930   29.3505 C   0  0  0  0  0  0  0  0  0  0  0  0
    6.7570   50.7933   30.7669 C   0  0  0  0  0  0  0  0  0  0  0  0
    7.0595   52.1657   28.7455 C   0  0  0  0  0  0  0  0  0  0  0  0
    7.0368   51.9266   31.5178 C   0  0  0  0  0  0  0  0  0  0  0  0
    7.3235   53.2861   29.5670 C   0  0  0  0  0  0  0  0  0  0  0  0
    7.0494   52.3539   27.3182 N   0  0  0  0  0  0  0  0  0  0  0  0
    7.0812   52.0551   32.8929 O   0  0  0  0  0  0  0  0  0  0  0  0
    7.3085   53.1194   30.9439 C   0  0  0  0  0  0  0  0  0  0  0  0
    6.6854   53.5722   26.7920 O   0  0  0  0  0  0  0  0  0  0  0  0
    7.5336   51.4945   26.5546 O   0  0  0  0  0  0  0  0  0  0  0  0
    7.4051   53.4180   33.1996 C   0  0  0  0  0  0  0  0  0  0  0  0
    7.5410   54.0630   31.9260 O   0  0  0  0  0  0  0  0  0  0  0  0
    8.8119   40.1831   34.2121 O   0  0  0  0  0  0  0  0  0  0  0  0
   11.2416   40.7932   33.3699 O   0  0  0  0  0  0  0  0  0  0  0  0
   10.9186   40.6909   31.9972 C   0  0  0  0  0  0  0  0  0  0  0  0
   11.5172   39.3814   31.4407 C   0  0  0  0  0  0  0  0  0  0  0  0
   12.7493   39.0855   32.0727 O   0  0  0  0  0  0  0  0  0  0  0  0
   10.6023   38.1907   31.6665 C   0  0  0  0  0  0  0  0  0  0  0  0
   12.9319   37.6781   32.0281 C   0  0  0  0  0  0  0  0  0  0  0  0
    9.6392   38.0797   30.6452 O   0  0  0  0  0  0  0  0  0  0  0  0
   11.5715   37.0165   31.7055 C   0  0  0  0  0  0  0  0  0  0  0  0
   13.4846   37.2121   33.3235 N   0  0  0  0  0  0  0  0  0  0  0  0
   11.6187   36.3383   30.4694 O   0  0  0  0  0  0  0  0  0  0  0  0
   14.4801   36.3321   33.5724 C   0  0  0  0  0  0  0  0  0  0  0  0
   13.1137   37.6275   34.5687 C   0  0  0  0  0  0  0  0  0  0  0  0
   15.2073   35.6153   32.6738 N   0  0  0  0  0  0  0  0  0  0  0  0
   14.6759   36.2308   34.9179 C   0  0  0  0  0  0  0  0  0  0  0  0
   13.8216   37.0452   35.5781 N   0  0  0  0  0  0  0  0  0  0  0  0
   16.1640   34.7602   33.1546 C   0  0  0  0  0  0  0  0  0  0  0  0
   15.6526   35.3508   35.4129 C   0  0  0  0  0  0  0  0  0  0  0  0
   16.3794   34.6317   34.5041 N   0  0  0  0  0  0  0  0  0  0  0  0
   15.8999   35.1935   36.8088 N   0  0  0  0  0  0  0  0  0  0  0  0
    9.0097   45.4348   33.6669 H   0  0  0  0  0  0  0  0  0  0  0  0
   11.9347   45.6933   33.0924 H   0  0  0  0  0  0  0  0  0  0  0  0
   11.1132   46.1995   34.4880 H   0  0  0  0  0  0  0  0  0  0  0  0
    9.3510   43.8341   31.4762 H   0  0  0  0  0  0  0  0  0  0  0  0
   10.7305   44.8920   31.1675 H   0  0  0  0  0  0  0  0  0  0  0  0
    7.0108   44.7161   31.5825 H   0  0  0  0  0  0  0  0  0  0  0  0
   10.3474   47.1899   30.4198 H   0  0  0  0  0  0  0  0  0  0  0  0
    5.4632   46.3065   30.5047 H   0  0  0  0  0  0  0  0  0  0  0  0
    8.8157   48.7723   29.3632 H   0  0  0  0  0  0  0  0  0  0  0  0
    7.2543   49.4393   27.8011 H   0  0  0  0  0  0  0  0  0  0  0  0
    5.5408   49.9534   27.8733 H   0  0  0  0  0  0  0  0  0  0  0  0
    6.5197   49.8743   31.2828 H   0  0  0  0  0  0  0  0  0  0  0  0
    7.5425   54.2577   29.1435 H   0  0  0  0  0  0  0  0  0  0  0  0
    6.5834   53.8866   33.7808 H   0  0  0  0  0  0  0  0  0  0  0  0
    8.3627   53.4687   33.7589 H   0  0  0  0  0  0  0  0  0  0  0  0
    9.8300   40.7410   31.7611 H   0  0  0  0  0  0  0  0  0  0  0  0
   11.3971   41.5459   31.4735 H   0  0  0  0  0  0  0  0  0  0  0  0
   11.6974   39.5067   30.3480 H   0  0  0  0  0  0  0  0  0  0  0  0
   10.1077   38.2646   32.6645 H   0  0  0  0  0  0  0  0  0  0  0  0
   13.6622   37.4467   31.2208 H   0  0  0  0  0  0  0  0  0  0  0  0
    8.8975   38.6943   30.8831 H   0  0  0  0  0  0  0  0  0  0  0  0
   11.2806   36.3072   32.5170 H   0  0  0  0  0  0  0  0  0  0  0  0
   10.8493   35.7110   30.4585 H   0  0  0  0  0  0  0  0  0  0  0  0
   12.3290   38.3523   34.7444 H   0  0  0  0  0  0  0  0  0  0  0  0
   16.7560   34.1781   32.4620 H   0  0  0  0  0  0  0  0  0  0  0  0
   16.6344   34.5301   37.1414 H   0  0  0  0  0  0  0  0  0  0  0  0
   15.3531   35.7363   37.5137 H   0  0  0  0  0  0  0  0  0  0  0  0
  1  2  2  0
  1  3  1  0
  3  4  1  0
  4  5  1  0
  6  1  1  0
  7  6  1  0
  6  8  1  0
  8  9  1  0
  9 10  2  0
 11  9  1  0
 10 12  1  0
 13 11  2  0
 12 14  2  0
 14 13  1  0
 14 15  1  0
 15 16  1  0
 16 17  1  0
 17 18  2  0
 19 17  1  0
 18 20  1  0
 21 19  2  0
 19 22  1  0
 20 23  1  0
 20 24  2  0
 24 21  1  0
 22 25  1  0
 22 26  2  0
 23 27  1  0
 24 28  1  0
 27 28  1  0
  4 29  2  0
  4 30  1  0
 31 30  1  0
 31 32  1  0
 32 33  1  0
 32 34  1  0
 33 35  1  0
 34 36  1  0
 34 37  1  0
 37 35  1  0
 35 38  1  0
 37 39  1  0
 40 38  1  0
 41 38  1  0
 42 40  2  0
 40 43  1  0
 44 41  2  0
 45 42  1  0
 43 46  2  0
 43 44  1  0
 47 45  2  0
 47 46  1  0
 46 48  1  0
  6 49  1  1
  7 50  1  0
  7 51  1  0
  8 52  1  0
  8 53  1  0
 10 54  1  0
 11 55  1  0
 12 56  1  0
 13 57  1  0
 16 58  1  0
 16 59  1  0
 18 60  1  0
 21 61  1  0
 27 62  1  0
 27 63  1  0
 31 64  1  0
 31 65  1  0
 32 66  1  0
 34 67  1  0
 35 68  1  0
 36 69  1  0
 37 70  1  0
 39 71  1  0
 41 72  1  0
 45 73  1  0
 48 74  1  0
 48 75  1  0
M  CHG  3   5  -1  22   1  25  -1
M  END
>  <EmbedRMS>  (145) 
0.0838408501708

$$$$

     RDKit          3D

 75 80  0  0  0  0  0  0  0  0999 V2000
   10.2836   43.7661   33.8255 C   0  0  0  0  0  0  0  0  0  0  0  0
   11.4102   43.5930   34.3753 O   0  0  0  0  0  0  0  0  0  0  0  0
    9.3640   42.7253   33.7346 O   0  0  0  0  0  0  0  0  0  0  0  0
    9.8907   41.2265   34.2938 P   0  0  0  0  0  0  0  0  0  0  0  0
   10.3732   41.4559   35.8835 O   0  0  0  0  0  0  0  0  0  0  0  0
    9.9548   45.0694   33.2034 C   0  0  1  0  0  0  0  0  0  0  0  0
   11.0273   46.0322   33.4758 N   0  0  0  0  0  0  0  0  0  0  0  0
    9.7471   44.8483   31.6874 C   0  0  0  0  0  0  0  0  0  0  0  0
    8.7925   45.8407   31.0841 C   0  0  0  0  0  0  0  0  0  0  0  0
    7.4058   45.6011   31.0998 C   0  0  0  0  0  0  0  0  0  0  0  0
    9.2817   46.9882   30.4425 C   0  0  0  0  0  0  0  0  0  0  0  0
    6.5245   46.5015   30.4861 C   0  0  0  0  0  0  0  0  0  0  0  0
    8.4004   47.8887   29.8329 C   0  0  0  0  0  0  0  0  0  0  0  0
    7.0189   47.6554   29.8440 C   0  0  0  0  0  0  0  0  0  0  0  0
    6.1817   48.5873   29.2092 O   0  0  0  0  0  0  0  0  0  0  0  0
    4.7689   48.4485   29.0489 C   0  0  0  0  0  0  0  0  0  0  0  0
    4.4451   47.3429   28.0686 C   0  0  0  0  0  0  0  0  0  0  0  0
    5.1616   47.3012   26.8493 C   0  0  0  0  0  0  0  0  0  0  0  0
    3.4755   46.3250   28.3503 C   0  0  0  0  0  0  0  0  0  0  0  0
    4.9359   46.2380   25.9848 C   0  0  0  0  0  0  0  0  0  0  0  0
    3.3011   45.2576   27.4408 C   0  0  0  0  0  0  0  0  0  0  0  0
    2.6529   46.3691   29.5259 N   0  0  0  0  0  0  0  0  0  0  0  0
    5.5270   45.9844   24.7621 O   0  0  0  0  0  0  0  0  0  0  0  0
    4.0499   45.2560   26.2710 C   0  0  0  0  0  0  0  0  0  0  0  0
    2.3060   45.1989   30.1608 O   0  0  0  0  0  0  0  0  0  0  0  0
    2.0541   47.4206   29.8319 O   0  0  0  0  0  0  0  0  0  0  0  0
    4.9750   44.7643   24.2485 C   0  0  0  0  0  0  0  0  0  0  0  0
    4.0358   44.3331   25.2430 O   0  0  0  0  0  0  0  0  0  0  0  0
    8.8127   40.1848   34.2122 O   0  0  0  0  0  0  0  0  0  0  0  0
   11.2420   40.7941   33.3697 O   0  0  0  0  0  0  0  0  0  0  0  0
   10.9187   40.6911   31.9971 C   0  0  0  0  0  0  0  0  0  0  0  0
   11.5172   39.3815   31.4407 C   0  0  0  0  0  0  0  0  0  0  0  0
   12.7493   39.0856   32.0728 O   0  0  0  0  0  0  0  0  0  0  0  0
   10.6023   38.1908   31.6665 C   0  0  0  0  0  0  0  0  0  0  0  0
   12.9319   37.6781   32.0281 C   0  0  0  0  0  0  0  0  0  0  0  0
    9.6392   38.0798   30.6452 O   0  0  0  0  0  0  0  0  0  0  0  0
   11.5715   37.0166   31.7056 C   0  0  0  0  0  0  0  0  0  0  0  0
   13.4847   37.2121   33.3235 N   0  0  0  0  0  0  0  0  0  0  0  0
   11.6187   36.3384   30.4695 O   0  0  0  0  0  0  0  0  0  0  0  0
   14.4801   36.3321   33.5724 C   0  0  0  0  0  0  0  0  0  0  0  0
   13.1137   37.6276   34.5687 C   0  0  0  0  0  0  0  0  0  0  0  0
   15.2073   35.6153   32.6738 N   0  0  0  0  0  0  0  0  0  0  0  0
   14.6759   36.2308   34.9179 C   0  0  0  0  0  0  0  0  0  0  0  0
   13.8216   37.0452   35.5781 N   0  0  0  0  0  0  0  0  0  0  0  0
   16.1640   34.7602   33.1546 C   0  0  0  0  0  0  0  0  0  0  0  0
   15.6526   35.3508   35.4129 C   0  0  0  0  0  0  0  0  0  0  0  0
   16.3794   34.6317   34.5041 N   0  0  0  0  0  0  0  0  0  0  0  0
   15.8999   35.1935   36.8088 N   0  0  0  0  0  0  0  0  0  0  0  0
    9.0120   45.4316   33.6711 H   0  0  0  0  0  0  0  0  0  0  0  0
   10.7260   46.9687   33.1214 H   0  0  0  0  0  0  0  0  0  0  0  0
   11.8908   45.7659   32.9474 H   0  0  0  0  0  0  0  0  0  0  0  0
   10.7236   44.8823   31.1556 H   0  0  0  0  0  0  0  0  0  0  0  0
    9.3425   43.8330   31.4756 H   0  0  0  0  0  0  0  0  0  0  0  0
    7.0099   44.7167   31.5838 H   0  0  0  0  0  0  0  0  0  0  0  0
   10.3459   47.1867   30.4109 H   0  0  0  0  0  0  0  0  0  0  0  0
    5.4657   46.2900   30.5217 H   0  0  0  0  0  0  0  0  0  0  0  0
    8.7938   48.7700   29.3423 H   0  0  0  0  0  0  0  0  0  0  0  0
    4.3089   48.2988   30.0455 H   0  0  0  0  0  0  0  0  0  0  0  0
    4.3711   49.4006   28.6400 H   0  0  0  0  0  0  0  0  0  0  0  0
    5.8905   48.0608   26.5957 H   0  0  0  0  0  0  0  0  0  0  0  0
    2.5829   44.4696   27.6273 H   0  0  0  0  0  0  0  0  0  0  0  0
    5.7745   44.0046   24.1216 H   0  0  0  0  0  0  0  0  0  0  0  0
    4.4545   44.9534   23.2864 H   0  0  0  0  0  0  0  0  0  0  0  0
    9.8299   40.7410   31.7613 H   0  0  0  0  0  0  0  0  0  0  0  0
   11.3968   41.5460   31.4728 H   0  0  0  0  0  0  0  0  0  0  0  0
   11.6975   39.5067   30.3481 H   0  0  0  0  0  0  0  0  0  0  0  0
   10.1076   38.2648   32.6645 H   0  0  0  0  0  0  0  0  0  0  0  0
   13.6621   37.4467   31.2209 H   0  0  0  0  0  0  0  0  0  0  0  0
    8.8975   38.6945   30.8830 H   0  0  0  0  0  0  0  0  0  0  0  0
   11.2806   36.3073   32.5170 H   0  0  0  0  0  0  0  0  0  0  0  0
   10.8492   35.7111   30.4585 H   0  0  0  0  0  0  0  0  0  0  0  0
   12.3290   38.3524   34.7444 H   0  0  0  0  0  0  0  0  0  0  0  0
   16.7559   34.1780   32.4619 H   0  0  0  0  0  0  0  0  0  0  0  0
   15.3531   35.7362   37.5137 H   0  0  0  0  0  0  0  0  0  0  0  0
   16.6344   34.5301   37.1414 H   0  0  0  0  0  0  0  0  0  0  0  0
  1  2  2  0
  1  3  1  0
  3  4  1  0
  4  5  1  0
  6  1  1  0
  7  6  1  0
  6  8  1  0
  8  9  1  0
  9 10  2  0
 11  9  1  0
 10 12  1  0
 13 11  2  0
 12 14  2  0
 14 13  1  0
 14 15  1  0
 15 16  1  0
 16 17  1  0
 17 18  2  0
 19 17  1  0
 18 20  1  0
 21 19  2  0
 19 22  1  0
 20 23  1  0
 20 24  2  0
 24 21  1  0
 22 25  1  0
 22 26  2  0
 23 27  1  0
 24 28  1  0
 27 28  1  0
  4 29  2  0
  4 30  1  0
 31 30  1  0
 31 32  1  0
 32 33  1  0
 32 34  1  0
 33 35  1  0
 34 36  1  0
 34 37  1  0
 37 35  1  0
 35 38  1  0
 37 39  1  0
 40 38  1  0
 41 38  1  0
 42 40  2  0
 40 43  1  0
 44 41  2  0
 45 42  1  0
 43 46  2  0
 43 44  1  0
 47 45  2  0
 47 46  1  0
 46 48  1  0
  6 49  1  1
  7 50  1  0
  7 51  1  0
  8 52  1  0
  8 53  1  0
 10 54  1  0
 11 55  1  0
 12 56  1  0
 13 57  1  0
 16 58  1  0
 16 59  1  0
 18 60  1  0
 21 61  1  0
 27 62  1  0
 27 63  1  0
 31 64  1  0
 31 65  1  0
 32 66  1  0
 34 67  1  0
 35 68  1  0
 36 69  1  0
 37 70  1  0
 39 71  1  0
 41 72  1  0
 45 73  1  0
 48 74  1  0
 48 75  1  0
M  CHG  3   5  -1  22   1  25  -1
M  END
>  <EmbedRMS>  (146) 
0.0829404884167

$$$$

     RDKit          3D

 75 80  0  0  0  0  0  0  0  0999 V2000
   10.2834   43.7662   33.8257 C   0  0  0  0  0  0  0  0  0  0  0  0
   11.4102   43.5930   34.3752 O   0  0  0  0  0  0  0  0  0  0  0  0
    9.3635   42.7257   33.7353 O   0  0  0  0  0  0  0  0  0  0  0  0
    9.8899   41.2270   34.2948 P   0  0  0  0  0  0  0  0  0  0  0  0
   10.3732   41.4562   35.8841 O   0  0  0  0  0  0  0  0  0  0  0  0
    9.9547   45.0695   33.2035 C   0  0  1  0  0  0  0  0  0  0  0  0
   11.0274   46.0321   33.4756 N   0  0  0  0  0  0  0  0  0  0  0  0
    9.7466   44.8480   31.6876 C   0  0  0  0  0  0  0  0  0  0  0  0
    8.7923   45.8407   31.0844 C   0  0  0  0  0  0  0  0  0  0  0  0
    7.4055   45.6017   31.0994 C   0  0  0  0  0  0  0  0  0  0  0  0
    9.2821   46.9878   30.4424 C   0  0  0  0  0  0  0  0  0  0  0  0
    6.5268   46.5035   30.4842 C   0  0  0  0  0  0  0  0  0  0  0  0
    8.4027   47.8898   29.8322 C   0  0  0  0  0  0  0  0  0  0  0  0
    7.0144   47.6526   29.8463 C   0  0  0  0  0  0  0  0  0  0  0  0
    6.0898   48.5202   29.2429 O   0  0  0  0  0  0  0  0  0  0  0  0
    6.4166   49.7044   28.5123 C   0  0  0  0  0  0  0  0  0  0  0  0
    7.1029   49.3767   27.2034 C   0  0  0  0  0  0  0  0  0  0  0  0
    6.6097   48.2893   26.4425 C   0  0  0  0  0  0  0  0  0  0  0  0
    8.1528   50.1912   26.6630 C   0  0  0  0  0  0  0  0  0  0  0  0
    7.1831   48.0312   25.2042 C   0  0  0  0  0  0  0  0  0  0  0  0
    8.6864   49.8899   25.3902 C   0  0  0  0  0  0  0  0  0  0  0  0
    8.6600   51.3371   27.3613 N   0  0  0  0  0  0  0  0  0  0  0  0
    6.8721   47.0289   24.3056 O   0  0  0  0  0  0  0  0  0  0  0  0
    8.1777   48.7974   24.7004 C   0  0  0  0  0  0  0  0  0  0  0  0
    8.8853   52.5045   26.6693 O   0  0  0  0  0  0  0  0  0  0  0  0
    9.1579   51.2077   28.4980 O   0  0  0  0  0  0  0  0  0  0  0  0
    7.7301   47.1752   23.1656 C   0  0  0  0  0  0  0  0  0  0  0  0
    8.5470   48.3169   23.4588 O   0  0  0  0  0  0  0  0  0  0  0  0
    8.8120   40.1850   34.2133 O   0  0  0  0  0  0  0  0  0  0  0  0
   11.2403   40.7947   33.3700 O   0  0  0  0  0  0  0  0  0  0  0  0
   10.9145   40.6914   31.9982 C   0  0  0  0  0  0  0  0  0  0  0  0
   11.5270   39.3912   31.4385 C   0  0  0  0  0  0  0  0  0  0  0  0
   12.7520   39.0911   32.0836 O   0  0  0  0  0  0  0  0  0  0  0  0
   10.6114   38.1932   31.6451 C   0  0  0  0  0  0  0  0  0  0  0  0
   12.9413   37.6838   32.0297 C   0  0  0  0  0  0  0  0  0  0  0  0
    9.6065   38.0878   30.6599 O   0  0  0  0  0  0  0  0  0  0  0  0
   11.5822   37.0198   31.6877 C   0  0  0  0  0  0  0  0  0  0  0  0
   13.4840   37.2105   33.3254 N   0  0  0  0  0  0  0  0  0  0  0  0
   11.6179   36.3072   30.4690 O   0  0  0  0  0  0  0  0  0  0  0  0
   14.4797   36.3309   33.5738 C   0  0  0  0  0  0  0  0  0  0  0  0
   13.1137   37.6269   34.5702 C   0  0  0  0  0  0  0  0  0  0  0  0
   15.2074   35.6152   32.6747 N   0  0  0  0  0  0  0  0  0  0  0  0
   14.6756   36.2298   34.9190 C   0  0  0  0  0  0  0  0  0  0  0  0
   13.8217   37.0445   35.5793 N   0  0  0  0  0  0  0  0  0  0  0  0
   16.1643   34.7603   33.1551 C   0  0  0  0  0  0  0  0  0  0  0  0
   15.6528   35.3503   35.4136 C   0  0  0  0  0  0  0  0  0  0  0  0
   16.3798   34.6316   34.5046 N   0  0  0  0  0  0  0  0  0  0  0  0
   15.9004   35.1930   36.8094 N   0  0  0  0  0  0  0  0  0  0  0  0
    9.0121   45.4318   33.6714 H   0  0  0  0  0  0  0  0  0  0  0  0
   11.8907   45.7657   32.9469 H   0  0  0  0  0  0  0  0  0  0  0  0
   10.7261   46.9687   33.1211 H   0  0  0  0  0  0  0  0  0  0  0  0
   10.7230   44.8814   31.1556 H   0  0  0  0  0  0  0  0  0  0  0  0
    9.3414   43.8329   31.4763 H   0  0  0  0  0  0  0  0  0  0  0  0
    7.0082   44.7170   31.5814 H   0  0  0  0  0  0  0  0  0  0  0  0
   10.3467   47.1850   30.4115 H   0  0  0  0  0  0  0  0  0  0  0  0
    5.4623   46.3068   30.5012 H   0  0  0  0  0  0  0  0  0  0  0  0
    8.8143   48.7626   29.3502 H   0  0  0  0  0  0  0  0  0  0  0  0
    5.4683   50.2288   28.2726 H   0  0  0  0  0  0  0  0  0  0  0  0
    7.0003   50.3849   29.1600 H   0  0  0  0  0  0  0  0  0  0  0  0
    5.7981   47.6684   26.8002 H   0  0  0  0  0  0  0  0  0  0  0  0
    9.4782   50.4874   24.9568 H   0  0  0  0  0  0  0  0  0  0  0  0
    7.1268   47.3601   22.2522 H   0  0  0  0  0  0  0  0  0  0  0  0
    8.3637   46.2719   23.0435 H   0  0  0  0  0  0  0  0  0  0  0  0
   11.3777   41.5549   31.4744 H   0  0  0  0  0  0  0  0  0  0  0  0
    9.8235   40.7202   31.7654 H   0  0  0  0  0  0  0  0  0  0  0  0
   11.7312   39.5363   30.3532 H   0  0  0  0  0  0  0  0  0  0  0  0
   10.1203   38.2697   32.6410 H   0  0  0  0  0  0  0  0  0  0  0  0
   13.6850   37.4639   31.2321 H   0  0  0  0  0  0  0  0  0  0  0  0
   10.0251   38.1793   29.7654 H   0  0  0  0  0  0  0  0  0  0  0  0
   11.2757   36.3135   32.4907 H   0  0  0  0  0  0  0  0  0  0  0  0
   11.9838   36.9111   29.7708 H   0  0  0  0  0  0  0  0  0  0  0  0
   12.3307   38.3537   34.7458 H   0  0  0  0  0  0  0  0  0  0  0  0
   16.7566   34.1787   32.4623 H   0  0  0  0  0  0  0  0  0  0  0  0
   16.6353   34.5300   37.1419 H   0  0  0  0  0  0  0  0  0  0  0  0
   15.3535   35.7355   37.5144 H   0  0  0  0  0  0  0  0  0  0  0  0
  1  2  2  0
  1  3  1  0
  3  4  1  0
  4  5  1  0
  6  1  1  0
  7  6  1  0
  6  8  1  0
  8  9  1  0
  9 10  2  0
 11  9  1  0
 10 12  1  0
 13 11  2  0
 12 14  2  0
 14 13  1  0
 14 15  1  0
 15 16  1  0
 16 17  1  0
 17 18  2  0
 19 17  1  0
 18 20  1  0
 21 19  2  0
 19 22  1  0
 20 23  1  0
 20 24  2  0
 24 21  1  0
 22 25  1  0
 22 26  2  0
 23 27  1  0
 24 28  1  0
 27 28  1  0
  4 29  2  0
  4 30  1  0
 31 30  1  0
 31 32  1  0
 32 33  1  0
 32 34  1  0
 33 35  1  0
 34 36  1  0
 34 37  1  0
 37 35  1  0
 35 38  1  0
 37 39  1  0
 40 38  1  0
 41 38  1  0
 42 40  2  0
 40 43  1  0
 44 41  2  0
 45 42  1  0
 43 46  2  0
 43 44  1  0
 47 45  2  0
 47 46  1  0
 46 48  1  0
  6 49  1  1
  7 50  1  0
  7 51  1  0
  8 52  1  0
  8 53  1  0
 10 54  1  0
 11 55  1  0
 12 56  1  0
 13 57  1  0
 16 58  1  0
 16 59  1  0
 18 60  1  0
 21 61  1  0
 27 62  1  0
 27 63  1  0
 31 64  1  0
 31 65  1  0
 32 66  1  0
 34 67  1  0
 35 68  1  0
 36 69  1  0
 37 70  1  0
 39 71  1  0
 41 72  1  0
 45 73  1  0
 48 74  1  0
 48 75  1  0
M  CHG  3   5  -1  22   1  25  -1
M  END
>  <EmbedRMS>  (147) 
0.0808373117869

$$$$

     RDKit          3D

 75 80  0  0  0  0  0  0  0  0999 V2000
   10.2802   43.7665   33.8249 C   0  0  0  0  0  0  0  0  0  0  0  0
   11.4109   43.5919   34.3666 O   0  0  0  0  0  0  0  0  0  0  0  0
    9.3616   42.7251   33.7348 O   0  0  0  0  0  0  0  0  0  0  0  0
    9.8898   41.2268   34.2939 P   0  0  0  0  0  0  0  0  0  0  0  0
   10.3738   41.4566   35.8831 O   0  0  0  0  0  0  0  0  0  0  0  0
    9.9459   45.0736   33.2109 C   0  0  1  0  0  0  0  0  0  0  0  0
   11.0266   46.0292   33.4706 N   0  0  0  0  0  0  0  0  0  0  0  0
    9.7542   44.8539   31.6945 C   0  0  0  0  0  0  0  0  0  0  0  0
    8.7960   45.8405   31.0837 C   0  0  0  0  0  0  0  0  0  0  0  0
    7.4091   45.6007   31.1019 C   0  0  0  0  0  0  0  0  0  0  0  0
    9.2824   46.9883   30.4405 C   0  0  0  0  0  0  0  0  0  0  0  0
    6.5260   46.5006   30.4887 C   0  0  0  0  0  0  0  0  0  0  0  0
    8.3993   47.8884   29.8334 C   0  0  0  0  0  0  0  0  0  0  0  0
    7.0183   47.6517   29.8421 C   0  0  0  0  0  0  0  0  0  0  0  0
    6.1827   48.5856   29.2097 O   0  0  0  0  0  0  0  0  0  0  0  0
    4.8197   48.3725   28.8393 C   0  0  0  0  0  0  0  0  0  0  0  0
    4.7218   47.4105   27.6780 C   0  0  0  0  0  0  0  0  0  0  0  0
    4.2025   46.1158   27.9191 C   0  0  0  0  0  0  0  0  0  0  0  0
    5.0838   47.7868   26.3395 C   0  0  0  0  0  0  0  0  0  0  0  0
    4.0863   45.2370   26.8512 C   0  0  0  0  0  0  0  0  0  0  0  0
    4.9316   46.8478   25.2910 C   0  0  0  0  0  0  0  0  0  0  0  0
    5.5520   49.1102   26.0167 N   0  0  0  0  0  0  0  0  0  0  0  0
    3.6193   43.9366   26.8560 O   0  0  0  0  0  0  0  0  0  0  0  0
    4.4372   45.5865   25.5933 C   0  0  0  0  0  0  0  0  0  0  0  0
    6.4110   49.7833   26.8523 O   0  0  0  0  0  0  0  0  0  0  0  0
    5.3038   49.6021   24.8963 O   0  0  0  0  0  0  0  0  0  0  0  0
    3.6851   43.4383   25.5129 C   0  0  0  0  0  0  0  0  0  0  0  0
    4.2121   44.5244   24.7388 O   0  0  0  0  0  0  0  0  0  0  0  0
    8.8122   40.1845   34.2134 O   0  0  0  0  0  0  0  0  0  0  0  0
   11.2400   40.7954   33.3679 O   0  0  0  0  0  0  0  0  0  0  0  0
   10.9124   40.6877   31.9967 C   0  0  0  0  0  0  0  0  0  0  0  0
   11.5169   39.3811   31.4420 C   0  0  0  0  0  0  0  0  0  0  0  0
   12.7500   39.0881   32.0760 O   0  0  0  0  0  0  0  0  0  0  0  0
   10.6043   38.1893   31.6659 C   0  0  0  0  0  0  0  0  0  0  0  0
   12.9395   37.6814   32.0280 C   0  0  0  0  0  0  0  0  0  0  0  0
    9.6353   38.0951   30.6499 O   0  0  0  0  0  0  0  0  0  0  0  0
   11.5804   37.0191   31.6934 C   0  0  0  0  0  0  0  0  0  0  0  0
   13.4851   37.2119   33.3244 N   0  0  0  0  0  0  0  0  0  0  0  0
   11.6118   36.3189   30.4673 O   0  0  0  0  0  0  0  0  0  0  0  0
   14.4801   36.3316   33.5732 C   0  0  0  0  0  0  0  0  0  0  0  0
   13.1139   37.6277   34.5692 C   0  0  0  0  0  0  0  0  0  0  0  0
   15.2076   35.6154   32.6744 N   0  0  0  0  0  0  0  0  0  0  0  0
   14.6756   36.2303   34.9186 C   0  0  0  0  0  0  0  0  0  0  0  0
   13.8215   37.0451   35.5786 N   0  0  0  0  0  0  0  0  0  0  0  0
   16.1642   34.7602   33.1551 C   0  0  0  0  0  0  0  0  0  0  0  0
   15.6526   35.3505   35.4134 C   0  0  0  0  0  0  0  0  0  0  0  0
   16.3795   34.6316   34.5045 N   0  0  0  0  0  0  0  0  0  0  0  0
   15.9001   35.1933   36.8093 N   0  0  0  0  0  0  0  0  0  0  0  0
    8.9994   45.4383   33.6716 H   0  0  0  0  0  0  0  0  0  0  0  0
   11.0500   46.2278   34.4980 H   0  0  0  0  0  0  0  0  0  0  0  0
   10.7765   46.9369   33.0156 H   0  0  0  0  0  0  0  0  0  0  0  0
    9.3647   43.8351   31.4709 H   0  0  0  0  0  0  0  0  0  0  0  0
   10.7414   44.9075   31.1833 H   0  0  0  0  0  0  0  0  0  0  0  0
    7.0143   44.7198   31.5932 H   0  0  0  0  0  0  0  0  0  0  0  0
   10.3462   47.1889   30.4070 H   0  0  0  0  0  0  0  0  0  0  0  0
    5.4682   46.2995   30.5470 H   0  0  0  0  0  0  0  0  0  0  0  0
    8.7911   48.7704   29.3427 H   0  0  0  0  0  0  0  0  0  0  0  0
    4.3711   49.3434   28.5418 H   0  0  0  0  0  0  0  0  0  0  0  0
    4.2361   48.0256   29.7184 H   0  0  0  0  0  0  0  0  0  0  0  0
    3.8849   45.8031   28.9046 H   0  0  0  0  0  0  0  0  0  0  0  0
    5.1944   47.0937   24.2701 H   0  0  0  0  0  0  0  0  0  0  0  0
    2.6700   43.1685   25.1532 H   0  0  0  0  0  0  0  0  0  0  0  0
    4.3672   42.5640   25.4606 H   0  0  0  0  0  0  0  0  0  0  0  0
    9.8215   40.7221   31.7644 H   0  0  0  0  0  0  0  0  0  0  0  0
   11.3807   41.5456   31.4683 H   0  0  0  0  0  0  0  0  0  0  0  0
   11.6986   39.5088   30.3499 H   0  0  0  0  0  0  0  0  0  0  0  0
   10.1109   38.2737   32.6630 H   0  0  0  0  0  0  0  0  0  0  0  0
   13.6783   37.4562   31.2271 H   0  0  0  0  0  0  0  0  0  0  0  0
    9.0020   37.3860   30.9348 H   0  0  0  0  0  0  0  0  0  0  0  0
   11.2807   36.3052   32.4921 H   0  0  0  0  0  0  0  0  0  0  0  0
   11.8819   36.9600   29.7584 H   0  0  0  0  0  0  0  0  0  0  0  0
   12.3303   38.3538   34.7446 H   0  0  0  0  0  0  0  0  0  0  0  0
   16.7563   34.1783   32.4623 H   0  0  0  0  0  0  0  0  0  0  0  0
   16.6347   34.5301   37.1418 H   0  0  0  0  0  0  0  0  0  0  0  0
   15.3532   35.7359   37.5142 H   0  0  0  0  0  0  0  0  0  0  0  0
  1  2  2  0
  1  3  1  0
  3  4  1  0
  4  5  1  0
  6  1  1  0
  7  6  1  0
  6  8  1  0
  8  9  1  0
  9 10  2  0
 11  9  1  0
 10 12  1  0
 13 11  2  0
 12 14  2  0
 14 13  1  0
 14 15  1  0
 15 16  1  0
 16 17  1  0
 17 18  2  0
 19 17  1  0
 18 20  1  0
 21 19  2  0
 19 22  1  0
 20 23  1  0
 20 24  2  0
 24 21  1  0
 22 25  1  0
 22 26  2  0
 23 27  1  0
 24 28  1  0
 27 28  1  0
  4 29  2  0
  4 30  1  0
 31 30  1  0
 31 32  1  0
 32 33  1  0
 32 34  1  0
 33 35  1  0
 34 36  1  0
 34 37  1  0
 37 35  1  0
 35 38  1  0
 37 39  1  0
 40 38  1  0
 41 38  1  0
 42 40  2  0
 40 43  1  0
 44 41  2  0
 45 42  1  0
 43 46  2  0
 43 44  1  0
 47 45  2  0
 47 46  1  0
 46 48  1  0
  6 49  1  1
  7 50  1  0
  7 51  1  0
  8 52  1  0
  8 53  1  0
 10 54  1  0
 11 55  1  0
 12 56  1  0
 13 57  1  0
 16 58  1  0
 16 59  1  0
 18 60  1  0
 21 61  1  0
 27 62  1  0
 27 63  1  0
 31 64  1  0
 31 65  1  0
 32 66  1  0
 34 67  1  0
 35 68  1  0
 36 69  1  0
 37 70  1  0
 39 71  1  0
 41 72  1  0
 45 73  1  0
 48 74  1  0
 48 75  1  0
M  CHG  3   5  -1  22   1  25  -1
M  END
>  <EmbedRMS>  (148) 
0.0814130095916

$$$$

     RDKit          3D

 75 80  0  0  0  0  0  0  0  0999 V2000
   10.2805   43.7663   33.8249 C   0  0  0  0  0  0  0  0  0  0  0  0
   11.4111   43.5919   34.3667 O   0  0  0  0  0  0  0  0  0  0  0  0
    9.3621   42.7247   33.7343 O   0  0  0  0  0  0  0  0  0  0  0  0
    9.8903   41.2264   34.2936 P   0  0  0  0  0  0  0  0  0  0  0  0
   10.3732   41.4564   35.8831 O   0  0  0  0  0  0  0  0  0  0  0  0
    9.9459   45.0735   33.2111 C   0  0  1  0  0  0  0  0  0  0  0  0
   11.0266   46.0291   33.4705 N   0  0  0  0  0  0  0  0  0  0  0  0
    9.7535   44.8537   31.6948 C   0  0  0  0  0  0  0  0  0  0  0  0
    8.7955   45.8409   31.0846 C   0  0  0  0  0  0  0  0  0  0  0  0
    7.4086   45.6008   31.1012 C   0  0  0  0  0  0  0  0  0  0  0  0
    9.2830   46.9878   30.4401 C   0  0  0  0  0  0  0  0  0  0  0  0
    6.5280   46.5015   30.4861 C   0  0  0  0  0  0  0  0  0  0  0  0
    8.4025   47.8895   29.8313 C   0  0  0  0  0  0  0  0  0  0  0  0
    7.0137   47.6502   29.8463 C   0  0  0  0  0  0  0  0  0  0  0  0
    6.0881   48.5171   29.2429 O   0  0  0  0  0  0  0  0  0  0  0  0
    6.4239   49.6720   28.4720 C   0  0  0  0  0  0  0  0  0  0  0  0
    7.0565   49.2755   27.1569 C   0  0  0  0  0  0  0  0  0  0  0  0
    6.4427   48.2481   26.4025 C   0  0  0  0  0  0  0  0  0  0  0  0
    8.2671   49.8735   26.6779 C   0  0  0  0  0  0  0  0  0  0  0  0
    7.0680   47.8169   25.2397 C   0  0  0  0  0  0  0  0  0  0  0  0
    8.8673   49.3825   25.4955 C   0  0  0  0  0  0  0  0  0  0  0  0
    8.8739   50.9850   27.3541 N   0  0  0  0  0  0  0  0  0  0  0  0
    6.6651   46.8274   24.3636 O   0  0  0  0  0  0  0  0  0  0  0  0
    8.2323   48.3556   24.8089 C   0  0  0  0  0  0  0  0  0  0  0  0
    8.1096   52.0710   27.7138 O   0  0  0  0  0  0  0  0  0  0  0  0
   10.1175   51.0777   27.4105 O   0  0  0  0  0  0  0  0  0  0  0  0
    7.6402   46.7409   23.3154 C   0  0  0  0  0  0  0  0  0  0  0  0
    8.6230   47.7344   23.6383 O   0  0  0  0  0  0  0  0  0  0  0  0
    8.8128   40.1841   34.2125 O   0  0  0  0  0  0  0  0  0  0  0  0
   11.2416   40.7945   33.3692 O   0  0  0  0  0  0  0  0  0  0  0  0
   10.9178   40.6904   31.9968 C   0  0  0  0  0  0  0  0  0  0  0  0
   11.5181   39.3813   31.4408 C   0  0  0  0  0  0  0  0  0  0  0  0
   12.7497   39.0870   32.0746 O   0  0  0  0  0  0  0  0  0  0  0  0
   10.6045   38.1891   31.6655 C   0  0  0  0  0  0  0  0  0  0  0  0
   12.9344   37.6801   32.0290 C   0  0  0  0  0  0  0  0  0  0  0  0
    9.6418   38.0758   30.6441 O   0  0  0  0  0  0  0  0  0  0  0  0
   11.5741   37.0170   31.7045 C   0  0  0  0  0  0  0  0  0  0  0  0
   13.4851   37.2126   33.3241 N   0  0  0  0  0  0  0  0  0  0  0  0
   11.6079   36.3407   30.4680 O   0  0  0  0  0  0  0  0  0  0  0  0
   14.4801   36.3321   33.5727 C   0  0  0  0  0  0  0  0  0  0  0  0
   13.1140   37.6277   34.5693 C   0  0  0  0  0  0  0  0  0  0  0  0
   15.2073   35.6155   32.6739 N   0  0  0  0  0  0  0  0  0  0  0  0
   14.6758   36.2306   34.9182 C   0  0  0  0  0  0  0  0  0  0  0  0
   13.8217   37.0451   35.5785 N   0  0  0  0  0  0  0  0  0  0  0  0
   16.1639   34.7602   33.1546 C   0  0  0  0  0  0  0  0  0  0  0  0
   15.6526   35.3506   35.4130 C   0  0  0  0  0  0  0  0  0  0  0  0
   16.3794   34.6316   34.5041 N   0  0  0  0  0  0  0  0  0  0  0  0
   15.9001   35.1933   36.8089 N   0  0  0  0  0  0  0  0  0  0  0  0
    8.9995   45.4380   33.6722 H   0  0  0  0  0  0  0  0  0  0  0  0
   10.7763   46.9368   33.0155 H   0  0  0  0  0  0  0  0  0  0  0  0
   11.0504   46.2277   34.4979 H   0  0  0  0  0  0  0  0  0  0  0  0
    9.3636   43.8351   31.4714 H   0  0  0  0  0  0  0  0  0  0  0  0
   10.7406   44.9069   31.1833 H   0  0  0  0  0  0  0  0  0  0  0  0
    7.0130   44.7166   31.5856 H   0  0  0  0  0  0  0  0  0  0  0  0
   10.3471   47.1871   30.4080 H   0  0  0  0  0  0  0  0  0  0  0  0
    5.4637   46.3038   30.5046 H   0  0  0  0  0  0  0  0  0  0  0  0
    8.8143   48.7663   29.3532 H   0  0  0  0  0  0  0  0  0  0  0  0
    5.4880   50.2268   28.2524 H   0  0  0  0  0  0  0  0  0  0  0  0
    7.0670   50.3359   29.0829 H   0  0  0  0  0  0  0  0  0  0  0  0
    5.5199   47.7832   26.7263 H   0  0  0  0  0  0  0  0  0  0  0  0
    9.7847   49.8084   25.1099 H   0  0  0  0  0  0  0  0  0  0  0  0
    8.1040   45.7324   23.3046 H   0  0  0  0  0  0  0  0  0  0  0  0
    7.1717   46.9699   22.3353 H   0  0  0  0  0  0  0  0  0  0  0  0
   11.3944   41.5458   31.4719 H   0  0  0  0  0  0  0  0  0  0  0  0
    9.8289   40.7385   31.7615 H   0  0  0  0  0  0  0  0  0  0  0  0
   11.6994   39.5068   30.3484 H   0  0  0  0  0  0  0  0  0  0  0  0
   10.1090   38.2634   32.6632 H   0  0  0  0  0  0  0  0  0  0  0  0
   13.6662   37.4515   31.2224 H   0  0  0  0  0  0  0  0  0  0  0  0
    8.9008   38.6923   30.8794 H   0  0  0  0  0  0  0  0  0  0  0  0
   11.2650   36.3083   32.5087 H   0  0  0  0  0  0  0  0  0  0  0  0
   12.1372   35.5141   30.6163 H   0  0  0  0  0  0  0  0  0  0  0  0
   12.3297   38.3530   34.7450 H   0  0  0  0  0  0  0  0  0  0  0  0
   16.7558   34.1781   32.4619 H   0  0  0  0  0  0  0  0  0  0  0  0
   16.6346   34.5300   37.1414 H   0  0  0  0  0  0  0  0  0  0  0  0
   15.3533   35.7360   37.5138 H   0  0  0  0  0  0  0  0  0  0  0  0
  1  2  2  0
  1  3  1  0
  3  4  1  0
  4  5  1  0
  6  1  1  0
  7  6  1  0
  6  8  1  0
  8  9  1  0
  9 10  2  0
 11  9  1  0
 10 12  1  0
 13 11  2  0
 12 14  2  0
 14 13  1  0
 14 15  1  0
 15 16  1  0
 16 17  1  0
 17 18  2  0
 19 17  1  0
 18 20  1  0
 21 19  2  0
 19 22  1  0
 20 23  1  0
 20 24  2  0
 24 21  1  0
 22 25  1  0
 22 26  2  0
 23 27  1  0
 24 28  1  0
 27 28  1  0
  4 29  2  0
  4 30  1  0
 31 30  1  0
 31 32  1  0
 32 33  1  0
 32 34  1  0
 33 35  1  0
 34 36  1  0
 34 37  1  0
 37 35  1  0
 35 38  1  0
 37 39  1  0
 40 38  1  0
 41 38  1  0
 42 40  2  0
 40 43  1  0
 44 41  2  0
 45 42  1  0
 43 46  2  0
 43 44  1  0
 47 45  2  0
 47 46  1  0
 46 48  1  0
  6 49  1  1
  7 50  1  0
  7 51  1  0
  8 52  1  0
  8 53  1  0
 10 54  1  0
 11 55  1  0
 12 56  1  0
 13 57  1  0
 16 58  1  0
 16 59  1  0
 18 60  1  0
 21 61  1  0
 27 62  1  0
 27 63  1  0
 31 64  1  0
 31 65  1  0
 32 66  1  0
 34 67  1  0
 35 68  1  0
 36 69  1  0
 37 70  1  0
 39 71  1  0
 41 72  1  0
 45 73  1  0
 48 74  1  0
 48 75  1  0
M  CHG  3   5  -1  22   1  25  -1
M  END
>  <EmbedRMS>  (149) 
0.0826629742368

$$$$

     RDKit          3D

 75 80  0  0  0  0  0  0  0  0999 V2000
   10.2835   43.7661   33.8257 C   0  0  0  0  0  0  0  0  0  0  0  0
   11.4103   43.5930   34.3753 O   0  0  0  0  0  0  0  0  0  0  0  0
    9.3638   42.7254   33.7351 O   0  0  0  0  0  0  0  0  0  0  0  0
    9.8904   41.2267   34.2947 P   0  0  0  0  0  0  0  0  0  0  0  0
   10.3729   41.4561   35.8843 O   0  0  0  0  0  0  0  0  0  0  0  0
    9.9547   45.0694   33.2037 C   0  0  1  0  0  0  0  0  0  0  0  0
   11.0274   46.0321   33.4756 N   0  0  0  0  0  0  0  0  0  0  0  0
    9.7464   44.8481   31.6878 C   0  0  0  0  0  0  0  0  0  0  0  0
    8.7922   45.8411   31.0850 C   0  0  0  0  0  0  0  0  0  0  0  0
    7.4054   45.6016   31.0990 C   0  0  0  0  0  0  0  0  0  0  0  0
    9.2824   46.9876   30.4422 C   0  0  0  0  0  0  0  0  0  0  0  0
    6.5266   46.5027   30.4830 C   0  0  0  0  0  0  0  0  0  0  0  0
    8.4035   47.8898   29.8314 C   0  0  0  0  0  0  0  0  0  0  0  0
    7.0139   47.6533   29.8480 C   0  0  0  0  0  0  0  0  0  0  0  0
    6.0897   48.5204   29.2400 O   0  0  0  0  0  0  0  0  0  0  0  0
    6.4115   49.7764   28.6371 C   0  0  0  0  0  0  0  0  0  0  0  0
    6.9672   49.6436   27.2296 C   0  0  0  0  0  0  0  0  0  0  0  0
    7.1330   48.3617   26.6419 C   0  0  0  0  0  0  0  0  0  0  0  0
    7.2688   50.8122   26.4478 C   0  0  0  0  0  0  0  0  0  0  0  0
    7.5999   48.2822   25.3372 C   0  0  0  0  0  0  0  0  0  0  0  0
    7.7285   50.6638   25.1187 C   0  0  0  0  0  0  0  0  0  0  0  0
    7.0821   52.1446   26.9601 N   0  0  0  0  0  0  0  0  0  0  0  0
    7.8387   47.1521   24.5788 O   0  0  0  0  0  0  0  0  0  0  0  0
    7.8854   49.3837   24.6083 C   0  0  0  0  0  0  0  0  0  0  0  0
    6.7491   53.1668   26.1011 O   0  0  0  0  0  0  0  0  0  0  0  0
    7.3890   52.4286   28.1354 O   0  0  0  0  0  0  0  0  0  0  0  0
    8.3076   47.5745   23.2911 C   0  0  0  0  0  0  0  0  0  0  0  0
    8.3217   49.0071   23.3526 O   0  0  0  0  0  0  0  0  0  0  0  0
    8.8125   40.1848   34.2126 O   0  0  0  0  0  0  0  0  0  0  0  0
   11.2416   40.7948   33.3707 O   0  0  0  0  0  0  0  0  0  0  0  0
   10.9179   40.6921   31.9984 C   0  0  0  0  0  0  0  0  0  0  0  0
   11.5175   39.3837   31.4423 C   0  0  0  0  0  0  0  0  0  0  0  0
   12.7508   39.0887   32.0752 O   0  0  0  0  0  0  0  0  0  0  0  0
   10.6027   38.1916   31.6659 C   0  0  0  0  0  0  0  0  0  0  0  0
   12.9384   37.6818   32.0278 C   0  0  0  0  0  0  0  0  0  0  0  0
    9.6371   38.0806   30.6470 O   0  0  0  0  0  0  0  0  0  0  0  0
   11.5780   37.0215   31.6935 C   0  0  0  0  0  0  0  0  0  0  0  0
   13.4844   37.2119   33.3242 N   0  0  0  0  0  0  0  0  0  0  0  0
   11.6095   36.3201   30.4679 O   0  0  0  0  0  0  0  0  0  0  0  0
   14.4797   36.3318   33.5730 C   0  0  0  0  0  0  0  0  0  0  0  0
   13.1136   37.6278   34.5691 C   0  0  0  0  0  0  0  0  0  0  0  0
   15.2073   35.6155   32.6742 N   0  0  0  0  0  0  0  0  0  0  0  0
   14.6754   36.2305   34.9184 C   0  0  0  0  0  0  0  0  0  0  0  0
   13.8213   37.0452   35.5785 N   0  0  0  0  0  0  0  0  0  0  0  0
   16.1640   34.7604   33.1549 C   0  0  0  0  0  0  0  0  0  0  0  0
   15.6524   35.3507   35.4132 C   0  0  0  0  0  0  0  0  0  0  0  0
   16.3794   34.6318   34.5044 N   0  0  0  0  0  0  0  0  0  0  0  0
   15.9000   35.1934   36.8091 N   0  0  0  0  0  0  0  0  0  0  0  0
    9.0122   45.4317   33.6717 H   0  0  0  0  0  0  0  0  0  0  0  0
   11.8906   45.7657   32.9469 H   0  0  0  0  0  0  0  0  0  0  0  0
   10.7260   46.9687   33.1211 H   0  0  0  0  0  0  0  0  0  0  0  0
    9.3409   43.8330   31.4765 H   0  0  0  0  0  0  0  0  0  0  0  0
   10.7227   44.8812   31.1556 H   0  0  0  0  0  0  0  0  0  0  0  0
    7.0083   44.7164   31.5804 H   0  0  0  0  0  0  0  0  0  0  0  0
   10.3473   47.1826   30.4081 H   0  0  0  0  0  0  0  0  0  0  0  0
    5.4623   46.3052   30.4986 H   0  0  0  0  0  0  0  0  0  0  0  0
    8.8180   48.7562   29.3354 H   0  0  0  0  0  0  0  0  0  0  0  0
    7.1200   50.3210   29.2940 H   0  0  0  0  0  0  0  0  0  0  0  0
    5.4775   50.3742   28.5831 H   0  0  0  0  0  0  0  0  0  0  0  0
    6.8954   47.4467   27.1649 H   0  0  0  0  0  0  0  0  0  0  0  0
    7.9647   51.5226   24.5038 H   0  0  0  0  0  0  0  0  0  0  0  0
    9.3327   47.1886   23.1101 H   0  0  0  0  0  0  0  0  0  0  0  0
    7.6112   47.2317   22.4974 H   0  0  0  0  0  0  0  0  0  0  0  0
    9.8291   40.7409   31.7627 H   0  0  0  0  0  0  0  0  0  0  0  0
   11.3952   41.5478   31.4744 H   0  0  0  0  0  0  0  0  0  0  0  0
   11.6981   39.5115   30.3501 H   0  0  0  0  0  0  0  0  0  0  0  0
   10.1117   38.2604   32.6661 H   0  0  0  0  0  0  0  0  0  0  0  0
   13.6767   37.4556   31.2267 H   0  0  0  0  0  0  0  0  0  0  0  0
    8.8961   38.6952   30.8872 H   0  0  0  0  0  0  0  0  0  0  0  0
   11.2791   36.3072   32.4922 H   0  0  0  0  0  0  0  0  0  0  0  0
   11.8828   36.9598   29.7589 H   0  0  0  0  0  0  0  0  0  0  0  0
   12.3300   38.3539   34.7446 H   0  0  0  0  0  0  0  0  0  0  0  0
   16.7562   34.1786   32.4622 H   0  0  0  0  0  0  0  0  0  0  0  0
   15.3531   35.7361   37.5140 H   0  0  0  0  0  0  0  0  0  0  0  0
   16.6347   34.5303   37.1416 H   0  0  0  0  0  0  0  0  0  0  0  0
  1  2  2  0
  1  3  1  0
  3  4  1  0
  4  5  1  0
  6  1  1  0
  7  6  1  0
  6  8  1  0
  8  9  1  0
  9 10  2  0
 11  9  1  0
 10 12  1  0
 13 11  2  0
 12 14  2  0
 14 13  1  0
 14 15  1  0
 15 16  1  0
 16 17  1  0
 17 18  2  0
 19 17  1  0
 18 20  1  0
 21 19  2  0
 19 22  1  0
 20 23  1  0
 20 24  2  0
 24 21  1  0
 22 25  1  0
 22 26  2  0
 23 27  1  0
 24 28  1  0
 27 28  1  0
  4 29  2  0
  4 30  1  0
 31 30  1  0
 31 32  1  0
 32 33  1  0
 32 34  1  0
 33 35  1  0
 34 36  1  0
 34 37  1  0
 37 35  1  0
 35 38  1  0
 37 39  1  0
 40 38  1  0
 41 38  1  0
 42 40  2  0
 40 43  1  0
 44 41  2  0
 45 42  1  0
 43 46  2  0
 43 44  1  0
 47 45  2  0
 47 46  1  0
 46 48  1  0
  6 49  1  1
  7 50  1  0
  7 51  1  0
  8 52  1  0
  8 53  1  0
 10 54  1  0
 11 55  1  0
 12 56  1  0
 13 57  1  0
 16 58  1  0
 16 59  1  0
 18 60  1  0
 21 61  1  0
 27 62  1  0
 27 63  1  0
 31 64  1  0
 31 65  1  0
 32 66  1  0
 34 67  1  0
 35 68  1  0
 36 69  1  0
 37 70  1  0
 39 71  1  0
 41 72  1  0
 45 73  1  0
 48 74  1  0
 48 75  1  0
M  CHG  3   5  -1  22   1  25  -1
M  END
>  <EmbedRMS>  (150) 
0.0819707260908

$$$$

     RDKit          3D

 75 80  0  0  0  0  0  0  0  0999 V2000
   10.2840   43.7626   33.8276 C   0  0  0  0  0  0  0  0  0  0  0  0
   11.4104   43.5864   34.3768 O   0  0  0  0  0  0  0  0  0  0  0  0
    9.3634   42.7234   33.7352 O   0  0  0  0  0  0  0  0  0  0  0  0
    9.8899   41.2247   34.2940 P   0  0  0  0  0  0  0  0  0  0  0  0
   10.3724   41.4544   35.8837 O   0  0  0  0  0  0  0  0  0  0  0  0
    9.9548   45.0699   33.2066 C   0  0  1  0  0  0  0  0  0  0  0  0
   11.0197   46.0481   33.4569 N   0  0  0  0  0  0  0  0  0  0  0  0
    9.7500   44.8509   31.6926 C   0  0  0  0  0  0  0  0  0  0  0  0
    8.7941   45.8420   31.0874 C   0  0  0  0  0  0  0  0  0  0  0  0
    7.4074   45.6006   31.0993 C   0  0  0  0  0  0  0  0  0  0  0  0
    9.2832   46.9887   30.4443 C   0  0  0  0  0  0  0  0  0  0  0  0
    6.5281   46.5012   30.4829 C   0  0  0  0  0  0  0  0  0  0  0  0
    8.4037   47.8891   29.8314 C   0  0  0  0  0  0  0  0  0  0  0  0
    7.0146   47.6534   29.8501 C   0  0  0  0  0  0  0  0  0  0  0  0
    6.0885   48.5267   29.2578 O   0  0  0  0  0  0  0  0  0  0  0  0
    6.3929   49.8153   28.7220 C   0  0  0  0  0  0  0  0  0  0  0  0
    6.7777   50.7802   29.8202 C   0  0  0  0  0  0  0  0  0  0  0  0
    8.0110   51.4651   29.7111 C   0  0  0  0  0  0  0  0  0  0  0  0
    5.9545   50.9873   30.9784 C   0  0  0  0  0  0  0  0  0  0  0  0
    8.3996   52.2992   30.7507 C   0  0  0  0  0  0  0  0  0  0  0  0
    6.4113   51.8396   32.0103 C   0  0  0  0  0  0  0  0  0  0  0  0
    4.6787   50.3400   31.1333 N   0  0  0  0  0  0  0  0  0  0  0  0
    9.5534   53.0507   30.8634 O   0  0  0  0  0  0  0  0  0  0  0  0
    7.6356   52.4757   31.8530 C   0  0  0  0  0  0  0  0  0  0  0  0
    4.2017   50.0560   32.3923 O   0  0  0  0  0  0  0  0  0  0  0  0
    3.9196   50.1825   30.1555 O   0  0  0  0  0  0  0  0  0  0  0  0
    9.5091   53.7436   32.1182 C   0  0  0  0  0  0  0  0  0  0  0  0
    8.2677   53.3483   32.7178 O   0  0  0  0  0  0  0  0  0  0  0  0
    8.8119   40.1831   34.2121 O   0  0  0  0  0  0  0  0  0  0  0  0
   11.2416   40.7932   33.3699 O   0  0  0  0  0  0  0  0  0  0  0  0
   10.9186   40.6909   31.9972 C   0  0  0  0  0  0  0  0  0  0  0  0
   11.5172   39.3814   31.4407 C   0  0  0  0  0  0  0  0  0  0  0  0
   12.7493   39.0855   32.0727 O   0  0  0  0  0  0  0  0  0  0  0  0
   10.6023   38.1907   31.6665 C   0  0  0  0  0  0  0  0  0  0  0  0
   12.9319   37.6781   32.0281 C   0  0  0  0  0  0  0  0  0  0  0  0
    9.6392   38.0797   30.6452 O   0  0  0  0  0  0  0  0  0  0  0  0
   11.5715   37.0165   31.7056 C   0  0  0  0  0  0  0  0  0  0  0  0
   13.4846   37.2121   33.3235 N   0  0  0  0  0  0  0  0  0  0  0  0
   11.6187   36.3383   30.4694 O   0  0  0  0  0  0  0  0  0  0  0  0
   14.4801   36.3321   33.5724 C   0  0  0  0  0  0  0  0  0  0  0  0
   13.1137   37.6275   34.5687 C   0  0  0  0  0  0  0  0  0  0  0  0
   15.2073   35.6153   32.6738 N   0  0  0  0  0  0  0  0  0  0  0  0
   14.6759   36.2308   34.9179 C   0  0  0  0  0  0  0  0  0  0  0  0
   13.8216   37.0452   35.5781 N   0  0  0  0  0  0  0  0  0  0  0  0
   16.1640   34.7602   33.1546 C   0  0  0  0  0  0  0  0  0  0  0  0
   15.6526   35.3508   35.4129 C   0  0  0  0  0  0  0  0  0  0  0  0
   16.3794   34.6317   34.5041 N   0  0  0  0  0  0  0  0  0  0  0  0
   15.8999   35.1935   36.8088 N   0  0  0  0  0  0  0  0  0  0  0  0
    9.0098   45.4348   33.6673 H   0  0  0  0  0  0  0  0  0  0  0  0
   11.1134   46.1994   34.4882 H   0  0  0  0  0  0  0  0  0  0  0  0
   11.9347   45.6934   33.0925 H   0  0  0  0  0  0  0  0  0  0  0  0
    9.3506   43.8344   31.4765 H   0  0  0  0  0  0  0  0  0  0  0  0
   10.7302   44.8922   31.1677 H   0  0  0  0  0  0  0  0  0  0  0  0
    7.0108   44.7154   31.5810 H   0  0  0  0  0  0  0  0  0  0  0  0
   10.3478   47.1861   30.4130 H   0  0  0  0  0  0  0  0  0  0  0  0
    5.4635   46.3051   30.5015 H   0  0  0  0  0  0  0  0  0  0  0  0
    8.8176   48.7562   29.3386 H   0  0  0  0  0  0  0  0  0  0  0  0
    5.4973   50.2065   28.1975 H   0  0  0  0  0  0  0  0  0  0  0  0
    7.1868   49.7211   27.9496 H   0  0  0  0  0  0  0  0  0  0  0  0
    8.6562   51.3396   28.8508 H   0  0  0  0  0  0  0  0  0  0  0  0
    5.8219   52.0149   32.9009 H   0  0  0  0  0  0  0  0  0  0  0  0
   10.3604   53.4323   32.7592 H   0  0  0  0  0  0  0  0  0  0  0  0
    9.5218   54.8412   31.9516 H   0  0  0  0  0  0  0  0  0  0  0  0
    9.8300   40.7410   31.7611 H   0  0  0  0  0  0  0  0  0  0  0  0
   11.3971   41.5459   31.4735 H   0  0  0  0  0  0  0  0  0  0  0  0
   11.6974   39.5067   30.3480 H   0  0  0  0  0  0  0  0  0  0  0  0
   10.1077   38.2647   32.6645 H   0  0  0  0  0  0  0  0  0  0  0  0
   13.6621   37.4467   31.2208 H   0  0  0  0  0  0  0  0  0  0  0  0
    8.8975   38.6943   30.8831 H   0  0  0  0  0  0  0  0  0  0  0  0
   11.2806   36.3073   32.5170 H   0  0  0  0  0  0  0  0  0  0  0  0
   10.8492   35.7110   30.4586 H   0  0  0  0  0  0  0  0  0  0  0  0
   12.3290   38.3523   34.7444 H   0  0  0  0  0  0  0  0  0  0  0  0
   16.7560   34.1780   32.4619 H   0  0  0  0  0  0  0  0  0  0  0  0
   16.6344   34.5301   37.1414 H   0  0  0  0  0  0  0  0  0  0  0  0
   15.3531   35.7363   37.5137 H   0  0  0  0  0  0  0  0  0  0  0  0
  1  2  2  0
  1  3  1  0
  3  4  1  0
  4  5  1  0
  6  1  1  0
  7  6  1  0
  6  8  1  0
  8  9  1  0
  9 10  2  0
 11  9  1  0
 10 12  1  0
 13 11  2  0
 12 14  2  0
 14 13  1  0
 14 15  1  0
 15 16  1  0
 16 17  1  0
 17 18  2  0
 19 17  1  0
 18 20  1  0
 21 19  2  0
 19 22  1  0
 20 23  1  0
 20 24  2  0
 24 21  1  0
 22 25  1  0
 22 26  2  0
 23 27  1  0
 24 28  1  0
 27 28  1  0
  4 29  2  0
  4 30  1  0
 31 30  1  0
 31 32  1  0
 32 33  1  0
 32 34  1  0
 33 35  1  0
 34 36  1  0
 34 37  1  0
 37 35  1  0
 35 38  1  0
 37 39  1  0
 40 38  1  0
 41 38  1  0
 42 40  2  0
 40 43  1  0
 44 41  2  0
 45 42  1  0
 43 46  2  0
 43 44  1  0
 47 45  2  0
 47 46  1  0
 46 48  1  0
  6 49  1  1
  7 50  1  0
  7 51  1  0
  8 52  1  0
  8 53  1  0
 10 54  1  0
 11 55  1  0
 12 56  1  0
 13 57  1  0
 16 58  1  0
 16 59  1  0
 18 60  1  0
 21 61  1  0
 27 62  1  0
 27 63  1  0
 31 64  1  0
 31 65  1  0
 32 66  1  0
 34 67  1  0
 35 68  1  0
 36 69  1  0
 37 70  1  0
 39 71  1  0
 41 72  1  0
 45 73  1  0
 48 74  1  0
 48 75  1  0
M  CHG  3   5  -1  22   1  25  -1
M  END
>  <EmbedRMS>  (151) 
0.0838299063951

$$$$

     RDKit          3D

 75 80  0  0  0  0  0  0  0  0999 V2000
   10.2839   43.7625   33.8275 C   0  0  0  0  0  0  0  0  0  0  0  0
   11.4104   43.5864   34.3767 O   0  0  0  0  0  0  0  0  0  0  0  0
    9.3634   42.7233   33.7351 O   0  0  0  0  0  0  0  0  0  0  0  0
    9.8899   41.2246   34.2940 P   0  0  0  0  0  0  0  0  0  0  0  0
   10.3724   41.4544   35.8837 O   0  0  0  0  0  0  0  0  0  0  0  0
    9.9548   45.0698   33.2063 C   0  0  1  0  0  0  0  0  0  0  0  0
   11.0198   46.0480   33.4567 N   0  0  0  0  0  0  0  0  0  0  0  0
    9.7501   44.8507   31.6922 C   0  0  0  0  0  0  0  0  0  0  0  0
    8.7943   45.8415   31.0866 C   0  0  0  0  0  0  0  0  0  0  0  0
    7.4074   45.6013   31.1005 C   0  0  0  0  0  0  0  0  0  0  0  0
    9.2832   46.9893   30.4452 C   0  0  0  0  0  0  0  0  0  0  0  0
    6.5279   46.5025   30.4852 C   0  0  0  0  0  0  0  0  0  0  0  0
    8.4035   47.8904   29.8336 C   0  0  0  0  0  0  0  0  0  0  0  0
    7.0149   47.6505   29.8454 C   0  0  0  0  0  0  0  0  0  0  0  0
    6.0898   48.5163   29.2406 O   0  0  0  0  0  0  0  0  0  0  0  0
    6.4208   49.6387   28.4218 C   0  0  0  0  0  0  0  0  0  0  0  0
    7.0285   49.1929   27.1118 C   0  0  0  0  0  0  0  0  0  0  0  0
    8.2768   49.7383   26.7296 C   0  0  0  0  0  0  0  0  0  0  0  0
    6.4004   48.2112   26.2749 C   0  0  0  0  0  0  0  0  0  0  0  0
    8.8694   49.2807   25.5603 C   0  0  0  0  0  0  0  0  0  0  0  0
    7.0599   47.7754   25.1013 C   0  0  0  0  0  0  0  0  0  0  0  0
    5.1192   47.6443   26.6031 N   0  0  0  0  0  0  0  0  0  0  0  0
   10.0759   49.6594   25.0036 O   0  0  0  0  0  0  0  0  0  0  0  0
    8.2886   48.3385   24.7825 C   0  0  0  0  0  0  0  0  0  0  0  0
    4.1158   48.4297   27.1205 O   0  0  0  0  0  0  0  0  0  0  0  0
    4.8505   46.4717   26.2691 O   0  0  0  0  0  0  0  0  0  0  0  0
   10.2627   48.9054   23.7981 C   0  0  0  0  0  0  0  0  0  0  0  0
    9.0983   48.0746   23.6946 O   0  0  0  0  0  0  0  0  0  0  0  0
    8.8119   40.1831   34.2121 O   0  0  0  0  0  0  0  0  0  0  0  0
   11.2416   40.7932   33.3699 O   0  0  0  0  0  0  0  0  0  0  0  0
   10.9187   40.6909   31.9972 C   0  0  0  0  0  0  0  0  0  0  0  0
   11.5172   39.3814   31.4407 C   0  0  0  0  0  0  0  0  0  0  0  0
   12.7493   39.0855   32.0727 O   0  0  0  0  0  0  0  0  0  0  0  0
   10.6023   38.1907   31.6665 C   0  0  0  0  0  0  0  0  0  0  0  0
   12.9319   37.6781   32.0281 C   0  0  0  0  0  0  0  0  0  0  0  0
    9.6392   38.0797   30.6451 O   0  0  0  0  0  0  0  0  0  0  0  0
   11.5715   37.0165   31.7056 C   0  0  0  0  0  0  0  0  0  0  0  0
   13.4847   37.2121   33.3235 N   0  0  0  0  0  0  0  0  0  0  0  0
   11.6187   36.3383   30.4694 O   0  0  0  0  0  0  0  0  0  0  0  0
   14.4801   36.3321   33.5724 C   0  0  0  0  0  0  0  0  0  0  0  0
   13.1137   37.6275   34.5687 C   0  0  0  0  0  0  0  0  0  0  0  0
   15.2073   35.6153   32.6738 N   0  0  0  0  0  0  0  0  0  0  0  0
   14.6759   36.2308   34.9179 C   0  0  0  0  0  0  0  0  0  0  0  0
   13.8216   37.0452   35.5781 N   0  0  0  0  0  0  0  0  0  0  0  0
   16.1640   34.7602   33.1546 C   0  0  0  0  0  0  0  0  0  0  0  0
   15.6526   35.3508   35.4129 C   0  0  0  0  0  0  0  0  0  0  0  0
   16.3794   34.6317   34.5041 N   0  0  0  0  0  0  0  0  0  0  0  0
   15.8999   35.1935   36.8088 N   0  0  0  0  0  0  0  0  0  0  0  0
    9.0098   45.4347   33.6669 H   0  0  0  0  0  0  0  0  0  0  0  0
   11.9348   45.6933   33.0923 H   0  0  0  0  0  0  0  0  0  0  0  0
   11.1134   46.1992   34.4880 H   0  0  0  0  0  0  0  0  0  0  0  0
   10.7304   44.8921   31.1673 H   0  0  0  0  0  0  0  0  0  0  0  0
    9.3509   43.8342   31.4761 H   0  0  0  0  0  0  0  0  0  0  0  0
    7.0107   44.7163   31.5827 H   0  0  0  0  0  0  0  0  0  0  0  0
   10.3473   47.1895   30.4188 H   0  0  0  0  0  0  0  0  0  0  0  0
    5.4636   46.3048   30.5013 H   0  0  0  0  0  0  0  0  0  0  0  0
    8.8155   48.7697   29.3610 H   0  0  0  0  0  0  0  0  0  0  0  0
    5.4968   50.2146   28.2113 H   0  0  0  0  0  0  0  0  0  0  0  0
    7.0916   50.3256   28.9823 H   0  0  0  0  0  0  0  0  0  0  0  0
    8.7791   50.4844   27.3323 H   0  0  0  0  0  0  0  0  0  0  0  0
    6.6199   47.0322   24.4489 H   0  0  0  0  0  0  0  0  0  0  0  0
   10.3257   49.5874   22.9244 H   0  0  0  0  0  0  0  0  0  0  0  0
   11.1754   48.2779   23.8751 H   0  0  0  0  0  0  0  0  0  0  0  0
   11.3972   41.5459   31.4735 H   0  0  0  0  0  0  0  0  0  0  0  0
    9.8300   40.7410   31.7610 H   0  0  0  0  0  0  0  0  0  0  0  0
   11.6974   39.5067   30.3480 H   0  0  0  0  0  0  0  0  0  0  0  0
   10.1077   38.2647   32.6645 H   0  0  0  0  0  0  0  0  0  0  0  0
   13.6621   37.4467   31.2208 H   0  0  0  0  0  0  0  0  0  0  0  0
    8.8975   38.6944   30.8830 H   0  0  0  0  0  0  0  0  0  0  0  0
   11.2806   36.3073   32.5170 H   0  0  0  0  0  0  0  0  0  0  0  0
   10.8493   35.7110   30.4585 H   0  0  0  0  0  0  0  0  0  0  0  0
   12.3290   38.3524   34.7444 H   0  0  0  0  0  0  0  0  0  0  0  0
   16.7559   34.1780   32.4619 H   0  0  0  0  0  0  0  0  0  0  0  0
   15.3531   35.7362   37.5137 H   0  0  0  0  0  0  0  0  0  0  0  0
   16.6344   34.5301   37.1414 H   0  0  0  0  0  0  0  0  0  0  0  0
  1  2  2  0
  1  3  1  0
  3  4  1  0
  4  5  1  0
  6  1  1  0
  7  6  1  0
  6  8  1  0
  8  9  1  0
  9 10  2  0
 11  9  1  0
 10 12  1  0
 13 11  2  0
 12 14  2  0
 14 13  1  0
 14 15  1  0
 15 16  1  0
 16 17  1  0
 17 18  2  0
 19 17  1  0
 18 20  1  0
 21 19  2  0
 19 22  1  0
 20 23  1  0
 20 24  2  0
 24 21  1  0
 22 25  1  0
 22 26  2  0
 23 27  1  0
 24 28  1  0
 27 28  1  0
  4 29  2  0
  4 30  1  0
 31 30  1  0
 31 32  1  0
 32 33  1  0
 32 34  1  0
 33 35  1  0
 34 36  1  0
 34 37  1  0
 37 35  1  0
 35 38  1  0
 37 39  1  0
 40 38  1  0
 41 38  1  0
 42 40  2  0
 40 43  1  0
 44 41  2  0
 45 42  1  0
 43 46  2  0
 43 44  1  0
 47 45  2  0
 47 46  1  0
 46 48  1  0
  6 49  1  1
  7 50  1  0
  7 51  1  0
  8 52  1  0
  8 53  1  0
 10 54  1  0
 11 55  1  0
 12 56  1  0
 13 57  1  0
 16 58  1  0
 16 59  1  0
 18 60  1  0
 21 61  1  0
 27 62  1  0
 27 63  1  0
 31 64  1  0
 31 65  1  0
 32 66  1  0
 34 67  1  0
 35 68  1  0
 36 69  1  0
 37 70  1  0
 39 71  1  0
 41 72  1  0
 45 73  1  0
 48 74  1  0
 48 75  1  0
M  CHG  3   5  -1  22   1  25  -1
M  END
>  <EmbedRMS>  (152) 
0.0838480241197

$$$$

     RDKit          3D

 75 80  0  0  0  0  0  0  0  0999 V2000
   10.2839   43.7626   33.8276 C   0  0  0  0  0  0  0  0  0  0  0  0
   11.4103   43.5863   34.3766 O   0  0  0  0  0  0  0  0  0  0  0  0
    9.3631   42.7236   33.7353 O   0  0  0  0  0  0  0  0  0  0  0  0
    9.8894   41.2249   34.2944 P   0  0  0  0  0  0  0  0  0  0  0  0
   10.3726   41.4547   35.8838 O   0  0  0  0  0  0  0  0  0  0  0  0
    9.9549   45.0700   33.2064 C   0  0  1  0  0  0  0  0  0  0  0  0
   11.0198   46.0481   33.4571 N   0  0  0  0  0  0  0  0  0  0  0  0
    9.7506   44.8512   31.6923 C   0  0  0  0  0  0  0  0  0  0  0  0
    8.7943   45.8419   31.0869 C   0  0  0  0  0  0  0  0  0  0  0  0
    7.4074   45.6004   31.1004 C   0  0  0  0  0  0  0  0  0  0  0  0
    9.2827   46.9894   30.4445 C   0  0  0  0  0  0  0  0  0  0  0  0
    6.5254   46.4998   30.4852 C   0  0  0  0  0  0  0  0  0  0  0  0
    8.4011   47.8885   29.8330 C   0  0  0  0  0  0  0  0  0  0  0  0
    7.0196   47.6551   29.8460 C   0  0  0  0  0  0  0  0  0  0  0  0
    6.1800   48.5865   29.2180 O   0  0  0  0  0  0  0  0  0  0  0  0
    4.7589   48.4802   29.1564 C   0  0  0  0  0  0  0  0  0  0  0  0
    4.1911   49.6872   28.4508 C   0  0  0  0  0  0  0  0  0  0  0  0
    4.6130   50.9675   28.8808 C   0  0  0  0  0  0  0  0  0  0  0  0
    3.2744   49.5803   27.3531 C   0  0  0  0  0  0  0  0  0  0  0  0
    4.1587   52.0821   28.1876 C   0  0  0  0  0  0  0  0  0  0  0  0
    2.8605   50.7487   26.6742 C   0  0  0  0  0  0  0  0  0  0  0  0
    2.7335   48.3168   26.9387 N   0  0  0  0  0  0  0  0  0  0  0  0
    4.4474   53.4136   28.4175 O   0  0  0  0  0  0  0  0  0  0  0  0
    3.3249   51.9770   27.1270 C   0  0  0  0  0  0  0  0  0  0  0  0
    2.5020   48.0789   25.6035 O   0  0  0  0  0  0  0  0  0  0  0  0
    2.2373   47.5425   27.7827 O   0  0  0  0  0  0  0  0  0  0  0  0
    3.7485   54.1934   27.4376 C   0  0  0  0  0  0  0  0  0  0  0  0
    3.0439   53.2367   26.6341 O   0  0  0  0  0  0  0  0  0  0  0  0
    8.8114   40.1834   34.2129 O   0  0  0  0  0  0  0  0  0  0  0  0
   11.2402   40.7930   33.3696 O   0  0  0  0  0  0  0  0  0  0  0  0
   10.9151   40.6903   31.9975 C   0  0  0  0  0  0  0  0  0  0  0  0
   11.5252   39.3885   31.4375 C   0  0  0  0  0  0  0  0  0  0  0  0
   12.7500   39.0873   32.0798 O   0  0  0  0  0  0  0  0  0  0  0  0
   10.6092   38.1925   31.6469 C   0  0  0  0  0  0  0  0  0  0  0  0
   12.9332   37.6792   32.0294 C   0  0  0  0  0  0  0  0  0  0  0  0
    9.6122   38.0894   30.6542 O   0  0  0  0  0  0  0  0  0  0  0  0
   11.5743   37.0144   31.7024 C   0  0  0  0  0  0  0  0  0  0  0  0
   13.4844   37.2107   33.3241 N   0  0  0  0  0  0  0  0  0  0  0  0
   11.6297   36.3238   30.4740 O   0  0  0  0  0  0  0  0  0  0  0  0
   14.4802   36.3313   33.5727 C   0  0  0  0  0  0  0  0  0  0  0  0
   13.1139   37.6266   34.5692 C   0  0  0  0  0  0  0  0  0  0  0  0
   15.2075   35.6149   32.6739 N   0  0  0  0  0  0  0  0  0  0  0  0
   14.6761   36.2303   34.9181 C   0  0  0  0  0  0  0  0  0  0  0  0
   13.8220   37.0447   35.5784 N   0  0  0  0  0  0  0  0  0  0  0  0
   16.1643   34.7600   33.1547 C   0  0  0  0  0  0  0  0  0  0  0  0
   15.6529   35.3505   35.4130 C   0  0  0  0  0  0  0  0  0  0  0  0
   16.3798   34.6315   34.5042 N   0  0  0  0  0  0  0  0  0  0  0  0
   15.9003   35.1932   36.8090 N   0  0  0  0  0  0  0  0  0  0  0  0
    9.0099   45.4349   33.6670 H   0  0  0  0  0  0  0  0  0  0  0  0
   11.9349   45.6934   33.0928 H   0  0  0  0  0  0  0  0  0  0  0  0
   11.1133   46.1992   34.4884 H   0  0  0  0  0  0  0  0  0  0  0  0
   10.7309   44.8933   31.1676 H   0  0  0  0  0  0  0  0  0  0  0  0
    9.3519   43.8345   31.4758 H   0  0  0  0  0  0  0  0  0  0  0  0
    7.0123   44.7148   31.5829 H   0  0  0  0  0  0  0  0  0  0  0  0
   10.3467   47.1896   30.4150 H   0  0  0  0  0  0  0  0  0  0  0  0
    5.4657   46.2864   30.5125 H   0  0  0  0  0  0  0  0  0  0  0  0
    8.7937   48.7709   29.3435 H   0  0  0  0  0  0  0  0  0  0  0  0
    4.3440   48.4469   30.1868 H   0  0  0  0  0  0  0  0  0  0  0  0
    4.5048   47.5374   28.6334 H   0  0  0  0  0  0  0  0  0  0  0  0
    5.2912   51.0879   29.7164 H   0  0  0  0  0  0  0  0  0  0  0  0
    2.1736   50.7020   25.8390 H   0  0  0  0  0  0  0  0  0  0  0  0
    3.0307   54.8797   27.9337 H   0  0  0  0  0  0  0  0  0  0  0  0
    4.4696   54.7612   26.8131 H   0  0  0  0  0  0  0  0  0  0  0  0
    9.8243   40.7216   31.7640 H   0  0  0  0  0  0  0  0  0  0  0  0
   11.3806   41.5528   31.4740 H   0  0  0  0  0  0  0  0  0  0  0  0
   11.7265   39.5311   30.3512 H   0  0  0  0  0  0  0  0  0  0  0  0
   10.1110   38.2746   32.6387 H   0  0  0  0  0  0  0  0  0  0  0  0
   13.6652   37.4518   31.2226 H   0  0  0  0  0  0  0  0  0  0  0  0
   10.0511   38.1143   29.7644 H   0  0  0  0  0  0  0  0  0  0  0  0
   11.2762   36.3141   32.5189 H   0  0  0  0  0  0  0  0  0  0  0  0
   10.8593   35.6977   30.4640 H   0  0  0  0  0  0  0  0  0  0  0  0
   12.3294   38.3518   34.7449 H   0  0  0  0  0  0  0  0  0  0  0  0
   16.7564   34.1780   32.4620 H   0  0  0  0  0  0  0  0  0  0  0  0
   16.6349   34.5300   37.1416 H   0  0  0  0  0  0  0  0  0  0  0  0
   15.3534   35.7359   37.5138 H   0  0  0  0  0  0  0  0  0  0  0  0
  1  2  2  0
  1  3  1  0
  3  4  1  0
  4  5  1  0
  6  1  1  0
  7  6  1  0
  6  8  1  0
  8  9  1  0
  9 10  2  0
 11  9  1  0
 10 12  1  0
 13 11  2  0
 12 14  2  0
 14 13  1  0
 14 15  1  0
 15 16  1  0
 16 17  1  0
 17 18  2  0
 19 17  1  0
 18 20  1  0
 21 19  2  0
 19 22  1  0
 20 23  1  0
 20 24  2  0
 24 21  1  0
 22 25  1  0
 22 26  2  0
 23 27  1  0
 24 28  1  0
 27 28  1  0
  4 29  2  0
  4 30  1  0
 31 30  1  0
 31 32  1  0
 32 33  1  0
 32 34  1  0
 33 35  1  0
 34 36  1  0
 34 37  1  0
 37 35  1  0
 35 38  1  0
 37 39  1  0
 40 38  1  0
 41 38  1  0
 42 40  2  0
 40 43  1  0
 44 41  2  0
 45 42  1  0
 43 46  2  0
 43 44  1  0
 47 45  2  0
 47 46  1  0
 46 48  1  0
  6 49  1  1
  7 50  1  0
  7 51  1  0
  8 52  1  0
  8 53  1  0
 10 54  1  0
 11 55  1  0
 12 56  1  0
 13 57  1  0
 16 58  1  0
 16 59  1  0
 18 60  1  0
 21 61  1  0
 27 62  1  0
 27 63  1  0
 31 64  1  0
 31 65  1  0
 32 66  1  0
 34 67  1  0
 35 68  1  0
 36 69  1  0
 37 70  1  0
 39 71  1  0
 41 72  1  0
 45 73  1  0
 48 74  1  0
 48 75  1  0
M  CHG  3   5  -1  22   1  25  -1
M  END
>  <EmbedRMS>  (153) 
0.0827031416191

$$$$

     RDKit          3D

 75 80  0  0  0  0  0  0  0  0999 V2000
   10.2838   43.7626   33.8276 C   0  0  0  0  0  0  0  0  0  0  0  0
   11.4103   43.5863   34.3766 O   0  0  0  0  0  0  0  0  0  0  0  0
    9.3630   42.7236   33.7354 O   0  0  0  0  0  0  0  0  0  0  0  0
    9.8897   41.2248   34.2935 P   0  0  0  0  0  0  0  0  0  0  0  0
   10.3735   41.4542   35.8829 O   0  0  0  0  0  0  0  0  0  0  0  0
    9.9548   45.0700   33.2064 C   0  0  1  0  0  0  0  0  0  0  0  0
   11.0198   46.0480   33.4568 N   0  0  0  0  0  0  0  0  0  0  0  0
    9.7500   44.8508   31.6924 C   0  0  0  0  0  0  0  0  0  0  0  0
    8.7942   45.8419   31.0870 C   0  0  0  0  0  0  0  0  0  0  0  0
    7.4072   45.6010   31.1001 C   0  0  0  0  0  0  0  0  0  0  0  0
    9.2834   46.9893   30.4448 C   0  0  0  0  0  0  0  0  0  0  0  0
    6.5276   46.5019   30.4842 C   0  0  0  0  0  0  0  0  0  0  0  0
    8.4037   47.8901   29.8323 C   0  0  0  0  0  0  0  0  0  0  0  0
    7.0150   47.6515   29.8475 C   0  0  0  0  0  0  0  0  0  0  0  0
    6.0939   48.5211   29.2462 O   0  0  0  0  0  0  0  0  0  0  0  0
    6.4458   49.7136   28.5485 C   0  0  0  0  0  0  0  0  0  0  0  0
    5.2026   50.3615   27.9942 C   0  0  0  0  0  0  0  0  0  0  0  0
    4.9074   51.6913   28.3784 C   0  0  0  0  0  0  0  0  0  0  0  0
    4.2976   49.6581   27.1300 C   0  0  0  0  0  0  0  0  0  0  0  0
    3.7359   52.2716   27.9105 C   0  0  0  0  0  0  0  0  0  0  0  0
    3.1128   50.2997   26.6966 C   0  0  0  0  0  0  0  0  0  0  0  0
    4.5498   48.3060   26.7045 N   0  0  0  0  0  0  0  0  0  0  0  0
    3.2489   53.5413   28.1553 O   0  0  0  0  0  0  0  0  0  0  0  0
    2.8757   51.6047   27.1073 C   0  0  0  0  0  0  0  0  0  0  0  0
    5.8207   47.8955   26.3765 O   0  0  0  0  0  0  0  0  0  0  0  0
    3.5947   47.5356   26.4740 O   0  0  0  0  0  0  0  0  0  0  0  0
    2.0027   53.6789   27.4591 C   0  0  0  0  0  0  0  0  0  0  0  0
    1.8021   52.4194   26.8031 O   0  0  0  0  0  0  0  0  0  0  0  0
    8.8114   40.1834   34.2127 O   0  0  0  0  0  0  0  0  0  0  0  0
   11.2398   40.7937   33.3671 O   0  0  0  0  0  0  0  0  0  0  0  0
   10.9125   40.6857   31.9955 C   0  0  0  0  0  0  0  0  0  0  0  0
   11.5175   39.3786   31.4405 C   0  0  0  0  0  0  0  0  0  0  0  0
   12.7490   39.0863   32.0751 O   0  0  0  0  0  0  0  0  0  0  0  0
   10.6061   38.1867   31.6656 C   0  0  0  0  0  0  0  0  0  0  0  0
   12.9356   37.6796   32.0292 C   0  0  0  0  0  0  0  0  0  0  0  0
    9.6399   38.0902   30.6471 O   0  0  0  0  0  0  0  0  0  0  0  0
   11.5765   37.0145   31.7043 C   0  0  0  0  0  0  0  0  0  0  0  0
   13.4858   37.2125   33.3244 N   0  0  0  0  0  0  0  0  0  0  0  0
   11.6101   36.3396   30.4673 O   0  0  0  0  0  0  0  0  0  0  0  0
   14.4805   36.3319   33.5729 C   0  0  0  0  0  0  0  0  0  0  0  0
   13.1143   37.6276   34.5694 C   0  0  0  0  0  0  0  0  0  0  0  0
   15.2076   35.6153   32.6741 N   0  0  0  0  0  0  0  0  0  0  0  0
   14.6760   36.2304   34.9184 C   0  0  0  0  0  0  0  0  0  0  0  0
   13.8219   37.0449   35.5786 N   0  0  0  0  0  0  0  0  0  0  0  0
   16.1641   34.7600   33.1548 C   0  0  0  0  0  0  0  0  0  0  0  0
   15.6528   35.3505   35.4132 C   0  0  0  0  0  0  0  0  0  0  0  0
   16.3795   34.6314   34.5043 N   0  0  0  0  0  0  0  0  0  0  0  0
   15.9002   35.1931   36.8091 N   0  0  0  0  0  0  0  0  0  0  0  0
    9.0099   45.4349   33.6672 H   0  0  0  0  0  0  0  0  0  0  0  0
   11.1135   46.1992   34.4881 H   0  0  0  0  0  0  0  0  0  0  0  0
   11.9348   45.6932   33.0924 H   0  0  0  0  0  0  0  0  0  0  0  0
    9.3507   43.8344   31.4763 H   0  0  0  0  0  0  0  0  0  0  0  0
   10.7303   44.8922   31.1675 H   0  0  0  0  0  0  0  0  0  0  0  0
    7.0107   44.7158   31.5820 H   0  0  0  0  0  0  0  0  0  0  0  0
   10.3477   47.1882   30.4163 H   0  0  0  0  0  0  0  0  0  0  0  0
    5.4632   46.3047   30.5008 H   0  0  0  0  0  0  0  0  0  0  0  0
    8.8141   48.7661   29.3491 H   0  0  0  0  0  0  0  0  0  0  0  0
    6.9710   50.3994   29.2490 H   0  0  0  0  0  0  0  0  0  0  0  0
    7.1452   49.4853   27.7175 H   0  0  0  0  0  0  0  0  0  0  0  0
    5.5642   52.2547   29.0293 H   0  0  0  0  0  0  0  0  0  0  0  0
    2.4050   49.8004   26.0475 H   0  0  0  0  0  0  0  0  0  0  0  0
    1.1798   53.8713   28.1790 H   0  0  0  0  0  0  0  0  0  0  0  0
    2.0696   54.4950   26.7094 H   0  0  0  0  0  0  0  0  0  0  0  0
    9.8216   40.7200   31.7634 H   0  0  0  0  0  0  0  0  0  0  0  0
   11.3807   41.5436   31.4670 H   0  0  0  0  0  0  0  0  0  0  0  0
   11.6998   39.5042   30.3481 H   0  0  0  0  0  0  0  0  0  0  0  0
   10.1086   38.2765   32.6603 H   0  0  0  0  0  0  0  0  0  0  0  0
   13.6680   37.4519   31.2229 H   0  0  0  0  0  0  0  0  0  0  0  0
    9.0016   37.3867   30.9349 H   0  0  0  0  0  0  0  0  0  0  0  0
   11.2667   36.3061   32.5083 H   0  0  0  0  0  0  0  0  0  0  0  0
   12.1389   35.5126   30.6150 H   0  0  0  0  0  0  0  0  0  0  0  0
   12.3300   38.3529   34.7449 H   0  0  0  0  0  0  0  0  0  0  0  0
   16.7560   34.1779   32.4621 H   0  0  0  0  0  0  0  0  0  0  0  0
   15.3534   35.7359   37.5140 H   0  0  0  0  0  0  0  0  0  0  0  0
   16.6347   34.5298   37.1416 H   0  0  0  0  0  0  0  0  0  0  0  0
  1  2  2  0
  1  3  1  0
  3  4  1  0
  4  5  1  0
  6  1  1  0
  7  6  1  0
  6  8  1  0
  8  9  1  0
  9 10  2  0
 11  9  1  0
 10 12  1  0
 13 11  2  0
 12 14  2  0
 14 13  1  0
 14 15  1  0
 15 16  1  0
 16 17  1  0
 17 18  2  0
 19 17  1  0
 18 20  1  0
 21 19  2  0
 19 22  1  0
 20 23  1  0
 20 24  2  0
 24 21  1  0
 22 25  1  0
 22 26  2  0
 23 27  1  0
 24 28  1  0
 27 28  1  0
  4 29  2  0
  4 30  1  0
 31 30  1  0
 31 32  1  0
 32 33  1  0
 32 34  1  0
 33 35  1  0
 34 36  1  0
 34 37  1  0
 37 35  1  0
 35 38  1  0
 37 39  1  0
 40 38  1  0
 41 38  1  0
 42 40  2  0
 40 43  1  0
 44 41  2  0
 45 42  1  0
 43 46  2  0
 43 44  1  0
 47 45  2  0
 47 46  1  0
 46 48  1  0
  6 49  1  1
  7 50  1  0
  7 51  1  0
  8 52  1  0
  8 53  1  0
 10 54  1  0
 11 55  1  0
 12 56  1  0
 13 57  1  0
 16 58  1  0
 16 59  1  0
 18 60  1  0
 21 61  1  0
 27 62  1  0
 27 63  1  0
 31 64  1  0
 31 65  1  0
 32 66  1  0
 34 67  1  0
 35 68  1  0
 36 69  1  0
 37 70  1  0
 39 71  1  0
 41 72  1  0
 45 73  1  0
 48 74  1  0
 48 75  1  0
M  CHG  3   5  -1  22   1  25  -1
M  END
>  <EmbedRMS>  (154) 
0.0832922898138

$$$$

     RDKit          3D

 75 80  0  0  0  0  0  0  0  0999 V2000
   10.2804   43.7664   33.8250 C   0  0  0  0  0  0  0  0  0  0  0  0
   11.4111   43.5919   34.3667 O   0  0  0  0  0  0  0  0  0  0  0  0
    9.3619   42.7249   33.7347 O   0  0  0  0  0  0  0  0  0  0  0  0
    9.8900   41.2267   34.2944 P   0  0  0  0  0  0  0  0  0  0  0  0
   10.3728   41.4567   35.8839 O   0  0  0  0  0  0  0  0  0  0  0  0
    9.9459   45.0736   33.2112 C   0  0  1  0  0  0  0  0  0  0  0  0
   11.0267   46.0291   33.4706 N   0  0  0  0  0  0  0  0  0  0  0  0
    9.7535   44.8538   31.6950 C   0  0  0  0  0  0  0  0  0  0  0  0
    8.7955   45.8411   31.0848 C   0  0  0  0  0  0  0  0  0  0  0  0
    7.4085   45.6005   31.1007 C   0  0  0  0  0  0  0  0  0  0  0  0
    9.2831   46.9879   30.4397 C   0  0  0  0  0  0  0  0  0  0  0  0
    6.5278   46.5009   30.4853 C   0  0  0  0  0  0  0  0  0  0  0  0
    8.4024   47.8893   29.8301 C   0  0  0  0  0  0  0  0  0  0  0  0
    7.0139   47.6509   29.8483 C   0  0  0  0  0  0  0  0  0  0  0  0
    6.0914   48.5224   29.2520 O   0  0  0  0  0  0  0  0  0  0  0  0
    6.4386   49.7361   28.5894 C   0  0  0  0  0  0  0  0  0  0  0  0
    5.1866   50.4353   28.1246 C   0  0  0  0  0  0  0  0  0  0  0  0
    5.0479   50.7227   26.7457 C   0  0  0  0  0  0  0  0  0  0  0  0
    4.1241   50.7756   29.0279 C   0  0  0  0  0  0  0  0  0  0  0  0
    3.8729   51.3195   26.3082 C   0  0  0  0  0  0  0  0  0  0  0  0
    2.9453   51.3711   28.5189 C   0  0  0  0  0  0  0  0  0  0  0  0
    4.2132   50.5101   30.4401 N   0  0  0  0  0  0  0  0  0  0  0  0
    3.5216   51.6839   25.0226 O   0  0  0  0  0  0  0  0  0  0  0  0
    2.8655   51.6279   27.1566 C   0  0  0  0  0  0  0  0  0  0  0  0
    5.3943   50.6966   31.1194 O   0  0  0  0  0  0  0  0  0  0  0  0
    3.1796   50.2620   31.0952 O   0  0  0  0  0  0  0  0  0  0  0  0
    2.2086   52.2591   25.0691 C   0  0  0  0  0  0  0  0  0  0  0  0
    1.8269   52.2036   26.4504 O   0  0  0  0  0  0  0  0  0  0  0  0
    8.8127   40.1842   34.2128 O   0  0  0  0  0  0  0  0  0  0  0  0
   11.2415   40.7950   33.3705 O   0  0  0  0  0  0  0  0  0  0  0  0
   10.9178   40.6921   31.9983 C   0  0  0  0  0  0  0  0  0  0  0  0
   11.5175   39.3837   31.4423 C   0  0  0  0  0  0  0  0  0  0  0  0
   12.7507   39.0887   32.0753 O   0  0  0  0  0  0  0  0  0  0  0  0
   10.6027   38.1916   31.6659 C   0  0  0  0  0  0  0  0  0  0  0  0
   12.9384   37.6819   32.0278 C   0  0  0  0  0  0  0  0  0  0  0  0
    9.6371   38.0805   30.6470 O   0  0  0  0  0  0  0  0  0  0  0  0
   11.5780   37.0215   31.6935 C   0  0  0  0  0  0  0  0  0  0  0  0
   13.4844   37.2119   33.3242 N   0  0  0  0  0  0  0  0  0  0  0  0
   11.6095   36.3201   30.4679 O   0  0  0  0  0  0  0  0  0  0  0  0
   14.4797   36.3318   33.5730 C   0  0  0  0  0  0  0  0  0  0  0  0
   13.1136   37.6278   34.5691 C   0  0  0  0  0  0  0  0  0  0  0  0
   15.2073   35.6155   32.6742 N   0  0  0  0  0  0  0  0  0  0  0  0
   14.6754   36.2305   34.9184 C   0  0  0  0  0  0  0  0  0  0  0  0
   13.8213   37.0452   35.5785 N   0  0  0  0  0  0  0  0  0  0  0  0
   16.1640   34.7604   33.1549 C   0  0  0  0  0  0  0  0  0  0  0  0
   15.6524   35.3507   35.4132 C   0  0  0  0  0  0  0  0  0  0  0  0
   16.3794   34.6318   34.5044 N   0  0  0  0  0  0  0  0  0  0  0  0
   15.8999   35.1934   36.8091 N   0  0  0  0  0  0  0  0  0  0  0  0
    8.9996   45.4382   33.6724 H   0  0  0  0  0  0  0  0  0  0  0  0
   10.7764   46.9368   33.0157 H   0  0  0  0  0  0  0  0  0  0  0  0
   11.0504   46.2277   34.4980 H   0  0  0  0  0  0  0  0  0  0  0  0
   10.7406   44.9069   31.1835 H   0  0  0  0  0  0  0  0  0  0  0  0
    9.3634   43.8352   31.4716 H   0  0  0  0  0  0  0  0  0  0  0  0
    7.0129   44.7162   31.5851 H   0  0  0  0  0  0  0  0  0  0  0  0
   10.3474   47.1862   30.4062 H   0  0  0  0  0  0  0  0  0  0  0  0
    5.4633   46.3045   30.5053 H   0  0  0  0  0  0  0  0  0  0  0  0
    8.8122   48.7641   29.3443 H   0  0  0  0  0  0  0  0  0  0  0  0
    7.0025   50.4042   29.2732 H   0  0  0  0  0  0  0  0  0  0  0  0
    7.1029   49.4999   27.7293 H   0  0  0  0  0  0  0  0  0  0  0  0
    5.8261   50.4807   26.0329 H   0  0  0  0  0  0  0  0  0  0  0  0
    2.1217   51.6386   29.1684 H   0  0  0  0  0  0  0  0  0  0  0  0
    1.5053   51.6607   24.4528 H   0  0  0  0  0  0  0  0  0  0  0  0
    2.2386   53.3131   24.7218 H   0  0  0  0  0  0  0  0  0  0  0  0
   11.3950   41.5477   31.4741 H   0  0  0  0  0  0  0  0  0  0  0  0
    9.8290   40.7408   31.7625 H   0  0  0  0  0  0  0  0  0  0  0  0
   11.6982   39.5114   30.3500 H   0  0  0  0  0  0  0  0  0  0  0  0
   10.1117   38.2604   32.6661 H   0  0  0  0  0  0  0  0  0  0  0  0
   13.6767   37.4556   31.2267 H   0  0  0  0  0  0  0  0  0  0  0  0
    8.8960   38.6950   30.8873 H   0  0  0  0  0  0  0  0  0  0  0  0
   11.2791   36.3072   32.4922 H   0  0  0  0  0  0  0  0  0  0  0  0
   11.8828   36.9598   29.7589 H   0  0  0  0  0  0  0  0  0  0  0  0
   12.3300   38.3539   34.7446 H   0  0  0  0  0  0  0  0  0  0  0  0
   16.7562   34.1785   32.4622 H   0  0  0  0  0  0  0  0  0  0  0  0
   15.3531   35.7360   37.5140 H   0  0  0  0  0  0  0  0  0  0  0  0
   16.6347   34.5303   37.1416 H   0  0  0  0  0  0  0  0  0  0  0  0
  1  2  2  0
  1  3  1  0
  3  4  1  0
  4  5  1  0
  6  1  1  0
  7  6  1  0
  6  8  1  0
  8  9  1  0
  9 10  2  0
 11  9  1  0
 10 12  1  0
 13 11  2  0
 12 14  2  0
 14 13  1  0
 14 15  1  0
 15 16  1  0
 16 17  1  0
 17 18  2  0
 19 17  1  0
 18 20  1  0
 21 19  2  0
 19 22  1  0
 20 23  1  0
 20 24  2  0
 24 21  1  0
 22 25  1  0
 22 26  2  0
 23 27  1  0
 24 28  1  0
 27 28  1  0
  4 29  2  0
  4 30  1  0
 31 30  1  0
 31 32  1  0
 32 33  1  0
 32 34  1  0
 33 35  1  0
 34 36  1  0
 34 37  1  0
 37 35  1  0
 35 38  1  0
 37 39  1  0
 40 38  1  0
 41 38  1  0
 42 40  2  0
 40 43  1  0
 44 41  2  0
 45 42  1  0
 43 46  2  0
 43 44  1  0
 47 45  2  0
 47 46  1  0
 46 48  1  0
  6 49  1  1
  7 50  1  0
  7 51  1  0
  8 52  1  0
  8 53  1  0
 10 54  1  0
 11 55  1  0
 12 56  1  0
 13 57  1  0
 16 58  1  0
 16 59  1  0
 18 60  1  0
 21 61  1  0
 27 62  1  0
 27 63  1  0
 31 64  1  0
 31 65  1  0
 32 66  1  0
 34 67  1  0
 35 68  1  0
 36 69  1  0
 37 70  1  0
 39 71  1  0
 41 72  1  0
 45 73  1  0
 48 74  1  0
 48 75  1  0
M  CHG  3   5  -1  22   1  25  -1
M  END
>  <EmbedRMS>  (155) 
0.0818016585376

$$$$

     RDKit          3D

 75 80  0  0  0  0  0  0  0  0999 V2000
   10.2839   43.7627   33.8277 C   0  0  0  0  0  0  0  0  0  0  0  0
   11.4104   43.5864   34.3767 O   0  0  0  0  0  0  0  0  0  0  0  0
    9.3631   42.7236   33.7355 O   0  0  0  0  0  0  0  0  0  0  0  0
    9.8895   41.2250   34.2948 P   0  0  0  0  0  0  0  0  0  0  0  0
   10.3720   41.4547   35.8844 O   0  0  0  0  0  0  0  0  0  0  0  0
    9.9548   45.0700   33.2065 C   0  0  1  0  0  0  0  0  0  0  0  0
   11.0197   46.0482   33.4572 N   0  0  0  0  0  0  0  0  0  0  0  0
    9.7506   44.8512   31.6924 C   0  0  0  0  0  0  0  0  0  0  0  0
    8.7944   45.8421   31.0872 C   0  0  0  0  0  0  0  0  0  0  0  0
    7.4077   45.6001   31.0999 C   0  0  0  0  0  0  0  0  0  0  0  0
    9.2827   46.9889   30.4438 C   0  0  0  0  0  0  0  0  0  0  0  0
    6.5260   46.4991   30.4840 C   0  0  0  0  0  0  0  0  0  0  0  0
    8.4009   47.8875   29.8320 C   0  0  0  0  0  0  0  0  0  0  0  0
    7.0191   47.6567   29.8486 C   0  0  0  0  0  0  0  0  0  0  0  0
    6.1815   48.5957   29.2259 O   0  0  0  0  0  0  0  0  0  0  0  0
    4.7545   48.5990   29.2876 C   0  0  0  0  0  0  0  0  0  0  0  0
    4.2738   48.9186   30.6844 C   0  0  0  0  0  0  0  0  0  0  0  0
    3.3613   48.0304   31.3011 C   0  0  0  0  0  0  0  0  0  0  0  0
    4.7461   50.0626   31.4101 C   0  0  0  0  0  0  0  0  0  0  0  0
    2.9716   48.2840   32.6094 C   0  0  0  0  0  0  0  0  0  0  0  0
    4.3222   50.2609   32.7456 C   0  0  0  0  0  0  0  0  0  0  0  0
    5.6536   51.0113   30.8212 N   0  0  0  0  0  0  0  0  0  0  0  0
    2.1086   47.5553   33.4051 O   0  0  0  0  0  0  0  0  0  0  0  0
    3.4343   49.3498   33.3021 C   0  0  0  0  0  0  0  0  0  0  0  0
    5.5086   51.4009   29.5102 O   0  0  0  0  0  0  0  0  0  0  0  0
    6.4797   51.6139   31.5376 O   0  0  0  0  0  0  0  0  0  0  0  0
    2.0249   48.2077   34.6796 C   0  0  0  0  0  0  0  0  0  0  0  0
    2.8865   49.3491   34.5705 O   0  0  0  0  0  0  0  0  0  0  0  0
    8.8117   40.1832   34.2124 O   0  0  0  0  0  0  0  0  0  0  0  0
   11.2411   40.7939   33.3709 O   0  0  0  0  0  0  0  0  0  0  0  0
   10.9179   40.6919   31.9985 C   0  0  0  0  0  0  0  0  0  0  0  0
   11.5175   39.3837   31.4422 C   0  0  0  0  0  0  0  0  0  0  0  0
   12.7508   39.0887   32.0751 O   0  0  0  0  0  0  0  0  0  0  0  0
   10.6028   38.1915   31.6658 C   0  0  0  0  0  0  0  0  0  0  0  0
   12.9384   37.6818   32.0278 C   0  0  0  0  0  0  0  0  0  0  0  0
    9.6371   38.0805   30.6470 O   0  0  0  0  0  0  0  0  0  0  0  0
   11.5780   37.0215   31.6934 C   0  0  0  0  0  0  0  0  0  0  0  0
   13.4844   37.2119   33.3242 N   0  0  0  0  0  0  0  0  0  0  0  0
   11.6095   36.3201   30.4679 O   0  0  0  0  0  0  0  0  0  0  0  0
   14.4797   36.3318   33.5730 C   0  0  0  0  0  0  0  0  0  0  0  0
   13.1135   37.6278   34.5691 C   0  0  0  0  0  0  0  0  0  0  0  0
   15.2073   35.6155   32.6742 N   0  0  0  0  0  0  0  0  0  0  0  0
   14.6754   36.2305   34.9184 C   0  0  0  0  0  0  0  0  0  0  0  0
   13.8213   37.0452   35.5785 N   0  0  0  0  0  0  0  0  0  0  0  0
   16.1640   34.7604   33.1549 C   0  0  0  0  0  0  0  0  0  0  0  0
   15.6524   35.3507   35.4132 C   0  0  0  0  0  0  0  0  0  0  0  0
   16.3794   34.6318   34.5044 N   0  0  0  0  0  0  0  0  0  0  0  0
   15.8999   35.1934   36.8091 N   0  0  0  0  0  0  0  0  0  0  0  0
    9.0098   45.4349   33.6671 H   0  0  0  0  0  0  0  0  0  0  0  0
   11.9348   45.6935   33.0931 H   0  0  0  0  0  0  0  0  0  0  0  0
   11.1131   46.1993   34.4886 H   0  0  0  0  0  0  0  0  0  0  0  0
   10.7309   44.8934   31.1678 H   0  0  0  0  0  0  0  0  0  0  0  0
    9.3519   43.8346   31.4759 H   0  0  0  0  0  0  0  0  0  0  0  0
    7.0128   44.7132   31.5799 H   0  0  0  0  0  0  0  0  0  0  0  0
   10.3467   47.1890   30.4139 H   0  0  0  0  0  0  0  0  0  0  0  0
    5.4693   46.2774   30.5031 H   0  0  0  0  0  0  0  0  0  0  0  0
    8.7935   48.7706   29.3439 H   0  0  0  0  0  0  0  0  0  0  0  0
    4.3624   47.6249   28.9227 H   0  0  0  0  0  0  0  0  0  0  0  0
    4.3666   49.3683   28.5894 H   0  0  0  0  0  0  0  0  0  0  0  0
    2.9792   47.1592   30.7840 H   0  0  0  0  0  0  0  0  0  0  0  0
    4.6622   51.1088   33.3262 H   0  0  0  0  0  0  0  0  0  0  0  0
    2.3857   47.5307   35.4820 H   0  0  0  0  0  0  0  0  0  0  0  0
    0.9818   48.5325   34.8770 H   0  0  0  0  0  0  0  0  0  0  0  0
   11.3954   41.5477   31.4750 H   0  0  0  0  0  0  0  0  0  0  0  0
    9.8291   40.7409   31.7624 H   0  0  0  0  0  0  0  0  0  0  0  0
   11.6981   39.5116   30.3500 H   0  0  0  0  0  0  0  0  0  0  0  0
   10.1117   38.2603   32.6660 H   0  0  0  0  0  0  0  0  0  0  0  0
   13.6767   37.4555   31.2267 H   0  0  0  0  0  0  0  0  0  0  0  0
    8.8961   38.6951   30.8872 H   0  0  0  0  0  0  0  0  0  0  0  0
   11.2792   36.3072   32.4922 H   0  0  0  0  0  0  0  0  0  0  0  0
   11.8828   36.9598   29.7588 H   0  0  0  0  0  0  0  0  0  0  0  0
   12.3300   38.3539   34.7446 H   0  0  0  0  0  0  0  0  0  0  0  0
   16.7561   34.1785   32.4622 H   0  0  0  0  0  0  0  0  0  0  0  0
   15.3531   35.7360   37.5140 H   0  0  0  0  0  0  0  0  0  0  0  0
   16.6347   34.5303   37.1416 H   0  0  0  0  0  0  0  0  0  0  0  0
  1  2  2  0
  1  3  1  0
  3  4  1  0
  4  5  1  0
  6  1  1  0
  7  6  1  0
  6  8  1  0
  8  9  1  0
  9 10  2  0
 11  9  1  0
 10 12  1  0
 13 11  2  0
 12 14  2  0
 14 13  1  0
 14 15  1  0
 15 16  1  0
 16 17  1  0
 17 18  2  0
 19 17  1  0
 18 20  1  0
 21 19  2  0
 19 22  1  0
 20 23  1  0
 20 24  2  0
 24 21  1  0
 22 25  1  0
 22 26  2  0
 23 27  1  0
 24 28  1  0
 27 28  1  0
  4 29  2  0
  4 30  1  0
 31 30  1  0
 31 32  1  0
 32 33  1  0
 32 34  1  0
 33 35  1  0
 34 36  1  0
 34 37  1  0
 37 35  1  0
 35 38  1  0
 37 39  1  0
 40 38  1  0
 41 38  1  0
 42 40  2  0
 40 43  1  0
 44 41  2  0
 45 42  1  0
 43 46  2  0
 43 44  1  0
 47 45  2  0
 47 46  1  0
 46 48  1  0
  6 49  1  1
  7 50  1  0
  7 51  1  0
  8 52  1  0
  8 53  1  0
 10 54  1  0
 11 55  1  0
 12 56  1  0
 13 57  1  0
 16 58  1  0
 16 59  1  0
 18 60  1  0
 21 61  1  0
 27 62  1  0
 27 63  1  0
 31 64  1  0
 31 65  1  0
 32 66  1  0
 34 67  1  0
 35 68  1  0
 36 69  1  0
 37 70  1  0
 39 71  1  0
 41 72  1  0
 45 73  1  0
 48 74  1  0
 48 75  1  0
M  CHG  3   5  -1  22   1  25  -1
M  END
>  <EmbedRMS>  (156) 
0.0828606298402

$$$$

     RDKit          3D

 75 80  0  0  0  0  0  0  0  0999 V2000
   10.2804   43.7664   33.8250 C   0  0  0  0  0  0  0  0  0  0  0  0
   11.4111   43.5919   34.3667 O   0  0  0  0  0  0  0  0  0  0  0  0
    9.3619   42.7249   33.7347 O   0  0  0  0  0  0  0  0  0  0  0  0
    9.8900   41.2267   34.2944 P   0  0  0  0  0  0  0  0  0  0  0  0
   10.3728   41.4567   35.8839 O   0  0  0  0  0  0  0  0  0  0  0  0
    9.9459   45.0735   33.2111 C   0  0  1  0  0  0  0  0  0  0  0  0
   11.0266   46.0291   33.4705 N   0  0  0  0  0  0  0  0  0  0  0  0
    9.7536   44.8537   31.6948 C   0  0  0  0  0  0  0  0  0  0  0  0
    8.7956   45.8408   31.0844 C   0  0  0  0  0  0  0  0  0  0  0  0
    7.4086   45.6008   31.1013 C   0  0  0  0  0  0  0  0  0  0  0  0
    9.2829   46.9879   30.4403 C   0  0  0  0  0  0  0  0  0  0  0  0
    6.5281   46.5017   30.4865 C   0  0  0  0  0  0  0  0  0  0  0  0
    8.4022   47.8897   29.8316 C   0  0  0  0  0  0  0  0  0  0  0  0
    7.0139   47.6498   29.8457 C   0  0  0  0  0  0  0  0  0  0  0  0
    6.0876   48.5156   29.2428 O   0  0  0  0  0  0  0  0  0  0  0  0
    6.4164   49.6361   28.4204 C   0  0  0  0  0  0  0  0  0  0  0  0
    7.0155   49.1861   27.1076 C   0  0  0  0  0  0  0  0  0  0  0  0
    8.2715   49.7142   26.7263 C   0  0  0  0  0  0  0  0  0  0  0  0
    6.3709   48.2180   26.2654 C   0  0  0  0  0  0  0  0  0  0  0  0
    8.8561   49.2524   25.5546 C   0  0  0  0  0  0  0  0  0  0  0  0
    7.0232   47.7771   25.0907 C   0  0  0  0  0  0  0  0  0  0  0  0
    5.0815   47.6656   26.5864 N   0  0  0  0  0  0  0  0  0  0  0  0
   10.0678   49.6148   24.9986 O   0  0  0  0  0  0  0  0  0  0  0  0
    8.2603   48.3225   24.7735 C   0  0  0  0  0  0  0  0  0  0  0  0
    4.7552   46.3963   26.1673 O   0  0  0  0  0  0  0  0  0  0  0  0
    4.1898   48.3772   27.0920 O   0  0  0  0  0  0  0  0  0  0  0  0
   10.2422   48.8630   23.7898 C   0  0  0  0  0  0  0  0  0  0  0  0
    9.0650   48.0507   23.6839 O   0  0  0  0  0  0  0  0  0  0  0  0
    8.8127   40.1842   34.2128 O   0  0  0  0  0  0  0  0  0  0  0  0
   11.2414   40.7950   33.3705 O   0  0  0  0  0  0  0  0  0  0  0  0
   10.9178   40.6922   31.9983 C   0  0  0  0  0  0  0  0  0  0  0  0
   11.5175   39.3837   31.4423 C   0  0  0  0  0  0  0  0  0  0  0  0
   12.7507   39.0887   32.0753 O   0  0  0  0  0  0  0  0  0  0  0  0
   10.6027   38.1916   31.6659 C   0  0  0  0  0  0  0  0  0  0  0  0
   12.9384   37.6819   32.0278 C   0  0  0  0  0  0  0  0  0  0  0  0
    9.6371   38.0805   30.6470 O   0  0  0  0  0  0  0  0  0  0  0  0
   11.5780   37.0215   31.6935 C   0  0  0  0  0  0  0  0  0  0  0  0
   13.4844   37.2119   33.3242 N   0  0  0  0  0  0  0  0  0  0  0  0
   11.6095   36.3201   30.4679 O   0  0  0  0  0  0  0  0  0  0  0  0
   14.4797   36.3318   33.5730 C   0  0  0  0  0  0  0  0  0  0  0  0
   13.1135   37.6278   34.5691 C   0  0  0  0  0  0  0  0  0  0  0  0
   15.2073   35.6155   32.6742 N   0  0  0  0  0  0  0  0  0  0  0  0
   14.6754   36.2305   34.9184 C   0  0  0  0  0  0  0  0  0  0  0  0
   13.8213   37.0452   35.5785 N   0  0  0  0  0  0  0  0  0  0  0  0
   16.1640   34.7604   33.1549 C   0  0  0  0  0  0  0  0  0  0  0  0
   15.6524   35.3507   35.4132 C   0  0  0  0  0  0  0  0  0  0  0  0
   16.3794   34.6318   34.5044 N   0  0  0  0  0  0  0  0  0  0  0  0
   15.9000   35.1934   36.8091 N   0  0  0  0  0  0  0  0  0  0  0  0
    8.9995   45.4381   33.6721 H   0  0  0  0  0  0  0  0  0  0  0  0
   10.7763   46.9368   33.0155 H   0  0  0  0  0  0  0  0  0  0  0  0
   11.0504   46.2277   34.4979 H   0  0  0  0  0  0  0  0  0  0  0  0
    9.3636   43.8351   31.4714 H   0  0  0  0  0  0  0  0  0  0  0  0
   10.7407   44.9069   31.1833 H   0  0  0  0  0  0  0  0  0  0  0  0
    7.0129   44.7167   31.5858 H   0  0  0  0  0  0  0  0  0  0  0  0
   10.3469   47.1879   30.4092 H   0  0  0  0  0  0  0  0  0  0  0  0
    5.4638   46.3040   30.5048 H   0  0  0  0  0  0  0  0  0  0  0  0
    8.8135   48.7689   29.3584 H   0  0  0  0  0  0  0  0  0  0  0  0
    7.0915   50.3226   28.9759 H   0  0  0  0  0  0  0  0  0  0  0  0
    5.4919   50.2131   28.2140 H   0  0  0  0  0  0  0  0  0  0  0  0
    8.7858   50.4501   27.3314 H   0  0  0  0  0  0  0  0  0  0  0  0
    6.5718   47.0441   24.4347 H   0  0  0  0  0  0  0  0  0  0  0  0
   10.3150   49.5476   22.9189 H   0  0  0  0  0  0  0  0  0  0  0  0
   11.1452   48.2213   23.8635 H   0  0  0  0  0  0  0  0  0  0  0  0
   11.3950   41.5477   31.4741 H   0  0  0  0  0  0  0  0  0  0  0  0
    9.8290   40.7408   31.7625 H   0  0  0  0  0  0  0  0  0  0  0  0
   11.6982   39.5114   30.3500 H   0  0  0  0  0  0  0  0  0  0  0  0
   10.1117   38.2604   32.6660 H   0  0  0  0  0  0  0  0  0  0  0  0
   13.6767   37.4557   31.2267 H   0  0  0  0  0  0  0  0  0  0  0  0
    8.8960   38.6950   30.8872 H   0  0  0  0  0  0  0  0  0  0  0  0
   11.2791   36.3072   32.4922 H   0  0  0  0  0  0  0  0  0  0  0  0
   11.8828   36.9598   29.7589 H   0  0  0  0  0  0  0  0  0  0  0  0
   12.3300   38.3538   34.7446 H   0  0  0  0  0  0  0  0  0  0  0  0
   16.7561   34.1785   32.4622 H   0  0  0  0  0  0  0  0  0  0  0  0
   15.3531   35.7360   37.5140 H   0  0  0  0  0  0  0  0  0  0  0  0
   16.6347   34.5303   37.1416 H   0  0  0  0  0  0  0  0  0  0  0  0
  1  2  2  0
  1  3  1  0
  3  4  1  0
  4  5  1  0
  6  1  1  0
  7  6  1  0
  6  8  1  0
  8  9  1  0
  9 10  2  0
 11  9  1  0
 10 12  1  0
 13 11  2  0
 12 14  2  0
 14 13  1  0
 14 15  1  0
 15 16  1  0
 16 17  1  0
 17 18  2  0
 19 17  1  0
 18 20  1  0
 21 19  2  0
 19 22  1  0
 20 23  1  0
 20 24  2  0
 24 21  1  0
 22 25  1  0
 22 26  2  0
 23 27  1  0
 24 28  1  0
 27 28  1  0
  4 29  2  0
  4 30  1  0
 31 30  1  0
 31 32  1  0
 32 33  1  0
 32 34  1  0
 33 35  1  0
 34 36  1  0
 34 37  1  0
 37 35  1  0
 35 38  1  0
 37 39  1  0
 40 38  1  0
 41 38  1  0
 42 40  2  0
 40 43  1  0
 44 41  2  0
 45 42  1  0
 43 46  2  0
 43 44  1  0
 47 45  2  0
 47 46  1  0
 46 48  1  0
  6 49  1  1
  7 50  1  0
  7 51  1  0
  8 52  1  0
  8 53  1  0
 10 54  1  0
 11 55  1  0
 12 56  1  0
 13 57  1  0
 16 58  1  0
 16 59  1  0
 18 60  1  0
 21 61  1  0
 27 62  1  0
 27 63  1  0
 31 64  1  0
 31 65  1  0
 32 66  1  0
 34 67  1  0
 35 68  1  0
 36 69  1  0
 37 70  1  0
 39 71  1  0
 41 72  1  0
 45 73  1  0
 48 74  1  0
 48 75  1  0
M  CHG  3   5  -1  22   1  25  -1
M  END
>  <EmbedRMS>  (157) 
0.0818130530695

$$$$

     RDKit          3D

 75 80  0  0  0  0  0  0  0  0999 V2000
   10.2837   43.7628   33.8277 C   0  0  0  0  0  0  0  0  0  0  0  0
   11.4103   43.5863   34.3766 O   0  0  0  0  0  0  0  0  0  0  0  0
    9.3628   42.7238   33.7357 O   0  0  0  0  0  0  0  0  0  0  0  0
    9.8893   41.2251   34.2943 P   0  0  0  0  0  0  0  0  0  0  0  0
   10.3730   41.4545   35.8836 O   0  0  0  0  0  0  0  0  0  0  0  0
    9.9548   45.0701   33.2065 C   0  0  1  0  0  0  0  0  0  0  0  0
   11.0197   46.0482   33.4572 N   0  0  0  0  0  0  0  0  0  0  0  0
    9.7505   44.8512   31.6924 C   0  0  0  0  0  0  0  0  0  0  0  0
    8.7944   45.8420   31.0871 C   0  0  0  0  0  0  0  0  0  0  0  0
    7.4077   45.6002   31.1001 C   0  0  0  0  0  0  0  0  0  0  0  0
    9.2827   46.9889   30.4439 C   0  0  0  0  0  0  0  0  0  0  0  0
    6.5259   46.4992   30.4845 C   0  0  0  0  0  0  0  0  0  0  0  0
    8.4010   47.8878   29.8323 C   0  0  0  0  0  0  0  0  0  0  0  0
    7.0192   47.6565   29.8478 C   0  0  0  0  0  0  0  0  0  0  0  0
    6.1805   48.5948   29.2244 O   0  0  0  0  0  0  0  0  0  0  0  0
    4.7524   48.5599   29.2405 C   0  0  0  0  0  0  0  0  0  0  0  0
    4.2232   48.8541   30.6268 C   0  0  0  0  0  0  0  0  0  0  0  0
    4.7722   49.9512   31.3315 C   0  0  0  0  0  0  0  0  0  0  0  0
    3.2244   48.0413   31.2571 C   0  0  0  0  0  0  0  0  0  0  0  0
    4.3587   50.1721   32.6388 C   0  0  0  0  0  0  0  0  0  0  0  0
    2.8555   48.3033   32.5959 C   0  0  0  0  0  0  0  0  0  0  0  0
    2.5651   46.9753   30.5575 N   0  0  0  0  0  0  0  0  0  0  0  0
    4.7675   51.1599   33.5140 O   0  0  0  0  0  0  0  0  0  0  0  0
    3.4458   49.3792   33.2464 C   0  0  0  0  0  0  0  0  0  0  0  0
    2.2157   45.8287   31.2327 O   0  0  0  0  0  0  0  0  0  0  0  0
    2.0911   47.1723   29.4197 O   0  0  0  0  0  0  0  0  0  0  0  0
    4.0647   50.9740   34.7503 C   0  0  0  0  0  0  0  0  0  0  0  0
    3.2312   49.8267   34.5358 O   0  0  0  0  0  0  0  0  0  0  0  0
    8.8112   40.1835   34.2130 O   0  0  0  0  0  0  0  0  0  0  0  0
   11.2397   40.7943   33.3684 O   0  0  0  0  0  0  0  0  0  0  0  0
   10.9125   40.6875   31.9969 C   0  0  0  0  0  0  0  0  0  0  0  0
   11.5169   39.3810   31.4420 C   0  0  0  0  0  0  0  0  0  0  0  0
   12.7500   39.0880   32.0758 O   0  0  0  0  0  0  0  0  0  0  0  0
   10.6043   38.1892   31.6658 C   0  0  0  0  0  0  0  0  0  0  0  0
   12.9395   37.6813   32.0279 C   0  0  0  0  0  0  0  0  0  0  0  0
    9.6353   38.0951   30.6499 O   0  0  0  0  0  0  0  0  0  0  0  0
   11.5804   37.0190   31.6934 C   0  0  0  0  0  0  0  0  0  0  0  0
   13.4851   37.2119   33.3244 N   0  0  0  0  0  0  0  0  0  0  0  0
   11.6118   36.3188   30.4673 O   0  0  0  0  0  0  0  0  0  0  0  0
   14.4801   36.3316   33.5732 C   0  0  0  0  0  0  0  0  0  0  0  0
   13.1139   37.6277   34.5692 C   0  0  0  0  0  0  0  0  0  0  0  0
   15.2076   35.6154   32.6744 N   0  0  0  0  0  0  0  0  0  0  0  0
   14.6756   36.2303   34.9186 C   0  0  0  0  0  0  0  0  0  0  0  0
   13.8215   37.0451   35.5786 N   0  0  0  0  0  0  0  0  0  0  0  0
   16.1642   34.7602   33.1551 C   0  0  0  0  0  0  0  0  0  0  0  0
   15.6526   35.3505   35.4134 C   0  0  0  0  0  0  0  0  0  0  0  0
   16.3796   34.6316   34.5046 N   0  0  0  0  0  0  0  0  0  0  0  0
   15.9001   35.1933   36.8093 N   0  0  0  0  0  0  0  0  0  0  0  0
    9.0097   45.4350   33.6670 H   0  0  0  0  0  0  0  0  0  0  0  0
   11.9349   45.6934   33.0930 H   0  0  0  0  0  0  0  0  0  0  0  0
   11.1131   46.1994   34.4885 H   0  0  0  0  0  0  0  0  0  0  0  0
    9.3518   43.8346   31.4760 H   0  0  0  0  0  0  0  0  0  0  0  0
   10.7309   44.8933   31.1677 H   0  0  0  0  0  0  0  0  0  0  0  0
    7.0126   44.7139   31.5813 H   0  0  0  0  0  0  0  0  0  0  0  0
   10.3467   47.1890   30.4140 H   0  0  0  0  0  0  0  0  0  0  0  0
    5.4684   46.2800   30.5079 H   0  0  0  0  0  0  0  0  0  0  0  0
    8.7937   48.7706   29.3439 H   0  0  0  0  0  0  0  0  0  0  0  0
    4.3784   49.3470   28.5532 H   0  0  0  0  0  0  0  0  0  0  0  0
    4.4141   47.5837   28.8407 H   0  0  0  0  0  0  0  0  0  0  0  0
    5.5174   50.5958   30.8824 H   0  0  0  0  0  0  0  0  0  0  0  0
    2.1103   47.7041   33.1030 H   0  0  0  0  0  0  0  0  0  0  0  0
    3.4407   51.8643   34.9749 H   0  0  0  0  0  0  0  0  0  0  0  0
    4.7824   50.7775   35.5742 H   0  0  0  0  0  0  0  0  0  0  0  0
   11.3811   41.5456   31.4692 H   0  0  0  0  0  0  0  0  0  0  0  0
    9.8216   40.7222   31.7644 H   0  0  0  0  0  0  0  0  0  0  0  0
   11.6985   39.5089   30.3498 H   0  0  0  0  0  0  0  0  0  0  0  0
   10.1109   38.2736   32.6629 H   0  0  0  0  0  0  0  0  0  0  0  0
   13.6783   37.4561   31.2271 H   0  0  0  0  0  0  0  0  0  0  0  0
    9.0020   37.3859   30.9348 H   0  0  0  0  0  0  0  0  0  0  0  0
   11.2808   36.3052   32.4921 H   0  0  0  0  0  0  0  0  0  0  0  0
   11.8819   36.9599   29.7584 H   0  0  0  0  0  0  0  0  0  0  0  0
   12.3303   38.3538   34.7445 H   0  0  0  0  0  0  0  0  0  0  0  0
   16.7564   34.1783   32.4624 H   0  0  0  0  0  0  0  0  0  0  0  0
   15.3532   35.7359   37.5142 H   0  0  0  0  0  0  0  0  0  0  0  0
   16.6348   34.5301   37.1418 H   0  0  0  0  0  0  0  0  0  0  0  0
  1  2  2  0
  1  3  1  0
  3  4  1  0
  4  5  1  0
  6  1  1  0
  7  6  1  0
  6  8  1  0
  8  9  1  0
  9 10  2  0
 11  9  1  0
 10 12  1  0
 13 11  2  0
 12 14  2  0
 14 13  1  0
 14 15  1  0
 15 16  1  0
 16 17  1  0
 17 18  2  0
 19 17  1  0
 18 20  1  0
 21 19  2  0
 19 22  1  0
 20 23  1  0
 20 24  2  0
 24 21  1  0
 22 25  1  0
 22 26  2  0
 23 27  1  0
 24 28  1  0
 27 28  1  0
  4 29  2  0
  4 30  1  0
 31 30  1  0
 31 32  1  0
 32 33  1  0
 32 34  1  0
 33 35  1  0
 34 36  1  0
 34 37  1  0
 37 35  1  0
 35 38  1  0
 37 39  1  0
 40 38  1  0
 41 38  1  0
 42 40  2  0
 40 43  1  0
 44 41  2  0
 45 42  1  0
 43 46  2  0
 43 44  1  0
 47 45  2  0
 47 46  1  0
 46 48  1  0
  6 49  1  1
  7 50  1  0
  7 51  1  0
  8 52  1  0
  8 53  1  0
 10 54  1  0
 11 55  1  0
 12 56  1  0
 13 57  1  0
 16 58  1  0
 16 59  1  0
 18 60  1  0
 21 61  1  0
 27 62  1  0
 27 63  1  0
 31 64  1  0
 31 65  1  0
 32 66  1  0
 34 67  1  0
 35 68  1  0
 36 69  1  0
 37 70  1  0
 39 71  1  0
 41 72  1  0
 45 73  1  0
 48 74  1  0
 48 75  1  0
M  CHG  3   5  -1  22   1  25  -1
M  END
>  <EmbedRMS>  (158) 
0.082453250238

$$$$

     RDKit          3D

 75 80  0  0  0  0  0  0  0  0999 V2000
   10.2834   43.7662   33.8255 C   0  0  0  0  0  0  0  0  0  0  0  0
   11.4102   43.5930   34.3752 O   0  0  0  0  0  0  0  0  0  0  0  0
    9.3637   42.7255   33.7347 O   0  0  0  0  0  0  0  0  0  0  0  0
    9.8906   41.2266   34.2933 P   0  0  0  0  0  0  0  0  0  0  0  0
   10.3742   41.4557   35.8827 O   0  0  0  0  0  0  0  0  0  0  0  0
    9.9547   45.0695   33.2034 C   0  0  1  0  0  0  0  0  0  0  0  0
   11.0273   46.0322   33.4758 N   0  0  0  0  0  0  0  0  0  0  0  0
    9.7472   44.8483   31.6873 C   0  0  0  0  0  0  0  0  0  0  0  0
    8.7926   45.8407   31.0840 C   0  0  0  0  0  0  0  0  0  0  0  0
    7.4058   45.6013   31.1000 C   0  0  0  0  0  0  0  0  0  0  0  0
    9.2817   46.9883   30.4425 C   0  0  0  0  0  0  0  0  0  0  0  0
    6.5245   46.5018   30.4863 C   0  0  0  0  0  0  0  0  0  0  0  0
    8.4003   47.8888   29.8333 C   0  0  0  0  0  0  0  0  0  0  0  0
    7.0189   47.6548   29.8435 C   0  0  0  0  0  0  0  0  0  0  0  0
    6.1830   48.5868   29.2080 O   0  0  0  0  0  0  0  0  0  0  0  0
    4.7799   48.4273   28.9934 C   0  0  0  0  0  0  0  0  0  0  0  0
    4.5065   47.3292   27.9915 C   0  0  0  0  0  0  0  0  0  0  0  0
    3.6144   46.2933   28.3562 C   0  0  0  0  0  0  0  0  0  0  0  0
    5.1523   47.2872   26.7111 C   0  0  0  0  0  0  0  0  0  0  0  0
    3.4136   45.2478   27.4649 C   0  0  0  0  0  0  0  0  0  0  0  0
    4.9171   46.1887   25.8508 C   0  0  0  0  0  0  0  0  0  0  0  0
    6.0473   48.3282   26.2798 N   0  0  0  0  0  0  0  0  0  0  0  0
    2.6052   44.1371   27.6118 O   0  0  0  0  0  0  0  0  0  0  0  0
    4.0399   45.1958   26.2669 C   0  0  0  0  0  0  0  0  0  0  0  0
    5.7673   49.6486   26.5435 O   0  0  0  0  0  0  0  0  0  0  0  0
    7.0007   48.0579   25.5204 O   0  0  0  0  0  0  0  0  0  0  0  0
    2.7330   43.3374   26.4282 C   0  0  0  0  0  0  0  0  0  0  0  0
    3.6583   44.0500   25.5958 O   0  0  0  0  0  0  0  0  0  0  0  0
    8.8122   40.1851   34.2127 O   0  0  0  0  0  0  0  0  0  0  0  0
   11.2406   40.7945   33.3670 O   0  0  0  0  0  0  0  0  0  0  0  0
   10.9134   40.6866   31.9954 C   0  0  0  0  0  0  0  0  0  0  0  0
   11.5166   39.3787   31.4404 C   0  0  0  0  0  0  0  0  0  0  0  0
   12.7486   39.0849   32.0735 O   0  0  0  0  0  0  0  0  0  0  0  0
   10.6039   38.1884   31.6669 C   0  0  0  0  0  0  0  0  0  0  0  0
   12.9329   37.6776   32.0284 C   0  0  0  0  0  0  0  0  0  0  0  0
    9.6374   38.0938   30.6484 O   0  0  0  0  0  0  0  0  0  0  0  0
   11.5737   37.0141   31.7055 C   0  0  0  0  0  0  0  0  0  0  0  0
   13.4853   37.2120   33.3238 N   0  0  0  0  0  0  0  0  0  0  0  0
   11.6210   36.3379   30.4683 O   0  0  0  0  0  0  0  0  0  0  0  0
   14.4804   36.3319   33.5726 C   0  0  0  0  0  0  0  0  0  0  0  0
   13.1141   37.6275   34.5689 C   0  0  0  0  0  0  0  0  0  0  0  0
   15.2076   35.6152   32.6740 N   0  0  0  0  0  0  0  0  0  0  0  0
   14.6761   36.2306   34.9181 C   0  0  0  0  0  0  0  0  0  0  0  0
   13.8218   37.0451   35.5783 N   0  0  0  0  0  0  0  0  0  0  0  0
   16.1642   34.7600   33.1548 C   0  0  0  0  0  0  0  0  0  0  0  0
   15.6527   35.3506   35.4131 C   0  0  0  0  0  0  0  0  0  0  0  0
   16.3795   34.6315   34.5043 N   0  0  0  0  0  0  0  0  0  0  0  0
   15.9000   35.1933   36.8090 N   0  0  0  0  0  0  0  0  0  0  0  0
    9.0120   45.4317   33.6710 H   0  0  0  0  0  0  0  0  0  0  0  0
   11.8908   45.7659   32.9475 H   0  0  0  0  0  0  0  0  0  0  0  0
   10.7260   46.9688   33.1214 H   0  0  0  0  0  0  0  0  0  0  0  0
   10.7237   44.8824   31.1556 H   0  0  0  0  0  0  0  0  0  0  0  0
    9.3427   43.8330   31.4755 H   0  0  0  0  0  0  0  0  0  0  0  0
    7.0099   44.7175   31.5850 H   0  0  0  0  0  0  0  0  0  0  0  0
   10.3459   47.1868   30.4109 H   0  0  0  0  0  0  0  0  0  0  0  0
    5.4658   46.2929   30.5262 H   0  0  0  0  0  0  0  0  0  0  0  0
    8.7935   48.7700   29.3423 H   0  0  0  0  0  0  0  0  0  0  0  0
    4.2718   48.2435   29.9650 H   0  0  0  0  0  0  0  0  0  0  0  0
    4.3656   49.3795   28.6045 H   0  0  0  0  0  0  0  0  0  0  0  0
    3.1046   46.2928   29.3113 H   0  0  0  0  0  0  0  0  0  0  0  0
    5.3912   46.1196   24.8802 H   0  0  0  0  0  0  0  0  0  0  0  0
    3.1397   42.3363   26.6833 H   0  0  0  0  0  0  0  0  0  0  0  0
    1.7510   43.2459   25.9185 H   0  0  0  0  0  0  0  0  0  0  0  0
   11.3827   41.5438   31.4668 H   0  0  0  0  0  0  0  0  0  0  0  0
    9.8225   40.7224   31.7631 H   0  0  0  0  0  0  0  0  0  0  0  0
   11.6978   39.5037   30.3478 H   0  0  0  0  0  0  0  0  0  0  0  0
   10.1084   38.2787   32.6627 H   0  0  0  0  0  0  0  0  0  0  0  0
   13.6638   37.4472   31.2214 H   0  0  0  0  0  0  0  0  0  0  0  0
    8.9763   37.4191   30.9532 H   0  0  0  0  0  0  0  0  0  0  0  0
   11.2821   36.3054   32.5171 H   0  0  0  0  0  0  0  0  0  0  0  0
   10.8658   35.6936   30.4652 H   0  0  0  0  0  0  0  0  0  0  0  0
   12.3293   38.3523   34.7444 H   0  0  0  0  0  0  0  0  0  0  0  0
   16.7561   34.1778   32.4621 H   0  0  0  0  0  0  0  0  0  0  0  0
   16.6345   34.5300   37.1416 H   0  0  0  0  0  0  0  0  0  0  0  0
   15.3533   35.7361   37.5138 H   0  0  0  0  0  0  0  0  0  0  0  0
  1  2  2  0
  1  3  1  0
  3  4  1  0
  4  5  1  0
  6  1  1  0
  7  6  1  0
  6  8  1  0
  8  9  1  0
  9 10  2  0
 11  9  1  0
 10 12  1  0
 13 11  2  0
 12 14  2  0
 14 13  1  0
 14 15  1  0
 15 16  1  0
 16 17  1  0
 17 18  2  0
 19 17  1  0
 18 20  1  0
 21 19  2  0
 19 22  1  0
 20 23  1  0
 20 24  2  0
 24 21  1  0
 22 25  1  0
 22 26  2  0
 23 27  1  0
 24 28  1  0
 27 28  1  0
  4 29  2  0
  4 30  1  0
 31 30  1  0
 31 32  1  0
 32 33  1  0
 32 34  1  0
 33 35  1  0
 34 36  1  0
 34 37  1  0
 37 35  1  0
 35 38  1  0
 37 39  1  0
 40 38  1  0
 41 38  1  0
 42 40  2  0
 40 43  1  0
 44 41  2  0
 45 42  1  0
 43 46  2  0
 43 44  1  0
 47 45  2  0
 47 46  1  0
 46 48  1  0
  6 49  1  1
  7 50  1  0
  7 51  1  0
  8 52  1  0
  8 53  1  0
 10 54  1  0
 11 55  1  0
 12 56  1  0
 13 57  1  0
 16 58  1  0
 16 59  1  0
 18 60  1  0
 21 61  1  0
 27 62  1  0
 27 63  1  0
 31 64  1  0
 31 65  1  0
 32 66  1  0
 34 67  1  0
 35 68  1  0
 36 69  1  0
 37 70  1  0
 39 71  1  0
 41 72  1  0
 45 73  1  0
 48 74  1  0
 48 75  1  0
M  CHG  3   5  -1  22   1  25  -1
M  END
>  <EmbedRMS>  (159) 
0.0825622672299

$$$$

     RDKit          3D

 75 80  0  0  0  0  0  0  0  0999 V2000
   10.2804   43.7665   33.8251 C   0  0  0  0  0  0  0  0  0  0  0  0
   11.4111   43.5920   34.3667 O   0  0  0  0  0  0  0  0  0  0  0  0
    9.3619   42.7249   33.7347 O   0  0  0  0  0  0  0  0  0  0  0  0
    9.8900   41.2267   34.2944 P   0  0  0  0  0  0  0  0  0  0  0  0
   10.3728   41.4567   35.8839 O   0  0  0  0  0  0  0  0  0  0  0  0
    9.9458   45.0736   33.2113 C   0  0  1  0  0  0  0  0  0  0  0  0
   11.0266   46.0293   33.4706 N   0  0  0  0  0  0  0  0  0  0  0  0
    9.7534   44.8539   31.6951 C   0  0  0  0  0  0  0  0  0  0  0  0
    8.7954   45.8412   31.0852 C   0  0  0  0  0  0  0  0  0  0  0  0
    7.4087   45.6001   31.1000 C   0  0  0  0  0  0  0  0  0  0  0  0
    9.2830   46.9874   30.4394 C   0  0  0  0  0  0  0  0  0  0  0  0
    6.5283   46.5003   30.4841 C   0  0  0  0  0  0  0  0  0  0  0  0
    8.4025   47.8884   29.8294 C   0  0  0  0  0  0  0  0  0  0  0  0
    7.0135   47.6527   29.8506 C   0  0  0  0  0  0  0  0  0  0  0  0
    6.0864   48.5263   29.2605 O   0  0  0  0  0  0  0  0  0  0  0  0
    6.3909   49.8141   28.7229 C   0  0  0  0  0  0  0  0  0  0  0  0
    6.7839   50.7785   29.8182 C   0  0  0  0  0  0  0  0  0  0  0  0
    8.0097   51.4741   29.6937 C   0  0  0  0  0  0  0  0  0  0  0  0
    5.9772   50.9728   30.9886 C   0  0  0  0  0  0  0  0  0  0  0  0
    8.4063   52.3080   30.7305 C   0  0  0  0  0  0  0  0  0  0  0  0
    6.4409   51.8265   32.0174 C   0  0  0  0  0  0  0  0  0  0  0  0
    4.7104   50.3105   31.1537 N   0  0  0  0  0  0  0  0  0  0  0  0
    9.5551   53.0692   30.8290 O   0  0  0  0  0  0  0  0  0  0  0  0
    7.6571   52.4741   31.8445 C   0  0  0  0  0  0  0  0  0  0  0  0
    3.8477   50.1707   30.0919 O   0  0  0  0  0  0  0  0  0  0  0  0
    4.3102   50.0025   32.2955 O   0  0  0  0  0  0  0  0  0  0  0  0
    9.5231   53.7575   32.0868 C   0  0  0  0  0  0  0  0  0  0  0  0
    8.2940   53.3494   32.7030 O   0  0  0  0  0  0  0  0  0  0  0  0
    8.8127   40.1842   34.2128 O   0  0  0  0  0  0  0  0  0  0  0  0
   11.2415   40.7951   33.3705 O   0  0  0  0  0  0  0  0  0  0  0  0
   10.9178   40.6922   31.9983 C   0  0  0  0  0  0  0  0  0  0  0  0
   11.5175   39.3837   31.4423 C   0  0  0  0  0  0  0  0  0  0  0  0
   12.7507   39.0887   32.0753 O   0  0  0  0  0  0  0  0  0  0  0  0
   10.6027   38.1916   31.6659 C   0  0  0  0  0  0  0  0  0  0  0  0
   12.9384   37.6819   32.0278 C   0  0  0  0  0  0  0  0  0  0  0  0
    9.6371   38.0805   30.6471 O   0  0  0  0  0  0  0  0  0  0  0  0
   11.5780   37.0215   31.6935 C   0  0  0  0  0  0  0  0  0  0  0  0
   13.4844   37.2119   33.3242 N   0  0  0  0  0  0  0  0  0  0  0  0
   11.6095   36.3201   30.4679 O   0  0  0  0  0  0  0  0  0  0  0  0
   14.4797   36.3318   33.5730 C   0  0  0  0  0  0  0  0  0  0  0  0
   13.1136   37.6278   34.5691 C   0  0  0  0  0  0  0  0  0  0  0  0
   15.2073   35.6155   32.6743 N   0  0  0  0  0  0  0  0  0  0  0  0
   14.6754   36.2304   34.9184 C   0  0  0  0  0  0  0  0  0  0  0  0
   13.8213   37.0452   35.5785 N   0  0  0  0  0  0  0  0  0  0  0  0
   16.1640   34.7604   33.1549 C   0  0  0  0  0  0  0  0  0  0  0  0
   15.6524   35.3507   35.4132 C   0  0  0  0  0  0  0  0  0  0  0  0
   16.3794   34.6317   34.5044 N   0  0  0  0  0  0  0  0  0  0  0  0
   15.9000   35.1934   36.8091 N   0  0  0  0  0  0  0  0  0  0  0  0
    8.9995   45.4382   33.6725 H   0  0  0  0  0  0  0  0  0  0  0  0
   10.7762   46.9369   33.0156 H   0  0  0  0  0  0  0  0  0  0  0  0
   11.0503   46.2280   34.4980 H   0  0  0  0  0  0  0  0  0  0  0  0
   10.7405   44.9069   31.1836 H   0  0  0  0  0  0  0  0  0  0  0  0
    9.3633   43.8353   31.4717 H   0  0  0  0  0  0  0  0  0  0  0  0
    7.0130   44.7156   31.5839 H   0  0  0  0  0  0  0  0  0  0  0  0
   10.3474   47.1845   30.4037 H   0  0  0  0  0  0  0  0  0  0  0  0
    5.4637   46.3043   30.5050 H   0  0  0  0  0  0  0  0  0  0  0  0
    8.8154   48.7557   29.3359 H   0  0  0  0  0  0  0  0  0  0  0  0
    5.4940   50.2074   28.2027 H   0  0  0  0  0  0  0  0  0  0  0  0
    7.1807   49.7178   27.9466 H   0  0  0  0  0  0  0  0  0  0  0  0
    8.6433   51.3569   28.8236 H   0  0  0  0  0  0  0  0  0  0  0  0
    5.8628   51.9926   32.9173 H   0  0  0  0  0  0  0  0  0  0  0  0
   10.3863   53.4515   32.7142 H   0  0  0  0  0  0  0  0  0  0  0  0
    9.5237   54.8557   31.9238 H   0  0  0  0  0  0  0  0  0  0  0  0
   11.3951   41.5477   31.4741 H   0  0  0  0  0  0  0  0  0  0  0  0
    9.8291   40.7409   31.7624 H   0  0  0  0  0  0  0  0  0  0  0  0
   11.6982   39.5114   30.3500 H   0  0  0  0  0  0  0  0  0  0  0  0
   10.1117   38.2604   32.6661 H   0  0  0  0  0  0  0  0  0  0  0  0
   13.6767   37.4556   31.2267 H   0  0  0  0  0  0  0  0  0  0  0  0
    8.8960   38.6950   30.8873 H   0  0  0  0  0  0  0  0  0  0  0  0
   11.2791   36.3072   32.4923 H   0  0  0  0  0  0  0  0  0  0  0  0
   11.8829   36.9598   29.7589 H   0  0  0  0  0  0  0  0  0  0  0  0
   12.3300   38.3538   34.7446 H   0  0  0  0  0  0  0  0  0  0  0  0
   16.7561   34.1785   32.4622 H   0  0  0  0  0  0  0  0  0  0  0  0
   15.3531   35.7360   37.5140 H   0  0  0  0  0  0  0  0  0  0  0  0
   16.6347   34.5302   37.1416 H   0  0  0  0  0  0  0  0  0  0  0  0
  1  2  2  0
  1  3  1  0
  3  4  1  0
  4  5  1  0
  6  1  1  0
  7  6  1  0
  6  8  1  0
  8  9  1  0
  9 10  2  0
 11  9  1  0
 10 12  1  0
 13 11  2  0
 12 14  2  0
 14 13  1  0
 14 15  1  0
 15 16  1  0
 16 17  1  0
 17 18  2  0
 19 17  1  0
 18 20  1  0
 21 19  2  0
 19 22  1  0
 20 23  1  0
 20 24  2  0
 24 21  1  0
 22 25  1  0
 22 26  2  0
 23 27  1  0
 24 28  1  0
 27 28  1  0
  4 29  2  0
  4 30  1  0
 31 30  1  0
 31 32  1  0
 32 33  1  0
 32 34  1  0
 33 35  1  0
 34 36  1  0
 34 37  1  0
 37 35  1  0
 35 38  1  0
 37 39  1  0
 40 38  1  0
 41 38  1  0
 42 40  2  0
 40 43  1  0
 44 41  2  0
 45 42  1  0
 43 46  2  0
 43 44  1  0
 47 45  2  0
 47 46  1  0
 46 48  1  0
  6 49  1  1
  7 50  1  0
  7 51  1  0
  8 52  1  0
  8 53  1  0
 10 54  1  0
 11 55  1  0
 12 56  1  0
 13 57  1  0
 16 58  1  0
 16 59  1  0
 18 60  1  0
 21 61  1  0
 27 62  1  0
 27 63  1  0
 31 64  1  0
 31 65  1  0
 32 66  1  0
 34 67  1  0
 35 68  1  0
 36 69  1  0
 37 70  1  0
 39 71  1  0
 41 72  1  0
 45 73  1  0
 48 74  1  0
 48 75  1  0
M  CHG  3   5  -1  22   1  25  -1
M  END
>  <EmbedRMS>  (160) 
0.0818050664951

$$$$

     RDKit          3D

 75 80  0  0  0  0  0  0  0  0999 V2000
   10.2805   43.7664   33.8250 C   0  0  0  0  0  0  0  0  0  0  0  0
   11.4111   43.5918   34.3666 O   0  0  0  0  0  0  0  0  0  0  0  0
    9.3619   42.7250   33.7345 O   0  0  0  0  0  0  0  0  0  0  0  0
    9.8898   41.2266   34.2940 P   0  0  0  0  0  0  0  0  0  0  0  0
   10.3735   41.4566   35.8832 O   0  0  0  0  0  0  0  0  0  0  0  0
    9.9460   45.0737   33.2114 C   0  0  1  0  0  0  0  0  0  0  0  0
   11.0267   46.0293   33.4711 N   0  0  0  0  0  0  0  0  0  0  0  0
    9.7540   44.8544   31.6951 C   0  0  0  0  0  0  0  0  0  0  0  0
    8.7957   45.8418   31.0856 C   0  0  0  0  0  0  0  0  0  0  0  0
    7.4092   45.5997   31.1001 C   0  0  0  0  0  0  0  0  0  0  0  0
    9.2825   46.9875   30.4387 C   0  0  0  0  0  0  0  0  0  0  0  0
    6.5264   46.4979   30.4840 C   0  0  0  0  0  0  0  0  0  0  0  0
    8.3995   47.8861   29.8292 C   0  0  0  0  0  0  0  0  0  0  0  0
    7.0175   47.6568   29.8507 C   0  0  0  0  0  0  0  0  0  0  0  0
    6.1809   48.5950   29.2261 O   0  0  0  0  0  0  0  0  0  0  0  0
    4.7659   48.6960   29.3950 C   0  0  0  0  0  0  0  0  0  0  0  0
    4.4220   49.2025   30.7774 C   0  0  0  0  0  0  0  0  0  0  0  0
    3.7968   48.3091   31.6803 C   0  0  0  0  0  0  0  0  0  0  0  0
    4.6602   50.5626   31.1820 C   0  0  0  0  0  0  0  0  0  0  0  0
    3.4587   48.7698   32.9448 C   0  0  0  0  0  0  0  0  0  0  0  0
    4.2825   50.9723   32.4829 C   0  0  0  0  0  0  0  0  0  0  0  0
    5.2258   51.5469   30.2937 N   0  0  0  0  0  0  0  0  0  0  0  0
    2.8571   48.0779   33.9783 O   0  0  0  0  0  0  0  0  0  0  0  0
    3.6932   50.0440   33.3299 C   0  0  0  0  0  0  0  0  0  0  0  0
    4.9346   52.8798   30.4744 O   0  0  0  0  0  0  0  0  0  0  0  0
    6.0845   51.2361   29.4444 O   0  0  0  0  0  0  0  0  0  0  0  0
    2.7077   48.9779   35.0848 C   0  0  0  0  0  0  0  0  0  0  0  0
    3.2539   50.2226   34.6277 O   0  0  0  0  0  0  0  0  0  0  0  0
    8.8122   40.1844   34.2134 O   0  0  0  0  0  0  0  0  0  0  0  0
   11.2402   40.7943   33.3689 O   0  0  0  0  0  0  0  0  0  0  0  0
   10.9142   40.6898   31.9971 C   0  0  0  0  0  0  0  0  0  0  0  0
   11.5261   39.3884   31.4375 C   0  0  0  0  0  0  0  0  0  0  0  0
   12.7504   39.0888   32.0816 O   0  0  0  0  0  0  0  0  0  0  0  0
   10.6115   38.1910   31.6460 C   0  0  0  0  0  0  0  0  0  0  0  0
   12.9357   37.6812   32.0303 C   0  0  0  0  0  0  0  0  0  0  0  0
    9.6145   38.0859   30.6534 O   0  0  0  0  0  0  0  0  0  0  0  0
   11.5769   37.0148   31.7012 C   0  0  0  0  0  0  0  0  0  0  0  0
   13.4849   37.2112   33.3247 N   0  0  0  0  0  0  0  0  0  0  0  0
   11.6193   36.3260   30.4724 O   0  0  0  0  0  0  0  0  0  0  0  0
   14.4802   36.3313   33.5730 C   0  0  0  0  0  0  0  0  0  0  0  0
   13.1141   37.6269   34.5698 C   0  0  0  0  0  0  0  0  0  0  0  0
   15.2075   35.6151   32.6741 N   0  0  0  0  0  0  0  0  0  0  0  0
   14.6760   36.2300   34.9184 C   0  0  0  0  0  0  0  0  0  0  0  0
   13.8221   37.0445   35.5789 N   0  0  0  0  0  0  0  0  0  0  0  0
   16.1642   34.7600   33.1547 C   0  0  0  0  0  0  0  0  0  0  0  0
   15.6529   35.3504   35.4132 C   0  0  0  0  0  0  0  0  0  0  0  0
   16.3797   34.6314   34.5042 N   0  0  0  0  0  0  0  0  0  0  0  0
   15.9004   35.1931   36.8091 N   0  0  0  0  0  0  0  0  0  0  0  0
    8.9996   45.4381   33.6725 H   0  0  0  0  0  0  0  0  0  0  0  0
   11.0503   46.2278   34.4985 H   0  0  0  0  0  0  0  0  0  0  0  0
   10.7764   46.9370   33.0162 H   0  0  0  0  0  0  0  0  0  0  0  0
    9.3644   43.8357   31.4712 H   0  0  0  0  0  0  0  0  0  0  0  0
   10.7411   44.9083   31.1837 H   0  0  0  0  0  0  0  0  0  0  0  0
    7.0156   44.7114   31.5788 H   0  0  0  0  0  0  0  0  0  0  0  0
   10.3463   47.1870   30.4033 H   0  0  0  0  0  0  0  0  0  0  0  0
    5.4731   46.2667   30.4910 H   0  0  0  0  0  0  0  0  0  0  0  0
    8.7913   48.7682   29.3387 H   0  0  0  0  0  0  0  0  0  0  0  0
    4.3618   49.4039   28.6414 H   0  0  0  0  0  0  0  0  0  0  0  0
    4.2884   47.7166   29.1781 H   0  0  0  0  0  0  0  0  0  0  0  0
    3.5686   47.2877   31.4060 H   0  0  0  0  0  0  0  0  0  0  0  0
    4.4465   51.9852   32.8267 H   0  0  0  0  0  0  0  0  0  0  0  0
    3.2797   48.6073   35.9612 H   0  0  0  0  0  0  0  0  0  0  0  0
    1.6337   49.1005   35.3378 H   0  0  0  0  0  0  0  0  0  0  0  0
    9.8232   40.7191   31.7644 H   0  0  0  0  0  0  0  0  0  0  0  0
   11.3777   41.5526   31.4724 H   0  0  0  0  0  0  0  0  0  0  0  0
   11.7284   39.5310   30.3514 H   0  0  0  0  0  0  0  0  0  0  0  0
   10.1127   38.2734   32.6377 H   0  0  0  0  0  0  0  0  0  0  0  0
   13.6693   37.4566   31.2242 H   0  0  0  0  0  0  0  0  0  0  0  0
   10.0534   38.1117   29.7636 H   0  0  0  0  0  0  0  0  0  0  0  0
   11.2606   36.3148   32.5102 H   0  0  0  0  0  0  0  0  0  0  0  0
   12.1496   35.5023   30.6324 H   0  0  0  0  0  0  0  0  0  0  0  0
   12.3301   38.3524   34.7455 H   0  0  0  0  0  0  0  0  0  0  0  0
   16.7562   34.1781   32.4620 H   0  0  0  0  0  0  0  0  0  0  0  0
   15.3535   35.7357   37.5140 H   0  0  0  0  0  0  0  0  0  0  0  0
   16.6350   34.5298   37.1415 H   0  0  0  0  0  0  0  0  0  0  0  0
  1  2  2  0
  1  3  1  0
  3  4  1  0
  4  5  1  0
  6  1  1  0
  7  6  1  0
  6  8  1  0
  8  9  1  0
  9 10  2  0
 11  9  1  0
 10 12  1  0
 13 11  2  0
 12 14  2  0
 14 13  1  0
 14 15  1  0
 15 16  1  0
 16 17  1  0
 17 18  2  0
 19 17  1  0
 18 20  1  0
 21 19  2  0
 19 22  1  0
 20 23  1  0
 20 24  2  0
 24 21  1  0
 22 25  1  0
 22 26  2  0
 23 27  1  0
 24 28  1  0
 27 28  1  0
  4 29  2  0
  4 30  1  0
 31 30  1  0
 31 32  1  0
 32 33  1  0
 32 34  1  0
 33 35  1  0
 34 36  1  0
 34 37  1  0
 37 35  1  0
 35 38  1  0
 37 39  1  0
 40 38  1  0
 41 38  1  0
 42 40  2  0
 40 43  1  0
 44 41  2  0
 45 42  1  0
 43 46  2  0
 43 44  1  0
 47 45  2  0
 47 46  1  0
 46 48  1  0
  6 49  1  1
  7 50  1  0
  7 51  1  0
  8 52  1  0
  8 53  1  0
 10 54  1  0
 11 55  1  0
 12 56  1  0
 13 57  1  0
 16 58  1  0
 16 59  1  0
 18 60  1  0
 21 61  1  0
 27 62  1  0
 27 63  1  0
 31 64  1  0
 31 65  1  0
 32 66  1  0
 34 67  1  0
 35 68  1  0
 36 69  1  0
 37 70  1  0
 39 71  1  0
 41 72  1  0
 45 73  1  0
 48 74  1  0
 48 75  1  0
M  CHG  3   5  -1  22   1  25  -1
M  END
>  <EmbedRMS>  (161) 
0.0814497914921

$$$$

     RDKit          3D

 75 80  0  0  0  0  0  0  0  0999 V2000
   10.2804   43.7664   33.8250 C   0  0  0  0  0  0  0  0  0  0  0  0
   11.4111   43.5919   34.3667 O   0  0  0  0  0  0  0  0  0  0  0  0
    9.3619   42.7249   33.7346 O   0  0  0  0  0  0  0  0  0  0  0  0
    9.8900   41.2267   34.2944 P   0  0  0  0  0  0  0  0  0  0  0  0
   10.3728   41.4567   35.8839 O   0  0  0  0  0  0  0  0  0  0  0  0
    9.9460   45.0736   33.2112 C   0  0  1  0  0  0  0  0  0  0  0  0
   11.0267   46.0292   33.4708 N   0  0  0  0  0  0  0  0  0  0  0  0
    9.7539   44.8542   31.6949 C   0  0  0  0  0  0  0  0  0  0  0  0
    8.7956   45.8411   31.0848 C   0  0  0  0  0  0  0  0  0  0  0  0
    7.4086   45.5998   31.1010 C   0  0  0  0  0  0  0  0  0  0  0  0
    9.2825   46.9880   30.4396 C   0  0  0  0  0  0  0  0  0  0  0  0
    6.5256   46.4989   30.4863 C   0  0  0  0  0  0  0  0  0  0  0  0
    8.3998   47.8877   29.8309 C   0  0  0  0  0  0  0  0  0  0  0  0
    7.0187   47.6544   29.8467 C   0  0  0  0  0  0  0  0  0  0  0  0
    6.1782   48.5868   29.2218 O   0  0  0  0  0  0  0  0  0  0  0  0
    4.7566   48.4895   29.1763 C   0  0  0  0  0  0  0  0  0  0  0  0
    4.1890   49.6962   28.4733 C   0  0  0  0  0  0  0  0  0  0  0  0
    3.3867   49.4918   27.3255 C   0  0  0  0  0  0  0  0  0  0  0  0
    4.4730   51.0346   28.9080 C   0  0  0  0  0  0  0  0  0  0  0  0
    2.9064   50.6036   26.6462 C   0  0  0  0  0  0  0  0  0  0  0  0
    3.9648   52.1272   28.1656 C   0  0  0  0  0  0  0  0  0  0  0  0
    5.2798   51.3009   30.0703 N   0  0  0  0  0  0  0  0  0  0  0  0
    2.1166   50.6430   25.5133 O   0  0  0  0  0  0  0  0  0  0  0  0
    3.1849   51.8651   27.0471 C   0  0  0  0  0  0  0  0  0  0  0  0
    5.1650   50.5263   31.2008 O   0  0  0  0  0  0  0  0  0  0  0  0
    5.9767   52.3355   30.1228 O   0  0  0  0  0  0  0  0  0  0  0  0
    1.8845   52.0193   25.1835 C   0  0  0  0  0  0  0  0  0  0  0  0
    2.5845   52.7657   26.1883 O   0  0  0  0  0  0  0  0  0  0  0  0
    8.8127   40.1842   34.2128 O   0  0  0  0  0  0  0  0  0  0  0  0
   11.2414   40.7950   33.3705 O   0  0  0  0  0  0  0  0  0  0  0  0
   10.9178   40.6921   31.9983 C   0  0  0  0  0  0  0  0  0  0  0  0
   11.5175   39.3837   31.4423 C   0  0  0  0  0  0  0  0  0  0  0  0
   12.7507   39.0887   32.0753 O   0  0  0  0  0  0  0  0  0  0  0  0
   10.6027   38.1916   31.6659 C   0  0  0  0  0  0  0  0  0  0  0  0
   12.9384   37.6819   32.0278 C   0  0  0  0  0  0  0  0  0  0  0  0
    9.6371   38.0805   30.6470 O   0  0  0  0  0  0  0  0  0  0  0  0
   11.5780   37.0215   31.6935 C   0  0  0  0  0  0  0  0  0  0  0  0
   13.4844   37.2119   33.3242 N   0  0  0  0  0  0  0  0  0  0  0  0
   11.6095   36.3201   30.4679 O   0  0  0  0  0  0  0  0  0  0  0  0
   14.4797   36.3318   33.5730 C   0  0  0  0  0  0  0  0  0  0  0  0
   13.1135   37.6278   34.5691 C   0  0  0  0  0  0  0  0  0  0  0  0
   15.2073   35.6155   32.6742 N   0  0  0  0  0  0  0  0  0  0  0  0
   14.6754   36.2305   34.9184 C   0  0  0  0  0  0  0  0  0  0  0  0
   13.8213   37.0452   35.5785 N   0  0  0  0  0  0  0  0  0  0  0  0
   16.1640   34.7604   33.1549 C   0  0  0  0  0  0  0  0  0  0  0  0
   15.6525   35.3507   35.4132 C   0  0  0  0  0  0  0  0  0  0  0  0
   16.3794   34.6318   34.5044 N   0  0  0  0  0  0  0  0  0  0  0  0
   15.9000   35.1934   36.8091 N   0  0  0  0  0  0  0  0  0  0  0  0
    8.9996   45.4382   33.6722 H   0  0  0  0  0  0  0  0  0  0  0  0
   11.0503   46.2277   34.4982 H   0  0  0  0  0  0  0  0  0  0  0  0
   10.7765   46.9369   33.0159 H   0  0  0  0  0  0  0  0  0  0  0  0
    9.3645   43.8354   31.4711 H   0  0  0  0  0  0  0  0  0  0  0  0
   10.7411   44.9079   31.1835 H   0  0  0  0  0  0  0  0  0  0  0  0
    7.0145   44.7149   31.5855 H   0  0  0  0  0  0  0  0  0  0  0  0
   10.3463   47.1879   30.4055 H   0  0  0  0  0  0  0  0  0  0  0  0
    5.4660   46.2852   30.5149 H   0  0  0  0  0  0  0  0  0  0  0  0
    8.7915   48.7701   29.3408 H   0  0  0  0  0  0  0  0  0  0  0  0
    4.3384   48.4293   30.2026 H   0  0  0  0  0  0  0  0  0  0  0  0
    4.4762   47.5535   28.6454 H   0  0  0  0  0  0  0  0  0  0  0  0
    3.1510   48.4982   26.9656 H   0  0  0  0  0  0  0  0  0  0  0  0
    4.1605   53.1502   28.4603 H   0  0  0  0  0  0  0  0  0  0  0  0
    2.2974   52.2484   24.1787 H   0  0  0  0  0  0  0  0  0  0  0  0
    0.7985   52.2463   25.2246 H   0  0  0  0  0  0  0  0  0  0  0  0
    9.8290   40.7409   31.7624 H   0  0  0  0  0  0  0  0  0  0  0  0
   11.3951   41.5477   31.4742 H   0  0  0  0  0  0  0  0  0  0  0  0
   11.6982   39.5114   30.3500 H   0  0  0  0  0  0  0  0  0  0  0  0
   10.1117   38.2604   32.6661 H   0  0  0  0  0  0  0  0  0  0  0  0
   13.6767   37.4556   31.2267 H   0  0  0  0  0  0  0  0  0  0  0  0
    8.8960   38.6950   30.8873 H   0  0  0  0  0  0  0  0  0  0  0  0
   11.2792   36.3072   32.4922 H   0  0  0  0  0  0  0  0  0  0  0  0
   11.8828   36.9598   29.7589 H   0  0  0  0  0  0  0  0  0  0  0  0
   12.3300   38.3538   34.7446 H   0  0  0  0  0  0  0  0  0  0  0  0
   16.7561   34.1785   32.4621 H   0  0  0  0  0  0  0  0  0  0  0  0
   16.6347   34.5303   37.1416 H   0  0  0  0  0  0  0  0  0  0  0  0
   15.3531   35.7360   37.5140 H   0  0  0  0  0  0  0  0  0  0  0  0
  1  2  2  0
  1  3  1  0
  3  4  1  0
  4  5  1  0
  6  1  1  0
  7  6  1  0
  6  8  1  0
  8  9  1  0
  9 10  2  0
 11  9  1  0
 10 12  1  0
 13 11  2  0
 12 14  2  0
 14 13  1  0
 14 15  1  0
 15 16  1  0
 16 17  1  0
 17 18  2  0
 19 17  1  0
 18 20  1  0
 21 19  2  0
 19 22  1  0
 20 23  1  0
 20 24  2  0
 24 21  1  0
 22 25  1  0
 22 26  2  0
 23 27  1  0
 24 28  1  0
 27 28  1  0
  4 29  2  0
  4 30  1  0
 31 30  1  0
 31 32  1  0
 32 33  1  0
 32 34  1  0
 33 35  1  0
 34 36  1  0
 34 37  1  0
 37 35  1  0
 35 38  1  0
 37 39  1  0
 40 38  1  0
 41 38  1  0
 42 40  2  0
 40 43  1  0
 44 41  2  0
 45 42  1  0
 43 46  2  0
 43 44  1  0
 47 45  2  0
 47 46  1  0
 46 48  1  0
  6 49  1  1
  7 50  1  0
  7 51  1  0
  8 52  1  0
  8 53  1  0
 10 54  1  0
 11 55  1  0
 12 56  1  0
 13 57  1  0
 16 58  1  0
 16 59  1  0
 18 60  1  0
 21 61  1  0
 27 62  1  0
 27 63  1  0
 31 64  1  0
 31 65  1  0
 32 66  1  0
 34 67  1  0
 35 68  1  0
 36 69  1  0
 37 70  1  0
 39 71  1  0
 41 72  1  0
 45 73  1  0
 48 74  1  0
 48 75  1  0
M  CHG  3   5  -1  22   1  25  -1
M  END
>  <EmbedRMS>  (162) 
0.0817862622782

$$$$

     RDKit          3D

 75 80  0  0  0  0  0  0  0  0999 V2000
   10.2803   43.7665   33.8250 C   0  0  0  0  0  0  0  0  0  0  0  0
   11.4110   43.5919   34.3666 O   0  0  0  0  0  0  0  0  0  0  0  0
    9.3616   42.7251   33.7348 O   0  0  0  0  0  0  0  0  0  0  0  0
    9.8896   41.2269   34.2945 P   0  0  0  0  0  0  0  0  0  0  0  0
   10.3732   41.4568   35.8838 O   0  0  0  0  0  0  0  0  0  0  0  0
    9.9459   45.0736   33.2111 C   0  0  1  0  0  0  0  0  0  0  0  0
   11.0267   46.0291   33.4705 N   0  0  0  0  0  0  0  0  0  0  0  0
    9.7536   44.8538   31.6948 C   0  0  0  0  0  0  0  0  0  0  0  0
    8.7956   45.8409   31.0845 C   0  0  0  0  0  0  0  0  0  0  0  0
    7.4086   45.6007   31.1011 C   0  0  0  0  0  0  0  0  0  0  0  0
    9.2830   46.9879   30.4401 C   0  0  0  0  0  0  0  0  0  0  0  0
    6.5280   46.5014   30.4861 C   0  0  0  0  0  0  0  0  0  0  0  0
    8.4024   47.8896   29.8313 C   0  0  0  0  0  0  0  0  0  0  0  0
    7.0136   47.6502   29.8464 C   0  0  0  0  0  0  0  0  0  0  0  0
    6.0879   48.5174   29.2437 O   0  0  0  0  0  0  0  0  0  0  0  0
    6.4236   49.6735   28.4745 C   0  0  0  0  0  0  0  0  0  0  0  0
    7.0559   49.2787   27.1583 C   0  0  0  0  0  0  0  0  0  0  0  0
    6.4394   48.2534   26.4030 C   0  0  0  0  0  0  0  0  0  0  0  0
    8.2675   49.8756   26.6776 C   0  0  0  0  0  0  0  0  0  0  0  0
    7.0629   47.8222   25.2393 C   0  0  0  0  0  0  0  0  0  0  0  0
    8.8658   49.3836   25.4956 C   0  0  0  0  0  0  0  0  0  0  0  0
    8.8845   50.9823   27.3521 N   0  0  0  0  0  0  0  0  0  0  0  0
    6.6574   46.8344   24.3626 O   0  0  0  0  0  0  0  0  0  0  0  0
    8.2281   48.3587   24.8084 C   0  0  0  0  0  0  0  0  0  0  0  0
   10.2562   51.0832   27.3851 O   0  0  0  0  0  0  0  0  0  0  0  0
    8.1998   51.9693   27.6912 O   0  0  0  0  0  0  0  0  0  0  0  0
    7.6317   46.7468   23.3138 C   0  0  0  0  0  0  0  0  0  0  0  0
    8.6169   47.7377   23.6370 O   0  0  0  0  0  0  0  0  0  0  0  0
    8.8122   40.1844   34.2135 O   0  0  0  0  0  0  0  0  0  0  0  0
   11.2401   40.7950   33.3698 O   0  0  0  0  0  0  0  0  0  0  0  0
   10.9143   40.6914   31.9981 C   0  0  0  0  0  0  0  0  0  0  0  0
   11.5270   39.3911   31.4385 C   0  0  0  0  0  0  0  0  0  0  0  0
   12.7519   39.0911   32.0837 O   0  0  0  0  0  0  0  0  0  0  0  0
   10.6113   38.1932   31.6451 C   0  0  0  0  0  0  0  0  0  0  0  0
   12.9413   37.6838   32.0297 C   0  0  0  0  0  0  0  0  0  0  0  0
    9.6064   38.0877   30.6599 O   0  0  0  0  0  0  0  0  0  0  0  0
   11.5822   37.0197   31.6877 C   0  0  0  0  0  0  0  0  0  0  0  0
   13.4840   37.2104   33.3254 N   0  0  0  0  0  0  0  0  0  0  0  0
   11.6179   36.3072   30.4690 O   0  0  0  0  0  0  0  0  0  0  0  0
   14.4797   36.3309   33.5738 C   0  0  0  0  0  0  0  0  0  0  0  0
   13.1137   37.6269   34.5702 C   0  0  0  0  0  0  0  0  0  0  0  0
   15.2074   35.6152   32.6747 N   0  0  0  0  0  0  0  0  0  0  0  0
   14.6756   36.2298   34.9190 C   0  0  0  0  0  0  0  0  0  0  0  0
   13.8217   37.0445   35.5793 N   0  0  0  0  0  0  0  0  0  0  0  0
   16.1643   34.7603   33.1551 C   0  0  0  0  0  0  0  0  0  0  0  0
   15.6528   35.3503   35.4136 C   0  0  0  0  0  0  0  0  0  0  0  0
   16.3798   34.6316   34.5046 N   0  0  0  0  0  0  0  0  0  0  0  0
   15.9004   35.1930   36.8094 N   0  0  0  0  0  0  0  0  0  0  0  0
    8.9996   45.4383   33.6721 H   0  0  0  0  0  0  0  0  0  0  0  0
   10.7765   46.9368   33.0154 H   0  0  0  0  0  0  0  0  0  0  0  0
   11.0504   46.2278   34.4978 H   0  0  0  0  0  0  0  0  0  0  0  0
   10.7407   44.9069   31.1833 H   0  0  0  0  0  0  0  0  0  0  0  0
    9.3636   43.8352   31.4714 H   0  0  0  0  0  0  0  0  0  0  0  0
    7.0130   44.7165   31.5855 H   0  0  0  0  0  0  0  0  0  0  0  0
   10.3471   47.1872   30.4079 H   0  0  0  0  0  0  0  0  0  0  0  0
    5.4637   46.3038   30.5047 H   0  0  0  0  0  0  0  0  0  0  0  0
    8.8142   48.7664   29.3532 H   0  0  0  0  0  0  0  0  0  0  0  0
    7.0653   50.3368   29.0872 H   0  0  0  0  0  0  0  0  0  0  0  0
    5.4874   50.2282   28.2557 H   0  0  0  0  0  0  0  0  0  0  0  0
    5.5160   47.7899   26.7269 H   0  0  0  0  0  0  0  0  0  0  0  0
    9.7841   49.8073   25.1099 H   0  0  0  0  0  0  0  0  0  0  0  0
    7.1632   46.9776   22.3341 H   0  0  0  0  0  0  0  0  0  0  0  0
    8.0934   45.7372   23.3019 H   0  0  0  0  0  0  0  0  0  0  0  0
    9.8233   40.7200   31.7652 H   0  0  0  0  0  0  0  0  0  0  0  0
   11.3775   41.5548   31.4741 H   0  0  0  0  0  0  0  0  0  0  0  0
   11.7312   39.5361   30.3532 H   0  0  0  0  0  0  0  0  0  0  0  0
   10.1202   38.2696   32.6410 H   0  0  0  0  0  0  0  0  0  0  0  0
   13.6850   37.4639   31.2321 H   0  0  0  0  0  0  0  0  0  0  0  0
   10.0251   38.1792   29.7654 H   0  0  0  0  0  0  0  0  0  0  0  0
   11.2757   36.3135   32.4907 H   0  0  0  0  0  0  0  0  0  0  0  0
   11.9838   36.9111   29.7708 H   0  0  0  0  0  0  0  0  0  0  0  0
   12.3307   38.3536   34.7458 H   0  0  0  0  0  0  0  0  0  0  0  0
   16.7566   34.1786   32.4623 H   0  0  0  0  0  0  0  0  0  0  0  0
   16.6353   34.5301   37.1419 H   0  0  0  0  0  0  0  0  0  0  0  0
   15.3535   35.7355   37.5144 H   0  0  0  0  0  0  0  0  0  0  0  0
  1  2  2  0
  1  3  1  0
  3  4  1  0
  4  5  1  0
  6  1  1  0
  7  6  1  0
  6  8  1  0
  8  9  1  0
  9 10  2  0
 11  9  1  0
 10 12  1  0
 13 11  2  0
 12 14  2  0
 14 13  1  0
 14 15  1  0
 15 16  1  0
 16 17  1  0
 17 18  2  0
 19 17  1  0
 18 20  1  0
 21 19  2  0
 19 22  1  0
 20 23  1  0
 20 24  2  0
 24 21  1  0
 22 25  1  0
 22 26  2  0
 23 27  1  0
 24 28  1  0
 27 28  1  0
  4 29  2  0
  4 30  1  0
 31 30  1  0
 31 32  1  0
 32 33  1  0
 32 34  1  0
 33 35  1  0
 34 36  1  0
 34 37  1  0
 37 35  1  0
 35 38  1  0
 37 39  1  0
 40 38  1  0
 41 38  1  0
 42 40  2  0
 40 43  1  0
 44 41  2  0
 45 42  1  0
 43 46  2  0
 43 44  1  0
 47 45  2  0
 47 46  1  0
 46 48  1  0
  6 49  1  1
  7 50  1  0
  7 51  1  0
  8 52  1  0
  8 53  1  0
 10 54  1  0
 11 55  1  0
 12 56  1  0
 13 57  1  0
 16 58  1  0
 16 59  1  0
 18 60  1  0
 21 61  1  0
 27 62  1  0
 27 63  1  0
 31 64  1  0
 31 65  1  0
 32 66  1  0
 34 67  1  0
 35 68  1  0
 36 69  1  0
 37 70  1  0
 39 71  1  0
 41 72  1  0
 45 73  1  0
 48 74  1  0
 48 75  1  0
M  CHG  3   5  -1  22   1  25  -1
M  END
>  <EmbedRMS>  (163) 
0.0806594255019

$$$$

     RDKit          3D

 75 80  0  0  0  0  0  0  0  0999 V2000
   10.2834   43.7662   33.8256 C   0  0  0  0  0  0  0  0  0  0  0  0
   11.4102   43.5930   34.3752 O   0  0  0  0  0  0  0  0  0  0  0  0
    9.3637   42.7255   33.7348 O   0  0  0  0  0  0  0  0  0  0  0  0
    9.8906   41.2266   34.2933 P   0  0  0  0  0  0  0  0  0  0  0  0
   10.3743   41.4557   35.8827 O   0  0  0  0  0  0  0  0  0  0  0  0
    9.9547   45.0696   33.2036 C   0  0  1  0  0  0  0  0  0  0  0  0
   11.0273   46.0323   33.4760 N   0  0  0  0  0  0  0  0  0  0  0  0
    9.7471   44.8484   31.6876 C   0  0  0  0  0  0  0  0  0  0  0  0
    8.7926   45.8408   31.0843 C   0  0  0  0  0  0  0  0  0  0  0  0
    7.4059   45.6009   31.0992 C   0  0  0  0  0  0  0  0  0  0  0  0
    9.2817   46.9877   30.4417 C   0  0  0  0  0  0  0  0  0  0  0  0
    6.5250   46.5011   30.4844 C   0  0  0  0  0  0  0  0  0  0  0  0
    8.4003   47.8880   29.8320 C   0  0  0  0  0  0  0  0  0  0  0  0
    7.0183   47.6568   29.8471 C   0  0  0  0  0  0  0  0  0  0  0  0
    6.1809   48.5958   29.2237 O   0  0  0  0  0  0  0  0  0  0  0  0
    4.7529   48.5420   29.1908 C   0  0  0  0  0  0  0  0  0  0  0  0
    4.1573   48.7774   30.5624 C   0  0  0  0  0  0  0  0  0  0  0  0
    4.7262   49.7875   31.3753 C   0  0  0  0  0  0  0  0  0  0  0  0
    2.9804   48.0936   31.0151 C   0  0  0  0  0  0  0  0  0  0  0  0
    4.1371   50.0623   32.6025 C   0  0  0  0  0  0  0  0  0  0  0  0
    2.4158   48.4273   32.2663 C   0  0  0  0  0  0  0  0  0  0  0  0
    2.3269   47.0974   30.2159 N   0  0  0  0  0  0  0  0  0  0  0  0
    4.5233   50.9877   33.5529 O   0  0  0  0  0  0  0  0  0  0  0  0
    3.0310   49.4108   33.0294 C   0  0  0  0  0  0  0  0  0  0  0  0
    0.9552   47.1076   30.1127 O   0  0  0  0  0  0  0  0  0  0  0  0
    2.9482   46.0770   29.8564 O   0  0  0  0  0  0  0  0  0  0  0  0
    3.6005   50.9087   34.6479 C   0  0  0  0  0  0  0  0  0  0  0  0
    2.6634   49.8901   34.2719 O   0  0  0  0  0  0  0  0  0  0  0  0
    8.8123   40.1851   34.2127 O   0  0  0  0  0  0  0  0  0  0  0  0
   11.2406   40.7945   33.3670 O   0  0  0  0  0  0  0  0  0  0  0  0
   10.9134   40.6866   31.9954 C   0  0  0  0  0  0  0  0  0  0  0  0
   11.5167   39.3787   31.4404 C   0  0  0  0  0  0  0  0  0  0  0  0
   12.7486   39.0849   32.0735 O   0  0  0  0  0  0  0  0  0  0  0  0
   10.6039   38.1884   31.6669 C   0  0  0  0  0  0  0  0  0  0  0  0
   12.9329   37.6776   32.0284 C   0  0  0  0  0  0  0  0  0  0  0  0
    9.6374   38.0938   30.6484 O   0  0  0  0  0  0  0  0  0  0  0  0
   11.5737   37.0141   31.7055 C   0  0  0  0  0  0  0  0  0  0  0  0
   13.4853   37.2120   33.3238 N   0  0  0  0  0  0  0  0  0  0  0  0
   11.6210   36.3379   30.4683 O   0  0  0  0  0  0  0  0  0  0  0  0
   14.4804   36.3319   33.5726 C   0  0  0  0  0  0  0  0  0  0  0  0
   13.1141   37.6275   34.5689 C   0  0  0  0  0  0  0  0  0  0  0  0
   15.2076   35.6152   32.6740 N   0  0  0  0  0  0  0  0  0  0  0  0
   14.6761   36.2306   34.9181 C   0  0  0  0  0  0  0  0  0  0  0  0
   13.8218   37.0451   35.5783 N   0  0  0  0  0  0  0  0  0  0  0  0
   16.1642   34.7600   33.1548 C   0  0  0  0  0  0  0  0  0  0  0  0
   15.6527   35.3507   35.4131 C   0  0  0  0  0  0  0  0  0  0  0  0
   16.3795   34.6315   34.5043 N   0  0  0  0  0  0  0  0  0  0  0  0
   15.9001   35.1933   36.8090 N   0  0  0  0  0  0  0  0  0  0  0  0
    9.0119   45.4317   33.6712 H   0  0  0  0  0  0  0  0  0  0  0  0
   10.7259   46.9689   33.1215 H   0  0  0  0  0  0  0  0  0  0  0  0
   11.8907   45.7660   32.9476 H   0  0  0  0  0  0  0  0  0  0  0  0
    9.3425   43.8331   31.4758 H   0  0  0  0  0  0  0  0  0  0  0  0
   10.7236   44.8824   31.1558 H   0  0  0  0  0  0  0  0  0  0  0  0
    7.0099   44.7157   31.5816 H   0  0  0  0  0  0  0  0  0  0  0  0
   10.3460   47.1862   30.4099 H   0  0  0  0  0  0  0  0  0  0  0  0
    5.4680   46.2874   30.5128 H   0  0  0  0  0  0  0  0  0  0  0  0
    8.7934   48.7707   29.3437 H   0  0  0  0  0  0  0  0  0  0  0  0
    4.3970   49.3557   28.5252 H   0  0  0  0  0  0  0  0  0  0  0  0
    4.4331   47.5902   28.7268 H   0  0  0  0  0  0  0  0  0  0  0  0
    5.5962   50.3483   31.0577 H   0  0  0  0  0  0  0  0  0  0  0  0
    1.5276   47.9290   32.6331 H   0  0  0  0  0  0  0  0  0  0  0  0
    4.1319   50.6161   35.5777 H   0  0  0  0  0  0  0  0  0  0  0  0
    3.0784   51.8794   34.7809 H   0  0  0  0  0  0  0  0  0  0  0  0
   11.3827   41.5438   31.4669 H   0  0  0  0  0  0  0  0  0  0  0  0
    9.8225   40.7225   31.7631 H   0  0  0  0  0  0  0  0  0  0  0  0
   11.6979   39.5037   30.3478 H   0  0  0  0  0  0  0  0  0  0  0  0
   10.1084   38.2787   32.6627 H   0  0  0  0  0  0  0  0  0  0  0  0
   13.6638   37.4472   31.2214 H   0  0  0  0  0  0  0  0  0  0  0  0
    8.9763   37.4191   30.9532 H   0  0  0  0  0  0  0  0  0  0  0  0
   11.2821   36.3054   32.5172 H   0  0  0  0  0  0  0  0  0  0  0  0
   10.8658   35.6935   30.4652 H   0  0  0  0  0  0  0  0  0  0  0  0
   12.3293   38.3523   34.7444 H   0  0  0  0  0  0  0  0  0  0  0  0
   16.7561   34.1778   32.4621 H   0  0  0  0  0  0  0  0  0  0  0  0
   15.3533   35.7361   37.5138 H   0  0  0  0  0  0  0  0  0  0  0  0
   16.6345   34.5300   37.1416 H   0  0  0  0  0  0  0  0  0  0  0  0
  1  2  2  0
  1  3  1  0
  3  4  1  0
  4  5  1  0
  6  1  1  0
  7  6  1  0
  6  8  1  0
  8  9  1  0
  9 10  2  0
 11  9  1  0
 10 12  1  0
 13 11  2  0
 12 14  2  0
 14 13  1  0
 14 15  1  0
 15 16  1  0
 16 17  1  0
 17 18  2  0
 19 17  1  0
 18 20  1  0
 21 19  2  0
 19 22  1  0
 20 23  1  0
 20 24  2  0
 24 21  1  0
 22 25  1  0
 22 26  2  0
 23 27  1  0
 24 28  1  0
 27 28  1  0
  4 29  2  0
  4 30  1  0
 31 30  1  0
 31 32  1  0
 32 33  1  0
 32 34  1  0
 33 35  1  0
 34 36  1  0
 34 37  1  0
 37 35  1  0
 35 38  1  0
 37 39  1  0
 40 38  1  0
 41 38  1  0
 42 40  2  0
 40 43  1  0
 44 41  2  0
 45 42  1  0
 43 46  2  0
 43 44  1  0
 47 45  2  0
 47 46  1  0
 46 48  1  0
  6 49  1  1
  7 50  1  0
  7 51  1  0
  8 52  1  0
  8 53  1  0
 10 54  1  0
 11 55  1  0
 12 56  1  0
 13 57  1  0
 16 58  1  0
 16 59  1  0
 18 60  1  0
 21 61  1  0
 27 62  1  0
 27 63  1  0
 31 64  1  0
 31 65  1  0
 32 66  1  0
 34 67  1  0
 35 68  1  0
 36 69  1  0
 37 70  1  0
 39 71  1  0
 41 72  1  0
 45 73  1  0
 48 74  1  0
 48 75  1  0
M  CHG  3   5  -1  22   1  25  -1
M  END
>  <EmbedRMS>  (164) 
0.0825509494139

$$$$

     RDKit          3D

 75 80  0  0  0  0  0  0  0  0999 V2000
   10.2835   43.7662   33.8256 C   0  0  0  0  0  0  0  0  0  0  0  0
   11.4102   43.5930   34.3752 O   0  0  0  0  0  0  0  0  0  0  0  0
    9.3638   42.7255   33.7347 O   0  0  0  0  0  0  0  0  0  0  0  0
    9.8906   41.2266   34.2933 P   0  0  0  0  0  0  0  0  0  0  0  0
   10.3743   41.4557   35.8827 O   0  0  0  0  0  0  0  0  0  0  0  0
    9.9547   45.0695   33.2035 C   0  0  1  0  0  0  0  0  0  0  0  0
   11.0274   46.0322   33.4759 N   0  0  0  0  0  0  0  0  0  0  0  0
    9.7471   44.8484   31.6875 C   0  0  0  0  0  0  0  0  0  0  0  0
    8.7925   45.8409   31.0843 C   0  0  0  0  0  0  0  0  0  0  0  0
    7.4056   45.6008   31.0993 C   0  0  0  0  0  0  0  0  0  0  0  0
    9.2818   46.9880   30.4418 C   0  0  0  0  0  0  0  0  0  0  0  0
    6.5241   46.5011   30.4849 C   0  0  0  0  0  0  0  0  0  0  0  0
    8.4005   47.8885   29.8321 C   0  0  0  0  0  0  0  0  0  0  0  0
    7.0189   47.6564   29.8465 C   0  0  0  0  0  0  0  0  0  0  0  0
    6.1796   48.5901   29.2217 O   0  0  0  0  0  0  0  0  0  0  0  0
    4.7588   48.4914   29.1727 C   0  0  0  0  0  0  0  0  0  0  0  0
    4.1987   49.6895   28.4521 C   0  0  0  0  0  0  0  0  0  0  0  0
    3.8159   49.5384   27.0985 C   0  0  0  0  0  0  0  0  0  0  0  0
    4.0203   50.9579   29.1014 C   0  0  0  0  0  0  0  0  0  0  0  0
    3.2580   50.6277   26.4428 C   0  0  0  0  0  0  0  0  0  0  0  0
    3.4336   52.0263   28.3833 C   0  0  0  0  0  0  0  0  0  0  0  0
    4.4023   51.1766   30.4724 N   0  0  0  0  0  0  0  0  0  0  0  0
    2.8123   50.7088   25.1375 O   0  0  0  0  0  0  0  0  0  0  0  0
    3.0725   51.8178   27.0586 C   0  0  0  0  0  0  0  0  0  0  0  0
    3.7486   52.1267   31.2232 O   0  0  0  0  0  0  0  0  0  0  0  0
    5.4227   50.6380   30.9473 O   0  0  0  0  0  0  0  0  0  0  0  0
    2.3152   52.0366   24.9215 C   0  0  0  0  0  0  0  0  0  0  0  0
    2.5003   52.7113   26.1735 O   0  0  0  0  0  0  0  0  0  0  0  0
    8.8123   40.1851   34.2127 O   0  0  0  0  0  0  0  0  0  0  0  0
   11.2407   40.7945   33.3670 O   0  0  0  0  0  0  0  0  0  0  0  0
   10.9135   40.6866   31.9954 C   0  0  0  0  0  0  0  0  0  0  0  0
   11.5167   39.3787   31.4404 C   0  0  0  0  0  0  0  0  0  0  0  0
   12.7486   39.0849   32.0734 O   0  0  0  0  0  0  0  0  0  0  0  0
   10.6039   38.1884   31.6669 C   0  0  0  0  0  0  0  0  0  0  0  0
   12.9329   37.6776   32.0284 C   0  0  0  0  0  0  0  0  0  0  0  0
    9.6374   38.0938   30.6484 O   0  0  0  0  0  0  0  0  0  0  0  0
   11.5737   37.0141   31.7055 C   0  0  0  0  0  0  0  0  0  0  0  0
   13.4853   37.2120   33.3238 N   0  0  0  0  0  0  0  0  0  0  0  0
   11.6210   36.3379   30.4683 O   0  0  0  0  0  0  0  0  0  0  0  0
   14.4804   36.3319   33.5726 C   0  0  0  0  0  0  0  0  0  0  0  0
   13.1141   37.6275   34.5689 C   0  0  0  0  0  0  0  0  0  0  0  0
   15.2076   35.6152   32.6740 N   0  0  0  0  0  0  0  0  0  0  0  0
   14.6761   36.2306   34.9181 C   0  0  0  0  0  0  0  0  0  0  0  0
   13.8218   37.0451   35.5783 N   0  0  0  0  0  0  0  0  0  0  0  0
   16.1642   34.7600   33.1548 C   0  0  0  0  0  0  0  0  0  0  0  0
   15.6527   35.3506   35.4131 C   0  0  0  0  0  0  0  0  0  0  0  0
   16.3795   34.6315   34.5043 N   0  0  0  0  0  0  0  0  0  0  0  0
   15.9000   35.1933   36.8090 N   0  0  0  0  0  0  0  0  0  0  0  0
    9.0121   45.4317   33.6712 H   0  0  0  0  0  0  0  0  0  0  0  0
   11.8908   45.7659   32.9475 H   0  0  0  0  0  0  0  0  0  0  0  0
   10.7261   46.9688   33.1214 H   0  0  0  0  0  0  0  0  0  0  0  0
    9.3426   43.8331   31.4757 H   0  0  0  0  0  0  0  0  0  0  0  0
   10.7236   44.8825   31.1557 H   0  0  0  0  0  0  0  0  0  0  0  0
    7.0100   44.7154   31.5818 H   0  0  0  0  0  0  0  0  0  0  0  0
   10.3460   47.1864   30.4102 H   0  0  0  0  0  0  0  0  0  0  0  0
    5.4644   46.2884   30.5126 H   0  0  0  0  0  0  0  0  0  0  0  0
    8.7935   48.7710   29.3432 H   0  0  0  0  0  0  0  0  0  0  0  0
    4.4785   47.5547   28.6425 H   0  0  0  0  0  0  0  0  0  0  0  0
    4.3342   48.4330   30.1979 H   0  0  0  0  0  0  0  0  0  0  0  0
    3.9421   48.5992   26.5745 H   0  0  0  0  0  0  0  0  0  0  0  0
    3.2785   52.9959   28.8385 H   0  0  0  0  0  0  0  0  0  0  0  0
    1.2370   52.0051   24.6590 H   0  0  0  0  0  0  0  0  0  0  0  0
    2.9006   52.5409   24.1243 H   0  0  0  0  0  0  0  0  0  0  0  0
    9.8226   40.7225   31.7631 H   0  0  0  0  0  0  0  0  0  0  0  0
   11.3828   41.5438   31.4669 H   0  0  0  0  0  0  0  0  0  0  0  0
   11.6979   39.5037   30.3478 H   0  0  0  0  0  0  0  0  0  0  0  0
   10.1084   38.2787   32.6627 H   0  0  0  0  0  0  0  0  0  0  0  0
   13.6638   37.4472   31.2214 H   0  0  0  0  0  0  0  0  0  0  0  0
    8.9763   37.4191   30.9532 H   0  0  0  0  0  0  0  0  0  0  0  0
   11.2821   36.3054   32.5172 H   0  0  0  0  0  0  0  0  0  0  0  0
   10.8658   35.6935   30.4652 H   0  0  0  0  0  0  0  0  0  0  0  0
   12.3293   38.3523   34.7444 H   0  0  0  0  0  0  0  0  0  0  0  0
   16.7561   34.1778   32.4622 H   0  0  0  0  0  0  0  0  0  0  0  0
   15.3532   35.7361   37.5139 H   0  0  0  0  0  0  0  0  0  0  0  0
   16.6345   34.5300   37.1416 H   0  0  0  0  0  0  0  0  0  0  0  0
  1  2  2  0
  1  3  1  0
  3  4  1  0
  4  5  1  0
  6  1  1  0
  7  6  1  0
  6  8  1  0
  8  9  1  0
  9 10  2  0
 11  9  1  0
 10 12  1  0
 13 11  2  0
 12 14  2  0
 14 13  1  0
 14 15  1  0
 15 16  1  0
 16 17  1  0
 17 18  2  0
 19 17  1  0
 18 20  1  0
 21 19  2  0
 19 22  1  0
 20 23  1  0
 20 24  2  0
 24 21  1  0
 22 25  1  0
 22 26  2  0
 23 27  1  0
 24 28  1  0
 27 28  1  0
  4 29  2  0
  4 30  1  0
 31 30  1  0
 31 32  1  0
 32 33  1  0
 32 34  1  0
 33 35  1  0
 34 36  1  0
 34 37  1  0
 37 35  1  0
 35 38  1  0
 37 39  1  0
 40 38  1  0
 41 38  1  0
 42 40  2  0
 40 43  1  0
 44 41  2  0
 45 42  1  0
 43 46  2  0
 43 44  1  0
 47 45  2  0
 47 46  1  0
 46 48  1  0
  6 49  1  1
  7 50  1  0
  7 51  1  0
  8 52  1  0
  8 53  1  0
 10 54  1  0
 11 55  1  0
 12 56  1  0
 13 57  1  0
 16 58  1  0
 16 59  1  0
 18 60  1  0
 21 61  1  0
 27 62  1  0
 27 63  1  0
 31 64  1  0
 31 65  1  0
 32 66  1  0
 34 67  1  0
 35 68  1  0
 36 69  1  0
 37 70  1  0
 39 71  1  0
 41 72  1  0
 45 73  1  0
 48 74  1  0
 48 75  1  0
M  CHG  3   5  -1  22   1  25  -1
M  END
>  <EmbedRMS>  (165) 
0.0825474050278

$$$$

     RDKit          3D

 75 80  0  0  0  0  0  0  0  0999 V2000
   10.2805   43.7663   33.8250 C   0  0  0  0  0  0  0  0  0  0  0  0
   11.4111   43.5919   34.3668 O   0  0  0  0  0  0  0  0  0  0  0  0
    9.3622   42.7247   33.7343 O   0  0  0  0  0  0  0  0  0  0  0  0
    9.8904   41.2264   34.2936 P   0  0  0  0  0  0  0  0  0  0  0  0
   10.3731   41.4564   35.8832 O   0  0  0  0  0  0  0  0  0  0  0  0
    9.9459   45.0735   33.2112 C   0  0  1  0  0  0  0  0  0  0  0  0
   11.0267   46.0291   33.4706 N   0  0  0  0  0  0  0  0  0  0  0  0
    9.7535   44.8539   31.6950 C   0  0  0  0  0  0  0  0  0  0  0  0
    8.7955   45.8411   31.0848 C   0  0  0  0  0  0  0  0  0  0  0  0
    7.4085   45.6005   31.1008 C   0  0  0  0  0  0  0  0  0  0  0  0
    9.2831   46.9879   30.4398 C   0  0  0  0  0  0  0  0  0  0  0  0
    6.5278   46.5009   30.4854 C   0  0  0  0  0  0  0  0  0  0  0  0
    8.4024   47.8894   29.8302 C   0  0  0  0  0  0  0  0  0  0  0  0
    7.0138   47.6508   29.8481 C   0  0  0  0  0  0  0  0  0  0  0  0
    6.0915   48.5219   29.2502 O   0  0  0  0  0  0  0  0  0  0  0  0
    6.4411   49.7272   28.5722 C   0  0  0  0  0  0  0  0  0  0  0  0
    5.1887   50.4267   28.1050 C   0  0  0  0  0  0  0  0  0  0  0  0
    4.1473   50.6241   29.0423 C   0  0  0  0  0  0  0  0  0  0  0  0
    5.0098   50.8632   26.7518 C   0  0  0  0  0  0  0  0  0  0  0  0
    2.9602   51.1960   28.6028 C   0  0  0  0  0  0  0  0  0  0  0  0
    3.7729   51.4239   26.3575 C   0  0  0  0  0  0  0  0  0  0  0  0
    6.0721   50.7829   25.7894 N   0  0  0  0  0  0  0  0  0  0  0  0
    1.8168   51.4678   29.3291 O   0  0  0  0  0  0  0  0  0  0  0  0
    2.7786   51.5731   27.3158 C   0  0  0  0  0  0  0  0  0  0  0  0
    7.3195   51.2720   26.1022 O   0  0  0  0  0  0  0  0  0  0  0  0
    5.8162   50.5007   24.6006 O   0  0  0  0  0  0  0  0  0  0  0  0
    0.8565   52.0539   28.4394 C   0  0  0  0  0  0  0  0  0  0  0  0
    1.5117   52.1031   27.1646 O   0  0  0  0  0  0  0  0  0  0  0  0
    8.8129   40.1841   34.2124 O   0  0  0  0  0  0  0  0  0  0  0  0
   11.2419   40.7944   33.3695 O   0  0  0  0  0  0  0  0  0  0  0  0
   10.9186   40.6911   31.9969 C   0  0  0  0  0  0  0  0  0  0  0  0
   11.5172   39.3814   31.4407 C   0  0  0  0  0  0  0  0  0  0  0  0
   12.7492   39.0856   32.0729 O   0  0  0  0  0  0  0  0  0  0  0  0
   10.6023   38.1908   31.6665 C   0  0  0  0  0  0  0  0  0  0  0  0
   12.9319   37.6781   32.0281 C   0  0  0  0  0  0  0  0  0  0  0  0
    9.6392   38.0797   30.6452 O   0  0  0  0  0  0  0  0  0  0  0  0
   11.5715   37.0165   31.7056 C   0  0  0  0  0  0  0  0  0  0  0  0
   13.4847   37.2121   33.3235 N   0  0  0  0  0  0  0  0  0  0  0  0
   11.6187   36.3383   30.4695 O   0  0  0  0  0  0  0  0  0  0  0  0
   14.4801   36.3321   33.5724 C   0  0  0  0  0  0  0  0  0  0  0  0
   13.1137   37.6275   34.5688 C   0  0  0  0  0  0  0  0  0  0  0  0
   15.2073   35.6153   32.6738 N   0  0  0  0  0  0  0  0  0  0  0  0
   14.6759   36.2308   34.9179 C   0  0  0  0  0  0  0  0  0  0  0  0
   13.8216   37.0452   35.5781 N   0  0  0  0  0  0  0  0  0  0  0  0
   16.1640   34.7602   33.1546 C   0  0  0  0  0  0  0  0  0  0  0  0
   15.6526   35.3508   35.4129 C   0  0  0  0  0  0  0  0  0  0  0  0
   16.3794   34.6317   34.5041 N   0  0  0  0  0  0  0  0  0  0  0  0
   15.8999   35.1935   36.8088 N   0  0  0  0  0  0  0  0  0  0  0  0
    8.9996   45.4380   33.6724 H   0  0  0  0  0  0  0  0  0  0  0  0
   11.0505   46.2276   34.4980 H   0  0  0  0  0  0  0  0  0  0  0  0
   10.7763   46.9368   33.0157 H   0  0  0  0  0  0  0  0  0  0  0  0
    9.3635   43.8353   31.4715 H   0  0  0  0  0  0  0  0  0  0  0  0
   10.7406   44.9069   31.1835 H   0  0  0  0  0  0  0  0  0  0  0  0
    7.0130   44.7162   31.5851 H   0  0  0  0  0  0  0  0  0  0  0  0
   10.3474   47.1863   30.4064 H   0  0  0  0  0  0  0  0  0  0  0  0
    5.4634   46.3042   30.5050 H   0  0  0  0  0  0  0  0  0  0  0  0
    8.8121   48.7646   29.3450 H   0  0  0  0  0  0  0  0  0  0  0  0
    7.1083   49.4681   27.7267 H   0  0  0  0  0  0  0  0  0  0  0  0
    6.9827   50.4020   29.2695 H   0  0  0  0  0  0  0  0  0  0  0  0
    4.2532   50.3214   30.0767 H   0  0  0  0  0  0  0  0  0  0  0  0
    3.6044   51.7605   25.3425 H   0  0  0  0  0  0  0  0  0  0  0  0
    0.5966   53.0793   28.7765 H   0  0  0  0  0  0  0  0  0  0  0  0
   -0.0506   51.4167   28.3796 H   0  0  0  0  0  0  0  0  0  0  0  0
    9.8298   40.7409   31.7611 H   0  0  0  0  0  0  0  0  0  0  0  0
   11.3967   41.5459   31.4726 H   0  0  0  0  0  0  0  0  0  0  0  0
   11.6975   39.5066   30.3481 H   0  0  0  0  0  0  0  0  0  0  0  0
   10.1077   38.2647   32.6645 H   0  0  0  0  0  0  0  0  0  0  0  0
   13.6621   37.4468   31.2209 H   0  0  0  0  0  0  0  0  0  0  0  0
    8.8974   38.6942   30.8832 H   0  0  0  0  0  0  0  0  0  0  0  0
   11.2806   36.3073   32.5170 H   0  0  0  0  0  0  0  0  0  0  0  0
   10.8493   35.7110   30.4586 H   0  0  0  0  0  0  0  0  0  0  0  0
   12.3290   38.3524   34.7444 H   0  0  0  0  0  0  0  0  0  0  0  0
   16.7559   34.1780   32.4619 H   0  0  0  0  0  0  0  0  0  0  0  0
   16.6344   34.5301   37.1414 H   0  0  0  0  0  0  0  0  0  0  0  0
   15.3531   35.7362   37.5137 H   0  0  0  0  0  0  0  0  0  0  0  0
  1  2  2  0
  1  3  1  0
  3  4  1  0
  4  5  1  0
  6  1  1  0
  7  6  1  0
  6  8  1  0
  8  9  1  0
  9 10  2  0
 11  9  1  0
 10 12  1  0
 13 11  2  0
 12 14  2  0
 14 13  1  0
 14 15  1  0
 15 16  1  0
 16 17  1  0
 17 18  2  0
 19 17  1  0
 18 20  1  0
 21 19  2  0
 19 22  1  0
 20 23  1  0
 20 24  2  0
 24 21  1  0
 22 25  1  0
 22 26  2  0
 23 27  1  0
 24 28  1  0
 27 28  1  0
  4 29  2  0
  4 30  1  0
 31 30  1  0
 31 32  1  0
 32 33  1  0
 32 34  1  0
 33 35  1  0
 34 36  1  0
 34 37  1  0
 37 35  1  0
 35 38  1  0
 37 39  1  0
 40 38  1  0
 41 38  1  0
 42 40  2  0
 40 43  1  0
 44 41  2  0
 45 42  1  0
 43 46  2  0
 43 44  1  0
 47 45  2  0
 47 46  1  0
 46 48  1  0
  6 49  1  1
  7 50  1  0
  7 51  1  0
  8 52  1  0
  8 53  1  0
 10 54  1  0
 11 55  1  0
 12 56  1  0
 13 57  1  0
 16 58  1  0
 16 59  1  0
 18 60  1  0
 21 61  1  0
 27 62  1  0
 27 63  1  0
 31 64  1  0
 31 65  1  0
 32 66  1  0
 34 67  1  0
 35 68  1  0
 36 69  1  0
 37 70  1  0
 39 71  1  0
 41 72  1  0
 45 73  1  0
 48 74  1  0
 48 75  1  0
M  CHG  3   5  -1  22   1  25  -1
M  END
>  <EmbedRMS>  (166) 
0.0827687047256

$$$$

     RDKit          3D

 75 80  0  0  0  0  0  0  0  0999 V2000
   10.2804   43.7664   33.8250 C   0  0  0  0  0  0  0  0  0  0  0  0
   11.4110   43.5918   34.3666 O   0  0  0  0  0  0  0  0  0  0  0  0
    9.3618   42.7249   33.7346 O   0  0  0  0  0  0  0  0  0  0  0  0
    9.8899   41.2266   34.2940 P   0  0  0  0  0  0  0  0  0  0  0  0
   10.3735   41.4566   35.8832 O   0  0  0  0  0  0  0  0  0  0  0  0
    9.9459   45.0736   33.2112 C   0  0  1  0  0  0  0  0  0  0  0  0
   11.0267   46.0291   33.4706 N   0  0  0  0  0  0  0  0  0  0  0  0
    9.7535   44.8539   31.6950 C   0  0  0  0  0  0  0  0  0  0  0  0
    8.7955   45.8412   31.0848 C   0  0  0  0  0  0  0  0  0  0  0  0
    7.4085   45.6005   31.1008 C   0  0  0  0  0  0  0  0  0  0  0  0
    9.2831   46.9879   30.4398 C   0  0  0  0  0  0  0  0  0  0  0  0
    6.5278   46.5010   30.4855 C   0  0  0  0  0  0  0  0  0  0  0  0
    8.4024   47.8894   29.8302 C   0  0  0  0  0  0  0  0  0  0  0  0
    7.0139   47.6508   29.8481 C   0  0  0  0  0  0  0  0  0  0  0  0
    6.0916   48.5207   29.2490 O   0  0  0  0  0  0  0  0  0  0  0  0
    6.4419   49.7144   28.5527 C   0  0  0  0  0  0  0  0  0  0  0  0
    5.1964   50.3636   28.0042 C   0  0  0  0  0  0  0  0  0  0  0  0
    4.8906   51.6838   28.4124 C   0  0  0  0  0  0  0  0  0  0  0  0
    4.2992   49.6708   27.1213 C   0  0  0  0  0  0  0  0  0  0  0  0
    3.7173   52.2651   27.9507 C   0  0  0  0  0  0  0  0  0  0  0  0
    3.1126   50.3129   26.6962 C   0  0  0  0  0  0  0  0  0  0  0  0
    4.5553   48.3283   26.6679 N   0  0  0  0  0  0  0  0  0  0  0  0
    3.2207   53.5265   28.2178 O   0  0  0  0  0  0  0  0  0  0  0  0
    2.8652   51.6082   27.1310 C   0  0  0  0  0  0  0  0  0  0  0  0
    3.5041   47.5025   26.3415 O   0  0  0  0  0  0  0  0  0  0  0  0
    5.7157   47.9485   26.4107 O   0  0  0  0  0  0  0  0  0  0  0  0
    1.9766   53.6693   27.5189 C   0  0  0  0  0  0  0  0  0  0  0  0
    1.7873   52.4215   26.8379 O   0  0  0  0  0  0  0  0  0  0  0  0
    8.8123   40.1844   34.2134 O   0  0  0  0  0  0  0  0  0  0  0  0
   11.2402   40.7944   33.3689 O   0  0  0  0  0  0  0  0  0  0  0  0
   10.9142   40.6898   31.9971 C   0  0  0  0  0  0  0  0  0  0  0  0
   11.5260   39.3884   31.4376 C   0  0  0  0  0  0  0  0  0  0  0  0
   12.7504   39.0888   32.0816 O   0  0  0  0  0  0  0  0  0  0  0  0
   10.6114   38.1909   31.6460 C   0  0  0  0  0  0  0  0  0  0  0  0
   12.9357   37.6812   32.0303 C   0  0  0  0  0  0  0  0  0  0  0  0
    9.6145   38.0858   30.6533 O   0  0  0  0  0  0  0  0  0  0  0  0
   11.5769   37.0148   31.7012 C   0  0  0  0  0  0  0  0  0  0  0  0
   13.4849   37.2112   33.3247 N   0  0  0  0  0  0  0  0  0  0  0  0
   11.6193   36.3261   30.4724 O   0  0  0  0  0  0  0  0  0  0  0  0
   14.4802   36.3313   33.5730 C   0  0  0  0  0  0  0  0  0  0  0  0
   13.1141   37.6268   34.5698 C   0  0  0  0  0  0  0  0  0  0  0  0
   15.2075   35.6151   32.6741 N   0  0  0  0  0  0  0  0  0  0  0  0
   14.6761   36.2300   34.9184 C   0  0  0  0  0  0  0  0  0  0  0  0
   13.8220   37.0445   35.5789 N   0  0  0  0  0  0  0  0  0  0  0  0
   16.1642   34.7600   33.1547 C   0  0  0  0  0  0  0  0  0  0  0  0
   15.6529   35.3503   35.4132 C   0  0  0  0  0  0  0  0  0  0  0  0
   16.3798   34.6314   34.5042 N   0  0  0  0  0  0  0  0  0  0  0  0
   15.9004   35.1930   36.8091 N   0  0  0  0  0  0  0  0  0  0  0  0
    8.9996   45.4382   33.6723 H   0  0  0  0  0  0  0  0  0  0  0  0
   10.7765   46.9368   33.0157 H   0  0  0  0  0  0  0  0  0  0  0  0
   11.0505   46.2276   34.4980 H   0  0  0  0  0  0  0  0  0  0  0  0
   10.7406   44.9070   31.1835 H   0  0  0  0  0  0  0  0  0  0  0  0
    9.3635   43.8353   31.4715 H   0  0  0  0  0  0  0  0  0  0  0  0
    7.0130   44.7161   31.5849 H   0  0  0  0  0  0  0  0  0  0  0  0
   10.3473   47.1865   30.4065 H   0  0  0  0  0  0  0  0  0  0  0  0
    5.4634   46.3039   30.5042 H   0  0  0  0  0  0  0  0  0  0  0  0
    8.8120   48.7650   29.3457 H   0  0  0  0  0  0  0  0  0  0  0  0
    7.1389   49.4873   27.7190 H   0  0  0  0  0  0  0  0  0  0  0  0
    6.9696   50.3984   29.2530 H   0  0  0  0  0  0  0  0  0  0  0  0
    5.5404   52.2388   29.0772 H   0  0  0  0  0  0  0  0  0  0  0  0
    2.4106   49.8228   26.0342 H   0  0  0  0  0  0  0  0  0  0  0  0
    2.0413   54.5001   26.7853 H   0  0  0  0  0  0  0  0  0  0  0  0
    1.1493   53.8424   28.2387 H   0  0  0  0  0  0  0  0  0  0  0  0
   11.3777   41.5526   31.4724 H   0  0  0  0  0  0  0  0  0  0  0  0
    9.8232   40.7190   31.7645 H   0  0  0  0  0  0  0  0  0  0  0  0
   11.7283   39.5311   30.3515 H   0  0  0  0  0  0  0  0  0  0  0  0
   10.1127   38.2733   32.6377 H   0  0  0  0  0  0  0  0  0  0  0  0
   13.6692   37.4566   31.2242 H   0  0  0  0  0  0  0  0  0  0  0  0
   10.0533   38.1118   29.7635 H   0  0  0  0  0  0  0  0  0  0  0  0
   11.2607   36.3148   32.5102 H   0  0  0  0  0  0  0  0  0  0  0  0
   12.1496   35.5023   30.6324 H   0  0  0  0  0  0  0  0  0  0  0  0
   12.3301   38.3524   34.7455 H   0  0  0  0  0  0  0  0  0  0  0  0
   16.7562   34.1780   32.4619 H   0  0  0  0  0  0  0  0  0  0  0  0
   16.6351   34.5298   37.1416 H   0  0  0  0  0  0  0  0  0  0  0  0
   15.3536   35.7357   37.5140 H   0  0  0  0  0  0  0  0  0  0  0  0
  1  2  2  0
  1  3  1  0
  3  4  1  0
  4  5  1  0
  6  1  1  0
  7  6  1  0
  6  8  1  0
  8  9  1  0
  9 10  2  0
 11  9  1  0
 10 12  1  0
 13 11  2  0
 12 14  2  0
 14 13  1  0
 14 15  1  0
 15 16  1  0
 16 17  1  0
 17 18  2  0
 19 17  1  0
 18 20  1  0
 21 19  2  0
 19 22  1  0
 20 23  1  0
 20 24  2  0
 24 21  1  0
 22 25  1  0
 22 26  2  0
 23 27  1  0
 24 28  1  0
 27 28  1  0
  4 29  2  0
  4 30  1  0
 31 30  1  0
 31 32  1  0
 32 33  1  0
 32 34  1  0
 33 35  1  0
 34 36  1  0
 34 37  1  0
 37 35  1  0
 35 38  1  0
 37 39  1  0
 40 38  1  0
 41 38  1  0
 42 40  2  0
 40 43  1  0
 44 41  2  0
 45 42  1  0
 43 46  2  0
 43 44  1  0
 47 45  2  0
 47 46  1  0
 46 48  1  0
  6 49  1  1
  7 50  1  0
  7 51  1  0
  8 52  1  0
  8 53  1  0
 10 54  1  0
 11 55  1  0
 12 56  1  0
 13 57  1  0
 16 58  1  0
 16 59  1  0
 18 60  1  0
 21 61  1  0
 27 62  1  0
 27 63  1  0
 31 64  1  0
 31 65  1  0
 32 66  1  0
 34 67  1  0
 35 68  1  0
 36 69  1  0
 37 70  1  0
 39 71  1  0
 41 72  1  0
 45 73  1  0
 48 74  1  0
 48 75  1  0
M  CHG  3   5  -1  22   1  25  -1
M  END
>  <EmbedRMS>  (167) 
0.0814475319618

$$$$

     RDKit          3D

 75 80  0  0  0  0  0  0  0  0999 V2000
   10.2834   43.7662   33.8256 C   0  0  0  0  0  0  0  0  0  0  0  0
   11.4102   43.5930   34.3752 O   0  0  0  0  0  0  0  0  0  0  0  0
    9.3637   42.7255   33.7348 O   0  0  0  0  0  0  0  0  0  0  0  0
    9.8907   41.2265   34.2933 P   0  0  0  0  0  0  0  0  0  0  0  0
   10.3743   41.4557   35.8828 O   0  0  0  0  0  0  0  0  0  0  0  0
    9.9546   45.0694   33.2035 C   0  0  1  0  0  0  0  0  0  0  0  0
   11.0273   46.0321   33.4755 N   0  0  0  0  0  0  0  0  0  0  0  0
    9.7466   44.8480   31.6875 C   0  0  0  0  0  0  0  0  0  0  0  0
    8.7923   45.8407   31.0842 C   0  0  0  0  0  0  0  0  0  0  0  0
    7.4055   45.6018   31.0995 C   0  0  0  0  0  0  0  0  0  0  0  0
    9.2823   46.9879   30.4427 C   0  0  0  0  0  0  0  0  0  0  0  0
    6.5265   46.5036   30.4846 C   0  0  0  0  0  0  0  0  0  0  0  0
    8.4033   47.8903   29.8327 C   0  0  0  0  0  0  0  0  0  0  0  0
    7.0141   47.6519   29.8456 C   0  0  0  0  0  0  0  0  0  0  0  0
    6.0900   48.5196   29.2410 O   0  0  0  0  0  0  0  0  0  0  0  0
    6.4279   49.6742   28.4704 C   0  0  0  0  0  0  0  0  0  0  0  0
    7.0632   49.2770   27.1567 C   0  0  0  0  0  0  0  0  0  0  0  0
    6.4516   48.2486   26.4019 C   0  0  0  0  0  0  0  0  0  0  0  0
    8.2744   49.8755   26.6797 C   0  0  0  0  0  0  0  0  0  0  0  0
    7.0796   47.8169   25.2408 C   0  0  0  0  0  0  0  0  0  0  0  0
    8.8773   49.3839   25.4990 C   0  0  0  0  0  0  0  0  0  0  0  0
    8.8790   50.9880   27.3563 N   0  0  0  0  0  0  0  0  0  0  0  0
    6.6792   46.8264   24.3648 O   0  0  0  0  0  0  0  0  0  0  0  0
    8.2444   48.3559   24.8119 C   0  0  0  0  0  0  0  0  0  0  0  0
    8.1132   52.0735   27.7140 O   0  0  0  0  0  0  0  0  0  0  0  0
   10.1225   51.0818   27.4147 O   0  0  0  0  0  0  0  0  0  0  0  0
    7.6565   46.7396   23.3187 C   0  0  0  0  0  0  0  0  0  0  0  0
    8.6380   47.7339   23.6427 O   0  0  0  0  0  0  0  0  0  0  0  0
    8.8123   40.1850   34.2127 O   0  0  0  0  0  0  0  0  0  0  0  0
   11.2407   40.7945   33.3670 O   0  0  0  0  0  0  0  0  0  0  0  0
   10.9134   40.6866   31.9954 C   0  0  0  0  0  0  0  0  0  0  0  0
   11.5167   39.3787   31.4404 C   0  0  0  0  0  0  0  0  0  0  0  0
   12.7486   39.0849   32.0734 O   0  0  0  0  0  0  0  0  0  0  0  0
   10.6039   38.1884   31.6669 C   0  0  0  0  0  0  0  0  0  0  0  0
   12.9329   37.6776   32.0284 C   0  0  0  0  0  0  0  0  0  0  0  0
    9.6374   38.0938   30.6484 O   0  0  0  0  0  0  0  0  0  0  0  0
   11.5737   37.0141   31.7055 C   0  0  0  0  0  0  0  0  0  0  0  0
   13.4853   37.2120   33.3238 N   0  0  0  0  0  0  0  0  0  0  0  0
   11.6210   36.3379   30.4683 O   0  0  0  0  0  0  0  0  0  0  0  0
   14.4804   36.3319   33.5726 C   0  0  0  0  0  0  0  0  0  0  0  0
   13.1141   37.6275   34.5689 C   0  0  0  0  0  0  0  0  0  0  0  0
   15.2076   35.6152   32.6740 N   0  0  0  0  0  0  0  0  0  0  0  0
   14.6761   36.2306   34.9181 C   0  0  0  0  0  0  0  0  0  0  0  0
   13.8218   37.0451   35.5783 N   0  0  0  0  0  0  0  0  0  0  0  0
   16.1642   34.7600   33.1548 C   0  0  0  0  0  0  0  0  0  0  0  0
   15.6527   35.3507   35.4131 C   0  0  0  0  0  0  0  0  0  0  0  0
   16.3795   34.6315   34.5043 N   0  0  0  0  0  0  0  0  0  0  0  0
   15.9001   35.1933   36.8090 N   0  0  0  0  0  0  0  0  0  0  0  0
    9.0121   45.4317   33.6713 H   0  0  0  0  0  0  0  0  0  0  0  0
   11.8906   45.7658   32.9468 H   0  0  0  0  0  0  0  0  0  0  0  0
   10.7259   46.9687   33.1212 H   0  0  0  0  0  0  0  0  0  0  0  0
    9.3414   43.8328   31.4762 H   0  0  0  0  0  0  0  0  0  0  0  0
   10.7230   44.8813   31.1555 H   0  0  0  0  0  0  0  0  0  0  0  0
    7.0082   44.7172   31.5818 H   0  0  0  0  0  0  0  0  0  0  0  0
   10.3468   47.1857   30.4132 H   0  0  0  0  0  0  0  0  0  0  0  0
    5.4621   46.3068   30.5016 H   0  0  0  0  0  0  0  0  0  0  0  0
    8.8163   48.7672   29.3558 H   0  0  0  0  0  0  0  0  0  0  0  0
    5.4927   50.2292   28.2487 H   0  0  0  0  0  0  0  0  0  0  0  0
    7.0700   50.3380   29.0824 H   0  0  0  0  0  0  0  0  0  0  0  0
    5.5284   47.7834   26.7242 H   0  0  0  0  0  0  0  0  0  0  0  0
    9.7952   49.8100   25.1149 H   0  0  0  0  0  0  0  0  0  0  0  0
    7.1899   46.9673   22.3374 H   0  0  0  0  0  0  0  0  0  0  0  0
    8.1211   45.7313   23.3098 H   0  0  0  0  0  0  0  0  0  0  0  0
   11.3828   41.5438   31.4669 H   0  0  0  0  0  0  0  0  0  0  0  0
    9.8225   40.7225   31.7631 H   0  0  0  0  0  0  0  0  0  0  0  0
   11.6978   39.5037   30.3478 H   0  0  0  0  0  0  0  0  0  0  0  0
   10.1084   38.2787   32.6627 H   0  0  0  0  0  0  0  0  0  0  0  0
   13.6638   37.4472   31.2214 H   0  0  0  0  0  0  0  0  0  0  0  0
    8.9763   37.4191   30.9532 H   0  0  0  0  0  0  0  0  0  0  0  0
   11.2821   36.3054   32.5172 H   0  0  0  0  0  0  0  0  0  0  0  0
   10.8658   35.6935   30.4652 H   0  0  0  0  0  0  0  0  0  0  0  0
   12.3293   38.3523   34.7444 H   0  0  0  0  0  0  0  0  0  0  0  0
   16.7561   34.1778   32.4621 H   0  0  0  0  0  0  0  0  0  0  0  0
   15.3533   35.7361   37.5138 H   0  0  0  0  0  0  0  0  0  0  0  0
   16.6345   34.5300   37.1416 H   0  0  0  0  0  0  0  0  0  0  0  0
  1  2  2  0
  1  3  1  0
  3  4  1  0
  4  5  1  0
  6  1  1  0
  7  6  1  0
  6  8  1  0
  8  9  1  0
  9 10  2  0
 11  9  1  0
 10 12  1  0
 13 11  2  0
 12 14  2  0
 14 13  1  0
 14 15  1  0
 15 16  1  0
 16 17  1  0
 17 18  2  0
 19 17  1  0
 18 20  1  0
 21 19  2  0
 19 22  1  0
 20 23  1  0
 20 24  2  0
 24 21  1  0
 22 25  1  0
 22 26  2  0
 23 27  1  0
 24 28  1  0
 27 28  1  0
  4 29  2  0
  4 30  1  0
 31 30  1  0
 31 32  1  0
 32 33  1  0
 32 34  1  0
 33 35  1  0
 34 36  1  0
 34 37  1  0
 37 35  1  0
 35 38  1  0
 37 39  1  0
 40 38  1  0
 41 38  1  0
 42 40  2  0
 40 43  1  0
 44 41  2  0
 45 42  1  0
 43 46  2  0
 43 44  1  0
 47 45  2  0
 47 46  1  0
 46 48  1  0
  6 49  1  1
  7 50  1  0
  7 51  1  0
  8 52  1  0
  8 53  1  0
 10 54  1  0
 11 55  1  0
 12 56  1  0
 13 57  1  0
 16 58  1  0
 16 59  1  0
 18 60  1  0
 21 61  1  0
 27 62  1  0
 27 63  1  0
 31 64  1  0
 31 65  1  0
 32 66  1  0
 34 67  1  0
 35 68  1  0
 36 69  1  0
 37 70  1  0
 39 71  1  0
 41 72  1  0
 45 73  1  0
 48 74  1  0
 48 75  1  0
M  CHG  3   5  -1  22   1  25  -1
M  END
>  <EmbedRMS>  (168) 
0.0825669679229

$$$$

     RDKit          3D

 75 80  0  0  0  0  0  0  0  0999 V2000
   10.2804   43.7664   33.8249 C   0  0  0  0  0  0  0  0  0  0  0  0
   11.4110   43.5919   34.3666 O   0  0  0  0  0  0  0  0  0  0  0  0
    9.3619   42.7249   33.7346 O   0  0  0  0  0  0  0  0  0  0  0  0
    9.8900   41.2267   34.2944 P   0  0  0  0  0  0  0  0  0  0  0  0
   10.3728   41.4567   35.8838 O   0  0  0  0  0  0  0  0  0  0  0  0
    9.9459   45.0736   33.2109 C   0  0  1  0  0  0  0  0  0  0  0  0
   11.0266   46.0292   33.4706 N   0  0  0  0  0  0  0  0  0  0  0  0
    9.7542   44.8538   31.6945 C   0  0  0  0  0  0  0  0  0  0  0  0
    8.7960   45.8405   31.0837 C   0  0  0  0  0  0  0  0  0  0  0  0
    7.4091   45.6007   31.1019 C   0  0  0  0  0  0  0  0  0  0  0  0
    9.2824   46.9884   30.4405 C   0  0  0  0  0  0  0  0  0  0  0  0
    6.5260   46.5006   30.4886 C   0  0  0  0  0  0  0  0  0  0  0  0
    8.3993   47.8885   29.8335 C   0  0  0  0  0  0  0  0  0  0  0  0
    7.0183   47.6517   29.8421 C   0  0  0  0  0  0  0  0  0  0  0  0
    6.1827   48.5854   29.2095 O   0  0  0  0  0  0  0  0  0  0  0  0
    4.8205   48.3711   28.8367 C   0  0  0  0  0  0  0  0  0  0  0  0
    4.7258   47.4098   27.6745 C   0  0  0  0  0  0  0  0  0  0  0  0
    4.2088   46.1139   27.9141 C   0  0  0  0  0  0  0  0  0  0  0  0
    5.0890   47.7877   26.3369 C   0  0  0  0  0  0  0  0  0  0  0  0
    4.0958   45.2356   26.8453 C   0  0  0  0  0  0  0  0  0  0  0  0
    4.9399   46.8493   25.2874 C   0  0  0  0  0  0  0  0  0  0  0  0
    5.5553   49.1122   26.0158 N   0  0  0  0  0  0  0  0  0  0  0  0
    3.6314   43.9343   26.8486 O   0  0  0  0  0  0  0  0  0  0  0  0
    4.4476   45.5868   25.5881 C   0  0  0  0  0  0  0  0  0  0  0  0
    6.4123   49.7859   26.8530 O   0  0  0  0  0  0  0  0  0  0  0  0
    5.3078   49.6047   24.8954 O   0  0  0  0  0  0  0  0  0  0  0  0
    3.6999   43.4371   25.5052 C   0  0  0  0  0  0  0  0  0  0  0  0
    4.2257   44.5249   24.7326 O   0  0  0  0  0  0  0  0  0  0  0  0
    8.8127   40.1842   34.2128 O   0  0  0  0  0  0  0  0  0  0  0  0
   11.2414   40.7951   33.3705 O   0  0  0  0  0  0  0  0  0  0  0  0
   10.9178   40.6922   31.9982 C   0  0  0  0  0  0  0  0  0  0  0  0
   11.5175   39.3837   31.4423 C   0  0  0  0  0  0  0  0  0  0  0  0
   12.7507   39.0887   32.0753 O   0  0  0  0  0  0  0  0  0  0  0  0
   10.6027   38.1916   31.6658 C   0  0  0  0  0  0  0  0  0  0  0  0
   12.9384   37.6819   32.0278 C   0  0  0  0  0  0  0  0  0  0  0  0
    9.6371   38.0805   30.6470 O   0  0  0  0  0  0  0  0  0  0  0  0
   11.5780   37.0215   31.6935 C   0  0  0  0  0  0  0  0  0  0  0  0
   13.4844   37.2119   33.3242 N   0  0  0  0  0  0  0  0  0  0  0  0
   11.6095   36.3202   30.4679 O   0  0  0  0  0  0  0  0  0  0  0  0
   14.4797   36.3318   33.5730 C   0  0  0  0  0  0  0  0  0  0  0  0
   13.1136   37.6278   34.5691 C   0  0  0  0  0  0  0  0  0  0  0  0
   15.2073   35.6155   32.6742 N   0  0  0  0  0  0  0  0  0  0  0  0
   14.6754   36.2305   34.9184 C   0  0  0  0  0  0  0  0  0  0  0  0
   13.8213   37.0452   35.5785 N   0  0  0  0  0  0  0  0  0  0  0  0
   16.1640   34.7604   33.1549 C   0  0  0  0  0  0  0  0  0  0  0  0
   15.6524   35.3507   35.4132 C   0  0  0  0  0  0  0  0  0  0  0  0
   16.3794   34.6318   34.5044 N   0  0  0  0  0  0  0  0  0  0  0  0
   15.8999   35.1934   36.8091 N   0  0  0  0  0  0  0  0  0  0  0  0
    8.9994   45.4381   33.6716 H   0  0  0  0  0  0  0  0  0  0  0  0
   11.0500   46.2278   34.4980 H   0  0  0  0  0  0  0  0  0  0  0  0
   10.7764   46.9368   33.0156 H   0  0  0  0  0  0  0  0  0  0  0  0
    9.3648   43.8350   31.4709 H   0  0  0  0  0  0  0  0  0  0  0  0
   10.7414   44.9075   31.1833 H   0  0  0  0  0  0  0  0  0  0  0  0
    7.0143   44.7198   31.5932 H   0  0  0  0  0  0  0  0  0  0  0  0
   10.3462   47.1890   30.4071 H   0  0  0  0  0  0  0  0  0  0  0  0
    5.4682   46.2994   30.5468 H   0  0  0  0  0  0  0  0  0  0  0  0
    8.7911   48.7705   29.3428 H   0  0  0  0  0  0  0  0  0  0  0  0
    4.2358   48.0228   29.7145 H   0  0  0  0  0  0  0  0  0  0  0  0
    4.3713   49.3416   28.5392 H   0  0  0  0  0  0  0  0  0  0  0  0
    3.8907   45.7997   28.8990 H   0  0  0  0  0  0  0  0  0  0  0  0
    5.2036   47.0965   24.2671 H   0  0  0  0  0  0  0  0  0  0  0  0
    2.6858   43.1656   25.1440 H   0  0  0  0  0  0  0  0  0  0  0  0
    4.3839   42.5642   25.4531 H   0  0  0  0  0  0  0  0  0  0  0  0
   11.3950   41.5477   31.4741 H   0  0  0  0  0  0  0  0  0  0  0  0
    9.8290   40.7408   31.7624 H   0  0  0  0  0  0  0  0  0  0  0  0
   11.6982   39.5114   30.3500 H   0  0  0  0  0  0  0  0  0  0  0  0
   10.1117   38.2604   32.6660 H   0  0  0  0  0  0  0  0  0  0  0  0
   13.6767   37.4557   31.2267 H   0  0  0  0  0  0  0  0  0  0  0  0
    8.8961   38.6951   30.8872 H   0  0  0  0  0  0  0  0  0  0  0  0
   11.2791   36.3072   32.4922 H   0  0  0  0  0  0  0  0  0  0  0  0
   11.8829   36.9598   29.7589 H   0  0  0  0  0  0  0  0  0  0  0  0
   12.3300   38.3539   34.7446 H   0  0  0  0  0  0  0  0  0  0  0  0
   16.7562   34.1785   32.4622 H   0  0  0  0  0  0  0  0  0  0  0  0
   15.3531   35.7360   37.5140 H   0  0  0  0  0  0  0  0  0  0  0  0
   16.6347   34.5303   37.1416 H   0  0  0  0  0  0  0  0  0  0  0  0
  1  2  2  0
  1  3  1  0
  3  4  1  0
  4  5  1  0
  6  1  1  0
  7  6  1  0
  6  8  1  0
  8  9  1  0
  9 10  2  0
 11  9  1  0
 10 12  1  0
 13 11  2  0
 12 14  2  0
 14 13  1  0
 14 15  1  0
 15 16  1  0
 16 17  1  0
 17 18  2  0
 19 17  1  0
 18 20  1  0
 21 19  2  0
 19 22  1  0
 20 23  1  0
 20 24  2  0
 24 21  1  0
 22 25  1  0
 22 26  2  0
 23 27  1  0
 24 28  1  0
 27 28  1  0
  4 29  2  0
  4 30  1  0
 31 30  1  0
 31 32  1  0
 32 33  1  0
 32 34  1  0
 33 35  1  0
 34 36  1  0
 34 37  1  0
 37 35  1  0
 35 38  1  0
 37 39  1  0
 40 38  1  0
 41 38  1  0
 42 40  2  0
 40 43  1  0
 44 41  2  0
 45 42  1  0
 43 46  2  0
 43 44  1  0
 47 45  2  0
 47 46  1  0
 46 48  1  0
  6 49  1  1
  7 50  1  0
  7 51  1  0
  8 52  1  0
  8 53  1  0
 10 54  1  0
 11 55  1  0
 12 56  1  0
 13 57  1  0
 16 58  1  0
 16 59  1  0
 18 60  1  0
 21 61  1  0
 27 62  1  0
 27 63  1  0
 31 64  1  0
 31 65  1  0
 32 66  1  0
 34 67  1  0
 35 68  1  0
 36 69  1  0
 37 70  1  0
 39 71  1  0
 41 72  1  0
 45 73  1  0
 48 74  1  0
 48 75  1  0
M  CHG  3   5  -1  22   1  25  -1
M  END
>  <EmbedRMS>  (169) 
0.0818217299442

$$$$

     RDKit          3D

 75 80  0  0  0  0  0  0  0  0999 V2000
   10.2839   43.7626   33.8276 C   0  0  0  0  0  0  0  0  0  0  0  0
   11.4104   43.5863   34.3767 O   0  0  0  0  0  0  0  0  0  0  0  0
    9.3631   42.7236   33.7354 O   0  0  0  0  0  0  0  0  0  0  0  0
    9.8895   41.2249   34.2944 P   0  0  0  0  0  0  0  0  0  0  0  0
   10.3727   41.4546   35.8838 O   0  0  0  0  0  0  0  0  0  0  0  0
    9.9548   45.0699   33.2064 C   0  0  1  0  0  0  0  0  0  0  0  0
   11.0198   46.0480   33.4568 N   0  0  0  0  0  0  0  0  0  0  0  0
    9.7501   44.8508   31.6923 C   0  0  0  0  0  0  0  0  0  0  0  0
    8.7942   45.8417   31.0870 C   0  0  0  0  0  0  0  0  0  0  0  0
    7.4074   45.6011   31.1001 C   0  0  0  0  0  0  0  0  0  0  0  0
    9.2831   46.9891   30.4449 C   0  0  0  0  0  0  0  0  0  0  0  0
    6.5281   46.5022   30.4842 C   0  0  0  0  0  0  0  0  0  0  0  0
    8.4032   47.8898   29.8331 C   0  0  0  0  0  0  0  0  0  0  0  0
    7.0150   47.6517   29.8468 C   0  0  0  0  0  0  0  0  0  0  0  0
    6.0900   48.5188   29.2432 O   0  0  0  0  0  0  0  0  0  0  0  0
    6.4153   49.7112   28.5252 C   0  0  0  0  0  0  0  0  0  0  0  0
    7.1129   49.4010   27.2185 C   0  0  0  0  0  0  0  0  0  0  0  0
    6.6502   48.3046   26.4514 C   0  0  0  0  0  0  0  0  0  0  0  0
    8.1439   50.2428   26.6872 C   0  0  0  0  0  0  0  0  0  0  0  0
    7.2378   48.0642   25.2161 C   0  0  0  0  0  0  0  0  0  0  0  0
    8.6950   49.9578   25.4174 C   0  0  0  0  0  0  0  0  0  0  0  0
    8.6160   51.3959   27.3980 N   0  0  0  0  0  0  0  0  0  0  0  0
    6.9569   47.0575   24.3125 O   0  0  0  0  0  0  0  0  0  0  0  0
    8.2173   48.8555   24.7211 C   0  0  0  0  0  0  0  0  0  0  0  0
    9.1909   51.2509   28.6387 O   0  0  0  0  0  0  0  0  0  0  0  0
    8.7559   52.4790   26.7935 O   0  0  0  0  0  0  0  0  0  0  0  0
    7.8187   47.2276   23.1788 C   0  0  0  0  0  0  0  0  0  0  0  0
    8.6063   48.3875   23.4808 O   0  0  0  0  0  0  0  0  0  0  0  0
    8.8114   40.1833   34.2129 O   0  0  0  0  0  0  0  0  0  0  0  0
   11.2402   40.7931   33.3696 O   0  0  0  0  0  0  0  0  0  0  0  0
   10.9151   40.6903   31.9975 C   0  0  0  0  0  0  0  0  0  0  0  0
   11.5252   39.3885   31.4375 C   0  0  0  0  0  0  0  0  0  0  0  0
   12.7500   39.0873   32.0798 O   0  0  0  0  0  0  0  0  0  0  0  0
   10.6092   38.1925   31.6469 C   0  0  0  0  0  0  0  0  0  0  0  0
   12.9332   37.6792   32.0294 C   0  0  0  0  0  0  0  0  0  0  0  0
    9.6121   38.0894   30.6542 O   0  0  0  0  0  0  0  0  0  0  0  0
   11.5743   37.0144   31.7024 C   0  0  0  0  0  0  0  0  0  0  0  0
   13.4844   37.2107   33.3241 N   0  0  0  0  0  0  0  0  0  0  0  0
   11.6297   36.3238   30.4740 O   0  0  0  0  0  0  0  0  0  0  0  0
   14.4802   36.3313   33.5727 C   0  0  0  0  0  0  0  0  0  0  0  0
   13.1139   37.6267   34.5692 C   0  0  0  0  0  0  0  0  0  0  0  0
   15.2075   35.6149   32.6739 N   0  0  0  0  0  0  0  0  0  0  0  0
   14.6761   36.2303   34.9181 C   0  0  0  0  0  0  0  0  0  0  0  0
   13.8220   37.0447   35.5784 N   0  0  0  0  0  0  0  0  0  0  0  0
   16.1643   34.7600   33.1547 C   0  0  0  0  0  0  0  0  0  0  0  0
   15.6529   35.3505   35.4130 C   0  0  0  0  0  0  0  0  0  0  0  0
   16.3798   34.6315   34.5042 N   0  0  0  0  0  0  0  0  0  0  0  0
   15.9002   35.1932   36.8090 N   0  0  0  0  0  0  0  0  0  0  0  0
    9.0099   45.4348   33.6671 H   0  0  0  0  0  0  0  0  0  0  0  0
   11.9348   45.6933   33.0923 H   0  0  0  0  0  0  0  0  0  0  0  0
   11.1135   46.1992   34.4881 H   0  0  0  0  0  0  0  0  0  0  0  0
    9.3508   43.8343   31.4763 H   0  0  0  0  0  0  0  0  0  0  0  0
   10.7304   44.8922   31.1674 H   0  0  0  0  0  0  0  0  0  0  0  0
    7.0107   44.7160   31.5820 H   0  0  0  0  0  0  0  0  0  0  0  0
   10.3474   47.1881   30.4159 H   0  0  0  0  0  0  0  0  0  0  0  0
    5.4638   46.3044   30.5005 H   0  0  0  0  0  0  0  0  0  0  0  0
    8.8144   48.7625   29.3503 H   0  0  0  0  0  0  0  0  0  0  0  0
    6.9944   50.3875   29.1818 H   0  0  0  0  0  0  0  0  0  0  0  0
    5.4664   50.2341   28.2848 H   0  0  0  0  0  0  0  0  0  0  0  0
    5.8516   47.6632   26.8022 H   0  0  0  0  0  0  0  0  0  0  0  0
    9.4750   50.5759   24.9915 H   0  0  0  0  0  0  0  0  0  0  0  0
    7.2174   47.4009   22.2618 H   0  0  0  0  0  0  0  0  0  0  0  0
    8.4746   46.3400   23.0583 H   0  0  0  0  0  0  0  0  0  0  0  0
   11.3805   41.5528   31.4739 H   0  0  0  0  0  0  0  0  0  0  0  0
    9.8243   40.7216   31.7641 H   0  0  0  0  0  0  0  0  0  0  0  0
   11.7265   39.5311   30.3512 H   0  0  0  0  0  0  0  0  0  0  0  0
   10.1110   38.2746   32.6387 H   0  0  0  0  0  0  0  0  0  0  0  0
   13.6652   37.4518   31.2226 H   0  0  0  0  0  0  0  0  0  0  0  0
   10.0511   38.1143   29.7645 H   0  0  0  0  0  0  0  0  0  0  0  0
   11.2762   36.3141   32.5189 H   0  0  0  0  0  0  0  0  0  0  0  0
   10.8593   35.6977   30.4640 H   0  0  0  0  0  0  0  0  0  0  0  0
   12.3295   38.3518   34.7449 H   0  0  0  0  0  0  0  0  0  0  0  0
   16.7564   34.1779   32.4620 H   0  0  0  0  0  0  0  0  0  0  0  0
   16.6348   34.5300   37.1416 H   0  0  0  0  0  0  0  0  0  0  0  0
   15.3534   35.7359   37.5138 H   0  0  0  0  0  0  0  0  0  0  0  0
  1  2  2  0
  1  3  1  0
  3  4  1  0
  4  5  1  0
  6  1  1  0
  7  6  1  0
  6  8  1  0
  8  9  1  0
  9 10  2  0
 11  9  1  0
 10 12  1  0
 13 11  2  0
 12 14  2  0
 14 13  1  0
 14 15  1  0
 15 16  1  0
 16 17  1  0
 17 18  2  0
 19 17  1  0
 18 20  1  0
 21 19  2  0
 19 22  1  0
 20 23  1  0
 20 24  2  0
 24 21  1  0
 22 25  1  0
 22 26  2  0
 23 27  1  0
 24 28  1  0
 27 28  1  0
  4 29  2  0
  4 30  1  0
 31 30  1  0
 31 32  1  0
 32 33  1  0
 32 34  1  0
 33 35  1  0
 34 36  1  0
 34 37  1  0
 37 35  1  0
 35 38  1  0
 37 39  1  0
 40 38  1  0
 41 38  1  0
 42 40  2  0
 40 43  1  0
 44 41  2  0
 45 42  1  0
 43 46  2  0
 43 44  1  0
 47 45  2  0
 47 46  1  0
 46 48  1  0
  6 49  1  1
  7 50  1  0
  7 51  1  0
  8 52  1  0
  8 53  1  0
 10 54  1  0
 11 55  1  0
 12 56  1  0
 13 57  1  0
 16 58  1  0
 16 59  1  0
 18 60  1  0
 21 61  1  0
 27 62  1  0
 27 63  1  0
 31 64  1  0
 31 65  1  0
 32 66  1  0
 34 67  1  0
 35 68  1  0
 36 69  1  0
 37 70  1  0
 39 71  1  0
 41 72  1  0
 45 73  1  0
 48 74  1  0
 48 75  1  0
M  CHG  3   5  -1  22   1  25  -1
M  END
>  <EmbedRMS>  (170) 
0.0827236816406

$$$$

     RDKit          3D

 75 80  0  0  0  0  0  0  0  0999 V2000
   10.2838   43.7627   33.8277 C   0  0  0  0  0  0  0  0  0  0  0  0
   11.4103   43.5864   34.3767 O   0  0  0  0  0  0  0  0  0  0  0  0
    9.3631   42.7236   33.7353 O   0  0  0  0  0  0  0  0  0  0  0  0
    9.8898   41.2248   34.2935 P   0  0  0  0  0  0  0  0  0  0  0  0
   10.3735   41.4543   35.8829 O   0  0  0  0  0  0  0  0  0  0  0  0
    9.9548   45.0700   33.2065 C   0  0  1  0  0  0  0  0  0  0  0  0
   11.0198   46.0481   33.4569 N   0  0  0  0  0  0  0  0  0  0  0  0
    9.7501   44.8509   31.6925 C   0  0  0  0  0  0  0  0  0  0  0  0
    8.7942   45.8418   31.0870 C   0  0  0  0  0  0  0  0  0  0  0  0
    7.4075   45.6008   31.0997 C   0  0  0  0  0  0  0  0  0  0  0  0
    9.2831   46.9890   30.4447 C   0  0  0  0  0  0  0  0  0  0  0  0
    6.5281   46.5018   30.4836 C   0  0  0  0  0  0  0  0  0  0  0  0
    8.4033   47.8893   29.8323 C   0  0  0  0  0  0  0  0  0  0  0  0
    7.0148   47.6526   29.8484 C   0  0  0  0  0  0  0  0  0  0  0  0
    6.0891   48.5251   29.2539 O   0  0  0  0  0  0  0  0  0  0  0  0
    6.4072   49.7623   28.6127 C   0  0  0  0  0  0  0  0  0  0  0  0
    6.8852   50.7965   29.6094 C   0  0  0  0  0  0  0  0  0  0  0  0
    6.2118   50.8911   30.8514 C   0  0  0  0  0  0  0  0  0  0  0  0
    7.9138   51.7459   29.2958 C   0  0  0  0  0  0  0  0  0  0  0  0
    6.5932   51.8887   31.7390 C   0  0  0  0  0  0  0  0  0  0  0  0
    8.2479   52.7494   30.2322 C   0  0  0  0  0  0  0  0  0  0  0  0
    8.5972   51.7353   28.0345 N   0  0  0  0  0  0  0  0  0  0  0  0
    6.0881   52.1591   32.9963 O   0  0  0  0  0  0  0  0  0  0  0  0
    7.5683   52.7785   31.4428 C   0  0  0  0  0  0  0  0  0  0  0  0
    8.8180   52.9229   27.3762 O   0  0  0  0  0  0  0  0  0  0  0  0
    9.2308   50.7227   27.6743 O   0  0  0  0  0  0  0  0  0  0  0  0
    6.7951   53.2903   33.5231 C   0  0  0  0  0  0  0  0  0  0  0  0
    7.7302   53.6548   32.4985 O   0  0  0  0  0  0  0  0  0  0  0  0
    8.8115   40.1834   34.2126 O   0  0  0  0  0  0  0  0  0  0  0  0
   11.2402   40.7936   33.3673 O   0  0  0  0  0  0  0  0  0  0  0  0
   10.9134   40.6864   31.9955 C   0  0  0  0  0  0  0  0  0  0  0  0
   11.5166   39.3786   31.4404 C   0  0  0  0  0  0  0  0  0  0  0  0
   12.7486   39.0848   32.0734 O   0  0  0  0  0  0  0  0  0  0  0  0
   10.6039   38.1883   31.6669 C   0  0  0  0  0  0  0  0  0  0  0  0
   12.9329   37.6775   32.0284 C   0  0  0  0  0  0  0  0  0  0  0  0
    9.6373   38.0938   30.6484 O   0  0  0  0  0  0  0  0  0  0  0  0
   11.5737   37.0140   31.7055 C   0  0  0  0  0  0  0  0  0  0  0  0
   13.4853   37.2120   33.3238 N   0  0  0  0  0  0  0  0  0  0  0  0
   11.6210   36.3379   30.4683 O   0  0  0  0  0  0  0  0  0  0  0  0
   14.4804   36.3319   33.5726 C   0  0  0  0  0  0  0  0  0  0  0  0
   13.1141   37.6274   34.5689 C   0  0  0  0  0  0  0  0  0  0  0  0
   15.2076   35.6152   32.6740 N   0  0  0  0  0  0  0  0  0  0  0  0
   14.6761   36.2306   34.9181 C   0  0  0  0  0  0  0  0  0  0  0  0
   13.8218   37.0451   35.5783 N   0  0  0  0  0  0  0  0  0  0  0  0
   16.1642   34.7600   33.1548 C   0  0  0  0  0  0  0  0  0  0  0  0
   15.6527   35.3507   35.4131 C   0  0  0  0  0  0  0  0  0  0  0  0
   16.3795   34.6315   34.5043 N   0  0  0  0  0  0  0  0  0  0  0  0
   15.9000   35.1933   36.8090 N   0  0  0  0  0  0  0  0  0  0  0  0
    9.0098   45.4350   33.6671 H   0  0  0  0  0  0  0  0  0  0  0  0
   11.9348   45.6933   33.0925 H   0  0  0  0  0  0  0  0  0  0  0  0
   11.1134   46.1994   34.4882 H   0  0  0  0  0  0  0  0  0  0  0  0
    9.3509   43.8344   31.4763 H   0  0  0  0  0  0  0  0  0  0  0  0
   10.7304   44.8923   31.1676 H   0  0  0  0  0  0  0  0  0  0  0  0
    7.0108   44.7157   31.5816 H   0  0  0  0  0  0  0  0  0  0  0  0
   10.3474   47.1881   30.4159 H   0  0  0  0  0  0  0  0  0  0  0  0
    5.4636   46.3053   30.5021 H   0  0  0  0  0  0  0  0  0  0  0  0
    8.8144   48.7620   29.3495 H   0  0  0  0  0  0  0  0  0  0  0  0
    7.1235   49.5752   27.7910 H   0  0  0  0  0  0  0  0  0  0  0  0
    5.4794   50.1509   28.1436 H   0  0  0  0  0  0  0  0  0  0  0  0
    5.4094   50.2137   31.1147 H   0  0  0  0  0  0  0  0  0  0  0  0
    9.0187   53.4798   30.0225 H   0  0  0  0  0  0  0  0  0  0  0  0
    6.0916   54.1273   33.7151 H   0  0  0  0  0  0  0  0  0  0  0  0
    7.3346   53.0078   34.4513 H   0  0  0  0  0  0  0  0  0  0  0  0
    9.8226   40.7225   31.7629 H   0  0  0  0  0  0  0  0  0  0  0  0
   11.3831   41.5437   31.4675 H   0  0  0  0  0  0  0  0  0  0  0  0
   11.6978   39.5037   30.3478 H   0  0  0  0  0  0  0  0  0  0  0  0
   10.1084   38.2785   32.6626 H   0  0  0  0  0  0  0  0  0  0  0  0
   13.6638   37.4471   31.2214 H   0  0  0  0  0  0  0  0  0  0  0  0
    8.9763   37.4190   30.9531 H   0  0  0  0  0  0  0  0  0  0  0  0
   11.2821   36.3053   32.5171 H   0  0  0  0  0  0  0  0  0  0  0  0
   10.8658   35.6935   30.4652 H   0  0  0  0  0  0  0  0  0  0  0  0
   12.3293   38.3523   34.7444 H   0  0  0  0  0  0  0  0  0  0  0  0
   16.7561   34.1778   32.4621 H   0  0  0  0  0  0  0  0  0  0  0  0
   15.3533   35.7361   37.5138 H   0  0  0  0  0  0  0  0  0  0  0  0
   16.6345   34.5300   37.1416 H   0  0  0  0  0  0  0  0  0  0  0  0
  1  2  2  0
  1  3  1  0
  3  4  1  0
  4  5  1  0
  6  1  1  0
  7  6  1  0
  6  8  1  0
  8  9  1  0
  9 10  2  0
 11  9  1  0
 10 12  1  0
 13 11  2  0
 12 14  2  0
 14 13  1  0
 14 15  1  0
 15 16  1  0
 16 17  1  0
 17 18  2  0
 19 17  1  0
 18 20  1  0
 21 19  2  0
 19 22  1  0
 20 23  1  0
 20 24  2  0
 24 21  1  0
 22 25  1  0
 22 26  2  0
 23 27  1  0
 24 28  1  0
 27 28  1  0
  4 29  2  0
  4 30  1  0
 31 30  1  0
 31 32  1  0
 32 33  1  0
 32 34  1  0
 33 35  1  0
 34 36  1  0
 34 37  1  0
 37 35  1  0
 35 38  1  0
 37 39  1  0
 40 38  1  0
 41 38  1  0
 42 40  2  0
 40 43  1  0
 44 41  2  0
 45 42  1  0
 43 46  2  0
 43 44  1  0
 47 45  2  0
 47 46  1  0
 46 48  1  0
  6 49  1  1
  7 50  1  0
  7 51  1  0
  8 52  1  0
  8 53  1  0
 10 54  1  0
 11 55  1  0
 12 56  1  0
 13 57  1  0
 16 58  1  0
 16 59  1  0
 18 60  1  0
 21 61  1  0
 27 62  1  0
 27 63  1  0
 31 64  1  0
 31 65  1  0
 32 66  1  0
 34 67  1  0
 35 68  1  0
 36 69  1  0
 37 70  1  0
 39 71  1  0
 41 72  1  0
 45 73  1  0
 48 74  1  0
 48 75  1  0
M  CHG  3   5  -1  22   1  25  -1
M  END
>  <EmbedRMS>  (171) 
0.0834531761078

$$$$

     RDKit          3D

 75 80  0  0  0  0  0  0  0  0999 V2000
   10.2834   43.7662   33.8256 C   0  0  0  0  0  0  0  0  0  0  0  0
   11.4102   43.5930   34.3752 O   0  0  0  0  0  0  0  0  0  0  0  0
    9.3635   42.7257   33.7352 O   0  0  0  0  0  0  0  0  0  0  0  0
    9.8899   41.2270   34.2947 P   0  0  0  0  0  0  0  0  0  0  0  0
   10.3732   41.4563   35.8841 O   0  0  0  0  0  0  0  0  0  0  0  0
    9.9548   45.0695   33.2035 C   0  0  1  0  0  0  0  0  0  0  0  0
   11.0274   46.0322   33.4758 N   0  0  0  0  0  0  0  0  0  0  0  0
    9.7471   44.8483   31.6875 C   0  0  0  0  0  0  0  0  0  0  0  0
    8.7925   45.8409   31.0844 C   0  0  0  0  0  0  0  0  0  0  0  0
    7.4058   45.6012   31.0996 C   0  0  0  0  0  0  0  0  0  0  0  0
    9.2817   46.9881   30.4423 C   0  0  0  0  0  0  0  0  0  0  0  0
    6.5248   46.5016   30.4854 C   0  0  0  0  0  0  0  0  0  0  0  0
    8.4002   47.8883   29.8325 C   0  0  0  0  0  0  0  0  0  0  0  0
    7.0185   47.6557   29.8450 C   0  0  0  0  0  0  0  0  0  0  0  0
    6.1820   48.5884   29.2110 O   0  0  0  0  0  0  0  0  0  0  0  0
    4.7604   48.4883   29.0999 C   0  0  0  0  0  0  0  0  0  0  0  0
    4.3525   47.3591   28.1786 C   0  0  0  0  0  0  0  0  0  0  0  0
    5.0976   47.1548   26.9921 C   0  0  0  0  0  0  0  0  0  0  0  0
    3.1793   46.5702   28.4142 C   0  0  0  0  0  0  0  0  0  0  0  0
    4.6795   46.1689   26.1077 C   0  0  0  0  0  0  0  0  0  0  0  0
    2.7937   45.5907   27.4713 C   0  0  0  0  0  0  0  0  0  0  0  0
    2.3586   46.7683   29.5739 N   0  0  0  0  0  0  0  0  0  0  0  0
    5.2520   45.7919   24.9081 O   0  0  0  0  0  0  0  0  0  0  0  0
    3.5766   45.4195   26.3373 C   0  0  0  0  0  0  0  0  0  0  0  0
    2.8897   46.5923   30.8301 O   0  0  0  0  0  0  0  0  0  0  0  0
    1.1182   46.8302   29.4489 O   0  0  0  0  0  0  0  0  0  0  0  0
    4.4576   44.7355   24.3515 C   0  0  0  0  0  0  0  0  0  0  0  0
    3.3977   44.5298   25.2956 O   0  0  0  0  0  0  0  0  0  0  0  0
    8.8120   40.1850   34.2132 O   0  0  0  0  0  0  0  0  0  0  0  0
   11.2402   40.7947   33.3700 O   0  0  0  0  0  0  0  0  0  0  0  0
   10.9144   40.6914   31.9982 C   0  0  0  0  0  0  0  0  0  0  0  0
   11.5270   39.3912   31.4385 C   0  0  0  0  0  0  0  0  0  0  0  0
   12.7520   39.0911   32.0836 O   0  0  0  0  0  0  0  0  0  0  0  0
   10.6113   38.1932   31.6451 C   0  0  0  0  0  0  0  0  0  0  0  0
   12.9413   37.6838   32.0297 C   0  0  0  0  0  0  0  0  0  0  0  0
    9.6064   38.0878   30.6599 O   0  0  0  0  0  0  0  0  0  0  0  0
   11.5822   37.0198   31.6877 C   0  0  0  0  0  0  0  0  0  0  0  0
   13.4840   37.2104   33.3254 N   0  0  0  0  0  0  0  0  0  0  0  0
   11.6179   36.3072   30.4690 O   0  0  0  0  0  0  0  0  0  0  0  0
   14.4797   36.3309   33.5738 C   0  0  0  0  0  0  0  0  0  0  0  0
   13.1136   37.6269   34.5702 C   0  0  0  0  0  0  0  0  0  0  0  0
   15.2074   35.6152   32.6747 N   0  0  0  0  0  0  0  0  0  0  0  0
   14.6756   36.2298   34.9190 C   0  0  0  0  0  0  0  0  0  0  0  0
   13.8217   37.0445   35.5793 N   0  0  0  0  0  0  0  0  0  0  0  0
   16.1643   34.7603   33.1551 C   0  0  0  0  0  0  0  0  0  0  0  0
   15.6528   35.3503   35.4136 C   0  0  0  0  0  0  0  0  0  0  0  0
   16.3798   34.6316   34.5046 N   0  0  0  0  0  0  0  0  0  0  0  0
   15.9004   35.1930   36.8094 N   0  0  0  0  0  0  0  0  0  0  0  0
    9.0121   45.4318   33.6712 H   0  0  0  0  0  0  0  0  0  0  0  0
   10.7261   46.9688   33.1214 H   0  0  0  0  0  0  0  0  0  0  0  0
   11.8908   45.7658   32.9475 H   0  0  0  0  0  0  0  0  0  0  0  0
   10.7235   44.8823   31.1557 H   0  0  0  0  0  0  0  0  0  0  0  0
    9.3424   43.8331   31.4758 H   0  0  0  0  0  0  0  0  0  0  0  0
    7.0099   44.7159   31.5820 H   0  0  0  0  0  0  0  0  0  0  0  0
   10.3459   47.1865   30.4104 H   0  0  0  0  0  0  0  0  0  0  0  0
    5.4679   46.2880   30.5139 H   0  0  0  0  0  0  0  0  0  0  0  0
    8.7936   48.7695   29.3417 H   0  0  0  0  0  0  0  0  0  0  0  0
    4.3853   49.4352   28.6591 H   0  0  0  0  0  0  0  0  0  0  0  0
    4.3189   48.4104   30.1112 H   0  0  0  0  0  0  0  0  0  0  0  0
    5.9715   47.7506   26.7610 H   0  0  0  0  0  0  0  0  0  0  0  0
    1.9129   44.9801   27.6234 H   0  0  0  0  0  0  0  0  0  0  0  0
    4.0415   45.0443   23.3697 H   0  0  0  0  0  0  0  0  0  0  0  0
    5.0645   43.8115   24.2495 H   0  0  0  0  0  0  0  0  0  0  0  0
    9.8234   40.7201   31.7654 H   0  0  0  0  0  0  0  0  0  0  0  0
   11.3776   41.5549   31.4744 H   0  0  0  0  0  0  0  0  0  0  0  0
   11.7312   39.5363   30.3532 H   0  0  0  0  0  0  0  0  0  0  0  0
   10.1203   38.2696   32.6410 H   0  0  0  0  0  0  0  0  0  0  0  0
   13.6850   37.4639   31.2321 H   0  0  0  0  0  0  0  0  0  0  0  0
   10.0251   38.1793   29.7654 H   0  0  0  0  0  0  0  0  0  0  0  0
   11.2757   36.3135   32.4907 H   0  0  0  0  0  0  0  0  0  0  0  0
   11.9838   36.9111   29.7708 H   0  0  0  0  0  0  0  0  0  0  0  0
   12.3307   38.3536   34.7457 H   0  0  0  0  0  0  0  0  0  0  0  0
   16.7566   34.1787   32.4623 H   0  0  0  0  0  0  0  0  0  0  0  0
   15.3535   35.7355   37.5144 H   0  0  0  0  0  0  0  0  0  0  0  0
   16.6353   34.5301   37.1419 H   0  0  0  0  0  0  0  0  0  0  0  0
  1  2  2  0
  1  3  1  0
  3  4  1  0
  4  5  1  0
  6  1  1  0
  7  6  1  0
  6  8  1  0
  8  9  1  0
  9 10  2  0
 11  9  1  0
 10 12  1  0
 13 11  2  0
 12 14  2  0
 14 13  1  0
 14 15  1  0
 15 16  1  0
 16 17  1  0
 17 18  2  0
 19 17  1  0
 18 20  1  0
 21 19  2  0
 19 22  1  0
 20 23  1  0
 20 24  2  0
 24 21  1  0
 22 25  1  0
 22 26  2  0
 23 27  1  0
 24 28  1  0
 27 28  1  0
  4 29  2  0
  4 30  1  0
 31 30  1  0
 31 32  1  0
 32 33  1  0
 32 34  1  0
 33 35  1  0
 34 36  1  0
 34 37  1  0
 37 35  1  0
 35 38  1  0
 37 39  1  0
 40 38  1  0
 41 38  1  0
 42 40  2  0
 40 43  1  0
 44 41  2  0
 45 42  1  0
 43 46  2  0
 43 44  1  0
 47 45  2  0
 47 46  1  0
 46 48  1  0
  6 49  1  1
  7 50  1  0
  7 51  1  0
  8 52  1  0
  8 53  1  0
 10 54  1  0
 11 55  1  0
 12 56  1  0
 13 57  1  0
 16 58  1  0
 16 59  1  0
 18 60  1  0
 21 61  1  0
 27 62  1  0
 27 63  1  0
 31 64  1  0
 31 65  1  0
 32 66  1  0
 34 67  1  0
 35 68  1  0
 36 69  1  0
 37 70  1  0
 39 71  1  0
 41 72  1  0
 45 73  1  0
 48 74  1  0
 48 75  1  0
M  CHG  3   5  -1  22   1  25  -1
M  END
>  <EmbedRMS>  (172) 
0.0808240626815

$$$$

     RDKit          3D

 75 80  0  0  0  0  0  0  0  0999 V2000
   10.2838   43.7627   33.8276 C   0  0  0  0  0  0  0  0  0  0  0  0
   11.4103   43.5863   34.3766 O   0  0  0  0  0  0  0  0  0  0  0  0
    9.3631   42.7236   33.7352 O   0  0  0  0  0  0  0  0  0  0  0  0
    9.8898   41.2248   34.2935 P   0  0  0  0  0  0  0  0  0  0  0  0
   10.3734   41.4543   35.8829 O   0  0  0  0  0  0  0  0  0  0  0  0
    9.9548   45.0701   33.2065 C   0  0  1  0  0  0  0  0  0  0  0  0
   11.0197   46.0482   33.4573 N   0  0  0  0  0  0  0  0  0  0  0  0
    9.7506   44.8513   31.6924 C   0  0  0  0  0  0  0  0  0  0  0  0
    8.7944   45.8421   31.0872 C   0  0  0  0  0  0  0  0  0  0  0  0
    7.4078   45.6001   31.0998 C   0  0  0  0  0  0  0  0  0  0  0  0
    9.2827   46.9889   30.4438 C   0  0  0  0  0  0  0  0  0  0  0  0
    6.5260   46.4990   30.4840 C   0  0  0  0  0  0  0  0  0  0  0  0
    8.4009   47.8875   29.8320 C   0  0  0  0  0  0  0  0  0  0  0  0
    7.0190   47.6568   29.8487 C   0  0  0  0  0  0  0  0  0  0  0  0
    6.1814   48.5959   29.2262 O   0  0  0  0  0  0  0  0  0  0  0  0
    4.7546   48.6022   29.2913 C   0  0  0  0  0  0  0  0  0  0  0  0
    4.2785   48.9279   30.6886 C   0  0  0  0  0  0  0  0  0  0  0  0
    3.3800   48.0340   31.3175 C   0  0  0  0  0  0  0  0  0  0  0  0
    4.7401   50.0849   31.4028 C   0  0  0  0  0  0  0  0  0  0  0  0
    2.9951   48.2932   32.6260 C   0  0  0  0  0  0  0  0  0  0  0  0
    4.3223   50.2875   32.7386 C   0  0  0  0  0  0  0  0  0  0  0  0
    5.6325   51.0436   30.8068 N   0  0  0  0  0  0  0  0  0  0  0  0
    2.1457   47.5605   33.4326 O   0  0  0  0  0  0  0  0  0  0  0  0
    3.4489   49.3699   33.3076 C   0  0  0  0  0  0  0  0  0  0  0  0
    6.5030   51.7560   31.5995 O   0  0  0  0  0  0  0  0  0  0  0  0
    5.5164   51.3641   29.6065 O   0  0  0  0  0  0  0  0  0  0  0  0
    2.0617   48.2218   34.7024 C   0  0  0  0  0  0  0  0  0  0  0  0
    2.9087   49.3726   34.5793 O   0  0  0  0  0  0  0  0  0  0  0  0
    8.8115   40.1834   34.2126 O   0  0  0  0  0  0  0  0  0  0  0  0
   11.2402   40.7936   33.3673 O   0  0  0  0  0  0  0  0  0  0  0  0
   10.9134   40.6864   31.9955 C   0  0  0  0  0  0  0  0  0  0  0  0
   11.5166   39.3786   31.4404 C   0  0  0  0  0  0  0  0  0  0  0  0
   12.7486   39.0849   32.0734 O   0  0  0  0  0  0  0  0  0  0  0  0
   10.6039   38.1883   31.6669 C   0  0  0  0  0  0  0  0  0  0  0  0
   12.9329   37.6775   32.0284 C   0  0  0  0  0  0  0  0  0  0  0  0
    9.6374   38.0938   30.6484 O   0  0  0  0  0  0  0  0  0  0  0  0
   11.5737   37.0140   31.7055 C   0  0  0  0  0  0  0  0  0  0  0  0
   13.4853   37.2120   33.3238 N   0  0  0  0  0  0  0  0  0  0  0  0
   11.6210   36.3379   30.4683 O   0  0  0  0  0  0  0  0  0  0  0  0
   14.4804   36.3319   33.5726 C   0  0  0  0  0  0  0  0  0  0  0  0
   13.1141   37.6275   34.5689 C   0  0  0  0  0  0  0  0  0  0  0  0
   15.2076   35.6152   32.6740 N   0  0  0  0  0  0  0  0  0  0  0  0
   14.6761   36.2306   34.9181 C   0  0  0  0  0  0  0  0  0  0  0  0
   13.8218   37.0451   35.5783 N   0  0  0  0  0  0  0  0  0  0  0  0
   16.1642   34.7600   33.1548 C   0  0  0  0  0  0  0  0  0  0  0  0
   15.6527   35.3506   35.4131 C   0  0  0  0  0  0  0  0  0  0  0  0
   16.3795   34.6315   34.5043 N   0  0  0  0  0  0  0  0  0  0  0  0
   15.9000   35.1933   36.8090 N   0  0  0  0  0  0  0  0  0  0  0  0
    9.0098   45.4349   33.6670 H   0  0  0  0  0  0  0  0  0  0  0  0
   11.1130   46.1994   34.4886 H   0  0  0  0  0  0  0  0  0  0  0  0
   11.9349   45.6935   33.0931 H   0  0  0  0  0  0  0  0  0  0  0  0
   10.7310   44.8934   31.1678 H   0  0  0  0  0  0  0  0  0  0  0  0
    9.3519   43.8347   31.4759 H   0  0  0  0  0  0  0  0  0  0  0  0
    7.0129   44.7130   31.5797 H   0  0  0  0  0  0  0  0  0  0  0  0
   10.3467   47.1890   30.4138 H   0  0  0  0  0  0  0  0  0  0  0  0
    5.4694   46.2770   30.5025 H   0  0  0  0  0  0  0  0  0  0  0  0
    8.7934   48.7706   29.3439 H   0  0  0  0  0  0  0  0  0  0  0  0
    4.3595   47.6279   28.9304 H   0  0  0  0  0  0  0  0  0  0  0  0
    4.3669   49.3705   28.5914 H   0  0  0  0  0  0  0  0  0  0  0  0
    3.0051   47.1543   30.8097 H   0  0  0  0  0  0  0  0  0  0  0  0
    4.6543   51.1439   33.3109 H   0  0  0  0  0  0  0  0  0  0  0  0
    1.0160   48.5355   34.9037 H   0  0  0  0  0  0  0  0  0  0  0  0
    2.4355   47.5555   35.5079 H   0  0  0  0  0  0  0  0  0  0  0  0
    9.8226   40.7225   31.7629 H   0  0  0  0  0  0  0  0  0  0  0  0
   11.3831   41.5438   31.4675 H   0  0  0  0  0  0  0  0  0  0  0  0
   11.6978   39.5037   30.3478 H   0  0  0  0  0  0  0  0  0  0  0  0
   10.1084   38.2785   32.6626 H   0  0  0  0  0  0  0  0  0  0  0  0
   13.6638   37.4472   31.2214 H   0  0  0  0  0  0  0  0  0  0  0  0
    8.9763   37.4190   30.9532 H   0  0  0  0  0  0  0  0  0  0  0  0
   11.2821   36.3053   32.5171 H   0  0  0  0  0  0  0  0  0  0  0  0
   10.8658   35.6935   30.4652 H   0  0  0  0  0  0  0  0  0  0  0  0
   12.3293   38.3523   34.7444 H   0  0  0  0  0  0  0  0  0  0  0  0
   16.7561   34.1778   32.4621 H   0  0  0  0  0  0  0  0  0  0  0  0
   15.3532   35.7361   37.5138 H   0  0  0  0  0  0  0  0  0  0  0  0
   16.6345   34.5300   37.1416 H   0  0  0  0  0  0  0  0  0  0  0  0
  1  2  2  0
  1  3  1  0
  3  4  1  0
  4  5  1  0
  6  1  1  0
  7  6  1  0
  6  8  1  0
  8  9  1  0
  9 10  2  0
 11  9  1  0
 10 12  1  0
 13 11  2  0
 12 14  2  0
 14 13  1  0
 14 15  1  0
 15 16  1  0
 16 17  1  0
 17 18  2  0
 19 17  1  0
 18 20  1  0
 21 19  2  0
 19 22  1  0
 20 23  1  0
 20 24  2  0
 24 21  1  0
 22 25  1  0
 22 26  2  0
 23 27  1  0
 24 28  1  0
 27 28  1  0
  4 29  2  0
  4 30  1  0
 31 30  1  0
 31 32  1  0
 32 33  1  0
 32 34  1  0
 33 35  1  0
 34 36  1  0
 34 37  1  0
 37 35  1  0
 35 38  1  0
 37 39  1  0
 40 38  1  0
 41 38  1  0
 42 40  2  0
 40 43  1  0
 44 41  2  0
 45 42  1  0
 43 46  2  0
 43 44  1  0
 47 45  2  0
 47 46  1  0
 46 48  1  0
  6 49  1  1
  7 50  1  0
  7 51  1  0
  8 52  1  0
  8 53  1  0
 10 54  1  0
 11 55  1  0
 12 56  1  0
 13 57  1  0
 16 58  1  0
 16 59  1  0
 18 60  1  0
 21 61  1  0
 27 62  1  0
 27 63  1  0
 31 64  1  0
 31 65  1  0
 32 66  1  0
 34 67  1  0
 35 68  1  0
 36 69  1  0
 37 70  1  0
 39 71  1  0
 41 72  1  0
 45 73  1  0
 48 74  1  0
 48 75  1  0
M  CHG  3   5  -1  22   1  25  -1
M  END
>  <EmbedRMS>  (173) 
0.08343564512

$$$$

     RDKit          3D

 75 80  0  0  0  0  0  0  0  0999 V2000
   10.2839   43.7627   33.8277 C   0  0  0  0  0  0  0  0  0  0  0  0
   11.4104   43.5864   34.3767 O   0  0  0  0  0  0  0  0  0  0  0  0
    9.3631   42.7236   33.7356 O   0  0  0  0  0  0  0  0  0  0  0  0
    9.8895   41.2250   34.2948 P   0  0  0  0  0  0  0  0  0  0  0  0
   10.3720   41.4547   35.8844 O   0  0  0  0  0  0  0  0  0  0  0  0
    9.9548   45.0700   33.2066 C   0  0  1  0  0  0  0  0  0  0  0  0
   11.0198   46.0482   33.4569 N   0  0  0  0  0  0  0  0  0  0  0  0
    9.7500   44.8509   31.6926 C   0  0  0  0  0  0  0  0  0  0  0  0
    8.7942   45.8419   31.0874 C   0  0  0  0  0  0  0  0  0  0  0  0
    7.4074   45.6006   31.0993 C   0  0  0  0  0  0  0  0  0  0  0  0
    9.2832   46.9887   30.4443 C   0  0  0  0  0  0  0  0  0  0  0  0
    6.5281   46.5012   30.4829 C   0  0  0  0  0  0  0  0  0  0  0  0
    8.4037   47.8891   29.8314 C   0  0  0  0  0  0  0  0  0  0  0  0
    7.0146   47.6534   29.8502 C   0  0  0  0  0  0  0  0  0  0  0  0
    6.0885   48.5268   29.2581 O   0  0  0  0  0  0  0  0  0  0  0  0
    6.3927   49.8158   28.7232 C   0  0  0  0  0  0  0  0  0  0  0  0
    6.7776   50.7799   29.8220 C   0  0  0  0  0  0  0  0  0  0  0  0
    8.0108   51.4650   29.7131 C   0  0  0  0  0  0  0  0  0  0  0  0
    5.9547   50.9860   30.9805 C   0  0  0  0  0  0  0  0  0  0  0  0
    8.3996   52.2984   30.7532 C   0  0  0  0  0  0  0  0  0  0  0  0
    6.4116   51.8375   32.0130 C   0  0  0  0  0  0  0  0  0  0  0  0
    4.6790   50.3384   31.1351 N   0  0  0  0  0  0  0  0  0  0  0  0
    9.5534   53.0499   30.8663 O   0  0  0  0  0  0  0  0  0  0  0  0
    7.6359   52.4739   31.8559 C   0  0  0  0  0  0  0  0  0  0  0  0
    4.2023   50.0534   32.3941 O   0  0  0  0  0  0  0  0  0  0  0  0
    3.9196   50.1817   30.1575 O   0  0  0  0  0  0  0  0  0  0  0  0
    9.5093   53.7418   32.1217 C   0  0  0  0  0  0  0  0  0  0  0  0
    8.2680   53.3459   32.7212 O   0  0  0  0  0  0  0  0  0  0  0  0
    8.8117   40.1832   34.2125 O   0  0  0  0  0  0  0  0  0  0  0  0
   11.2411   40.7939   33.3710 O   0  0  0  0  0  0  0  0  0  0  0  0
   10.9179   40.6920   31.9985 C   0  0  0  0  0  0  0  0  0  0  0  0
   11.5175   39.3837   31.4423 C   0  0  0  0  0  0  0  0  0  0  0  0
   12.7508   39.0887   32.0751 O   0  0  0  0  0  0  0  0  0  0  0  0
   10.6028   38.1915   31.6658 C   0  0  0  0  0  0  0  0  0  0  0  0
   12.9385   37.6818   32.0278 C   0  0  0  0  0  0  0  0  0  0  0  0
    9.6371   38.0805   30.6470 O   0  0  0  0  0  0  0  0  0  0  0  0
   11.5780   37.0215   31.6934 C   0  0  0  0  0  0  0  0  0  0  0  0
   13.4844   37.2119   33.3242 N   0  0  0  0  0  0  0  0  0  0  0  0
   11.6095   36.3201   30.4679 O   0  0  0  0  0  0  0  0  0  0  0  0
   14.4797   36.3318   33.5730 C   0  0  0  0  0  0  0  0  0  0  0  0
   13.1135   37.6278   34.5691 C   0  0  0  0  0  0  0  0  0  0  0  0
   15.2073   35.6155   32.6742 N   0  0  0  0  0  0  0  0  0  0  0  0
   14.6754   36.2305   34.9184 C   0  0  0  0  0  0  0  0  0  0  0  0
   13.8213   37.0452   35.5785 N   0  0  0  0  0  0  0  0  0  0  0  0
   16.1640   34.7604   33.1549 C   0  0  0  0  0  0  0  0  0  0  0  0
   15.6524   35.3507   35.4132 C   0  0  0  0  0  0  0  0  0  0  0  0
   16.3794   34.6318   34.5044 N   0  0  0  0  0  0  0  0  0  0  0  0
   15.8999   35.1934   36.8091 N   0  0  0  0  0  0  0  0  0  0  0  0
    9.0099   45.4349   33.6673 H   0  0  0  0  0  0  0  0  0  0  0  0
   11.9348   45.6933   33.0925 H   0  0  0  0  0  0  0  0  0  0  0  0
   11.1134   46.1994   34.4881 H   0  0  0  0  0  0  0  0  0  0  0  0
    9.3506   43.8344   31.4765 H   0  0  0  0  0  0  0  0  0  0  0  0
   10.7302   44.8922   31.1677 H   0  0  0  0  0  0  0  0  0  0  0  0
    7.0108   44.7153   31.5810 H   0  0  0  0  0  0  0  0  0  0  0  0
   10.3478   47.1861   30.4130 H   0  0  0  0  0  0  0  0  0  0  0  0
    5.4635   46.3051   30.5016 H   0  0  0  0  0  0  0  0  0  0  0  0
    8.8175   48.7562   29.3386 H   0  0  0  0  0  0  0  0  0  0  0  0
    5.4971   50.2073   28.1990 H   0  0  0  0  0  0  0  0  0  0  0  0
    7.1865   49.7222   27.9506 H   0  0  0  0  0  0  0  0  0  0  0  0
    8.6559   51.3404   28.8525 H   0  0  0  0  0  0  0  0  0  0  0  0
    5.8224   52.0121   32.9039 H   0  0  0  0  0  0  0  0  0  0  0  0
   10.3608   53.4300   32.7622 H   0  0  0  0  0  0  0  0  0  0  0  0
    9.5218   54.8395   31.9559 H   0  0  0  0  0  0  0  0  0  0  0  0
   11.3955   41.5477   31.4751 H   0  0  0  0  0  0  0  0  0  0  0  0
    9.8292   40.7409   31.7624 H   0  0  0  0  0  0  0  0  0  0  0  0
   11.6981   39.5116   30.3500 H   0  0  0  0  0  0  0  0  0  0  0  0
   10.1117   38.2603   32.6660 H   0  0  0  0  0  0  0  0  0  0  0  0
   13.6767   37.4555   31.2267 H   0  0  0  0  0  0  0  0  0  0  0  0
    8.8962   38.6952   30.8871 H   0  0  0  0  0  0  0  0  0  0  0  0
   11.2791   36.3072   32.4922 H   0  0  0  0  0  0  0  0  0  0  0  0
   11.8828   36.9598   29.7588 H   0  0  0  0  0  0  0  0  0  0  0  0
   12.3300   38.3539   34.7446 H   0  0  0  0  0  0  0  0  0  0  0  0
   16.7561   34.1785   32.4622 H   0  0  0  0  0  0  0  0  0  0  0  0
   15.3531   35.7360   37.5140 H   0  0  0  0  0  0  0  0  0  0  0  0
   16.6347   34.5303   37.1416 H   0  0  0  0  0  0  0  0  0  0  0  0
  1  2  2  0
  1  3  1  0
  3  4  1  0
  4  5  1  0
  6  1  1  0
  7  6  1  0
  6  8  1  0
  8  9  1  0
  9 10  2  0
 11  9  1  0
 10 12  1  0
 13 11  2  0
 12 14  2  0
 14 13  1  0
 14 15  1  0
 15 16  1  0
 16 17  1  0
 17 18  2  0
 19 17  1  0
 18 20  1  0
 21 19  2  0
 19 22  1  0
 20 23  1  0
 20 24  2  0
 24 21  1  0
 22 25  1  0
 22 26  2  0
 23 27  1  0
 24 28  1  0
 27 28  1  0
  4 29  2  0
  4 30  1  0
 31 30  1  0
 31 32  1  0
 32 33  1  0
 32 34  1  0
 33 35  1  0
 34 36  1  0
 34 37  1  0
 37 35  1  0
 35 38  1  0
 37 39  1  0
 40 38  1  0
 41 38  1  0
 42 40  2  0
 40 43  1  0
 44 41  2  0
 45 42  1  0
 43 46  2  0
 43 44  1  0
 47 45  2  0
 47 46  1  0
 46 48  1  0
  6 49  1  1
  7 50  1  0
  7 51  1  0
  8 52  1  0
  8 53  1  0
 10 54  1  0
 11 55  1  0
 12 56  1  0
 13 57  1  0
 16 58  1  0
 16 59  1  0
 18 60  1  0
 21 61  1  0
 27 62  1  0
 27 63  1  0
 31 64  1  0
 31 65  1  0
 32 66  1  0
 34 67  1  0
 35 68  1  0
 36 69  1  0
 37 70  1  0
 39 71  1  0
 41 72  1  0
 45 73  1  0
 48 74  1  0
 48 75  1  0
M  CHG  3   5  -1  22   1  25  -1
M  END
>  <EmbedRMS>  (174) 
0.0828732724747

$$$$

     RDKit          3D

 75 80  0  0  0  0  0  0  0  0999 V2000
   10.2835   43.7661   33.8257 C   0  0  0  0  0  0  0  0  0  0  0  0
   11.4102   43.5930   34.3752 O   0  0  0  0  0  0  0  0  0  0  0  0
    9.3638   42.7254   33.7349 O   0  0  0  0  0  0  0  0  0  0  0  0
    9.8903   41.2267   34.2943 P   0  0  0  0  0  0  0  0  0  0  0  0
   10.3735   41.4561   35.8837 O   0  0  0  0  0  0  0  0  0  0  0  0
    9.9546   45.0694   33.2036 C   0  0  1  0  0  0  0  0  0  0  0  0
   11.0273   46.0321   33.4756 N   0  0  0  0  0  0  0  0  0  0  0  0
    9.7465   44.8480   31.6877 C   0  0  0  0  0  0  0  0  0  0  0  0
    8.7923   45.8408   31.0844 C   0  0  0  0  0  0  0  0  0  0  0  0
    7.4054   45.6015   31.0989 C   0  0  0  0  0  0  0  0  0  0  0  0
    9.2824   46.9879   30.4422 C   0  0  0  0  0  0  0  0  0  0  0  0
    6.5264   46.5031   30.4837 C   0  0  0  0  0  0  0  0  0  0  0  0
    8.4033   47.8902   29.8315 C   0  0  0  0  0  0  0  0  0  0  0  0
    7.0144   47.6528   29.8478 C   0  0  0  0  0  0  0  0  0  0  0  0
    6.0935   48.5255   29.2505 O   0  0  0  0  0  0  0  0  0  0  0  0
    6.4429   49.7400   28.5906 C   0  0  0  0  0  0  0  0  0  0  0  0
    5.1924   50.4408   28.1240 C   0  0  0  0  0  0  0  0  0  0  0  0
    5.0575   50.7315   26.7454 C   0  0  0  0  0  0  0  0  0  0  0  0
    4.1278   50.7798   29.0252 C   0  0  0  0  0  0  0  0  0  0  0  0
    3.8842   51.3303   26.3062 C   0  0  0  0  0  0  0  0  0  0  0  0
    2.9507   51.3773   28.5146 C   0  0  0  0  0  0  0  0  0  0  0  0
    4.2130   50.5111   30.4371 N   0  0  0  0  0  0  0  0  0  0  0  0
    3.5367   51.6983   25.0206 O   0  0  0  0  0  0  0  0  0  0  0  0
    2.8749   51.6375   27.1527 C   0  0  0  0  0  0  0  0  0  0  0  0
    5.3924   50.6954   31.1199 O   0  0  0  0  0  0  0  0  0  0  0  0
    3.1776   50.2622   31.0889 O   0  0  0  0  0  0  0  0  0  0  0  0
    2.2242   52.2745   25.0649 C   0  0  0  0  0  0  0  0  0  0  0  0
    1.8387   52.2159   26.4450 O   0  0  0  0  0  0  0  0  0  0  0  0
    8.8122   40.1850   34.2131 O   0  0  0  0  0  0  0  0  0  0  0  0
   11.2407   40.7939   33.3693 O   0  0  0  0  0  0  0  0  0  0  0  0
   10.9151   40.6905   31.9974 C   0  0  0  0  0  0  0  0  0  0  0  0
   11.5252   39.3886   31.4375 C   0  0  0  0  0  0  0  0  0  0  0  0
   12.7500   39.0874   32.0799 O   0  0  0  0  0  0  0  0  0  0  0  0
   10.6092   38.1926   31.6470 C   0  0  0  0  0  0  0  0  0  0  0  0
   12.9332   37.6793   32.0294 C   0  0  0  0  0  0  0  0  0  0  0  0
    9.6122   38.0894   30.6542 O   0  0  0  0  0  0  0  0  0  0  0  0
   11.5743   37.0145   31.7024 C   0  0  0  0  0  0  0  0  0  0  0  0
   13.4844   37.2108   33.3241 N   0  0  0  0  0  0  0  0  0  0  0  0
   11.6297   36.3239   30.4740 O   0  0  0  0  0  0  0  0  0  0  0  0
   14.4802   36.3313   33.5727 C   0  0  0  0  0  0  0  0  0  0  0  0
   13.1139   37.6266   34.5692 C   0  0  0  0  0  0  0  0  0  0  0  0
   15.2075   35.6149   32.6739 N   0  0  0  0  0  0  0  0  0  0  0  0
   14.6761   36.2303   34.9181 C   0  0  0  0  0  0  0  0  0  0  0  0
   13.8220   37.0447   35.5785 N   0  0  0  0  0  0  0  0  0  0  0  0
   16.1643   34.7600   33.1547 C   0  0  0  0  0  0  0  0  0  0  0  0
   15.6529   35.3505   35.4130 C   0  0  0  0  0  0  0  0  0  0  0  0
   16.3798   34.6315   34.5042 N   0  0  0  0  0  0  0  0  0  0  0  0
   15.9003   35.1932   36.8090 N   0  0  0  0  0  0  0  0  0  0  0  0
    9.0121   45.4317   33.6715 H   0  0  0  0  0  0  0  0  0  0  0  0
   10.7259   46.9687   33.1213 H   0  0  0  0  0  0  0  0  0  0  0  0
   11.8906   45.7658   32.9469 H   0  0  0  0  0  0  0  0  0  0  0  0
   10.7229   44.8813   31.1557 H   0  0  0  0  0  0  0  0  0  0  0  0
    9.3413   43.8329   31.4763 H   0  0  0  0  0  0  0  0  0  0  0  0
    7.0081   44.7168   31.5812 H   0  0  0  0  0  0  0  0  0  0  0  0
   10.3471   47.1847   30.4113 H   0  0  0  0  0  0  0  0  0  0  0  0
    5.4616   46.3078   30.5022 H   0  0  0  0  0  0  0  0  0  0  0  0
    8.8144   48.7650   29.3469 H   0  0  0  0  0  0  0  0  0  0  0  0
    7.0055   50.4067   29.2767 H   0  0  0  0  0  0  0  0  0  0  0  0
    7.1089   49.5048   27.7316 H   0  0  0  0  0  0  0  0  0  0  0  0
    5.8376   50.4907   26.0342 H   0  0  0  0  0  0  0  0  0  0  0  0
    2.1257   51.6440   29.1625 H   0  0  0  0  0  0  0  0  0  0  0  0
    2.2560   53.3294   24.7205 H   0  0  0  0  0  0  0  0  0  0  0  0
    1.5219   51.6784   24.4453 H   0  0  0  0  0  0  0  0  0  0  0  0
   11.3801   41.5528   31.4733 H   0  0  0  0  0  0  0  0  0  0  0  0
    9.8242   40.7215   31.7643 H   0  0  0  0  0  0  0  0  0  0  0  0
   11.7265   39.5311   30.3513 H   0  0  0  0  0  0  0  0  0  0  0  0
   10.1110   38.2747   32.6387 H   0  0  0  0  0  0  0  0  0  0  0  0
   13.6652   37.4519   31.2226 H   0  0  0  0  0  0  0  0  0  0  0  0
   10.0511   38.1142   29.7645 H   0  0  0  0  0  0  0  0  0  0  0  0
   11.2762   36.3141   32.5189 H   0  0  0  0  0  0  0  0  0  0  0  0
   10.8593   35.6978   30.4640 H   0  0  0  0  0  0  0  0  0  0  0  0
   12.3295   38.3518   34.7449 H   0  0  0  0  0  0  0  0  0  0  0  0
   16.7564   34.1780   32.4620 H   0  0  0  0  0  0  0  0  0  0  0  0
   16.6349   34.5300   37.1415 H   0  0  0  0  0  0  0  0  0  0  0  0
   15.3534   35.7359   37.5138 H   0  0  0  0  0  0  0  0  0  0  0  0
  1  2  2  0
  1  3  1  0
  3  4  1  0
  4  5  1  0
  6  1  1  0
  7  6  1  0
  6  8  1  0
  8  9  1  0
  9 10  2  0
 11  9  1  0
 10 12  1  0
 13 11  2  0
 12 14  2  0
 14 13  1  0
 14 15  1  0
 15 16  1  0
 16 17  1  0
 17 18  2  0
 19 17  1  0
 18 20  1  0
 21 19  2  0
 19 22  1  0
 20 23  1  0
 20 24  2  0
 24 21  1  0
 22 25  1  0
 22 26  2  0
 23 27  1  0
 24 28  1  0
 27 28  1  0
  4 29  2  0
  4 30  1  0
 31 30  1  0
 31 32  1  0
 32 33  1  0
 32 34  1  0
 33 35  1  0
 34 36  1  0
 34 37  1  0
 37 35  1  0
 35 38  1  0
 37 39  1  0
 40 38  1  0
 41 38  1  0
 42 40  2  0
 40 43  1  0
 44 41  2  0
 45 42  1  0
 43 46  2  0
 43 44  1  0
 47 45  2  0
 47 46  1  0
 46 48  1  0
  6 49  1  1
  7 50  1  0
  7 51  1  0
  8 52  1  0
  8 53  1  0
 10 54  1  0
 11 55  1  0
 12 56  1  0
 13 57  1  0
 16 58  1  0
 16 59  1  0
 18 60  1  0
 21 61  1  0
 27 62  1  0
 27 63  1  0
 31 64  1  0
 31 65  1  0
 32 66  1  0
 34 67  1  0
 35 68  1  0
 36 69  1  0
 37 70  1  0
 39 71  1  0
 41 72  1  0
 45 73  1  0
 48 74  1  0
 48 75  1  0
M  CHG  3   5  -1  22   1  25  -1
M  END
>  <EmbedRMS>  (175) 
0.0818183871066

$$$$

     RDKit          3D

 75 80  0  0  0  0  0  0  0  0999 V2000
   10.2835   43.7662   33.8256 C   0  0  0  0  0  0  0  0  0  0  0  0
   11.4102   43.5930   34.3752 O   0  0  0  0  0  0  0  0  0  0  0  0
    9.3638   42.7255   33.7348 O   0  0  0  0  0  0  0  0  0  0  0  0
    9.8903   41.2267   34.2942 P   0  0  0  0  0  0  0  0  0  0  0  0
   10.3735   41.4561   35.8837 O   0  0  0  0  0  0  0  0  0  0  0  0
    9.9548   45.0695   33.2035 C   0  0  1  0  0  0  0  0  0  0  0  0
   11.0274   46.0322   33.4759 N   0  0  0  0  0  0  0  0  0  0  0  0
    9.7471   44.8484   31.6875 C   0  0  0  0  0  0  0  0  0  0  0  0
    8.7924   45.8409   31.0844 C   0  0  0  0  0  0  0  0  0  0  0  0
    7.4056   45.6009   31.0995 C   0  0  0  0  0  0  0  0  0  0  0  0
    9.2818   46.9881   30.4420 C   0  0  0  0  0  0  0  0  0  0  0  0
    6.5241   46.5011   30.4850 C   0  0  0  0  0  0  0  0  0  0  0  0
    8.4006   47.8886   29.8322 C   0  0  0  0  0  0  0  0  0  0  0  0
    7.0190   47.6561   29.8459 C   0  0  0  0  0  0  0  0  0  0  0  0
    6.1797   48.5879   29.2179 O   0  0  0  0  0  0  0  0  0  0  0  0
    4.7591   48.4791   29.1516 C   0  0  0  0  0  0  0  0  0  0  0  0
    4.1992   49.6346   28.3594 C   0  0  0  0  0  0  0  0  0  0  0  0
    4.7720   49.9156   27.0965 C   0  0  0  0  0  0  0  0  0  0  0  0
    3.1410   50.4655   28.8529 C   0  0  0  0  0  0  0  0  0  0  0  0
    4.3167   51.0244   26.3946 C   0  0  0  0  0  0  0  0  0  0  0  0
    2.7300   51.5911   28.1020 C   0  0  0  0  0  0  0  0  0  0  0  0
    2.4554   50.1617   30.0771 N   0  0  0  0  0  0  0  0  0  0  0  0
    4.7348   51.4936   25.1642 O   0  0  0  0  0  0  0  0  0  0  0  0
    3.3435   51.8303   26.8790 C   0  0  0  0  0  0  0  0  0  0  0  0
    1.9692   48.8931   30.2944 O   0  0  0  0  0  0  0  0  0  0  0  0
    2.0856   51.0860   30.8304 O   0  0  0  0  0  0  0  0  0  0  0  0
    3.9735   52.6698   24.8574 C   0  0  0  0  0  0  0  0  0  0  0  0
    3.0969   52.8487   25.9784 O   0  0  0  0  0  0  0  0  0  0  0  0
    8.8121   40.1850   34.2130 O   0  0  0  0  0  0  0  0  0  0  0  0
   11.2407   40.7939   33.3694 O   0  0  0  0  0  0  0  0  0  0  0  0
   10.9151   40.6905   31.9974 C   0  0  0  0  0  0  0  0  0  0  0  0
   11.5252   39.3886   31.4375 C   0  0  0  0  0  0  0  0  0  0  0  0
   12.7500   39.0874   32.0799 O   0  0  0  0  0  0  0  0  0  0  0  0
   10.6092   38.1926   31.6470 C   0  0  0  0  0  0  0  0  0  0  0  0
   12.9332   37.6793   32.0294 C   0  0  0  0  0  0  0  0  0  0  0  0
    9.6122   38.0895   30.6542 O   0  0  0  0  0  0  0  0  0  0  0  0
   11.5743   37.0145   31.7024 C   0  0  0  0  0  0  0  0  0  0  0  0
   13.4844   37.2108   33.3241 N   0  0  0  0  0  0  0  0  0  0  0  0
   11.6297   36.3239   30.4740 O   0  0  0  0  0  0  0  0  0  0  0  0
   14.4802   36.3313   33.5727 C   0  0  0  0  0  0  0  0  0  0  0  0
   13.1138   37.6266   34.5692 C   0  0  0  0  0  0  0  0  0  0  0  0
   15.2075   35.6149   32.6739 N   0  0  0  0  0  0  0  0  0  0  0  0
   14.6761   36.2303   34.9181 C   0  0  0  0  0  0  0  0  0  0  0  0
   13.8220   37.0447   35.5785 N   0  0  0  0  0  0  0  0  0  0  0  0
   16.1643   34.7600   33.1547 C   0  0  0  0  0  0  0  0  0  0  0  0
   15.6529   35.3505   35.4130 C   0  0  0  0  0  0  0  0  0  0  0  0
   16.3798   34.6315   34.5042 N   0  0  0  0  0  0  0  0  0  0  0  0
   15.9003   35.1932   36.8090 N   0  0  0  0  0  0  0  0  0  0  0  0
    9.0121   45.4317   33.6713 H   0  0  0  0  0  0  0  0  0  0  0  0
   10.7261   46.9688   33.1214 H   0  0  0  0  0  0  0  0  0  0  0  0
   11.8908   45.7658   32.9476 H   0  0  0  0  0  0  0  0  0  0  0  0
    9.3425   43.8331   31.4758 H   0  0  0  0  0  0  0  0  0  0  0  0
   10.7235   44.8825   31.1557 H   0  0  0  0  0  0  0  0  0  0  0  0
    7.0099   44.7157   31.5822 H   0  0  0  0  0  0  0  0  0  0  0  0
   10.3461   47.1864   30.4103 H   0  0  0  0  0  0  0  0  0  0  0  0
    5.4643   46.2887   30.5131 H   0  0  0  0  0  0  0  0  0  0  0  0
    8.7936   48.7705   29.3423 H   0  0  0  0  0  0  0  0  0  0  0  0
    4.3644   48.4592   30.1865 H   0  0  0  0  0  0  0  0  0  0  0  0
    4.4824   47.5330   28.6385 H   0  0  0  0  0  0  0  0  0  0  0  0
    5.5623   49.3000   26.6849 H   0  0  0  0  0  0  0  0  0  0  0  0
    1.9361   52.2405   28.4481 H   0  0  0  0  0  0  0  0  0  0  0  0
    4.6464   53.5466   24.7535 H   0  0  0  0  0  0  0  0  0  0  0  0
    3.3829   52.5139   23.9304 H   0  0  0  0  0  0  0  0  0  0  0  0
    9.8243   40.7216   31.7643 H   0  0  0  0  0  0  0  0  0  0  0  0
   11.3802   41.5529   31.4733 H   0  0  0  0  0  0  0  0  0  0  0  0
   11.7266   39.5311   30.3513 H   0  0  0  0  0  0  0  0  0  0  0  0
   10.1110   38.2747   32.6387 H   0  0  0  0  0  0  0  0  0  0  0  0
   13.6652   37.4519   31.2226 H   0  0  0  0  0  0  0  0  0  0  0  0
   10.0512   38.1143   29.7645 H   0  0  0  0  0  0  0  0  0  0  0  0
   11.2762   36.3141   32.5189 H   0  0  0  0  0  0  0  0  0  0  0  0
   10.8593   35.6978   30.4640 H   0  0  0  0  0  0  0  0  0  0  0  0
   12.3294   38.3518   34.7449 H   0  0  0  0  0  0  0  0  0  0  0  0
   16.7564   34.1779   32.4620 H   0  0  0  0  0  0  0  0  0  0  0  0
   15.3534   35.7359   37.5138 H   0  0  0  0  0  0  0  0  0  0  0  0
   16.6349   34.5300   37.1415 H   0  0  0  0  0  0  0  0  0  0  0  0
  1  2  2  0
  1  3  1  0
  3  4  1  0
  4  5  1  0
  6  1  1  0
  7  6  1  0
  6  8  1  0
  8  9  1  0
  9 10  2  0
 11  9  1  0
 10 12  1  0
 13 11  2  0
 12 14  2  0
 14 13  1  0
 14 15  1  0
 15 16  1  0
 16 17  1  0
 17 18  2  0
 19 17  1  0
 18 20  1  0
 21 19  2  0
 19 22  1  0
 20 23  1  0
 20 24  2  0
 24 21  1  0
 22 25  1  0
 22 26  2  0
 23 27  1  0
 24 28  1  0
 27 28  1  0
  4 29  2  0
  4 30  1  0
 31 30  1  0
 31 32  1  0
 32 33  1  0
 32 34  1  0
 33 35  1  0
 34 36  1  0
 34 37  1  0
 37 35  1  0
 35 38  1  0
 37 39  1  0
 40 38  1  0
 41 38  1  0
 42 40  2  0
 40 43  1  0
 44 41  2  0
 45 42  1  0
 43 46  2  0
 43 44  1  0
 47 45  2  0
 47 46  1  0
 46 48  1  0
  6 49  1  1
  7 50  1  0
  7 51  1  0
  8 52  1  0
  8 53  1  0
 10 54  1  0
 11 55  1  0
 12 56  1  0
 13 57  1  0
 16 58  1  0
 16 59  1  0
 18 60  1  0
 21 61  1  0
 27 62  1  0
 27 63  1  0
 31 64  1  0
 31 65  1  0
 32 66  1  0
 34 67  1  0
 35 68  1  0
 36 69  1  0
 37 70  1  0
 39 71  1  0
 41 72  1  0
 45 73  1  0
 48 74  1  0
 48 75  1  0
M  CHG  3   5  -1  22   1  25  -1
M  END
>  <EmbedRMS>  (176) 
0.0818053830884

$$$$

     RDKit          3D

 75 80  0  0  0  0  0  0  0  0999 V2000
   10.2839   43.7627   33.8276 C   0  0  0  0  0  0  0  0  0  0  0  0
   11.4103   43.5863   34.3768 O   0  0  0  0  0  0  0  0  0  0  0  0
    9.3631   42.7237   33.7354 O   0  0  0  0  0  0  0  0  0  0  0  0
    9.8894   41.2249   34.2943 P   0  0  0  0  0  0  0  0  0  0  0  0
   10.3727   41.4545   35.8838 O   0  0  0  0  0  0  0  0  0  0  0  0
    9.9550   45.0700   33.2064 C   0  0  1  0  0  0  0  0  0  0  0  0
   11.0200   46.0481   33.4570 N   0  0  0  0  0  0  0  0  0  0  0  0
    9.7505   44.8512   31.6923 C   0  0  0  0  0  0  0  0  0  0  0  0
    8.7943   45.8420   31.0871 C   0  0  0  0  0  0  0  0  0  0  0  0
    7.4074   45.6004   31.1005 C   0  0  0  0  0  0  0  0  0  0  0  0
    9.2827   46.9895   30.4447 C   0  0  0  0  0  0  0  0  0  0  0  0
    6.5254   46.4997   30.4851 C   0  0  0  0  0  0  0  0  0  0  0  0
    8.4009   47.8885   29.8331 C   0  0  0  0  0  0  0  0  0  0  0  0
    7.0196   47.6547   29.8456 C   0  0  0  0  0  0  0  0  0  0  0  0
    6.1803   48.5846   29.2151 O   0  0  0  0  0  0  0  0  0  0  0  0
    4.7622   48.4678   29.1367 C   0  0  0  0  0  0  0  0  0  0  0  0
    4.2069   49.6362   28.3665 C   0  0  0  0  0  0  0  0  0  0  0  0
    3.6905   50.7340   29.0940 C   0  0  0  0  0  0  0  0  0  0  0  0
    4.1637   49.6530   26.9328 C   0  0  0  0  0  0  0  0  0  0  0  0
    3.1354   51.7932   28.3882 C   0  0  0  0  0  0  0  0  0  0  0  0
    3.5730   50.7556   26.2704 C   0  0  0  0  0  0  0  0  0  0  0  0
    4.6950   48.5716   26.1450 N   0  0  0  0  0  0  0  0  0  0  0  0
    2.5732   52.9545   28.8827 O   0  0  0  0  0  0  0  0  0  0  0  0
    3.0765   51.8023   27.0365 C   0  0  0  0  0  0  0  0  0  0  0  0
    5.8601   47.9399   26.5125 O   0  0  0  0  0  0  0  0  0  0  0  0
    4.1961   48.3059   25.0317 O   0  0  0  0  0  0  0  0  0  0  0  0
    2.1337   53.7426   27.7679 C   0  0  0  0  0  0  0  0  0  0  0  0
    2.4745   52.9700   26.6085 O   0  0  0  0  0  0  0  0  0  0  0  0
    8.8113   40.1834   34.2128 O   0  0  0  0  0  0  0  0  0  0  0  0
   11.2399   40.7933   33.3693 O   0  0  0  0  0  0  0  0  0  0  0  0
   10.9143   40.6896   31.9973 C   0  0  0  0  0  0  0  0  0  0  0  0
   11.5261   39.3884   31.4376 C   0  0  0  0  0  0  0  0  0  0  0  0
   12.7505   39.0887   32.0815 O   0  0  0  0  0  0  0  0  0  0  0  0
   10.6115   38.1909   31.6461 C   0  0  0  0  0  0  0  0  0  0  0  0
   12.9357   37.6812   32.0302 C   0  0  0  0  0  0  0  0  0  0  0  0
    9.6146   38.0858   30.6534 O   0  0  0  0  0  0  0  0  0  0  0  0
   11.5770   37.0148   31.7012 C   0  0  0  0  0  0  0  0  0  0  0  0
   13.4849   37.2111   33.3246 N   0  0  0  0  0  0  0  0  0  0  0  0
   11.6192   36.3260   30.4724 O   0  0  0  0  0  0  0  0  0  0  0  0
   14.4802   36.3313   33.5730 C   0  0  0  0  0  0  0  0  0  0  0  0
   13.1141   37.6268   34.5697 C   0  0  0  0  0  0  0  0  0  0  0  0
   15.2075   35.6151   32.6740 N   0  0  0  0  0  0  0  0  0  0  0  0
   14.6760   36.2300   34.9184 C   0  0  0  0  0  0  0  0  0  0  0  0
   13.8220   37.0445   35.5788 N   0  0  0  0  0  0  0  0  0  0  0  0
   16.1642   34.7600   33.1547 C   0  0  0  0  0  0  0  0  0  0  0  0
   15.6529   35.3503   35.4132 C   0  0  0  0  0  0  0  0  0  0  0  0
   16.3797   34.6314   34.5042 N   0  0  0  0  0  0  0  0  0  0  0  0
   15.9003   35.1930   36.8091 N   0  0  0  0  0  0  0  0  0  0  0  0
    9.0100   45.4349   33.6671 H   0  0  0  0  0  0  0  0  0  0  0  0
   11.9351   45.6931   33.0929 H   0  0  0  0  0  0  0  0  0  0  0  0
   11.1134   46.1996   34.4882 H   0  0  0  0  0  0  0  0  0  0  0  0
    9.3516   43.8345   31.4761 H   0  0  0  0  0  0  0  0  0  0  0  0
   10.7307   44.8930   31.1674 H   0  0  0  0  0  0  0  0  0  0  0  0
    7.0123   44.7149   31.5833 H   0  0  0  0  0  0  0  0  0  0  0  0
   10.3467   47.1896   30.4150 H   0  0  0  0  0  0  0  0  0  0  0  0
    5.4657   46.2865   30.5129 H   0  0  0  0  0  0  0  0  0  0  0  0
    8.7935   48.7704   29.3428 H   0  0  0  0  0  0  0  0  0  0  0  0
    4.4747   47.5145   28.6436 H   0  0  0  0  0  0  0  0  0  0  0  0
    4.3405   48.4498   30.1657 H   0  0  0  0  0  0  0  0  0  0  0  0
    3.7135   50.7584   30.1764 H   0  0  0  0  0  0  0  0  0  0  0  0
    3.5182   50.8029   25.1904 H   0  0  0  0  0  0  0  0  0  0  0  0
    1.0353   53.8971   27.8161 H   0  0  0  0  0  0  0  0  0  0  0  0
    2.6682   54.7155   27.7508 H   0  0  0  0  0  0  0  0  0  0  0  0
    9.8234   40.7191   31.7644 H   0  0  0  0  0  0  0  0  0  0  0  0
   11.3782   41.5526   31.4733 H   0  0  0  0  0  0  0  0  0  0  0  0
   11.7283   39.5313   30.3515 H   0  0  0  0  0  0  0  0  0  0  0  0
   10.1127   38.2733   32.6377 H   0  0  0  0  0  0  0  0  0  0  0  0
   13.6692   37.4565   31.2241 H   0  0  0  0  0  0  0  0  0  0  0  0
   10.0535   38.1115   29.7636 H   0  0  0  0  0  0  0  0  0  0  0  0
   11.2607   36.3148   32.5102 H   0  0  0  0  0  0  0  0  0  0  0  0
   12.1495   35.5022   30.6323 H   0  0  0  0  0  0  0  0  0  0  0  0
   12.3302   38.3525   34.7453 H   0  0  0  0  0  0  0  0  0  0  0  0
   16.7564   34.1782   32.4620 H   0  0  0  0  0  0  0  0  0  0  0  0
   16.6349   34.5299   37.1416 H   0  0  0  0  0  0  0  0  0  0  0  0
   15.3534   35.7357   37.5139 H   0  0  0  0  0  0  0  0  0  0  0  0
  1  2  2  0
  1  3  1  0
  3  4  1  0
  4  5  1  0
  6  1  1  0
  7  6  1  0
  6  8  1  0
  8  9  1  0
  9 10  2  0
 11  9  1  0
 10 12  1  0
 13 11  2  0
 12 14  2  0
 14 13  1  0
 14 15  1  0
 15 16  1  0
 16 17  1  0
 17 18  2  0
 19 17  1  0
 18 20  1  0
 21 19  2  0
 19 22  1  0
 20 23  1  0
 20 24  2  0
 24 21  1  0
 22 25  1  0
 22 26  2  0
 23 27  1  0
 24 28  1  0
 27 28  1  0
  4 29  2  0
  4 30  1  0
 31 30  1  0
 31 32  1  0
 32 33  1  0
 32 34  1  0
 33 35  1  0
 34 36  1  0
 34 37  1  0
 37 35  1  0
 35 38  1  0
 37 39  1  0
 40 38  1  0
 41 38  1  0
 42 40  2  0
 40 43  1  0
 44 41  2  0
 45 42  1  0
 43 46  2  0
 43 44  1  0
 47 45  2  0
 47 46  1  0
 46 48  1  0
  6 49  1  1
  7 50  1  0
  7 51  1  0
  8 52  1  0
  8 53  1  0
 10 54  1  0
 11 55  1  0
 12 56  1  0
 13 57  1  0
 16 58  1  0
 16 59  1  0
 18 60  1  0
 21 61  1  0
 27 62  1  0
 27 63  1  0
 31 64  1  0
 31 65  1  0
 32 66  1  0
 34 67  1  0
 35 68  1  0
 36 69  1  0
 37 70  1  0
 39 71  1  0
 41 72  1  0
 45 73  1  0
 48 74  1  0
 48 75  1  0
M  CHG  3   5  -1  22   1  25  -1
M  END
>  <EmbedRMS>  (177) 
0.0825176780652

$$$$

     RDKit          3D

 75 80  0  0  0  0  0  0  0  0999 V2000
   10.2835   43.7662   33.8256 C   0  0  0  0  0  0  0  0  0  0  0  0
   11.4102   43.5930   34.3752 O   0  0  0  0  0  0  0  0  0  0  0  0
    9.3638   42.7255   33.7349 O   0  0  0  0  0  0  0  0  0  0  0  0
    9.8903   41.2267   34.2942 P   0  0  0  0  0  0  0  0  0  0  0  0
   10.3735   41.4561   35.8837 O   0  0  0  0  0  0  0  0  0  0  0  0
    9.9547   45.0696   33.2036 C   0  0  1  0  0  0  0  0  0  0  0  0
   11.0273   46.0323   33.4760 N   0  0  0  0  0  0  0  0  0  0  0  0
    9.7471   44.8485   31.6877 C   0  0  0  0  0  0  0  0  0  0  0  0
    8.7925   45.8411   31.0847 C   0  0  0  0  0  0  0  0  0  0  0  0
    7.4059   45.6007   31.0989 C   0  0  0  0  0  0  0  0  0  0  0  0
    9.2818   46.9876   30.4414 C   0  0  0  0  0  0  0  0  0  0  0  0
    6.5247   46.5004   30.4838 C   0  0  0  0  0  0  0  0  0  0  0  0
    8.4005   47.8876   29.8312 C   0  0  0  0  0  0  0  0  0  0  0  0
    7.0185   47.6578   29.8485 C   0  0  0  0  0  0  0  0  0  0  0  0
    6.1813   48.5977   29.2266 O   0  0  0  0  0  0  0  0  0  0  0  0
    4.7543   48.6025   29.2896 C   0  0  0  0  0  0  0  0  0  0  0  0
    4.2753   48.9228   30.6869 C   0  0  0  0  0  0  0  0  0  0  0  0
    3.3627   48.0354   31.3046 C   0  0  0  0  0  0  0  0  0  0  0  0
    4.7491   50.0666   31.4118 C   0  0  0  0  0  0  0  0  0  0  0  0
    2.9743   48.2898   32.6132 C   0  0  0  0  0  0  0  0  0  0  0  0
    4.3267   50.2656   32.7476 C   0  0  0  0  0  0  0  0  0  0  0  0
    5.6570   51.0143   30.8218 N   0  0  0  0  0  0  0  0  0  0  0  0
    2.1115   47.5620   33.4099 O   0  0  0  0  0  0  0  0  0  0  0  0
    3.4385   49.3554   33.3052 C   0  0  0  0  0  0  0  0  0  0  0  0
    5.5112   51.4038   29.5109 O   0  0  0  0  0  0  0  0  0  0  0  0
    6.4842   51.6165   31.5373 O   0  0  0  0  0  0  0  0  0  0  0  0
    2.0295   48.2149   34.6842 C   0  0  0  0  0  0  0  0  0  0  0  0
    2.8918   49.3555   34.5741 O   0  0  0  0  0  0  0  0  0  0  0  0
    8.8121   40.1850   34.2130 O   0  0  0  0  0  0  0  0  0  0  0  0
   11.2407   40.7940   33.3694 O   0  0  0  0  0  0  0  0  0  0  0  0
   10.9151   40.6905   31.9974 C   0  0  0  0  0  0  0  0  0  0  0  0
   11.5252   39.3886   31.4375 C   0  0  0  0  0  0  0  0  0  0  0  0
   12.7500   39.0874   32.0799 O   0  0  0  0  0  0  0  0  0  0  0  0
   10.6092   38.1926   31.6470 C   0  0  0  0  0  0  0  0  0  0  0  0
   12.9332   37.6793   32.0294 C   0  0  0  0  0  0  0  0  0  0  0  0
    9.6122   38.0895   30.6542 O   0  0  0  0  0  0  0  0  0  0  0  0
   11.5743   37.0145   31.7024 C   0  0  0  0  0  0  0  0  0  0  0  0
   13.4844   37.2108   33.3241 N   0  0  0  0  0  0  0  0  0  0  0  0
   11.6297   36.3239   30.4740 O   0  0  0  0  0  0  0  0  0  0  0  0
   14.4802   36.3313   33.5727 C   0  0  0  0  0  0  0  0  0  0  0  0
   13.1138   37.6266   34.5692 C   0  0  0  0  0  0  0  0  0  0  0  0
   15.2075   35.6149   32.6739 N   0  0  0  0  0  0  0  0  0  0  0  0
   14.6761   36.2303   34.9181 C   0  0  0  0  0  0  0  0  0  0  0  0
   13.8220   37.0447   35.5785 N   0  0  0  0  0  0  0  0  0  0  0  0
   16.1643   34.7600   33.1547 C   0  0  0  0  0  0  0  0  0  0  0  0
   15.6529   35.3505   35.4130 C   0  0  0  0  0  0  0  0  0  0  0  0
   16.3798   34.6315   34.5042 N   0  0  0  0  0  0  0  0  0  0  0  0
   15.9003   35.1932   36.8090 N   0  0  0  0  0  0  0  0  0  0  0  0
    9.0120   45.4317   33.6713 H   0  0  0  0  0  0  0  0  0  0  0  0
   11.8907   45.7661   32.9476 H   0  0  0  0  0  0  0  0  0  0  0  0
   10.7259   46.9689   33.1216 H   0  0  0  0  0  0  0  0  0  0  0  0
   10.7236   44.8826   31.1559 H   0  0  0  0  0  0  0  0  0  0  0  0
    9.3425   43.8332   31.4758 H   0  0  0  0  0  0  0  0  0  0  0  0
    7.0103   44.7140   31.5790 H   0  0  0  0  0  0  0  0  0  0  0  0
   10.3461   47.1859   30.4094 H   0  0  0  0  0  0  0  0  0  0  0  0
    5.4678   46.2797   30.5036 H   0  0  0  0  0  0  0  0  0  0  0  0
    8.7935   48.7705   29.3431 H   0  0  0  0  0  0  0  0  0  0  0  0
    4.3609   47.6288   28.9252 H   0  0  0  0  0  0  0  0  0  0  0  0
    4.3666   49.3720   28.5917 H   0  0  0  0  0  0  0  0  0  0  0  0
    2.9794   47.1645   30.7882 H   0  0  0  0  0  0  0  0  0  0  0  0
    4.6678   51.1134   33.3276 H   0  0  0  0  0  0  0  0  0  0  0  0
    2.3904   47.5378   35.4866 H   0  0  0  0  0  0  0  0  0  0  0  0
    0.9868   48.5405   34.8825 H   0  0  0  0  0  0  0  0  0  0  0  0
    9.8243   40.7216   31.7643 H   0  0  0  0  0  0  0  0  0  0  0  0
   11.3802   41.5529   31.4733 H   0  0  0  0  0  0  0  0  0  0  0  0
   11.7266   39.5311   30.3513 H   0  0  0  0  0  0  0  0  0  0  0  0
   10.1110   38.2747   32.6387 H   0  0  0  0  0  0  0  0  0  0  0  0
   13.6652   37.4519   31.2226 H   0  0  0  0  0  0  0  0  0  0  0  0
   10.0511   38.1143   29.7645 H   0  0  0  0  0  0  0  0  0  0  0  0
   11.2762   36.3141   32.5189 H   0  0  0  0  0  0  0  0  0  0  0  0
   10.8593   35.6978   30.4640 H   0  0  0  0  0  0  0  0  0  0  0  0
   12.3295   38.3518   34.7449 H   0  0  0  0  0  0  0  0  0  0  0  0
   16.7564   34.1780   32.4620 H   0  0  0  0  0  0  0  0  0  0  0  0
   16.6349   34.5300   37.1415 H   0  0  0  0  0  0  0  0  0  0  0  0
   15.3534   35.7359   37.5138 H   0  0  0  0  0  0  0  0  0  0  0  0
  1  2  2  0
  1  3  1  0
  3  4  1  0
  4  5  1  0
  6  1  1  0
  7  6  1  0
  6  8  1  0
  8  9  1  0
  9 10  2  0
 11  9  1  0
 10 12  1  0
 13 11  2  0
 12 14  2  0
 14 13  1  0
 14 15  1  0
 15 16  1  0
 16 17  1  0
 17 18  2  0
 19 17  1  0
 18 20  1  0
 21 19  2  0
 19 22  1  0
 20 23  1  0
 20 24  2  0
 24 21  1  0
 22 25  1  0
 22 26  2  0
 23 27  1  0
 24 28  1  0
 27 28  1  0
  4 29  2  0
  4 30  1  0
 31 30  1  0
 31 32  1  0
 32 33  1  0
 32 34  1  0
 33 35  1  0
 34 36  1  0
 34 37  1  0
 37 35  1  0
 35 38  1  0
 37 39  1  0
 40 38  1  0
 41 38  1  0
 42 40  2  0
 40 43  1  0
 44 41  2  0
 45 42  1  0
 43 46  2  0
 43 44  1  0
 47 45  2  0
 47 46  1  0
 46 48  1  0
  6 49  1  1
  7 50  1  0
  7 51  1  0
  8 52  1  0
  8 53  1  0
 10 54  1  0
 11 55  1  0
 12 56  1  0
 13 57  1  0
 16 58  1  0
 16 59  1  0
 18 60  1  0
 21 61  1  0
 27 62  1  0
 27 63  1  0
 31 64  1  0
 31 65  1  0
 32 66  1  0
 34 67  1  0
 35 68  1  0
 36 69  1  0
 37 70  1  0
 39 71  1  0
 41 72  1  0
 45 73  1  0
 48 74  1  0
 48 75  1  0
M  CHG  3   5  -1  22   1  25  -1
M  END
>  <EmbedRMS>  (178) 
0.0818076757529

$$$$

     RDKit          3D

 75 80  0  0  0  0  0  0  0  0999 V2000
   10.2834   43.7663   33.8258 C   0  0  0  0  0  0  0  0  0  0  0  0
   11.4102   43.5930   34.3752 O   0  0  0  0  0  0  0  0  0  0  0  0
    9.3635   42.7257   33.7352 O   0  0  0  0  0  0  0  0  0  0  0  0
    9.8902   41.2269   34.2942 P   0  0  0  0  0  0  0  0  0  0  0  0
   10.3739   41.4560   35.8835 O   0  0  0  0  0  0  0  0  0  0  0  0
    9.9547   45.0696   33.2038 C   0  0  1  0  0  0  0  0  0  0  0  0
   11.0274   46.0323   33.4761 N   0  0  0  0  0  0  0  0  0  0  0  0
    9.7470   44.8486   31.6879 C   0  0  0  0  0  0  0  0  0  0  0  0
    8.7925   45.8415   31.0853 C   0  0  0  0  0  0  0  0  0  0  0  0
    7.4060   45.6007   31.0984 C   0  0  0  0  0  0  0  0  0  0  0  0
    9.2818   46.9873   30.4411 C   0  0  0  0  0  0  0  0  0  0  0  0
    6.5249   46.5003   30.4827 C   0  0  0  0  0  0  0  0  0  0  0  0
    8.4004   47.8867   29.8302 C   0  0  0  0  0  0  0  0  0  0  0  0
    7.0180   47.6588   29.8502 C   0  0  0  0  0  0  0  0  0  0  0  0
    6.1830   48.5982   29.2254 O   0  0  0  0  0  0  0  0  0  0  0  0
    4.7688   48.7044   29.3980 C   0  0  0  0  0  0  0  0  0  0  0  0
    4.4311   49.2141   30.7807 C   0  0  0  0  0  0  0  0  0  0  0  0
    3.8077   48.3235   31.6876 C   0  0  0  0  0  0  0  0  0  0  0  0
    4.6743   50.5742   31.1822 C   0  0  0  0  0  0  0  0  0  0  0  0
    3.4756   48.7871   32.9526 C   0  0  0  0  0  0  0  0  0  0  0  0
    4.3025   50.9869   32.4839 C   0  0  0  0  0  0  0  0  0  0  0  0
    5.2395   51.5556   30.2904 N   0  0  0  0  0  0  0  0  0  0  0  0
    2.8766   48.0982   33.9898 O   0  0  0  0  0  0  0  0  0  0  0  0
    3.7144   50.0614   33.3347 C   0  0  0  0  0  0  0  0  0  0  0  0
    4.9544   52.8897   30.4714 O   0  0  0  0  0  0  0  0  0  0  0  0
    6.0927   51.2408   29.4371 O   0  0  0  0  0  0  0  0  0  0  0  0
    2.7336   49.0004   35.0953 C   0  0  0  0  0  0  0  0  0  0  0  0
    3.2805   50.2432   34.6338 O   0  0  0  0  0  0  0  0  0  0  0  0
    8.8120   40.1852   34.2131 O   0  0  0  0  0  0  0  0  0  0  0  0
   11.2402   40.7951   33.3682 O   0  0  0  0  0  0  0  0  0  0  0  0
   10.9125   40.6877   31.9968 C   0  0  0  0  0  0  0  0  0  0  0  0
   11.5169   39.3811   31.4421 C   0  0  0  0  0  0  0  0  0  0  0  0
   12.7500   39.0881   32.0759 O   0  0  0  0  0  0  0  0  0  0  0  0
   10.6043   38.1893   31.6659 C   0  0  0  0  0  0  0  0  0  0  0  0
   12.9395   37.6814   32.0280 C   0  0  0  0  0  0  0  0  0  0  0  0
    9.6353   38.0951   30.6499 O   0  0  0  0  0  0  0  0  0  0  0  0
   11.5804   37.0191   31.6934 C   0  0  0  0  0  0  0  0  0  0  0  0
   13.4851   37.2119   33.3244 N   0  0  0  0  0  0  0  0  0  0  0  0
   11.6118   36.3189   30.4673 O   0  0  0  0  0  0  0  0  0  0  0  0
   14.4801   36.3316   33.5732 C   0  0  0  0  0  0  0  0  0  0  0  0
   13.1139   37.6277   34.5692 C   0  0  0  0  0  0  0  0  0  0  0  0
   15.2076   35.6154   32.6744 N   0  0  0  0  0  0  0  0  0  0  0  0
   14.6756   36.2303   34.9186 C   0  0  0  0  0  0  0  0  0  0  0  0
   13.8215   37.0451   35.5786 N   0  0  0  0  0  0  0  0  0  0  0  0
   16.1642   34.7602   33.1551 C   0  0  0  0  0  0  0  0  0  0  0  0
   15.6526   35.3505   35.4134 C   0  0  0  0  0  0  0  0  0  0  0  0
   16.3796   34.6316   34.5045 N   0  0  0  0  0  0  0  0  0  0  0  0
   15.9001   35.1933   36.8093 N   0  0  0  0  0  0  0  0  0  0  0  0
    9.0121   45.4319   33.6716 H   0  0  0  0  0  0  0  0  0  0  0  0
   11.8908   45.7660   32.9477 H   0  0  0  0  0  0  0  0  0  0  0  0
   10.7260   46.9689   33.1217 H   0  0  0  0  0  0  0  0  0  0  0  0
   10.7234   44.8826   31.1560 H   0  0  0  0  0  0  0  0  0  0  0  0
    9.3423   43.8334   31.4761 H   0  0  0  0  0  0  0  0  0  0  0  0
    7.0107   44.7120   31.5749 H   0  0  0  0  0  0  0  0  0  0  0  0
   10.3461   47.1853   30.4083 H   0  0  0  0  0  0  0  0  0  0  0  0
    5.4713   46.2704   30.4887 H   0  0  0  0  0  0  0  0  0  0  0  0
    8.7936   48.7688   29.3408 H   0  0  0  0  0  0  0  0  0  0  0  0
    4.2872   47.7263   29.1841 H   0  0  0  0  0  0  0  0  0  0  0  0
    4.3649   49.4124   28.6445 H   0  0  0  0  0  0  0  0  0  0  0  0
    3.5764   47.3021   31.4160 H   0  0  0  0  0  0  0  0  0  0  0  0
    4.4703   52.0001   32.8255 H   0  0  0  0  0  0  0  0  0  0  0  0
    1.6609   49.1257   35.3524 H   0  0  0  0  0  0  0  0  0  0  0  0
    3.3082   48.6301   35.9700 H   0  0  0  0  0  0  0  0  0  0  0  0
   11.3808   41.5456   31.4686 H   0  0  0  0  0  0  0  0  0  0  0  0
    9.8216   40.7222   31.7647 H   0  0  0  0  0  0  0  0  0  0  0  0
   11.6986   39.5089   30.3499 H   0  0  0  0  0  0  0  0  0  0  0  0
   10.1109   38.2737   32.6630 H   0  0  0  0  0  0  0  0  0  0  0  0
   13.6783   37.4562   31.2271 H   0  0  0  0  0  0  0  0  0  0  0  0
    9.0020   37.3860   30.9348 H   0  0  0  0  0  0  0  0  0  0  0  0
   11.2807   36.3053   32.4921 H   0  0  0  0  0  0  0  0  0  0  0  0
   11.8819   36.9600   29.7584 H   0  0  0  0  0  0  0  0  0  0  0  0
   12.3303   38.3538   34.7446 H   0  0  0  0  0  0  0  0  0  0  0  0
   16.7564   34.1783   32.4624 H   0  0  0  0  0  0  0  0  0  0  0  0
   16.6348   34.5301   37.1418 H   0  0  0  0  0  0  0  0  0  0  0  0
   15.3532   35.7359   37.5142 H   0  0  0  0  0  0  0  0  0  0  0  0
  1  2  2  0
  1  3  1  0
  3  4  1  0
  4  5  1  0
  6  1  1  0
  7  6  1  0
  6  8  1  0
  8  9  1  0
  9 10  2  0
 11  9  1  0
 10 12  1  0
 13 11  2  0
 12 14  2  0
 14 13  1  0
 14 15  1  0
 15 16  1  0
 16 17  1  0
 17 18  2  0
 19 17  1  0
 18 20  1  0
 21 19  2  0
 19 22  1  0
 20 23  1  0
 20 24  2  0
 24 21  1  0
 22 25  1  0
 22 26  2  0
 23 27  1  0
 24 28  1  0
 27 28  1  0
  4 29  2  0
  4 30  1  0
 31 30  1  0
 31 32  1  0
 32 33  1  0
 32 34  1  0
 33 35  1  0
 34 36  1  0
 34 37  1  0
 37 35  1  0
 35 38  1  0
 37 39  1  0
 40 38  1  0
 41 38  1  0
 42 40  2  0
 40 43  1  0
 44 41  2  0
 45 42  1  0
 43 46  2  0
 43 44  1  0
 47 45  2  0
 47 46  1  0
 46 48  1  0
  6 49  1  1
  7 50  1  0
  7 51  1  0
  8 52  1  0
  8 53  1  0
 10 54  1  0
 11 55  1  0
 12 56  1  0
 13 57  1  0
 16 58  1  0
 16 59  1  0
 18 60  1  0
 21 61  1  0
 27 62  1  0
 27 63  1  0
 31 64  1  0
 31 65  1  0
 32 66  1  0
 34 67  1  0
 35 68  1  0
 36 69  1  0
 37 70  1  0
 39 71  1  0
 41 72  1  0
 45 73  1  0
 48 74  1  0
 48 75  1  0
M  CHG  3   5  -1  22   1  25  -1
M  END
>  <EmbedRMS>  (179) 
0.0815493507453

$$$$

     RDKit          3D

 75 80  0  0  0  0  0  0  0  0999 V2000
   10.2836   43.7661   33.8256 C   0  0  0  0  0  0  0  0  0  0  0  0
   11.4103   43.5930   34.3753 O   0  0  0  0  0  0  0  0  0  0  0  0
    9.3640   42.7252   33.7347 O   0  0  0  0  0  0  0  0  0  0  0  0
    9.8908   41.2264   34.2939 P   0  0  0  0  0  0  0  0  0  0  0  0
   10.3732   41.4559   35.8836 O   0  0  0  0  0  0  0  0  0  0  0  0
    9.9547   45.0694   33.2036 C   0  0  1  0  0  0  0  0  0  0  0  0
   11.0273   46.0321   33.4757 N   0  0  0  0  0  0  0  0  0  0  0  0
    9.7466   44.8480   31.6877 C   0  0  0  0  0  0  0  0  0  0  0  0
    8.7923   45.8408   31.0844 C   0  0  0  0  0  0  0  0  0  0  0  0
    7.4054   45.6015   31.0991 C   0  0  0  0  0  0  0  0  0  0  0  0
    9.2824   46.9879   30.4422 C   0  0  0  0  0  0  0  0  0  0  0  0
    6.5263   46.5031   30.4839 C   0  0  0  0  0  0  0  0  0  0  0  0
    8.4032   47.8902   29.8315 C   0  0  0  0  0  0  0  0  0  0  0  0
    7.0143   47.6527   29.8475 C   0  0  0  0  0  0  0  0  0  0  0  0
    6.0935   48.5247   29.2487 O   0  0  0  0  0  0  0  0  0  0  0  0
    6.4449   49.7297   28.5711 C   0  0  0  0  0  0  0  0  0  0  0  0
    5.1932   50.4313   28.1041 C   0  0  0  0  0  0  0  0  0  0  0  0
    4.1534   50.6299   29.0431 C   0  0  0  0  0  0  0  0  0  0  0  0
    5.0122   50.8699   26.7507 C   0  0  0  0  0  0  0  0  0  0  0  0
    2.9662   51.2029   28.6056 C   0  0  0  0  0  0  0  0  0  0  0  0
    3.7752   51.4300   26.3589 C   0  0  0  0  0  0  0  0  0  0  0  0
    6.0672   50.7875   25.7807 N   0  0  0  0  0  0  0  0  0  0  0  0
    1.8242   51.4755   29.3339 O   0  0  0  0  0  0  0  0  0  0  0  0
    2.7827   51.5799   27.3190 C   0  0  0  0  0  0  0  0  0  0  0  0
    5.7669   50.5000   24.4692 O   0  0  0  0  0  0  0  0  0  0  0  0
    7.2048   51.2211   26.0565 O   0  0  0  0  0  0  0  0  0  0  0  0
    0.8628   52.0621   28.4458 C   0  0  0  0  0  0  0  0  0  0  0  0
    1.5159   52.1108   27.1698 O   0  0  0  0  0  0  0  0  0  0  0  0
    8.8127   40.1847   34.2122 O   0  0  0  0  0  0  0  0  0  0  0  0
   11.2421   40.7941   33.3697 O   0  0  0  0  0  0  0  0  0  0  0  0
   10.9187   40.6911   31.9971 C   0  0  0  0  0  0  0  0  0  0  0  0
   11.5172   39.3815   31.4407 C   0  0  0  0  0  0  0  0  0  0  0  0
   12.7493   39.0855   32.0728 O   0  0  0  0  0  0  0  0  0  0  0  0
   10.6023   38.1908   31.6665 C   0  0  0  0  0  0  0  0  0  0  0  0
   12.9319   37.6781   32.0281 C   0  0  0  0  0  0  0  0  0  0  0  0
    9.6392   38.0798   30.6452 O   0  0  0  0  0  0  0  0  0  0  0  0
   11.5715   37.0166   31.7056 C   0  0  0  0  0  0  0  0  0  0  0  0
   13.4847   37.2121   33.3235 N   0  0  0  0  0  0  0  0  0  0  0  0
   11.6187   36.3384   30.4695 O   0  0  0  0  0  0  0  0  0  0  0  0
   14.4801   36.3321   33.5724 C   0  0  0  0  0  0  0  0  0  0  0  0
   13.1137   37.6275   34.5688 C   0  0  0  0  0  0  0  0  0  0  0  0
   15.2073   35.6153   32.6738 N   0  0  0  0  0  0  0  0  0  0  0  0
   14.6759   36.2308   34.9179 C   0  0  0  0  0  0  0  0  0  0  0  0
   13.8216   37.0452   35.5781 N   0  0  0  0  0  0  0  0  0  0  0  0
   16.1640   34.7602   33.1546 C   0  0  0  0  0  0  0  0  0  0  0  0
   15.6526   35.3508   35.4129 C   0  0  0  0  0  0  0  0  0  0  0  0
   16.3794   34.6317   34.5041 N   0  0  0  0  0  0  0  0  0  0  0  0
   15.8999   35.1935   36.8088 N   0  0  0  0  0  0  0  0  0  0  0  0
    9.0121   45.4316   33.6715 H   0  0  0  0  0  0  0  0  0  0  0  0
   11.8906   45.7658   32.9469 H   0  0  0  0  0  0  0  0  0  0  0  0
   10.7259   46.9687   33.1214 H   0  0  0  0  0  0  0  0  0  0  0  0
   10.7229   44.8813   31.1557 H   0  0  0  0  0  0  0  0  0  0  0  0
    9.3414   43.8329   31.4763 H   0  0  0  0  0  0  0  0  0  0  0  0
    7.0082   44.7168   31.5813 H   0  0  0  0  0  0  0  0  0  0  0  0
   10.3471   47.1848   30.4114 H   0  0  0  0  0  0  0  0  0  0  0  0
    5.4617   46.3073   30.5021 H   0  0  0  0  0  0  0  0  0  0  0  0
    8.8143   48.7654   29.3475 H   0  0  0  0  0  0  0  0  0  0  0  0
    7.1130   49.4696   27.7267 H   0  0  0  0  0  0  0  0  0  0  0  0
    6.9871   50.4036   29.2688 H   0  0  0  0  0  0  0  0  0  0  0  0
    4.2605   50.3270   30.0773 H   0  0  0  0  0  0  0  0  0  0  0  0
    3.6047   51.7662   25.3443 H   0  0  0  0  0  0  0  0  0  0  0  0
   -0.0449   51.4256   28.3876 H   0  0  0  0  0  0  0  0  0  0  0  0
    0.6041   53.0877   28.7831 H   0  0  0  0  0  0  0  0  0  0  0  0
   11.3968   41.5460   31.4729 H   0  0  0  0  0  0  0  0  0  0  0  0
    9.8300   40.7410   31.7613 H   0  0  0  0  0  0  0  0  0  0  0  0
   11.6975   39.5067   30.3481 H   0  0  0  0  0  0  0  0  0  0  0  0
   10.1077   38.2648   32.6645 H   0  0  0  0  0  0  0  0  0  0  0  0
   13.6621   37.4467   31.2209 H   0  0  0  0  0  0  0  0  0  0  0  0
    8.8974   38.6944   30.8831 H   0  0  0  0  0  0  0  0  0  0  0  0
   11.2806   36.3073   32.5170 H   0  0  0  0  0  0  0  0  0  0  0  0
   10.8492   35.7110   30.4586 H   0  0  0  0  0  0  0  0  0  0  0  0
   12.3290   38.3524   34.7444 H   0  0  0  0  0  0  0  0  0  0  0  0
   16.7559   34.1780   32.4619 H   0  0  0  0  0  0  0  0  0  0  0  0
   15.3531   35.7362   37.5137 H   0  0  0  0  0  0  0  0  0  0  0  0
   16.6344   34.5301   37.1414 H   0  0  0  0  0  0  0  0  0  0  0  0
  1  2  2  0
  1  3  1  0
  3  4  1  0
  4  5  1  0
  6  1  1  0
  7  6  1  0
  6  8  1  0
  8  9  1  0
  9 10  2  0
 11  9  1  0
 10 12  1  0
 13 11  2  0
 12 14  2  0
 14 13  1  0
 14 15  1  0
 15 16  1  0
 16 17  1  0
 17 18  2  0
 19 17  1  0
 18 20  1  0
 21 19  2  0
 19 22  1  0
 20 23  1  0
 20 24  2  0
 24 21  1  0
 22 25  1  0
 22 26  2  0
 23 27  1  0
 24 28  1  0
 27 28  1  0
  4 29  2  0
  4 30  1  0
 31 30  1  0
 31 32  1  0
 32 33  1  0
 32 34  1  0
 33 35  1  0
 34 36  1  0
 34 37  1  0
 37 35  1  0
 35 38  1  0
 37 39  1  0
 40 38  1  0
 41 38  1  0
 42 40  2  0
 40 43  1  0
 44 41  2  0
 45 42  1  0
 43 46  2  0
 43 44  1  0
 47 45  2  0
 47 46  1  0
 46 48  1  0
  6 49  1  1
  7 50  1  0
  7 51  1  0
  8 52  1  0
  8 53  1  0
 10 54  1  0
 11 55  1  0
 12 56  1  0
 13 57  1  0
 16 58  1  0
 16 59  1  0
 18 60  1  0
 21 61  1  0
 27 62  1  0
 27 63  1  0
 31 64  1  0
 31 65  1  0
 32 66  1  0
 34 67  1  0
 35 68  1  0
 36 69  1  0
 37 70  1  0
 39 71  1  0
 41 72  1  0
 45 73  1  0
 48 74  1  0
 48 75  1  0
M  CHG  3   5  -1  22   1  25  -1
M  END
>  <EmbedRMS>  (180) 
0.0829436875195

$$$$

     RDKit          3D

 75 80  0  0  0  0  0  0  0  0999 V2000
   10.2804   43.7665   33.8251 C   0  0  0  0  0  0  0  0  0  0  0  0
   11.4111   43.5919   34.3667 O   0  0  0  0  0  0  0  0  0  0  0  0
    9.3620   42.7250   33.7345 O   0  0  0  0  0  0  0  0  0  0  0  0
    9.8903   41.2265   34.2931 P   0  0  0  0  0  0  0  0  0  0  0  0
   10.3742   41.4563   35.8824 O   0  0  0  0  0  0  0  0  0  0  0  0
    9.9459   45.0737   33.2115 C   0  0  1  0  0  0  0  0  0  0  0  0
   11.0267   46.0293   33.4707 N   0  0  0  0  0  0  0  0  0  0  0  0
    9.7534   44.8541   31.6953 C   0  0  0  0  0  0  0  0  0  0  0  0
    8.7954   45.8416   31.0858 C   0  0  0  0  0  0  0  0  0  0  0  0
    7.4088   45.5998   31.0996 C   0  0  0  0  0  0  0  0  0  0  0  0
    9.2827   46.9871   30.4390 C   0  0  0  0  0  0  0  0  0  0  0  0
    6.5287   46.4997   30.4829 C   0  0  0  0  0  0  0  0  0  0  0  0
    8.4021   47.8878   29.8285 C   0  0  0  0  0  0  0  0  0  0  0  0
    7.0135   47.6540   29.8523 C   0  0  0  0  0  0  0  0  0  0  0  0
    6.0852   48.5250   29.2608 O   0  0  0  0  0  0  0  0  0  0  0  0
    6.3422   49.8714   28.8583 C   0  0  0  0  0  0  0  0  0  0  0  0
    6.5321   50.7666   30.0617 C   0  0  0  0  0  0  0  0  0  0  0  0
    7.8237   51.2915   30.3072 C   0  0  0  0  0  0  0  0  0  0  0  0
    5.4437   51.1374   30.9266 C   0  0  0  0  0  0  0  0  0  0  0  0
    8.0045   52.1297   31.3982 C   0  0  0  0  0  0  0  0  0  0  0  0
    5.6927   52.0047   32.0169 C   0  0  0  0  0  0  0  0  0  0  0  0
    4.0896   50.6989   30.6987 N   0  0  0  0  0  0  0  0  0  0  0  0
    9.1665   52.7415   31.8279 O   0  0  0  0  0  0  0  0  0  0  0  0
    6.9850   52.4694   32.2180 C   0  0  0  0  0  0  0  0  0  0  0  0
    3.0375   51.4635   31.1486 O   0  0  0  0  0  0  0  0  0  0  0  0
    3.8446   49.5728   30.2223 O   0  0  0  0  0  0  0  0  0  0  0  0
    8.8541   53.5130   32.9956 C   0  0  0  0  0  0  0  0  0  0  0  0
    7.4503   53.3119   33.2093 O   0  0  0  0  0  0  0  0  0  0  0  0
    8.8125   40.1845   34.2130 O   0  0  0  0  0  0  0  0  0  0  0  0
   11.2405   40.7948   33.3669 O   0  0  0  0  0  0  0  0  0  0  0  0
   10.9133   40.6866   31.9953 C   0  0  0  0  0  0  0  0  0  0  0  0
   11.5166   39.3787   31.4404 C   0  0  0  0  0  0  0  0  0  0  0  0
   12.7485   39.0849   32.0735 O   0  0  0  0  0  0  0  0  0  0  0  0
   10.6039   38.1884   31.6669 C   0  0  0  0  0  0  0  0  0  0  0  0
   12.9329   37.6776   32.0284 C   0  0  0  0  0  0  0  0  0  0  0  0
    9.6373   38.0938   30.6485 O   0  0  0  0  0  0  0  0  0  0  0  0
   11.5737   37.0141   31.7055 C   0  0  0  0  0  0  0  0  0  0  0  0
   13.4853   37.2120   33.3238 N   0  0  0  0  0  0  0  0  0  0  0  0
   11.6210   36.3379   30.4684 O   0  0  0  0  0  0  0  0  0  0  0  0
   14.4804   36.3319   33.5726 C   0  0  0  0  0  0  0  0  0  0  0  0
   13.1140   37.6274   34.5689 C   0  0  0  0  0  0  0  0  0  0  0  0
   15.2075   35.6152   32.6740 N   0  0  0  0  0  0  0  0  0  0  0  0
   14.6761   36.2306   34.9181 C   0  0  0  0  0  0  0  0  0  0  0  0
   13.8218   37.0451   35.5783 N   0  0  0  0  0  0  0  0  0  0  0  0
   16.1641   34.7600   33.1548 C   0  0  0  0  0  0  0  0  0  0  0  0
   15.6528   35.3507   35.4131 C   0  0  0  0  0  0  0  0  0  0  0  0
   16.3795   34.6315   34.5043 N   0  0  0  0  0  0  0  0  0  0  0  0
   15.9001   35.1933   36.8090 N   0  0  0  0  0  0  0  0  0  0  0  0
    8.9996   45.4383   33.6727 H   0  0  0  0  0  0  0  0  0  0  0  0
   10.7764   46.9369   33.0156 H   0  0  0  0  0  0  0  0  0  0  0  0
   11.0504   46.2280   34.4981 H   0  0  0  0  0  0  0  0  0  0  0  0
    9.3633   43.8355   31.4718 H   0  0  0  0  0  0  0  0  0  0  0  0
   10.7404   44.9072   31.1837 H   0  0  0  0  0  0  0  0  0  0  0  0
    7.0131   44.7150   31.5828 H   0  0  0  0  0  0  0  0  0  0  0  0
   10.3474   47.1822   30.3997 H   0  0  0  0  0  0  0  0  0  0  0  0
    5.4642   46.3029   30.5024 H   0  0  0  0  0  0  0  0  0  0  0  0
    8.8167   48.7448   29.3218 H   0  0  0  0  0  0  0  0  0  0  0  0
    7.2164   49.9012   28.1733 H   0  0  0  0  0  0  0  0  0  0  0  0
    5.4800   50.2423   28.2656 H   0  0  0  0  0  0  0  0  0  0  0  0
    8.6633   51.0649   29.6636 H   0  0  0  0  0  0  0  0  0  0  0  0
    4.9023   52.3056   32.6922 H   0  0  0  0  0  0  0  0  0  0  0  0
    9.0638   54.5878   32.8133 H   0  0  0  0  0  0  0  0  0  0  0  0
    9.4316   53.1409   33.8677 H   0  0  0  0  0  0  0  0  0  0  0  0
   11.3826   41.5438   31.4666 H   0  0  0  0  0  0  0  0  0  0  0  0
    9.8224   40.7224   31.7629 H   0  0  0  0  0  0  0  0  0  0  0  0
   11.6979   39.5036   30.3478 H   0  0  0  0  0  0  0  0  0  0  0  0
   10.1083   38.2786   32.6627 H   0  0  0  0  0  0  0  0  0  0  0  0
   13.6638   37.4472   31.2214 H   0  0  0  0  0  0  0  0  0  0  0  0
    8.9763   37.4190   30.9532 H   0  0  0  0  0  0  0  0  0  0  0  0
   11.2821   36.3054   32.5172 H   0  0  0  0  0  0  0  0  0  0  0  0
   10.8658   35.6935   30.4653 H   0  0  0  0  0  0  0  0  0  0  0  0
   12.3293   38.3523   34.7445 H   0  0  0  0  0  0  0  0  0  0  0  0
   16.7561   34.1778   32.4621 H   0  0  0  0  0  0  0  0  0  0  0  0
   16.6345   34.5300   37.1416 H   0  0  0  0  0  0  0  0  0  0  0  0
   15.3533   35.7361   37.5138 H   0  0  0  0  0  0  0  0  0  0  0  0
  1  2  2  0
  1  3  1  0
  3  4  1  0
  4  5  1  0
  6  1  1  0
  7  6  1  0
  6  8  1  0
  8  9  1  0
  9 10  2  0
 11  9  1  0
 10 12  1  0
 13 11  2  0
 12 14  2  0
 14 13  1  0
 14 15  1  0
 15 16  1  0
 16 17  1  0
 17 18  2  0
 19 17  1  0
 18 20  1  0
 21 19  2  0
 19 22  1  0
 20 23  1  0
 20 24  2  0
 24 21  1  0
 22 25  1  0
 22 26  2  0
 23 27  1  0
 24 28  1  0
 27 28  1  0
  4 29  2  0
  4 30  1  0
 31 30  1  0
 31 32  1  0
 32 33  1  0
 32 34  1  0
 33 35  1  0
 34 36  1  0
 34 37  1  0
 37 35  1  0
 35 38  1  0
 37 39  1  0
 40 38  1  0
 41 38  1  0
 42 40  2  0
 40 43  1  0
 44 41  2  0
 45 42  1  0
 43 46  2  0
 43 44  1  0
 47 45  2  0
 47 46  1  0
 46 48  1  0
  6 49  1  1
  7 50  1  0
  7 51  1  0
  8 52  1  0
  8 53  1  0
 10 54  1  0
 11 55  1  0
 12 56  1  0
 13 57  1  0
 16 58  1  0
 16 59  1  0
 18 60  1  0
 21 61  1  0
 27 62  1  0
 27 63  1  0
 31 64  1  0
 31 65  1  0
 32 66  1  0
 34 67  1  0
 35 68  1  0
 36 69  1  0
 37 70  1  0
 39 71  1  0
 41 72  1  0
 45 73  1  0
 48 74  1  0
 48 75  1  0
M  CHG  3   5  -1  22   1  25  -1
M  END
>  <EmbedRMS>  (181) 
0.0823819451148

$$$$

     RDKit          3D

 75 80  0  0  0  0  0  0  0  0999 V2000
   10.2839   43.7626   33.8276 C   0  0  0  0  0  0  0  0  0  0  0  0
   11.4104   43.5863   34.3767 O   0  0  0  0  0  0  0  0  0  0  0  0
    9.3631   42.7236   33.7355 O   0  0  0  0  0  0  0  0  0  0  0  0
    9.8895   41.2250   34.2948 P   0  0  0  0  0  0  0  0  0  0  0  0
   10.3720   41.4547   35.8844 O   0  0  0  0  0  0  0  0  0  0  0  0
    9.9549   45.0700   33.2064 C   0  0  1  0  0  0  0  0  0  0  0  0
   11.0199   46.0481   33.4571 N   0  0  0  0  0  0  0  0  0  0  0  0
    9.7506   44.8512   31.6923 C   0  0  0  0  0  0  0  0  0  0  0  0
    8.7943   45.8419   31.0870 C   0  0  0  0  0  0  0  0  0  0  0  0
    7.4074   45.6004   31.1006 C   0  0  0  0  0  0  0  0  0  0  0  0
    9.2827   46.9894   30.4446 C   0  0  0  0  0  0  0  0  0  0  0  0
    6.5254   46.4998   30.4853 C   0  0  0  0  0  0  0  0  0  0  0  0
    8.4010   47.8885   29.8330 C   0  0  0  0  0  0  0  0  0  0  0  0
    7.0197   47.6547   29.8457 C   0  0  0  0  0  0  0  0  0  0  0  0
    6.1805   48.5846   29.2152 O   0  0  0  0  0  0  0  0  0  0  0  0
    4.7622   48.4661   29.1325 C   0  0  0  0  0  0  0  0  0  0  0  0
    4.2032   49.6185   28.3373 C   0  0  0  0  0  0  0  0  0  0  0  0
    3.2414   50.4564   28.9505 C   0  0  0  0  0  0  0  0  0  0  0  0
    4.6470   49.9100   27.0036 C   0  0  0  0  0  0  0  0  0  0  0  0
    2.7638   51.5484   28.2381 C   0  0  0  0  0  0  0  0  0  0  0  0
    4.1319   51.0456   26.3340 C   0  0  0  0  0  0  0  0  0  0  0  0
    5.6198   49.0896   26.3302 N   0  0  0  0  0  0  0  0  0  0  0  0
    1.8352   52.4922   28.6333 O   0  0  0  0  0  0  0  0  0  0  0  0
    3.1915   51.8317   26.9866 C   0  0  0  0  0  0  0  0  0  0  0  0
    5.5958   47.7204   26.4562 O   0  0  0  0  0  0  0  0  0  0  0  0
    6.3967   49.5996   25.4964 O   0  0  0  0  0  0  0  0  0  0  0  0
    1.6699   53.4272   27.5585 C   0  0  0  0  0  0  0  0  0  0  0  0
    2.5544   52.9683   26.5270 O   0  0  0  0  0  0  0  0  0  0  0  0
    8.8117   40.1832   34.2124 O   0  0  0  0  0  0  0  0  0  0  0  0
   11.2411   40.7939   33.3709 O   0  0  0  0  0  0  0  0  0  0  0  0
   10.9179   40.6920   31.9985 C   0  0  0  0  0  0  0  0  0  0  0  0
   11.5175   39.3837   31.4422 C   0  0  0  0  0  0  0  0  0  0  0  0
   12.7508   39.0887   32.0751 O   0  0  0  0  0  0  0  0  0  0  0  0
   10.6028   38.1915   31.6658 C   0  0  0  0  0  0  0  0  0  0  0  0
   12.9385   37.6818   32.0277 C   0  0  0  0  0  0  0  0  0  0  0  0
    9.6371   38.0805   30.6470 O   0  0  0  0  0  0  0  0  0  0  0  0
   11.5780   37.0215   31.6934 C   0  0  0  0  0  0  0  0  0  0  0  0
   13.4844   37.2119   33.3241 N   0  0  0  0  0  0  0  0  0  0  0  0
   11.6095   36.3201   30.4679 O   0  0  0  0  0  0  0  0  0  0  0  0
   14.4797   36.3318   33.5730 C   0  0  0  0  0  0  0  0  0  0  0  0
   13.1135   37.6278   34.5691 C   0  0  0  0  0  0  0  0  0  0  0  0
   15.2073   35.6155   32.6742 N   0  0  0  0  0  0  0  0  0  0  0  0
   14.6754   36.2305   34.9184 C   0  0  0  0  0  0  0  0  0  0  0  0
   13.8213   37.0452   35.5784 N   0  0  0  0  0  0  0  0  0  0  0  0
   16.1640   34.7604   33.1549 C   0  0  0  0  0  0  0  0  0  0  0  0
   15.6524   35.3507   35.4132 C   0  0  0  0  0  0  0  0  0  0  0  0
   16.3794   34.6318   34.5044 N   0  0  0  0  0  0  0  0  0  0  0  0
   15.8999   35.1934   36.8091 N   0  0  0  0  0  0  0  0  0  0  0  0
    9.0099   45.4348   33.6670 H   0  0  0  0  0  0  0  0  0  0  0  0
   11.9350   45.6933   33.0929 H   0  0  0  0  0  0  0  0  0  0  0  0
   11.1133   46.1992   34.4884 H   0  0  0  0  0  0  0  0  0  0  0  0
    9.3518   43.8345   31.4759 H   0  0  0  0  0  0  0  0  0  0  0  0
   10.7309   44.8932   31.1676 H   0  0  0  0  0  0  0  0  0  0  0  0
    7.0124   44.7150   31.5833 H   0  0  0  0  0  0  0  0  0  0  0  0
   10.3467   47.1896   30.4148 H   0  0  0  0  0  0  0  0  0  0  0  0
    5.4657   46.2868   30.5135 H   0  0  0  0  0  0  0  0  0  0  0  0
    8.7935   48.7703   29.3426 H   0  0  0  0  0  0  0  0  0  0  0  0
    4.3409   48.4538   30.1616 H   0  0  0  0  0  0  0  0  0  0  0  0
    4.4802   47.5099   28.6448 H   0  0  0  0  0  0  0  0  0  0  0  0
    2.8823   50.2703   29.9548 H   0  0  0  0  0  0  0  0  0  0  0  0
    4.4449   51.2993   25.3294 H   0  0  0  0  0  0  0  0  0  0  0  0
    1.9616   54.4465   27.8879 H   0  0  0  0  0  0  0  0  0  0  0  0
    0.6204   53.4149   27.1967 H   0  0  0  0  0  0  0  0  0  0  0  0
   11.3955   41.5477   31.4751 H   0  0  0  0  0  0  0  0  0  0  0  0
    9.8292   40.7410   31.7624 H   0  0  0  0  0  0  0  0  0  0  0  0
   11.6981   39.5116   30.3500 H   0  0  0  0  0  0  0  0  0  0  0  0
   10.1117   38.2603   32.6660 H   0  0  0  0  0  0  0  0  0  0  0  0
   13.6767   37.4555   31.2267 H   0  0  0  0  0  0  0  0  0  0  0  0
    8.8961   38.6951   30.8872 H   0  0  0  0  0  0  0  0  0  0  0  0
   11.2791   36.3072   32.4922 H   0  0  0  0  0  0  0  0  0  0  0  0
   11.8828   36.9598   29.7588 H   0  0  0  0  0  0  0  0  0  0  0  0
   12.3300   38.3539   34.7446 H   0  0  0  0  0  0  0  0  0  0  0  0
   16.7562   34.1785   32.4622 H   0  0  0  0  0  0  0  0  0  0  0  0
   16.6346   34.5303   37.1417 H   0  0  0  0  0  0  0  0  0  0  0  0
   15.3530   35.7360   37.5140 H   0  0  0  0  0  0  0  0  0  0  0  0
  1  2  2  0
  1  3  1  0
  3  4  1  0
  4  5  1  0
  6  1  1  0
  7  6  1  0
  6  8  1  0
  8  9  1  0
  9 10  2  0
 11  9  1  0
 10 12  1  0
 13 11  2  0
 12 14  2  0
 14 13  1  0
 14 15  1  0
 15 16  1  0
 16 17  1  0
 17 18  2  0
 19 17  1  0
 18 20  1  0
 21 19  2  0
 19 22  1  0
 20 23  1  0
 20 24  2  0
 24 21  1  0
 22 25  1  0
 22 26  2  0
 23 27  1  0
 24 28  1  0
 27 28  1  0
  4 29  2  0
  4 30  1  0
 31 30  1  0
 31 32  1  0
 32 33  1  0
 32 34  1  0
 33 35  1  0
 34 36  1  0
 34 37  1  0
 37 35  1  0
 35 38  1  0
 37 39  1  0
 40 38  1  0
 41 38  1  0
 42 40  2  0
 40 43  1  0
 44 41  2  0
 45 42  1  0
 43 46  2  0
 43 44  1  0
 47 45  2  0
 47 46  1  0
 46 48  1  0
  6 49  1  1
  7 50  1  0
  7 51  1  0
  8 52  1  0
  8 53  1  0
 10 54  1  0
 11 55  1  0
 12 56  1  0
 13 57  1  0
 16 58  1  0
 16 59  1  0
 18 60  1  0
 21 61  1  0
 27 62  1  0
 27 63  1  0
 31 64  1  0
 31 65  1  0
 32 66  1  0
 34 67  1  0
 35 68  1  0
 36 69  1  0
 37 70  1  0
 39 71  1  0
 41 72  1  0
 45 73  1  0
 48 74  1  0
 48 75  1  0
M  CHG  3   5  -1  22   1  25  -1
M  END
>  <EmbedRMS>  (182) 
0.0828604029192

$$$$

     RDKit          3D

 75 80  0  0  0  0  0  0  0  0999 V2000
   10.2838   43.7627   33.8276 C   0  0  0  0  0  0  0  0  0  0  0  0
   11.4103   43.5863   34.3766 O   0  0  0  0  0  0  0  0  0  0  0  0
    9.3628   42.7238   33.7357 O   0  0  0  0  0  0  0  0  0  0  0  0
    9.8891   41.2252   34.2949 P   0  0  0  0  0  0  0  0  0  0  0  0
   10.3724   41.4548   35.8843 O   0  0  0  0  0  0  0  0  0  0  0  0
    9.9548   45.0700   33.2063 C   0  0  1  0  0  0  0  0  0  0  0  0
   11.0198   46.0480   33.4567 N   0  0  0  0  0  0  0  0  0  0  0  0
    9.7501   44.8507   31.6922 C   0  0  0  0  0  0  0  0  0  0  0  0
    8.7943   45.8415   31.0866 C   0  0  0  0  0  0  0  0  0  0  0  0
    7.4074   45.6013   31.1006 C   0  0  0  0  0  0  0  0  0  0  0  0
    9.2831   46.9893   30.4452 C   0  0  0  0  0  0  0  0  0  0  0  0
    6.5279   46.5026   30.4853 C   0  0  0  0  0  0  0  0  0  0  0  0
    8.4035   47.8904   29.8336 C   0  0  0  0  0  0  0  0  0  0  0  0
    7.0150   47.6504   29.8451 C   0  0  0  0  0  0  0  0  0  0  0  0
    6.0898   48.5160   29.2401 O   0  0  0  0  0  0  0  0  0  0  0  0
    6.4204   49.6344   28.4155 C   0  0  0  0  0  0  0  0  0  0  0  0
    7.0210   49.1807   27.1046 C   0  0  0  0  0  0  0  0  0  0  0  0
    8.2781   49.7066   26.7239 C   0  0  0  0  0  0  0  0  0  0  0  0
    6.3767   48.2112   26.2638 C   0  0  0  0  0  0  0  0  0  0  0  0
    8.8640   49.2413   25.5543 C   0  0  0  0  0  0  0  0  0  0  0  0
    7.0304   47.7667   25.0912 C   0  0  0  0  0  0  0  0  0  0  0  0
    5.0863   47.6608   26.5843 N   0  0  0  0  0  0  0  0  0  0  0  0
   10.0771   49.6010   24.9993 O   0  0  0  0  0  0  0  0  0  0  0  0
    8.2685   48.3101   24.7746 C   0  0  0  0  0  0  0  0  0  0  0  0
    4.7595   46.3907   26.1679 O   0  0  0  0  0  0  0  0  0  0  0  0
    4.1945   48.3744   27.0868 O   0  0  0  0  0  0  0  0  0  0  0  0
   10.2526   48.8460   23.7927 C   0  0  0  0  0  0  0  0  0  0  0  0
    9.0747   48.0347   23.6870 O   0  0  0  0  0  0  0  0  0  0  0  0
    8.8112   40.1834   34.2131 O   0  0  0  0  0  0  0  0  0  0  0  0
   11.2398   40.7938   33.3702 O   0  0  0  0  0  0  0  0  0  0  0  0
   10.9144   40.6912   31.9983 C   0  0  0  0  0  0  0  0  0  0  0  0
   11.5270   39.3911   31.4385 C   0  0  0  0  0  0  0  0  0  0  0  0
   12.7520   39.0911   32.0836 O   0  0  0  0  0  0  0  0  0  0  0  0
   10.6114   38.1931   31.6451 C   0  0  0  0  0  0  0  0  0  0  0  0
   12.9413   37.6838   32.0297 C   0  0  0  0  0  0  0  0  0  0  0  0
    9.6065   38.0877   30.6598 O   0  0  0  0  0  0  0  0  0  0  0  0
   11.5822   37.0197   31.6876 C   0  0  0  0  0  0  0  0  0  0  0  0
   13.4840   37.2104   33.3254 N   0  0  0  0  0  0  0  0  0  0  0  0
   11.6179   36.3071   30.4690 O   0  0  0  0  0  0  0  0  0  0  0  0
   14.4797   36.3309   33.5738 C   0  0  0  0  0  0  0  0  0  0  0  0
   13.1136   37.6269   34.5702 C   0  0  0  0  0  0  0  0  0  0  0  0
   15.2074   35.6152   32.6747 N   0  0  0  0  0  0  0  0  0  0  0  0
   14.6756   36.2298   34.9190 C   0  0  0  0  0  0  0  0  0  0  0  0
   13.8217   37.0445   35.5793 N   0  0  0  0  0  0  0  0  0  0  0  0
   16.1643   34.7603   33.1551 C   0  0  0  0  0  0  0  0  0  0  0  0
   15.6528   35.3503   35.4136 C   0  0  0  0  0  0  0  0  0  0  0  0
   16.3798   34.6316   34.5046 N   0  0  0  0  0  0  0  0  0  0  0  0
   15.9004   35.1930   36.8094 N   0  0  0  0  0  0  0  0  0  0  0  0
    9.0099   45.4350   33.6669 H   0  0  0  0  0  0  0  0  0  0  0  0
   11.1135   46.1992   34.4880 H   0  0  0  0  0  0  0  0  0  0  0  0
   11.9348   45.6932   33.0923 H   0  0  0  0  0  0  0  0  0  0  0  0
   10.7304   44.8921   31.1673 H   0  0  0  0  0  0  0  0  0  0  0  0
    9.3509   43.8342   31.4762 H   0  0  0  0  0  0  0  0  0  0  0  0
    7.0107   44.7164   31.5829 H   0  0  0  0  0  0  0  0  0  0  0  0
   10.3473   47.1896   30.4189 H   0  0  0  0  0  0  0  0  0  0  0  0
    5.4636   46.3049   30.5015 H   0  0  0  0  0  0  0  0  0  0  0  0
    8.8155   48.7698   29.3614 H   0  0  0  0  0  0  0  0  0  0  0  0
    7.0952   50.3218   28.9702 H   0  0  0  0  0  0  0  0  0  0  0  0
    5.4965   50.2115   28.2065 H   0  0  0  0  0  0  0  0  0  0  0  0
    8.7922   50.4434   27.3281 H   0  0  0  0  0  0  0  0  0  0  0  0
    6.5792   47.0326   24.4364 H   0  0  0  0  0  0  0  0  0  0  0  0
   10.3275   49.5283   22.9202 H   0  0  0  0  0  0  0  0  0  0  0  0
   11.1547   48.2035   23.8695 H   0  0  0  0  0  0  0  0  0  0  0  0
    9.8235   40.7201   31.7651 H   0  0  0  0  0  0  0  0  0  0  0  0
   11.3779   41.5548   31.4750 H   0  0  0  0  0  0  0  0  0  0  0  0
   11.7311   39.5363   30.3531 H   0  0  0  0  0  0  0  0  0  0  0  0
   10.1203   38.2695   32.6409 H   0  0  0  0  0  0  0  0  0  0  0  0
   13.6851   37.4638   31.2321 H   0  0  0  0  0  0  0  0  0  0  0  0
   10.0251   38.1792   29.7654 H   0  0  0  0  0  0  0  0  0  0  0  0
   11.2757   36.3135   32.4907 H   0  0  0  0  0  0  0  0  0  0  0  0
   11.9838   36.9111   29.7708 H   0  0  0  0  0  0  0  0  0  0  0  0
   12.3307   38.3536   34.7458 H   0  0  0  0  0  0  0  0  0  0  0  0
   16.7566   34.1787   32.4623 H   0  0  0  0  0  0  0  0  0  0  0  0
   16.6353   34.5301   37.1419 H   0  0  0  0  0  0  0  0  0  0  0  0
   15.3535   35.7355   37.5144 H   0  0  0  0  0  0  0  0  0  0  0  0
  1  2  2  0
  1  3  1  0
  3  4  1  0
  4  5  1  0
  6  1  1  0
  7  6  1  0
  6  8  1  0
  8  9  1  0
  9 10  2  0
 11  9  1  0
 10 12  1  0
 13 11  2  0
 12 14  2  0
 14 13  1  0
 14 15  1  0
 15 16  1  0
 16 17  1  0
 17 18  2  0
 19 17  1  0
 18 20  1  0
 21 19  2  0
 19 22  1  0
 20 23  1  0
 20 24  2  0
 24 21  1  0
 22 25  1  0
 22 26  2  0
 23 27  1  0
 24 28  1  0
 27 28  1  0
  4 29  2  0
  4 30  1  0
 31 30  1  0
 31 32  1  0
 32 33  1  0
 32 34  1  0
 33 35  1  0
 34 36  1  0
 34 37  1  0
 37 35  1  0
 35 38  1  0
 37 39  1  0
 40 38  1  0
 41 38  1  0
 42 40  2  0
 40 43  1  0
 44 41  2  0
 45 42  1  0
 43 46  2  0
 43 44  1  0
 47 45  2  0
 47 46  1  0
 46 48  1  0
  6 49  1  1
  7 50  1  0
  7 51  1  0
  8 52  1  0
  8 53  1  0
 10 54  1  0
 11 55  1  0
 12 56  1  0
 13 57  1  0
 16 58  1  0
 16 59  1  0
 18 60  1  0
 21 61  1  0
 27 62  1  0
 27 63  1  0
 31 64  1  0
 31 65  1  0
 32 66  1  0
 34 67  1  0
 35 68  1  0
 36 69  1  0
 37 70  1  0
 39 71  1  0
 41 72  1  0
 45 73  1  0
 48 74  1  0
 48 75  1  0
M  CHG  3   5  -1  22   1  25  -1
M  END
>  <EmbedRMS>  (183) 
0.0817572154504

$$$$

     RDKit          3D

 75 80  0  0  0  0  0  0  0  0999 V2000
   10.2835   43.7661   33.8255 C   0  0  0  0  0  0  0  0  0  0  0  0
   11.4102   43.5930   34.3753 O   0  0  0  0  0  0  0  0  0  0  0  0
    9.3639   42.7253   33.7346 O   0  0  0  0  0  0  0  0  0  0  0  0
    9.8906   41.2265   34.2938 P   0  0  0  0  0  0  0  0  0  0  0  0
   10.3733   41.4559   35.8834 O   0  0  0  0  0  0  0  0  0  0  0  0
    9.9548   45.0694   33.2034 C   0  0  1  0  0  0  0  0  0  0  0  0
   11.0273   46.0322   33.4759 N   0  0  0  0  0  0  0  0  0  0  0  0
    9.7472   44.8483   31.6874 C   0  0  0  0  0  0  0  0  0  0  0  0
    8.7926   45.8407   31.0842 C   0  0  0  0  0  0  0  0  0  0  0  0
    7.4058   45.6011   31.0999 C   0  0  0  0  0  0  0  0  0  0  0  0
    9.2816   46.9883   30.4425 C   0  0  0  0  0  0  0  0  0  0  0  0
    6.5245   46.5014   30.4860 C   0  0  0  0  0  0  0  0  0  0  0  0
    8.4003   47.8887   29.8330 C   0  0  0  0  0  0  0  0  0  0  0  0
    7.0188   47.6553   29.8439 C   0  0  0  0  0  0  0  0  0  0  0  0
    6.1817   48.5868   29.2086 O   0  0  0  0  0  0  0  0  0  0  0  0
    4.7692   48.4468   29.0461 C   0  0  0  0  0  0  0  0  0  0  0  0
    4.4475   47.3405   28.0664 C   0  0  0  0  0  0  0  0  0  0  0  0
    5.1672   47.2947   26.8493 C   0  0  0  0  0  0  0  0  0  0  0  0
    3.4766   46.3255   28.3490 C   0  0  0  0  0  0  0  0  0  0  0  0
    4.9414   46.2299   25.9865 C   0  0  0  0  0  0  0  0  0  0  0  0
    3.3007   45.2563   27.4406 C   0  0  0  0  0  0  0  0  0  0  0  0
    2.6510   46.3823   29.5221 N   0  0  0  0  0  0  0  0  0  0  0  0
    5.5350   45.9724   24.7658 O   0  0  0  0  0  0  0  0  0  0  0  0
    4.0525   45.2504   26.2727 C   0  0  0  0  0  0  0  0  0  0  0  0
    1.9900   47.5458   29.8416 O   0  0  0  0  0  0  0  0  0  0  0  0
    2.3442   45.3306   30.1206 O   0  0  0  0  0  0  0  0  0  0  0  0
    4.9816   44.7524   24.2535 C   0  0  0  0  0  0  0  0  0  0  0  0
    4.0389   44.3254   25.2465 O   0  0  0  0  0  0  0  0  0  0  0  0
    8.8126   40.1848   34.2122 O   0  0  0  0  0  0  0  0  0  0  0  0
   11.2417   40.7942   33.3694 O   0  0  0  0  0  0  0  0  0  0  0  0
   10.9179   40.6904   31.9970 C   0  0  0  0  0  0  0  0  0  0  0  0
   11.5181   39.3814   31.4408 C   0  0  0  0  0  0  0  0  0  0  0  0
   12.7497   39.0870   32.0745 O   0  0  0  0  0  0  0  0  0  0  0  0
   10.6045   38.1892   31.6655 C   0  0  0  0  0  0  0  0  0  0  0  0
   12.9344   37.6801   32.0290 C   0  0  0  0  0  0  0  0  0  0  0  0
    9.6418   38.0758   30.6440 O   0  0  0  0  0  0  0  0  0  0  0  0
   11.5741   37.0170   31.7045 C   0  0  0  0  0  0  0  0  0  0  0  0
   13.4851   37.2125   33.3241 N   0  0  0  0  0  0  0  0  0  0  0  0
   11.6079   36.3407   30.4680 O   0  0  0  0  0  0  0  0  0  0  0  0
   14.4801   36.3321   33.5727 C   0  0  0  0  0  0  0  0  0  0  0  0
   13.1140   37.6277   34.5693 C   0  0  0  0  0  0  0  0  0  0  0  0
   15.2073   35.6155   32.6739 N   0  0  0  0  0  0  0  0  0  0  0  0
   14.6758   36.2306   34.9182 C   0  0  0  0  0  0  0  0  0  0  0  0
   13.8217   37.0451   35.5785 N   0  0  0  0  0  0  0  0  0  0  0  0
   16.1639   34.7602   33.1546 C   0  0  0  0  0  0  0  0  0  0  0  0
   15.6526   35.3506   35.4130 C   0  0  0  0  0  0  0  0  0  0  0  0
   16.3794   34.6316   34.5041 N   0  0  0  0  0  0  0  0  0  0  0  0
   15.9000   35.1933   36.8089 N   0  0  0  0  0  0  0  0  0  0  0  0
    9.0120   45.4316   33.6711 H   0  0  0  0  0  0  0  0  0  0  0  0
   11.8908   45.7659   32.9475 H   0  0  0  0  0  0  0  0  0  0  0  0
   10.7260   46.9688   33.1214 H   0  0  0  0  0  0  0  0  0  0  0  0
    9.3426   43.8330   31.4756 H   0  0  0  0  0  0  0  0  0  0  0  0
   10.7236   44.8824   31.1556 H   0  0  0  0  0  0  0  0  0  0  0  0
    7.0100   44.7167   31.5839 H   0  0  0  0  0  0  0  0  0  0  0  0
   10.3459   47.1868   30.4110 H   0  0  0  0  0  0  0  0  0  0  0  0
    5.4658   46.2899   30.5216 H   0  0  0  0  0  0  0  0  0  0  0  0
    8.7937   48.7700   29.3423 H   0  0  0  0  0  0  0  0  0  0  0  0
    4.3710   49.3984   28.6364 H   0  0  0  0  0  0  0  0  0  0  0  0
    4.3075   48.2956   30.0418 H   0  0  0  0  0  0  0  0  0  0  0  0
    5.8981   48.0523   26.5958 H   0  0  0  0  0  0  0  0  0  0  0  0
    2.5799   44.4707   27.6270 H   0  0  0  0  0  0  0  0  0  0  0  0
    4.4639   44.9406   23.2896 H   0  0  0  0  0  0  0  0  0  0  0  0
    5.7797   43.9907   24.1302 H   0  0  0  0  0  0  0  0  0  0  0  0
   11.3946   41.5459   31.4722 H   0  0  0  0  0  0  0  0  0  0  0  0
    9.8290   40.7386   31.7617 H   0  0  0  0  0  0  0  0  0  0  0  0
   11.6994   39.5069   30.3484 H   0  0  0  0  0  0  0  0  0  0  0  0
   10.1090   38.2635   32.6632 H   0  0  0  0  0  0  0  0  0  0  0  0
   13.6662   37.4515   31.2224 H   0  0  0  0  0  0  0  0  0  0  0  0
    8.9010   38.6926   30.8792 H   0  0  0  0  0  0  0  0  0  0  0  0
   11.2650   36.3083   32.5087 H   0  0  0  0  0  0  0  0  0  0  0  0
   12.1372   35.5140   30.6163 H   0  0  0  0  0  0  0  0  0  0  0  0
   12.3297   38.3530   34.7450 H   0  0  0  0  0  0  0  0  0  0  0  0
   16.7558   34.1781   32.4619 H   0  0  0  0  0  0  0  0  0  0  0  0
   15.3533   35.7360   37.5138 H   0  0  0  0  0  0  0  0  0  0  0  0
   16.6346   34.5300   37.1414 H   0  0  0  0  0  0  0  0  0  0  0  0
  1  2  2  0
  1  3  1  0
  3  4  1  0
  4  5  1  0
  6  1  1  0
  7  6  1  0
  6  8  1  0
  8  9  1  0
  9 10  2  0
 11  9  1  0
 10 12  1  0
 13 11  2  0
 12 14  2  0
 14 13  1  0
 14 15  1  0
 15 16  1  0
 16 17  1  0
 17 18  2  0
 19 17  1  0
 18 20  1  0
 21 19  2  0
 19 22  1  0
 20 23  1  0
 20 24  2  0
 24 21  1  0
 22 25  1  0
 22 26  2  0
 23 27  1  0
 24 28  1  0
 27 28  1  0
  4 29  2  0
  4 30  1  0
 31 30  1  0
 31 32  1  0
 32 33  1  0
 32 34  1  0
 33 35  1  0
 34 36  1  0
 34 37  1  0
 37 35  1  0
 35 38  1  0
 37 39  1  0
 40 38  1  0
 41 38  1  0
 42 40  2  0
 40 43  1  0
 44 41  2  0
 45 42  1  0
 43 46  2  0
 43 44  1  0
 47 45  2  0
 47 46  1  0
 46 48  1  0
  6 49  1  1
  7 50  1  0
  7 51  1  0
  8 52  1  0
  8 53  1  0
 10 54  1  0
 11 55  1  0
 12 56  1  0
 13 57  1  0
 16 58  1  0
 16 59  1  0
 18 60  1  0
 21 61  1  0
 27 62  1  0
 27 63  1  0
 31 64  1  0
 31 65  1  0
 32 66  1  0
 34 67  1  0
 35 68  1  0
 36 69  1  0
 37 70  1  0
 39 71  1  0
 41 72  1  0
 45 73  1  0
 48 74  1  0
 48 75  1  0
M  CHG  3   5  -1  22   1  25  -1
M  END
>  <EmbedRMS>  (184) 
0.0828283112885

$$$$

     RDKit          3D

 75 80  0  0  0  0  0  0  0  0999 V2000
   10.2838   43.7626   33.8276 C   0  0  0  0  0  0  0  0  0  0  0  0
   11.4103   43.5863   34.3767 O   0  0  0  0  0  0  0  0  0  0  0  0
    9.3630   42.7236   33.7355 O   0  0  0  0  0  0  0  0  0  0  0  0
    9.8893   41.2249   34.2944 P   0  0  0  0  0  0  0  0  0  0  0  0
   10.3727   41.4546   35.8838 O   0  0  0  0  0  0  0  0  0  0  0  0
    9.9548   45.0699   33.2064 C   0  0  1  0  0  0  0  0  0  0  0  0
   11.0198   46.0480   33.4568 N   0  0  0  0  0  0  0  0  0  0  0  0
    9.7500   44.8508   31.6924 C   0  0  0  0  0  0  0  0  0  0  0  0
    8.7942   45.8419   31.0870 C   0  0  0  0  0  0  0  0  0  0  0  0
    7.4072   45.6010   31.1000 C   0  0  0  0  0  0  0  0  0  0  0  0
    9.2834   46.9892   30.4446 C   0  0  0  0  0  0  0  0  0  0  0  0
    6.5276   46.5019   30.4841 C   0  0  0  0  0  0  0  0  0  0  0  0
    8.4037   47.8901   29.8322 C   0  0  0  0  0  0  0  0  0  0  0  0
    7.0150   47.6517   29.8478 C   0  0  0  0  0  0  0  0  0  0  0  0
    6.0937   48.5232   29.2495 O   0  0  0  0  0  0  0  0  0  0  0  0
    6.4426   49.7355   28.5854 C   0  0  0  0  0  0  0  0  0  0  0  0
    5.1909   50.4336   28.1170 C   0  0  0  0  0  0  0  0  0  0  0  0
    5.0441   50.6951   26.7338 C   0  0  0  0  0  0  0  0  0  0  0  0
    4.1358   50.7987   29.0214 C   0  0  0  0  0  0  0  0  0  0  0  0
    3.8698   51.2903   26.2930 C   0  0  0  0  0  0  0  0  0  0  0  0
    2.9578   51.3905   28.5085 C   0  0  0  0  0  0  0  0  0  0  0  0
    4.2259   50.5620   30.4390 N   0  0  0  0  0  0  0  0  0  0  0  0
    3.5117   51.6318   25.0029 O   0  0  0  0  0  0  0  0  0  0  0  0
    2.8703   51.6212   27.1421 C   0  0  0  0  0  0  0  0  0  0  0  0
    3.0802   50.3661   31.1756 O   0  0  0  0  0  0  0  0  0  0  0  0
    5.3101   50.6900   31.0430 O   0  0  0  0  0  0  0  0  0  0  0  0
    2.2025   52.2156   25.0471 C   0  0  0  0  0  0  0  0  0  0  0  0
    1.8302   52.1893   26.4318 O   0  0  0  0  0  0  0  0  0  0  0  0
    8.8113   40.1833   34.2130 O   0  0  0  0  0  0  0  0  0  0  0  0
   11.2399   40.7932   33.3693 O   0  0  0  0  0  0  0  0  0  0  0  0
   10.9143   40.6896   31.9973 C   0  0  0  0  0  0  0  0  0  0  0  0
   11.5261   39.3884   31.4375 C   0  0  0  0  0  0  0  0  0  0  0  0
   12.7504   39.0887   32.0815 O   0  0  0  0  0  0  0  0  0  0  0  0
   10.6115   38.1909   31.6460 C   0  0  0  0  0  0  0  0  0  0  0  0
   12.9357   37.6812   32.0303 C   0  0  0  0  0  0  0  0  0  0  0  0
    9.6146   38.0858   30.6533 O   0  0  0  0  0  0  0  0  0  0  0  0
   11.5769   37.0148   31.7012 C   0  0  0  0  0  0  0  0  0  0  0  0
   13.4849   37.2112   33.3247 N   0  0  0  0  0  0  0  0  0  0  0  0
   11.6193   36.3260   30.4724 O   0  0  0  0  0  0  0  0  0  0  0  0
   14.4802   36.3313   33.5730 C   0  0  0  0  0  0  0  0  0  0  0  0
   13.1141   37.6268   34.5697 C   0  0  0  0  0  0  0  0  0  0  0  0
   15.2075   35.6151   32.6741 N   0  0  0  0  0  0  0  0  0  0  0  0
   14.6761   36.2300   34.9184 C   0  0  0  0  0  0  0  0  0  0  0  0
   13.8220   37.0445   35.5789 N   0  0  0  0  0  0  0  0  0  0  0  0
   16.1642   34.7600   33.1547 C   0  0  0  0  0  0  0  0  0  0  0  0
   15.6529   35.3503   35.4131 C   0  0  0  0  0  0  0  0  0  0  0  0
   16.3798   34.6314   34.5042 N   0  0  0  0  0  0  0  0  0  0  0  0
   15.9004   35.1930   36.8090 N   0  0  0  0  0  0  0  0  0  0  0  0
    9.0099   45.4349   33.6672 H   0  0  0  0  0  0  0  0  0  0  0  0
   11.1135   46.1992   34.4881 H   0  0  0  0  0  0  0  0  0  0  0  0
   11.9348   45.6932   33.0924 H   0  0  0  0  0  0  0  0  0  0  0  0
   10.7303   44.8921   31.1675 H   0  0  0  0  0  0  0  0  0  0  0  0
    9.3506   43.8343   31.4764 H   0  0  0  0  0  0  0  0  0  0  0  0
    7.0106   44.7160   31.5822 H   0  0  0  0  0  0  0  0  0  0  0  0
   10.3478   47.1878   30.4158 H   0  0  0  0  0  0  0  0  0  0  0  0
    5.4631   46.3054   30.5020 H   0  0  0  0  0  0  0  0  0  0  0  0
    8.8143   48.7650   29.3474 H   0  0  0  0  0  0  0  0  0  0  0  0
    7.0058   50.4047   29.2691 H   0  0  0  0  0  0  0  0  0  0  0  0
    7.1083   49.4974   27.7270 H   0  0  0  0  0  0  0  0  0  0  0  0
    5.8157   50.4343   26.0204 H   0  0  0  0  0  0  0  0  0  0  0  0
    2.1400   51.6762   29.1573 H   0  0  0  0  0  0  0  0  0  0  0  0
    1.4913   51.6097   24.4475 H   0  0  0  0  0  0  0  0  0  0  0  0
    2.2362   53.2625   24.6793 H   0  0  0  0  0  0  0  0  0  0  0  0
    9.8234   40.7192   31.7644 H   0  0  0  0  0  0  0  0  0  0  0  0
   11.3782   41.5525   31.4733 H   0  0  0  0  0  0  0  0  0  0  0  0
   11.7283   39.5312   30.3515 H   0  0  0  0  0  0  0  0  0  0  0  0
   10.1127   38.2733   32.6376 H   0  0  0  0  0  0  0  0  0  0  0  0
   13.6693   37.4565   31.2242 H   0  0  0  0  0  0  0  0  0  0  0  0
   10.0533   38.1117   29.7635 H   0  0  0  0  0  0  0  0  0  0  0  0
   11.2607   36.3147   32.5101 H   0  0  0  0  0  0  0  0  0  0  0  0
   12.1496   35.5022   30.6323 H   0  0  0  0  0  0  0  0  0  0  0  0
   12.3301   38.3524   34.7455 H   0  0  0  0  0  0  0  0  0  0  0  0
   16.7563   34.1781   32.4619 H   0  0  0  0  0  0  0  0  0  0  0  0
   16.6351   34.5298   37.1416 H   0  0  0  0  0  0  0  0  0  0  0  0
   15.3536   35.7357   37.5139 H   0  0  0  0  0  0  0  0  0  0  0  0
  1  2  2  0
  1  3  1  0
  3  4  1  0
  4  5  1  0
  6  1  1  0
  7  6  1  0
  6  8  1  0
  8  9  1  0
  9 10  2  0
 11  9  1  0
 10 12  1  0
 13 11  2  0
 12 14  2  0
 14 13  1  0
 14 15  1  0
 15 16  1  0
 16 17  1  0
 17 18  2  0
 19 17  1  0
 18 20  1  0
 21 19  2  0
 19 22  1  0
 20 23  1  0
 20 24  2  0
 24 21  1  0
 22 25  1  0
 22 26  2  0
 23 27  1  0
 24 28  1  0
 27 28  1  0
  4 29  2  0
  4 30  1  0
 31 30  1  0
 31 32  1  0
 32 33  1  0
 32 34  1  0
 33 35  1  0
 34 36  1  0
 34 37  1  0
 37 35  1  0
 35 38  1  0
 37 39  1  0
 40 38  1  0
 41 38  1  0
 42 40  2  0
 40 43  1  0
 44 41  2  0
 45 42  1  0
 43 46  2  0
 43 44  1  0
 47 45  2  0
 47 46  1  0
 46 48  1  0
  6 49  1  1
  7 50  1  0
  7 51  1  0
  8 52  1  0
  8 53  1  0
 10 54  1  0
 11 55  1  0
 12 56  1  0
 13 57  1  0
 16 58  1  0
 16 59  1  0
 18 60  1  0
 21 61  1  0
 27 62  1  0
 27 63  1  0
 31 64  1  0
 31 65  1  0
 32 66  1  0
 34 67  1  0
 35 68  1  0
 36 69  1  0
 37 70  1  0
 39 71  1  0
 41 72  1  0
 45 73  1  0
 48 74  1  0
 48 75  1  0
M  CHG  3   5  -1  22   1  25  -1
M  END
>  <EmbedRMS>  (185) 
0.0825261871482

$$$$

     RDKit          3D

 75 80  0  0  0  0  0  0  0  0999 V2000
   10.2804   43.7664   33.8250 C   0  0  0  0  0  0  0  0  0  0  0  0
   11.4111   43.5919   34.3667 O   0  0  0  0  0  0  0  0  0  0  0  0
    9.3619   42.7249   33.7344 O   0  0  0  0  0  0  0  0  0  0  0  0
    9.8903   41.2265   34.2931 P   0  0  0  0  0  0  0  0  0  0  0  0
   10.3742   41.4563   35.8824 O   0  0  0  0  0  0  0  0  0  0  0  0
    9.9459   45.0736   33.2112 C   0  0  1  0  0  0  0  0  0  0  0  0
   11.0267   46.0291   33.4706 N   0  0  0  0  0  0  0  0  0  0  0  0
    9.7535   44.8539   31.6950 C   0  0  0  0  0  0  0  0  0  0  0  0
    8.7955   45.8412   31.0848 C   0  0  0  0  0  0  0  0  0  0  0  0
    7.4085   45.6005   31.1008 C   0  0  0  0  0  0  0  0  0  0  0  0
    9.2831   46.9880   30.4397 C   0  0  0  0  0  0  0  0  0  0  0  0
    6.5278   46.5009   30.4854 C   0  0  0  0  0  0  0  0  0  0  0  0
    8.4024   47.8894   29.8302 C   0  0  0  0  0  0  0  0  0  0  0  0
    7.0138   47.6508   29.8482 C   0  0  0  0  0  0  0  0  0  0  0  0
    6.0917   48.5218   29.2500 O   0  0  0  0  0  0  0  0  0  0  0  0
    6.4422   49.7278   28.5722 C   0  0  0  0  0  0  0  0  0  0  0  0
    5.2209   50.4476   28.0426 C   0  0  0  0  0  0  0  0  0  0  0  0
    3.9287   50.0737   28.4932 C   0  0  0  0  0  0  0  0  0  0  0  0
    5.3478   51.5005   27.0735 C   0  0  0  0  0  0  0  0  0  0  0  0
    2.8250   50.7215   27.9549 C   0  0  0  0  0  0  0  0  0  0  0  0
    4.1837   52.1117   26.5526 C   0  0  0  0  0  0  0  0  0  0  0  0
    6.6313   51.9506   26.6008 N   0  0  0  0  0  0  0  0  0  0  0  0
    1.4878   50.5178   28.2374 O   0  0  0  0  0  0  0  0  0  0  0  0
    2.9466   51.6939   27.0233 C   0  0  0  0  0  0  0  0  0  0  0  0
    6.7471   52.4929   25.3414 O   0  0  0  0  0  0  0  0  0  0  0  0
    7.6105   52.0143   27.3718 O   0  0  0  0  0  0  0  0  0  0  0  0
    0.7221   51.4217   27.4293 C   0  0  0  0  0  0  0  0  0  0  0  0
    1.6929   52.1542   26.6693 O   0  0  0  0  0  0  0  0  0  0  0  0
    8.8124   40.1844   34.2129 O   0  0  0  0  0  0  0  0  0  0  0  0
   11.2405   40.7948   33.3669 O   0  0  0  0  0  0  0  0  0  0  0  0
   10.9133   40.6866   31.9953 C   0  0  0  0  0  0  0  0  0  0  0  0
   11.5166   39.3787   31.4404 C   0  0  0  0  0  0  0  0  0  0  0  0
   12.7485   39.0849   32.0735 O   0  0  0  0  0  0  0  0  0  0  0  0
   10.6039   38.1884   31.6669 C   0  0  0  0  0  0  0  0  0  0  0  0
   12.9329   37.6776   32.0284 C   0  0  0  0  0  0  0  0  0  0  0  0
    9.6373   38.0938   30.6484 O   0  0  0  0  0  0  0  0  0  0  0  0
   11.5737   37.0140   31.7055 C   0  0  0  0  0  0  0  0  0  0  0  0
   13.4853   37.2120   33.3238 N   0  0  0  0  0  0  0  0  0  0  0  0
   11.6210   36.3379   30.4683 O   0  0  0  0  0  0  0  0  0  0  0  0
   14.4804   36.3319   33.5726 C   0  0  0  0  0  0  0  0  0  0  0  0
   13.1141   37.6275   34.5689 C   0  0  0  0  0  0  0  0  0  0  0  0
   15.2076   35.6152   32.6740 N   0  0  0  0  0  0  0  0  0  0  0  0
   14.6761   36.2306   34.9181 C   0  0  0  0  0  0  0  0  0  0  0  0
   13.8218   37.0451   35.5783 N   0  0  0  0  0  0  0  0  0  0  0  0
   16.1642   34.7600   33.1548 C   0  0  0  0  0  0  0  0  0  0  0  0
   15.6527   35.3506   35.4131 C   0  0  0  0  0  0  0  0  0  0  0  0
   16.3795   34.6315   34.5043 N   0  0  0  0  0  0  0  0  0  0  0  0
   15.9000   35.1933   36.8090 N   0  0  0  0  0  0  0  0  0  0  0  0
    8.9996   45.4382   33.6724 H   0  0  0  0  0  0  0  0  0  0  0  0
   11.0505   46.2277   34.4980 H   0  0  0  0  0  0  0  0  0  0  0  0
   10.7764   46.9368   33.0157 H   0  0  0  0  0  0  0  0  0  0  0  0
   10.7406   44.9070   31.1835 H   0  0  0  0  0  0  0  0  0  0  0  0
    9.3635   43.8353   31.4715 H   0  0  0  0  0  0  0  0  0  0  0  0
    7.0130   44.7162   31.5851 H   0  0  0  0  0  0  0  0  0  0  0  0
   10.3473   47.1864   30.4063 H   0  0  0  0  0  0  0  0  0  0  0  0
    5.4633   46.3042   30.5048 H   0  0  0  0  0  0  0  0  0  0  0  0
    8.8119   48.7647   29.3448 H   0  0  0  0  0  0  0  0  0  0  0  0
    6.9791   50.4011   29.2741 H   0  0  0  0  0  0  0  0  0  0  0  0
    7.1050   49.4673   27.7187 H   0  0  0  0  0  0  0  0  0  0  0  0
    3.7777   49.3012   29.2356 H   0  0  0  0  0  0  0  0  0  0  0  0
    4.2415   52.9035   25.8171 H   0  0  0  0  0  0  0  0  0  0  0  0
    0.1388   52.1128   28.0733 H   0  0  0  0  0  0  0  0  0  0  0  0
    0.0513   50.8553   26.7497 H   0  0  0  0  0  0  0  0  0  0  0  0
   11.3826   41.5438   31.4666 H   0  0  0  0  0  0  0  0  0  0  0  0
    9.8224   40.7224   31.7629 H   0  0  0  0  0  0  0  0  0  0  0  0
   11.6979   39.5036   30.3478 H   0  0  0  0  0  0  0  0  0  0  0  0
   10.1084   38.2786   32.6627 H   0  0  0  0  0  0  0  0  0  0  0  0
   13.6638   37.4472   31.2215 H   0  0  0  0  0  0  0  0  0  0  0  0
    8.9763   37.4190   30.9532 H   0  0  0  0  0  0  0  0  0  0  0  0
   11.2821   36.3054   32.5172 H   0  0  0  0  0  0  0  0  0  0  0  0
   10.8658   35.6935   30.4652 H   0  0  0  0  0  0  0  0  0  0  0  0
   12.3293   38.3523   34.7445 H   0  0  0  0  0  0  0  0  0  0  0  0
   16.7561   34.1778   32.4621 H   0  0  0  0  0  0  0  0  0  0  0  0
   16.6345   34.5300   37.1416 H   0  0  0  0  0  0  0  0  0  0  0  0
   15.3533   35.7361   37.5138 H   0  0  0  0  0  0  0  0  0  0  0  0
  1  2  2  0
  1  3  1  0
  3  4  1  0
  4  5  1  0
  6  1  1  0
  7  6  1  0
  6  8  1  0
  8  9  1  0
  9 10  2  0
 11  9  1  0
 10 12  1  0
 13 11  2  0
 12 14  2  0
 14 13  1  0
 14 15  1  0
 15 16  1  0
 16 17  1  0
 17 18  2  0
 19 17  1  0
 18 20  1  0
 21 19  2  0
 19 22  1  0
 20 23  1  0
 20 24  2  0
 24 21  1  0
 22 25  1  0
 22 26  2  0
 23 27  1  0
 24 28  1  0
 27 28  1  0
  4 29  2  0
  4 30  1  0
 31 30  1  0
 31 32  1  0
 32 33  1  0
 32 34  1  0
 33 35  1  0
 34 36  1  0
 34 37  1  0
 37 35  1  0
 35 38  1  0
 37 39  1  0
 40 38  1  0
 41 38  1  0
 42 40  2  0
 40 43  1  0
 44 41  2  0
 45 42  1  0
 43 46  2  0
 43 44  1  0
 47 45  2  0
 47 46  1  0
 46 48  1  0
  6 49  1  1
  7 50  1  0
  7 51  1  0
  8 52  1  0
  8 53  1  0
 10 54  1  0
 11 55  1  0
 12 56  1  0
 13 57  1  0
 16 58  1  0
 16 59  1  0
 18 60  1  0
 21 61  1  0
 27 62  1  0
 27 63  1  0
 31 64  1  0
 31 65  1  0
 32 66  1  0
 34 67  1  0
 35 68  1  0
 36 69  1  0
 37 70  1  0
 39 71  1  0
 41 72  1  0
 45 73  1  0
 48 74  1  0
 48 75  1  0
M  CHG  3   5  -1  22   1  25  -1
M  END
>  <EmbedRMS>  (186) 
0.0823844345295

$$$$

     RDKit          3D

 75 80  0  0  0  0  0  0  0  0999 V2000
   10.2805   43.7663   33.8248 C   0  0  0  0  0  0  0  0  0  0  0  0
   11.4111   43.5919   34.3667 O   0  0  0  0  0  0  0  0  0  0  0  0
    9.3621   42.7247   33.7342 O   0  0  0  0  0  0  0  0  0  0  0  0
    9.8904   41.2264   34.2936 P   0  0  0  0  0  0  0  0  0  0  0  0
   10.3731   41.4565   35.8831 O   0  0  0  0  0  0  0  0  0  0  0  0
    9.9459   45.0735   33.2109 C   0  0  1  0  0  0  0  0  0  0  0  0
   11.0266   46.0292   33.4707 N   0  0  0  0  0  0  0  0  0  0  0  0
    9.7542   44.8539   31.6945 C   0  0  0  0  0  0  0  0  0  0  0  0
    8.7960   45.8405   31.0837 C   0  0  0  0  0  0  0  0  0  0  0  0
    7.4091   45.6007   31.1019 C   0  0  0  0  0  0  0  0  0  0  0  0
    9.2824   46.9884   30.4406 C   0  0  0  0  0  0  0  0  0  0  0  0
    6.5260   46.5005   30.4885 C   0  0  0  0  0  0  0  0  0  0  0  0
    8.3993   47.8885   29.8336 C   0  0  0  0  0  0  0  0  0  0  0  0
    7.0183   47.6516   29.8420 C   0  0  0  0  0  0  0  0  0  0  0  0
    6.1827   48.5851   29.2091 O   0  0  0  0  0  0  0  0  0  0  0  0
    4.8217   48.3693   28.8332 C   0  0  0  0  0  0  0  0  0  0  0  0
    4.7308   47.4083   27.6705 C   0  0  0  0  0  0  0  0  0  0  0  0
    4.2161   46.1113   27.9086 C   0  0  0  0  0  0  0  0  0  0  0  0
    5.0960   47.7874   26.3337 C   0  0  0  0  0  0  0  0  0  0  0  0
    4.1069   45.2331   26.8394 C   0  0  0  0  0  0  0  0  0  0  0  0
    4.9508   46.8490   25.2836 C   0  0  0  0  0  0  0  0  0  0  0  0
    5.5607   49.1128   26.0140 N   0  0  0  0  0  0  0  0  0  0  0  0
    3.6452   43.9309   26.8413 O   0  0  0  0  0  0  0  0  0  0  0  0
    4.4605   45.5855   25.5830 C   0  0  0  0  0  0  0  0  0  0  0  0
    6.4144   49.7879   26.8535 O   0  0  0  0  0  0  0  0  0  0  0  0
    5.3149   49.6051   24.8933 O   0  0  0  0  0  0  0  0  0  0  0  0
    3.7174   43.4342   25.4979 C   0  0  0  0  0  0  0  0  0  0  0  0
    4.2425   44.5233   24.7266 O   0  0  0  0  0  0  0  0  0  0  0  0
    8.8129   40.1841   34.2124 O   0  0  0  0  0  0  0  0  0  0  0  0
   11.2419   40.7944   33.3695 O   0  0  0  0  0  0  0  0  0  0  0  0
   10.9185   40.6911   31.9969 C   0  0  0  0  0  0  0  0  0  0  0  0
   11.5172   39.3814   31.4407 C   0  0  0  0  0  0  0  0  0  0  0  0
   12.7492   39.0856   32.0729 O   0  0  0  0  0  0  0  0  0  0  0  0
   10.6023   38.1908   31.6665 C   0  0  0  0  0  0  0  0  0  0  0  0
   12.9319   37.6781   32.0281 C   0  0  0  0  0  0  0  0  0  0  0  0
    9.6392   38.0797   30.6452 O   0  0  0  0  0  0  0  0  0  0  0  0
   11.5715   37.0165   31.7056 C   0  0  0  0  0  0  0  0  0  0  0  0
   13.4846   37.2121   33.3235 N   0  0  0  0  0  0  0  0  0  0  0  0
   11.6187   36.3383   30.4695 O   0  0  0  0  0  0  0  0  0  0  0  0
   14.4801   36.3321   33.5724 C   0  0  0  0  0  0  0  0  0  0  0  0
   13.1137   37.6276   34.5687 C   0  0  0  0  0  0  0  0  0  0  0  0
   15.2073   35.6153   32.6738 N   0  0  0  0  0  0  0  0  0  0  0  0
   14.6759   36.2308   34.9179 C   0  0  0  0  0  0  0  0  0  0  0  0
   13.8216   37.0452   35.5781 N   0  0  0  0  0  0  0  0  0  0  0  0
   16.1640   34.7601   33.1546 C   0  0  0  0  0  0  0  0  0  0  0  0
   15.6526   35.3508   35.4129 C   0  0  0  0  0  0  0  0  0  0  0  0
   16.3794   34.6317   34.5041 N   0  0  0  0  0  0  0  0  0  0  0  0
   15.8999   35.1935   36.8088 N   0  0  0  0  0  0  0  0  0  0  0  0
    8.9994   45.4380   33.6717 H   0  0  0  0  0  0  0  0  0  0  0  0
   10.7763   46.9368   33.0157 H   0  0  0  0  0  0  0  0  0  0  0  0
   11.0499   46.2277   34.4981 H   0  0  0  0  0  0  0  0  0  0  0  0
    9.3648   43.8351   31.4708 H   0  0  0  0  0  0  0  0  0  0  0  0
   10.7414   44.9076   31.1833 H   0  0  0  0  0  0  0  0  0  0  0  0
    7.0143   44.7197   31.5931 H   0  0  0  0  0  0  0  0  0  0  0  0
   10.3462   47.1890   30.4073 H   0  0  0  0  0  0  0  0  0  0  0  0
    5.4682   46.2994   30.5466 H   0  0  0  0  0  0  0  0  0  0  0  0
    8.7911   48.7705   29.3429 H   0  0  0  0  0  0  0  0  0  0  0  0
    4.3718   49.3393   28.5352 H   0  0  0  0  0  0  0  0  0  0  0  0
    4.2354   48.0198   29.7096 H   0  0  0  0  0  0  0  0  0  0  0  0
    3.8969   45.7961   28.8929 H   0  0  0  0  0  0  0  0  0  0  0  0
    5.2162   47.0971   24.2639 H   0  0  0  0  0  0  0  0  0  0  0  0
    4.4034   42.5628   25.4469 H   0  0  0  0  0  0  0  0  0  0  0  0
    2.7046   43.1607   25.1346 H   0  0  0  0  0  0  0  0  0  0  0  0
   11.3966   41.5459   31.4725 H   0  0  0  0  0  0  0  0  0  0  0  0
    9.8298   40.7409   31.7611 H   0  0  0  0  0  0  0  0  0  0  0  0
   11.6975   39.5066   30.3481 H   0  0  0  0  0  0  0  0  0  0  0  0
   10.1076   38.2648   32.6645 H   0  0  0  0  0  0  0  0  0  0  0  0
   13.6621   37.4468   31.2209 H   0  0  0  0  0  0  0  0  0  0  0  0
    8.8974   38.6943   30.8831 H   0  0  0  0  0  0  0  0  0  0  0  0
   11.2806   36.3073   32.5170 H   0  0  0  0  0  0  0  0  0  0  0  0
   10.8492   35.7110   30.4586 H   0  0  0  0  0  0  0  0  0  0  0  0
   12.3290   38.3524   34.7444 H   0  0  0  0  0  0  0  0  0  0  0  0
   16.7559   34.1780   32.4619 H   0  0  0  0  0  0  0  0  0  0  0  0
   15.3532   35.7362   37.5137 H   0  0  0  0  0  0  0  0  0  0  0  0
   16.6344   34.5301   37.1414 H   0  0  0  0  0  0  0  0  0  0  0  0
  1  2  2  0
  1  3  1  0
  3  4  1  0
  4  5  1  0
  6  1  1  0
  7  6  1  0
  6  8  1  0
  8  9  1  0
  9 10  2  0
 11  9  1  0
 10 12  1  0
 13 11  2  0
 12 14  2  0
 14 13  1  0
 14 15  1  0
 15 16  1  0
 16 17  1  0
 17 18  2  0
 19 17  1  0
 18 20  1  0
 21 19  2  0
 19 22  1  0
 20 23  1  0
 20 24  2  0
 24 21  1  0
 22 25  1  0
 22 26  2  0
 23 27  1  0
 24 28  1  0
 27 28  1  0
  4 29  2  0
  4 30  1  0
 31 30  1  0
 31 32  1  0
 32 33  1  0
 32 34  1  0
 33 35  1  0
 34 36  1  0
 34 37  1  0
 37 35  1  0
 35 38  1  0
 37 39  1  0
 40 38  1  0
 41 38  1  0
 42 40  2  0
 40 43  1  0
 44 41  2  0
 45 42  1  0
 43 46  2  0
 43 44  1  0
 47 45  2  0
 47 46  1  0
 46 48  1  0
  6 49  1  1
  7 50  1  0
  7 51  1  0
  8 52  1  0
  8 53  1  0
 10 54  1  0
 11 55  1  0
 12 56  1  0
 13 57  1  0
 16 58  1  0
 16 59  1  0
 18 60  1  0
 21 61  1  0
 27 62  1  0
 27 63  1  0
 31 64  1  0
 31 65  1  0
 32 66  1  0
 34 67  1  0
 35 68  1  0
 36 69  1  0
 37 70  1  0
 39 71  1  0
 41 72  1  0
 45 73  1  0
 48 74  1  0
 48 75  1  0
M  CHG  3   5  -1  22   1  25  -1
M  END
>  <EmbedRMS>  (187) 
0.0827891162434

$$$$

     RDKit          3D

 75 80  0  0  0  0  0  0  0  0999 V2000
   10.2834   43.7662   33.8256 C   0  0  0  0  0  0  0  0  0  0  0  0
   11.4102   43.5930   34.3752 O   0  0  0  0  0  0  0  0  0  0  0  0
    9.3636   42.7256   33.7349 O   0  0  0  0  0  0  0  0  0  0  0  0
    9.8902   41.2268   34.2942 P   0  0  0  0  0  0  0  0  0  0  0  0
   10.3736   41.4561   35.8836 O   0  0  0  0  0  0  0  0  0  0  0  0
    9.9547   45.0696   33.2036 C   0  0  1  0  0  0  0  0  0  0  0  0
   11.0273   46.0323   33.4760 N   0  0  0  0  0  0  0  0  0  0  0  0
    9.7471   44.8485   31.6876 C   0  0  0  0  0  0  0  0  0  0  0  0
    8.7925   45.8410   31.0845 C   0  0  0  0  0  0  0  0  0  0  0  0
    7.4059   45.6007   31.0991 C   0  0  0  0  0  0  0  0  0  0  0  0
    9.2818   46.9876   30.4414 C   0  0  0  0  0  0  0  0  0  0  0  0
    6.5246   46.5004   30.4842 C   0  0  0  0  0  0  0  0  0  0  0  0
    8.4005   47.8879   29.8315 C   0  0  0  0  0  0  0  0  0  0  0  0
    7.0186   47.6576   29.8478 C   0  0  0  0  0  0  0  0  0  0  0  0
    6.1802   48.5969   29.2255 O   0  0  0  0  0  0  0  0  0  0  0  0
    4.7521   48.5634   29.2431 C   0  0  0  0  0  0  0  0  0  0  0  0
    4.2247   48.8573   30.6301 C   0  0  0  0  0  0  0  0  0  0  0  0
    4.7750   49.9540   31.3345 C   0  0  0  0  0  0  0  0  0  0  0  0
    3.2268   48.0444   31.2616 C   0  0  0  0  0  0  0  0  0  0  0  0
    4.3635   50.1744   32.6425 C   0  0  0  0  0  0  0  0  0  0  0  0
    2.8599   48.3059   32.6010 C   0  0  0  0  0  0  0  0  0  0  0  0
    2.5663   46.9788   30.5625 N   0  0  0  0  0  0  0  0  0  0  0  0
    4.7739   51.1616   33.5175 O   0  0  0  0  0  0  0  0  0  0  0  0
    3.4514   49.3813   33.2511 C   0  0  0  0  0  0  0  0  0  0  0  0
    2.2181   45.8318   31.2377 O   0  0  0  0  0  0  0  0  0  0  0  0
    2.0904   47.1763   29.4256 O   0  0  0  0  0  0  0  0  0  0  0  0
    4.0729   50.9753   34.7548 C   0  0  0  0  0  0  0  0  0  0  0  0
    3.2388   49.8283   34.5410 O   0  0  0  0  0  0  0  0  0  0  0  0
    8.8120   40.1850   34.2131 O   0  0  0  0  0  0  0  0  0  0  0  0
   11.2404   40.7941   33.3690 O   0  0  0  0  0  0  0  0  0  0  0  0
   10.9143   40.6898   31.9972 C   0  0  0  0  0  0  0  0  0  0  0  0
   11.5261   39.3885   31.4376 C   0  0  0  0  0  0  0  0  0  0  0  0
   12.7504   39.0888   32.0816 O   0  0  0  0  0  0  0  0  0  0  0  0
   10.6115   38.1910   31.6460 C   0  0  0  0  0  0  0  0  0  0  0  0
   12.9357   37.6812   32.0303 C   0  0  0  0  0  0  0  0  0  0  0  0
    9.6146   38.0859   30.6534 O   0  0  0  0  0  0  0  0  0  0  0  0
   11.5769   37.0148   31.7012 C   0  0  0  0  0  0  0  0  0  0  0  0
   13.4849   37.2112   33.3247 N   0  0  0  0  0  0  0  0  0  0  0  0
   11.6193   36.3261   30.4724 O   0  0  0  0  0  0  0  0  0  0  0  0
   14.4802   36.3313   33.5730 C   0  0  0  0  0  0  0  0  0  0  0  0
   13.1141   37.6268   34.5698 C   0  0  0  0  0  0  0  0  0  0  0  0
   15.2075   35.6151   32.6741 N   0  0  0  0  0  0  0  0  0  0  0  0
   14.6761   36.2300   34.9184 C   0  0  0  0  0  0  0  0  0  0  0  0
   13.8220   37.0445   35.5789 N   0  0  0  0  0  0  0  0  0  0  0  0
   16.1642   34.7600   33.1547 C   0  0  0  0  0  0  0  0  0  0  0  0
   15.6529   35.3503   35.4131 C   0  0  0  0  0  0  0  0  0  0  0  0
   16.3798   34.6314   34.5042 N   0  0  0  0  0  0  0  0  0  0  0  0
   15.9004   35.1930   36.8090 N   0  0  0  0  0  0  0  0  0  0  0  0
    9.0120   45.4318   33.6713 H   0  0  0  0  0  0  0  0  0  0  0  0
   11.8907   45.7660   32.9476 H   0  0  0  0  0  0  0  0  0  0  0  0
   10.7259   46.9689   33.1216 H   0  0  0  0  0  0  0  0  0  0  0  0
    9.3425   43.8332   31.4758 H   0  0  0  0  0  0  0  0  0  0  0  0
   10.7236   44.8825   31.1558 H   0  0  0  0  0  0  0  0  0  0  0  0
    7.0102   44.7147   31.5803 H   0  0  0  0  0  0  0  0  0  0  0  0
   10.3460   47.1859   30.4095 H   0  0  0  0  0  0  0  0  0  0  0  0
    5.4670   46.2822   30.5083 H   0  0  0  0  0  0  0  0  0  0  0  0
    8.7937   48.7705   29.3431 H   0  0  0  0  0  0  0  0  0  0  0  0
    4.4123   47.5879   28.8429 H   0  0  0  0  0  0  0  0  0  0  0  0
    4.3782   49.3515   28.5567 H   0  0  0  0  0  0  0  0  0  0  0  0
    5.5197   50.5986   30.8846 H   0  0  0  0  0  0  0  0  0  0  0  0
    2.1154   47.7066   33.1089 H   0  0  0  0  0  0  0  0  0  0  0  0
    4.7918   50.7783   35.5776 H   0  0  0  0  0  0  0  0  0  0  0  0
    3.4495   51.8656   34.9808 H   0  0  0  0  0  0  0  0  0  0  0  0
    9.8233   40.7191   31.7647 H   0  0  0  0  0  0  0  0  0  0  0  0
   11.3779   41.5526   31.4726 H   0  0  0  0  0  0  0  0  0  0  0  0
   11.7283   39.5312   30.3515 H   0  0  0  0  0  0  0  0  0  0  0  0
   10.1127   38.2734   32.6376 H   0  0  0  0  0  0  0  0  0  0  0  0
   13.6692   37.4566   31.2242 H   0  0  0  0  0  0  0  0  0  0  0  0
   10.0533   38.1118   29.7636 H   0  0  0  0  0  0  0  0  0  0  0  0
   11.2607   36.3148   32.5102 H   0  0  0  0  0  0  0  0  0  0  0  0
   12.1496   35.5023   30.6324 H   0  0  0  0  0  0  0  0  0  0  0  0
   12.3301   38.3524   34.7455 H   0  0  0  0  0  0  0  0  0  0  0  0
   16.7563   34.1781   32.4619 H   0  0  0  0  0  0  0  0  0  0  0  0
   15.3536   35.7357   37.5139 H   0  0  0  0  0  0  0  0  0  0  0  0
   16.6351   34.5298   37.1416 H   0  0  0  0  0  0  0  0  0  0  0  0
  1  2  2  0
  1  3  1  0
  3  4  1  0
  4  5  1  0
  6  1  1  0
  7  6  1  0
  6  8  1  0
  8  9  1  0
  9 10  2  0
 11  9  1  0
 10 12  1  0
 13 11  2  0
 12 14  2  0
 14 13  1  0
 14 15  1  0
 15 16  1  0
 16 17  1  0
 17 18  2  0
 19 17  1  0
 18 20  1  0
 21 19  2  0
 19 22  1  0
 20 23  1  0
 20 24  2  0
 24 21  1  0
 22 25  1  0
 22 26  2  0
 23 27  1  0
 24 28  1  0
 27 28  1  0
  4 29  2  0
  4 30  1  0
 31 30  1  0
 31 32  1  0
 32 33  1  0
 32 34  1  0
 33 35  1  0
 34 36  1  0
 34 37  1  0
 37 35  1  0
 35 38  1  0
 37 39  1  0
 40 38  1  0
 41 38  1  0
 42 40  2  0
 40 43  1  0
 44 41  2  0
 45 42  1  0
 43 46  2  0
 43 44  1  0
 47 45  2  0
 47 46  1  0
 46 48  1  0
  6 49  1  1
  7 50  1  0
  7 51  1  0
  8 52  1  0
  8 53  1  0
 10 54  1  0
 11 55  1  0
 12 56  1  0
 13 57  1  0
 16 58  1  0
 16 59  1  0
 18 60  1  0
 21 61  1  0
 27 62  1  0
 27 63  1  0
 31 64  1  0
 31 65  1  0
 32 66  1  0
 34 67  1  0
 35 68  1  0
 36 69  1  0
 37 70  1  0
 39 71  1  0
 41 72  1  0
 45 73  1  0
 48 74  1  0
 48 75  1  0
M  CHG  3   5  -1  22   1  25  -1
M  END
>  <EmbedRMS>  (188) 
0.0816104491064

$$$$

     RDKit          3D

 75 80  0  0  0  0  0  0  0  0999 V2000
   10.2803   43.7665   33.8250 C   0  0  0  0  0  0  0  0  0  0  0  0
   11.4110   43.5919   34.3666 O   0  0  0  0  0  0  0  0  0  0  0  0
    9.3616   42.7252   33.7348 O   0  0  0  0  0  0  0  0  0  0  0  0
    9.8896   41.2270   34.2945 P   0  0  0  0  0  0  0  0  0  0  0  0
   10.3731   41.4569   35.8837 O   0  0  0  0  0  0  0  0  0  0  0  0
    9.9459   45.0737   33.2111 C   0  0  1  0  0  0  0  0  0  0  0  0
   11.0265   46.0293   33.4708 N   0  0  0  0  0  0  0  0  0  0  0  0
    9.7541   44.8541   31.6947 C   0  0  0  0  0  0  0  0  0  0  0  0
    8.7958   45.8408   31.0841 C   0  0  0  0  0  0  0  0  0  0  0  0
    7.4089   45.6000   31.1014 C   0  0  0  0  0  0  0  0  0  0  0  0
    9.2824   46.9878   30.4394 C   0  0  0  0  0  0  0  0  0  0  0  0
    6.5258   46.4989   30.4870 C   0  0  0  0  0  0  0  0  0  0  0  0
    8.3997   47.8879   29.8316 C   0  0  0  0  0  0  0  0  0  0  0  0
    7.0185   47.6544   29.8458 C   0  0  0  0  0  0  0  0  0  0  0  0
    6.1775   48.5948   29.2262 O   0  0  0  0  0  0  0  0  0  0  0  0
    4.7620   48.4607   29.0747 C   0  0  0  0  0  0  0  0  0  0  0  0
    3.9853   48.8276   30.3276 C   0  0  0  0  0  0  0  0  0  0  0  0
    4.6699   49.2446   31.4997 C   0  0  0  0  0  0  0  0  0  0  0  0
    2.5473   48.8243   30.3252 C   0  0  0  0  0  0  0  0  0  0  0  0
    3.9244   49.6162   32.6100 C   0  0  0  0  0  0  0  0  0  0  0  0
    1.8460   49.2273   31.4851 C   0  0  0  0  0  0  0  0  0  0  0  0
    1.7850   48.4581   29.1601 N   0  0  0  0  0  0  0  0  0  0  0  0
    4.3774   50.0444   33.8431 O   0  0  0  0  0  0  0  0  0  0  0  0
    2.5732   49.6075   32.6035 C   0  0  0  0  0  0  0  0  0  0  0  0
    0.5567   49.0372   28.9373 O   0  0  0  0  0  0  0  0  0  0  0  0
    2.1315   47.4982   28.4427 O   0  0  0  0  0  0  0  0  0  0  0  0
    3.2338   50.3190   34.6635 C   0  0  0  0  0  0  0  0  0  0  0  0
    2.1020   50.0274   33.8326 O   0  0  0  0  0  0  0  0  0  0  0  0
    8.8122   40.1844   34.2135 O   0  0  0  0  0  0  0  0  0  0  0  0
   11.2401   40.7950   33.3698 O   0  0  0  0  0  0  0  0  0  0  0  0
   10.9143   40.6914   31.9981 C   0  0  0  0  0  0  0  0  0  0  0  0
   11.5269   39.3911   31.4385 C   0  0  0  0  0  0  0  0  0  0  0  0
   12.7519   39.0911   32.0837 O   0  0  0  0  0  0  0  0  0  0  0  0
   10.6113   38.1932   31.6451 C   0  0  0  0  0  0  0  0  0  0  0  0
   12.9413   37.6838   32.0297 C   0  0  0  0  0  0  0  0  0  0  0  0
    9.6064   38.0877   30.6599 O   0  0  0  0  0  0  0  0  0  0  0  0
   11.5822   37.0197   31.6877 C   0  0  0  0  0  0  0  0  0  0  0  0
   13.4840   37.2104   33.3254 N   0  0  0  0  0  0  0  0  0  0  0  0
   11.6179   36.3072   30.4690 O   0  0  0  0  0  0  0  0  0  0  0  0
   14.4797   36.3309   33.5738 C   0  0  0  0  0  0  0  0  0  0  0  0
   13.1136   37.6269   34.5702 C   0  0  0  0  0  0  0  0  0  0  0  0
   15.2074   35.6152   32.6747 N   0  0  0  0  0  0  0  0  0  0  0  0
   14.6756   36.2298   34.9190 C   0  0  0  0  0  0  0  0  0  0  0  0
   13.8217   37.0445   35.5793 N   0  0  0  0  0  0  0  0  0  0  0  0
   16.1643   34.7603   33.1551 C   0  0  0  0  0  0  0  0  0  0  0  0
   15.6528   35.3503   35.4136 C   0  0  0  0  0  0  0  0  0  0  0  0
   16.3798   34.6316   34.5046 N   0  0  0  0  0  0  0  0  0  0  0  0
   15.9004   35.1931   36.8094 N   0  0  0  0  0  0  0  0  0  0  0  0
    8.9994   45.4383   33.6718 H   0  0  0  0  0  0  0  0  0  0  0  0
   10.7763   46.9370   33.0158 H   0  0  0  0  0  0  0  0  0  0  0  0
   11.0499   46.2278   34.4982 H   0  0  0  0  0  0  0  0  0  0  0  0
   10.7414   44.9079   31.1836 H   0  0  0  0  0  0  0  0  0  0  0  0
    9.3648   43.8352   31.4710 H   0  0  0  0  0  0  0  0  0  0  0  0
    7.0147   44.7172   31.5895 H   0  0  0  0  0  0  0  0  0  0  0  0
   10.3463   47.1880   30.4057 H   0  0  0  0  0  0  0  0  0  0  0  0
    5.4660   46.2911   30.5312 H   0  0  0  0  0  0  0  0  0  0  0  0
    8.7915   48.7712   29.3434 H   0  0  0  0  0  0  0  0  0  0  0  0
    4.5302   47.4252   28.7525 H   0  0  0  0  0  0  0  0  0  0  0  0
    4.4433   49.1443   28.2600 H   0  0  0  0  0  0  0  0  0  0  0  0
    5.7473   49.2989   31.5560 H   0  0  0  0  0  0  0  0  0  0  0  0
    0.7642   49.2359   31.5165 H   0  0  0  0  0  0  0  0  0  0  0  0
    3.2340   49.6590   35.5562 H   0  0  0  0  0  0  0  0  0  0  0  0
    3.2239   51.3879   34.9633 H   0  0  0  0  0  0  0  0  0  0  0  0
   11.3775   41.5548   31.4741 H   0  0  0  0  0  0  0  0  0  0  0  0
    9.8233   40.7200   31.7652 H   0  0  0  0  0  0  0  0  0  0  0  0
   11.7312   39.5361   30.3532 H   0  0  0  0  0  0  0  0  0  0  0  0
   10.1202   38.2696   32.6410 H   0  0  0  0  0  0  0  0  0  0  0  0
   13.6850   37.4639   31.2321 H   0  0  0  0  0  0  0  0  0  0  0  0
   10.0250   38.1792   29.7654 H   0  0  0  0  0  0  0  0  0  0  0  0
   11.2757   36.3135   32.4907 H   0  0  0  0  0  0  0  0  0  0  0  0
   11.9838   36.9111   29.7708 H   0  0  0  0  0  0  0  0  0  0  0  0
   12.3307   38.3537   34.7458 H   0  0  0  0  0  0  0  0  0  0  0  0
   16.7566   34.1787   32.4623 H   0  0  0  0  0  0  0  0  0  0  0  0
   16.6353   34.5301   37.1419 H   0  0  0  0  0  0  0  0  0  0  0  0
   15.3535   35.7355   37.5144 H   0  0  0  0  0  0  0  0  0  0  0  0
  1  2  2  0
  1  3  1  0
  3  4  1  0
  4  5  1  0
  6  1  1  0
  7  6  1  0
  6  8  1  0
  8  9  1  0
  9 10  2  0
 11  9  1  0
 10 12  1  0
 13 11  2  0
 12 14  2  0
 14 13  1  0
 14 15  1  0
 15 16  1  0
 16 17  1  0
 17 18  2  0
 19 17  1  0
 18 20  1  0
 21 19  2  0
 19 22  1  0
 20 23  1  0
 20 24  2  0
 24 21  1  0
 22 25  1  0
 22 26  2  0
 23 27  1  0
 24 28  1  0
 27 28  1  0
  4 29  2  0
  4 30  1  0
 31 30  1  0
 31 32  1  0
 32 33  1  0
 32 34  1  0
 33 35  1  0
 34 36  1  0
 34 37  1  0
 37 35  1  0
 35 38  1  0
 37 39  1  0
 40 38  1  0
 41 38  1  0
 42 40  2  0
 40 43  1  0
 44 41  2  0
 45 42  1  0
 43 46  2  0
 43 44  1  0
 47 45  2  0
 47 46  1  0
 46 48  1  0
  6 49  1  1
  7 50  1  0
  7 51  1  0
  8 52  1  0
  8 53  1  0
 10 54  1  0
 11 55  1  0
 12 56  1  0
 13 57  1  0
 16 58  1  0
 16 59  1  0
 18 60  1  0
 21 61  1  0
 27 62  1  0
 27 63  1  0
 31 64  1  0
 31 65  1  0
 32 66  1  0
 34 67  1  0
 35 68  1  0
 36 69  1  0
 37 70  1  0
 39 71  1  0
 41 72  1  0
 45 73  1  0
 48 74  1  0
 48 75  1  0
M  CHG  3   5  -1  22   1  25  -1
M  END
>  <EmbedRMS>  (189) 
0.0806498704815

$$$$

     RDKit          3D

 75 80  0  0  0  0  0  0  0  0999 V2000
   10.2839   43.7625   33.8276 C   0  0  0  0  0  0  0  0  0  0  0  0
   11.4104   43.5863   34.3767 O   0  0  0  0  0  0  0  0  0  0  0  0
    9.3633   42.7234   33.7353 O   0  0  0  0  0  0  0  0  0  0  0  0
    9.8898   41.2247   34.2940 P   0  0  0  0  0  0  0  0  0  0  0  0
   10.3724   41.4544   35.8837 O   0  0  0  0  0  0  0  0  0  0  0  0
    9.9548   45.0699   33.2065 C   0  0  1  0  0  0  0  0  0  0  0  0
   11.0198   46.0480   33.4569 N   0  0  0  0  0  0  0  0  0  0  0  0
    9.7500   44.8508   31.6925 C   0  0  0  0  0  0  0  0  0  0  0  0
    8.7942   45.8419   31.0871 C   0  0  0  0  0  0  0  0  0  0  0  0
    7.4072   45.6011   31.1002 C   0  0  0  0  0  0  0  0  0  0  0  0
    9.2834   46.9893   30.4448 C   0  0  0  0  0  0  0  0  0  0  0  0
    6.5276   46.5018   30.4841 C   0  0  0  0  0  0  0  0  0  0  0  0
    8.4037   47.8901   29.8323 C   0  0  0  0  0  0  0  0  0  0  0  0
    7.0150   47.6513   29.8473 C   0  0  0  0  0  0  0  0  0  0  0  0
    6.0942   48.5216   29.2460 O   0  0  0  0  0  0  0  0  0  0  0  0
    6.4467   49.7252   28.5651 C   0  0  0  0  0  0  0  0  0  0  0  0
    5.2255   50.4414   28.0323 C   0  0  0  0  0  0  0  0  0  0  0  0
    3.9388   50.1079   28.5274 C   0  0  0  0  0  0  0  0  0  0  0  0
    5.3471   51.4505   27.0191 C   0  0  0  0  0  0  0  0  0  0  0  0
    2.8329   50.7495   27.9859 C   0  0  0  0  0  0  0  0  0  0  0  0
    4.1806   52.0583   26.4971 C   0  0  0  0  0  0  0  0  0  0  0  0
    6.6303   51.8609   26.5117 N   0  0  0  0  0  0  0  0  0  0  0  0
    1.4996   50.5791   28.3058 O   0  0  0  0  0  0  0  0  0  0  0  0
    2.9481   51.6797   27.0111 C   0  0  0  0  0  0  0  0  0  0  0  0
    7.7107   51.9866   27.3538 O   0  0  0  0  0  0  0  0  0  0  0  0
    6.7368   52.2683   25.3363 O   0  0  0  0  0  0  0  0  0  0  0  0
    0.7294   51.4599   27.4765 C   0  0  0  0  0  0  0  0  0  0  0  0
    1.6937   52.1442   26.6651 O   0  0  0  0  0  0  0  0  0  0  0  0
    8.8118   40.1831   34.2121 O   0  0  0  0  0  0  0  0  0  0  0  0
   11.2413   40.7934   33.3696 O   0  0  0  0  0  0  0  0  0  0  0  0
   10.9179   40.6902   31.9971 C   0  0  0  0  0  0  0  0  0  0  0  0
   11.5181   39.3813   31.4408 C   0  0  0  0  0  0  0  0  0  0  0  0
   12.7498   39.0870   32.0745 O   0  0  0  0  0  0  0  0  0  0  0  0
   10.6045   38.1891   31.6655 C   0  0  0  0  0  0  0  0  0  0  0  0
   12.9344   37.6801   32.0290 C   0  0  0  0  0  0  0  0  0  0  0  0
    9.6418   38.0758   30.6440 O   0  0  0  0  0  0  0  0  0  0  0  0
   11.5741   37.0169   31.7045 C   0  0  0  0  0  0  0  0  0  0  0  0
   13.4851   37.2125   33.3241 N   0  0  0  0  0  0  0  0  0  0  0  0
   11.6079   36.3407   30.4679 O   0  0  0  0  0  0  0  0  0  0  0  0
   14.4801   36.3321   33.5727 C   0  0  0  0  0  0  0  0  0  0  0  0
   13.1140   37.6277   34.5692 C   0  0  0  0  0  0  0  0  0  0  0  0
   15.2073   35.6155   32.6739 N   0  0  0  0  0  0  0  0  0  0  0  0
   14.6758   36.2306   34.9182 C   0  0  0  0  0  0  0  0  0  0  0  0
   13.8217   37.0451   35.5784 N   0  0  0  0  0  0  0  0  0  0  0  0
   16.1639   34.7602   33.1546 C   0  0  0  0  0  0  0  0  0  0  0  0
   15.6526   35.3506   35.4130 C   0  0  0  0  0  0  0  0  0  0  0  0
   16.3794   34.6316   34.5041 N   0  0  0  0  0  0  0  0  0  0  0  0
   15.9001   35.1933   36.8089 N   0  0  0  0  0  0  0  0  0  0  0  0
    9.0099   45.4348   33.6673 H   0  0  0  0  0  0  0  0  0  0  0  0
   11.1135   46.1991   34.4882 H   0  0  0  0  0  0  0  0  0  0  0  0
   11.9348   45.6932   33.0924 H   0  0  0  0  0  0  0  0  0  0  0  0
    9.3506   43.8344   31.4763 H   0  0  0  0  0  0  0  0  0  0  0  0
   10.7303   44.8921   31.1676 H   0  0  0  0  0  0  0  0  0  0  0  0
    7.0107   44.7160   31.5823 H   0  0  0  0  0  0  0  0  0  0  0  0
   10.3477   47.1881   30.4162 H   0  0  0  0  0  0  0  0  0  0  0  0
    5.4631   46.3049   30.5012 H   0  0  0  0  0  0  0  0  0  0  0  0
    8.8141   48.7655   29.3480 H   0  0  0  0  0  0  0  0  0  0  0  0
    6.9821   50.4020   29.2647 H   0  0  0  0  0  0  0  0  0  0  0  0
    7.1112   49.4605   27.7142 H   0  0  0  0  0  0  0  0  0  0  0  0
    3.7947   49.3704   29.3060 H   0  0  0  0  0  0  0  0  0  0  0  0
    4.2350   52.8183   25.7283 H   0  0  0  0  0  0  0  0  0  0  0  0
    0.1709   52.1866   28.1029 H   0  0  0  0  0  0  0  0  0  0  0  0
    0.0354   50.8758   26.8364 H   0  0  0  0  0  0  0  0  0  0  0  0
   11.3949   41.5458   31.4729 H   0  0  0  0  0  0  0  0  0  0  0  0
    9.8290   40.7386   31.7615 H   0  0  0  0  0  0  0  0  0  0  0  0
   11.6993   39.5070   30.3483 H   0  0  0  0  0  0  0  0  0  0  0  0
   10.1091   38.2634   32.6632 H   0  0  0  0  0  0  0  0  0  0  0  0
   13.6662   37.4514   31.2224 H   0  0  0  0  0  0  0  0  0  0  0  0
    8.9009   38.6924   30.8793 H   0  0  0  0  0  0  0  0  0  0  0  0
   11.2650   36.3082   32.5086 H   0  0  0  0  0  0  0  0  0  0  0  0
   12.1372   35.5140   30.6162 H   0  0  0  0  0  0  0  0  0  0  0  0
   12.3297   38.3530   34.7449 H   0  0  0  0  0  0  0  0  0  0  0  0
   16.7558   34.1781   32.4618 H   0  0  0  0  0  0  0  0  0  0  0  0
   16.6346   34.5300   37.1414 H   0  0  0  0  0  0  0  0  0  0  0  0
   15.3533   35.7360   37.5138 H   0  0  0  0  0  0  0  0  0  0  0  0
  1  2  2  0
  1  3  1  0
  3  4  1  0
  4  5  1  0
  6  1  1  0
  7  6  1  0
  6  8  1  0
  8  9  1  0
  9 10  2  0
 11  9  1  0
 10 12  1  0
 13 11  2  0
 12 14  2  0
 14 13  1  0
 14 15  1  0
 15 16  1  0
 16 17  1  0
 17 18  2  0
 19 17  1  0
 18 20  1  0
 21 19  2  0
 19 22  1  0
 20 23  1  0
 20 24  2  0
 24 21  1  0
 22 25  1  0
 22 26  2  0
 23 27  1  0
 24 28  1  0
 27 28  1  0
  4 29  2  0
  4 30  1  0
 31 30  1  0
 31 32  1  0
 32 33  1  0
 32 34  1  0
 33 35  1  0
 34 36  1  0
 34 37  1  0
 37 35  1  0
 35 38  1  0
 37 39  1  0
 40 38  1  0
 41 38  1  0
 42 40  2  0
 40 43  1  0
 44 41  2  0
 45 42  1  0
 43 46  2  0
 43 44  1  0
 47 45  2  0
 47 46  1  0
 46 48  1  0
  6 49  1  1
  7 50  1  0
  7 51  1  0
  8 52  1  0
  8 53  1  0
 10 54  1  0
 11 55  1  0
 12 56  1  0
 13 57  1  0
 16 58  1  0
 16 59  1  0
 18 60  1  0
 21 61  1  0
 27 62  1  0
 27 63  1  0
 31 64  1  0
 31 65  1  0
 32 66  1  0
 34 67  1  0
 35 68  1  0
 36 69  1  0
 37 70  1  0
 39 71  1  0
 41 72  1  0
 45 73  1  0
 48 74  1  0
 48 75  1  0
M  CHG  3   5  -1  22   1  25  -1
M  END
>  <EmbedRMS>  (190) 
0.0837200067886

$$$$

     RDKit          3D

 75 80  0  0  0  0  0  0  0  0999 V2000
   10.2805   43.7664   33.8250 C   0  0  0  0  0  0  0  0  0  0  0  0
   11.4111   43.5919   34.3668 O   0  0  0  0  0  0  0  0  0  0  0  0
    9.3622   42.7247   33.7343 O   0  0  0  0  0  0  0  0  0  0  0  0
    9.8904   41.2264   34.2936 P   0  0  0  0  0  0  0  0  0  0  0  0
   10.3732   41.4564   35.8832 O   0  0  0  0  0  0  0  0  0  0  0  0
    9.9458   45.0736   33.2113 C   0  0  1  0  0  0  0  0  0  0  0  0
   11.0265   46.0293   33.4706 N   0  0  0  0  0  0  0  0  0  0  0  0
    9.7534   44.8539   31.6951 C   0  0  0  0  0  0  0  0  0  0  0  0
    8.7954   45.8412   31.0851 C   0  0  0  0  0  0  0  0  0  0  0  0
    7.4087   45.6001   31.1000 C   0  0  0  0  0  0  0  0  0  0  0  0
    9.2830   46.9873   30.4394 C   0  0  0  0  0  0  0  0  0  0  0  0
    6.5283   46.5004   30.4841 C   0  0  0  0  0  0  0  0  0  0  0  0
    8.4025   47.8883   29.8293 C   0  0  0  0  0  0  0  0  0  0  0  0
    7.0136   47.6527   29.8507 C   0  0  0  0  0  0  0  0  0  0  0  0
    6.0864   48.5266   29.2609 O   0  0  0  0  0  0  0  0  0  0  0  0
    6.3911   49.8142   28.7230 C   0  0  0  0  0  0  0  0  0  0  0  0
    6.7859   50.7786   29.8177 C   0  0  0  0  0  0  0  0  0  0  0  0
    8.0117   51.4737   29.6915 C   0  0  0  0  0  0  0  0  0  0  0  0
    5.9807   50.9732   30.9892 C   0  0  0  0  0  0  0  0  0  0  0  0
    8.4100   52.3075   30.7279 C   0  0  0  0  0  0  0  0  0  0  0  0
    6.4461   51.8266   32.0174 C   0  0  0  0  0  0  0  0  0  0  0  0
    4.7139   50.3113   31.1559 N   0  0  0  0  0  0  0  0  0  0  0  0
    9.5592   53.0682   30.8249 O   0  0  0  0  0  0  0  0  0  0  0  0
    7.6623   52.4738   31.8429 C   0  0  0  0  0  0  0  0  0  0  0  0
    3.8498   50.1718   30.0951 O   0  0  0  0  0  0  0  0  0  0  0  0
    4.3150   50.0035   32.2982 O   0  0  0  0  0  0  0  0  0  0  0  0
    9.5291   53.7565   32.0828 C   0  0  0  0  0  0  0  0  0  0  0  0
    8.3008   53.3487   32.7006 O   0  0  0  0  0  0  0  0  0  0  0  0
    8.8129   40.1841   34.2124 O   0  0  0  0  0  0  0  0  0  0  0  0
   11.2419   40.7944   33.3695 O   0  0  0  0  0  0  0  0  0  0  0  0
   10.9186   40.6911   31.9969 C   0  0  0  0  0  0  0  0  0  0  0  0
   11.5172   39.3814   31.4407 C   0  0  0  0  0  0  0  0  0  0  0  0
   12.7492   39.0856   32.0729 O   0  0  0  0  0  0  0  0  0  0  0  0
   10.6023   38.1908   31.6665 C   0  0  0  0  0  0  0  0  0  0  0  0
   12.9319   37.6781   32.0281 C   0  0  0  0  0  0  0  0  0  0  0  0
    9.6392   38.0797   30.6452 O   0  0  0  0  0  0  0  0  0  0  0  0
   11.5715   37.0165   31.7056 C   0  0  0  0  0  0  0  0  0  0  0  0
   13.4846   37.2121   33.3235 N   0  0  0  0  0  0  0  0  0  0  0  0
   11.6187   36.3383   30.4695 O   0  0  0  0  0  0  0  0  0  0  0  0
   14.4801   36.3321   33.5724 C   0  0  0  0  0  0  0  0  0  0  0  0
   13.1137   37.6275   34.5688 C   0  0  0  0  0  0  0  0  0  0  0  0
   15.2073   35.6153   32.6738 N   0  0  0  0  0  0  0  0  0  0  0  0
   14.6759   36.2308   34.9179 C   0  0  0  0  0  0  0  0  0  0  0  0
   13.8216   37.0452   35.5781 N   0  0  0  0  0  0  0  0  0  0  0  0
   16.1640   34.7602   33.1546 C   0  0  0  0  0  0  0  0  0  0  0  0
   15.6526   35.3508   35.4129 C   0  0  0  0  0  0  0  0  0  0  0  0
   16.3794   34.6317   34.5041 N   0  0  0  0  0  0  0  0  0  0  0  0
   15.8999   35.1935   36.8088 N   0  0  0  0  0  0  0  0  0  0  0  0
    8.9995   45.4381   33.6725 H   0  0  0  0  0  0  0  0  0  0  0  0
   10.7761   46.9369   33.0156 H   0  0  0  0  0  0  0  0  0  0  0  0
   11.0503   46.2279   34.4980 H   0  0  0  0  0  0  0  0  0  0  0  0
    9.3634   43.8353   31.4717 H   0  0  0  0  0  0  0  0  0  0  0  0
   10.7405   44.9069   31.1836 H   0  0  0  0  0  0  0  0  0  0  0  0
    7.0130   44.7156   31.5839 H   0  0  0  0  0  0  0  0  0  0  0  0
   10.3474   47.1844   30.4036 H   0  0  0  0  0  0  0  0  0  0  0  0
    5.4637   46.3044   30.5051 H   0  0  0  0  0  0  0  0  0  0  0  0
    8.8154   48.7556   29.3358 H   0  0  0  0  0  0  0  0  0  0  0  0
    5.4939   50.2080   28.2036 H   0  0  0  0  0  0  0  0  0  0  0  0
    7.1800   49.7174   27.9458 H   0  0  0  0  0  0  0  0  0  0  0  0
    8.6441   51.3564   28.8206 H   0  0  0  0  0  0  0  0  0  0  0  0
    5.8692   51.9929   32.9180 H   0  0  0  0  0  0  0  0  0  0  0  0
    9.5300   54.8546   31.9198 H   0  0  0  0  0  0  0  0  0  0  0  0
   10.3931   53.4500   32.7089 H   0  0  0  0  0  0  0  0  0  0  0  0
    9.8298   40.7409   31.7611 H   0  0  0  0  0  0  0  0  0  0  0  0
   11.3967   41.5459   31.4726 H   0  0  0  0  0  0  0  0  0  0  0  0
   11.6975   39.5066   30.3481 H   0  0  0  0  0  0  0  0  0  0  0  0
   10.1077   38.2648   32.6645 H   0  0  0  0  0  0  0  0  0  0  0  0
   13.6621   37.4468   31.2209 H   0  0  0  0  0  0  0  0  0  0  0  0
    8.8974   38.6942   30.8832 H   0  0  0  0  0  0  0  0  0  0  0  0
   11.2806   36.3073   32.5170 H   0  0  0  0  0  0  0  0  0  0  0  0
   10.8493   35.7110   30.4586 H   0  0  0  0  0  0  0  0  0  0  0  0
   12.3290   38.3524   34.7444 H   0  0  0  0  0  0  0  0  0  0  0  0
   16.7559   34.1780   32.4619 H   0  0  0  0  0  0  0  0  0  0  0  0
   16.6344   34.5301   37.1414 H   0  0  0  0  0  0  0  0  0  0  0  0
   15.3532   35.7362   37.5137 H   0  0  0  0  0  0  0  0  0  0  0  0
  1  2  2  0
  1  3  1  0
  3  4  1  0
  4  5  1  0
  6  1  1  0
  7  6  1  0
  6  8  1  0
  8  9  1  0
  9 10  2  0
 11  9  1  0
 10 12  1  0
 13 11  2  0
 12 14  2  0
 14 13  1  0
 14 15  1  0
 15 16  1  0
 16 17  1  0
 17 18  2  0
 19 17  1  0
 18 20  1  0
 21 19  2  0
 19 22  1  0
 20 23  1  0
 20 24  2  0
 24 21  1  0
 22 25  1  0
 22 26  2  0
 23 27  1  0
 24 28  1  0
 27 28  1  0
  4 29  2  0
  4 30  1  0
 31 30  1  0
 31 32  1  0
 32 33  1  0
 32 34  1  0
 33 35  1  0
 34 36  1  0
 34 37  1  0
 37 35  1  0
 35 38  1  0
 37 39  1  0
 40 38  1  0
 41 38  1  0
 42 40  2  0
 40 43  1  0
 44 41  2  0
 45 42  1  0
 43 46  2  0
 43 44  1  0
 47 45  2  0
 47 46  1  0
 46 48  1  0
  6 49  1  1
  7 50  1  0
  7 51  1  0
  8 52  1  0
  8 53  1  0
 10 54  1  0
 11 55  1  0
 12 56  1  0
 13 57  1  0
 16 58  1  0
 16 59  1  0
 18 60  1  0
 21 61  1  0
 27 62  1  0
 27 63  1  0
 31 64  1  0
 31 65  1  0
 32 66  1  0
 34 67  1  0
 35 68  1  0
 36 69  1  0
 37 70  1  0
 39 71  1  0
 41 72  1  0
 45 73  1  0
 48 74  1  0
 48 75  1  0
M  CHG  3   5  -1  22   1  25  -1
M  END
>  <EmbedRMS>  (191) 
0.082770983324

$$$$

     RDKit          3D

 75 80  0  0  0  0  0  0  0  0999 V2000
   10.2830   43.7667   33.8261 C   0  0  0  0  0  0  0  0  0  0  0  0
   11.4100   43.5941   34.3755 O   0  0  0  0  0  0  0  0  0  0  0  0
    9.3636   42.7259   33.7359 O   0  0  0  0  0  0  0  0  0  0  0  0
    9.8909   41.2271   34.2946 P   0  0  0  0  0  0  0  0  0  0  0  0
   10.3737   41.4568   35.8842 O   0  0  0  0  0  0  0  0  0  0  0  0
    9.9535   45.0692   33.2028 C   0  0  1  0  0  0  0  0  0  0  0  0
   11.0268   46.0319   33.4732 N   0  0  0  0  0  0  0  0  0  0  0  0
    9.7446   44.8451   31.6876 C   0  0  0  0  0  0  0  0  0  0  0  0
    8.7914   45.8381   31.0830 C   0  0  0  0  0  0  0  0  0  0  0  0
    7.4041   45.5976   31.0910 C   0  0  0  0  0  0  0  0  0  0  0  0
    9.2837   46.9845   30.4424 C   0  0  0  0  0  0  0  0  0  0  0  0
    6.5267   46.5013   30.4750 C   0  0  0  0  0  0  0  0  0  0  0  0
    8.4065   47.8904   29.8370 C   0  0  0  0  0  0  0  0  0  0  0  0
    7.0164   47.6621   29.8598 C   0  0  0  0  0  0  0  0  0  0  0  0
    6.0973   48.5688   29.3065 O   0  0  0  0  0  0  0  0  0  0  0  0
    6.3867   49.9377   29.0143 C   0  0  0  0  0  0  0  0  0  0  0  0
    6.6955   50.6874   30.2924 C   0  0  0  0  0  0  0  0  0  0  0  0
    5.7572   50.6010   31.3481 C   0  0  0  0  0  0  0  0  0  0  0  0
    7.9279   51.3897   30.5018 C   0  0  0  0  0  0  0  0  0  0  0  0
    6.0927   51.1524   32.5781 C   0  0  0  0  0  0  0  0  0  0  0  0
    8.2213   51.9191   31.7795 C   0  0  0  0  0  0  0  0  0  0  0  0
    8.8829   51.5729   29.4460 N   0  0  0  0  0  0  0  0  0  0  0  0
    5.3568   51.1541   33.7469 O   0  0  0  0  0  0  0  0  0  0  0  0
    7.2771   51.7743   32.7885 C   0  0  0  0  0  0  0  0  0  0  0  0
   10.2286   51.5065   29.7247 O   0  0  0  0  0  0  0  0  0  0  0  0
    8.5164   52.0261   28.3417 O   0  0  0  0  0  0  0  0  0  0  0  0
    6.1322   51.8167   34.7562 C   0  0  0  0  0  0  0  0  0  0  0  0
    7.3504   52.1986   34.1016 O   0  0  0  0  0  0  0  0  0  0  0  0
    8.8126   40.1856   34.2136 O   0  0  0  0  0  0  0  0  0  0  0  0
   11.2417   40.7945   33.3697 O   0  0  0  0  0  0  0  0  0  0  0  0
   10.9176   40.6900   31.9972 C   0  0  0  0  0  0  0  0  0  0  0  0
   11.5177   39.3808   31.4409 C   0  0  0  0  0  0  0  0  0  0  0  0
   12.7494   39.0865   32.0744 O   0  0  0  0  0  0  0  0  0  0  0  0
   10.6043   38.1886   31.6653 C   0  0  0  0  0  0  0  0  0  0  0  0
   12.9339   37.6797   32.0289 C   0  0  0  0  0  0  0  0  0  0  0  0
    9.6417   38.0756   30.6439 O   0  0  0  0  0  0  0  0  0  0  0  0
   11.5737   37.0165   31.7044 C   0  0  0  0  0  0  0  0  0  0  0  0
   13.4843   37.2122   33.3242 N   0  0  0  0  0  0  0  0  0  0  0  0
   11.6073   36.3393   30.4683 O   0  0  0  0  0  0  0  0  0  0  0  0
   14.4797   36.3320   33.5727 C   0  0  0  0  0  0  0  0  0  0  0  0
   13.1142   37.6285   34.5696 C   0  0  0  0  0  0  0  0  0  0  0  0
   15.2074   35.6160   32.6738 N   0  0  0  0  0  0  0  0  0  0  0  0
   14.6764   36.2313   34.9181 C   0  0  0  0  0  0  0  0  0  0  0  0
   13.8228   37.0463   35.5784 N   0  0  0  0  0  0  0  0  0  0  0  0
   16.1644   34.7610   33.1542 C   0  0  0  0  0  0  0  0  0  0  0  0
   15.6533   35.3512   35.4128 C   0  0  0  0  0  0  0  0  0  0  0  0
   16.3796   34.6317   34.5038 N   0  0  0  0  0  0  0  0  0  0  0  0
   15.9006   35.1939   36.8087 N   0  0  0  0  0  0  0  0  0  0  0  0
    9.0100   45.4315   33.6694 H   0  0  0  0  0  0  0  0  0  0  0  0
   11.8894   45.7655   32.9433 H   0  0  0  0  0  0  0  0  0  0  0  0
   10.7255   46.9691   33.1204 H   0  0  0  0  0  0  0  0  0  0  0  0
   10.7211   44.8733   31.1556 H   0  0  0  0  0  0  0  0  0  0  0  0
    9.3365   43.8306   31.4791 H   0  0  0  0  0  0  0  0  0  0  0  0
    7.0050   44.7131   31.5727 H   0  0  0  0  0  0  0  0  0  0  0  0
   10.3490   47.1777   30.4077 H   0  0  0  0  0  0  0  0  0  0  0  0
    5.4613   46.3105   30.4975 H   0  0  0  0  0  0  0  0  0  0  0  0
    8.8228   48.7599   29.3507 H   0  0  0  0  0  0  0  0  0  0  0  0
    5.4899   50.3947   28.5464 H   0  0  0  0  0  0  0  0  0  0  0  0
    7.2004   49.9840   28.2655 H   0  0  0  0  0  0  0  0  0  0  0  0
    4.8147   50.0818   31.2232 H   0  0  0  0  0  0  0  0  0  0  0  0
    9.1512   52.4395   31.9739 H   0  0  0  0  0  0  0  0  0  0  0  0
    6.3483   51.1187   35.5922 H   0  0  0  0  0  0  0  0  0  0  0  0
    5.5980   52.7171   35.1238 H   0  0  0  0  0  0  0  0  0  0  0  0
   11.3940   41.5451   31.4721 H   0  0  0  0  0  0  0  0  0  0  0  0
    9.8290   40.7393   31.7614 H   0  0  0  0  0  0  0  0  0  0  0  0
   11.6988   39.5062   30.3484 H   0  0  0  0  0  0  0  0  0  0  0  0
   10.1087   38.2630   32.6629 H   0  0  0  0  0  0  0  0  0  0  0  0
   13.6653   37.4515   31.2218 H   0  0  0  0  0  0  0  0  0  0  0  0
    8.9005   38.6917   30.8799 H   0  0  0  0  0  0  0  0  0  0  0  0
   11.2644   36.3090   32.5092 H   0  0  0  0  0  0  0  0  0  0  0  0
   12.1370   35.5129   30.6170 H   0  0  0  0  0  0  0  0  0  0  0  0
   12.3288   38.3527   34.7464 H   0  0  0  0  0  0  0  0  0  0  0  0
   16.7550   34.1783   32.4607 H   0  0  0  0  0  0  0  0  0  0  0  0
   16.6348   34.5300   37.1409 H   0  0  0  0  0  0  0  0  0  0  0  0
   15.3531   35.7366   37.5133 H   0  0  0  0  0  0  0  0  0  0  0  0
  1  2  2  0
  1  3  1  0
  3  4  1  0
  4  5  1  0
  6  1  1  0
  7  6  1  0
  6  8  1  0
  8  9  1  0
  9 10  2  0
 11  9  1  0
 10 12  1  0
 13 11  2  0
 12 14  2  0
 14 13  1  0
 14 15  1  0
 15 16  1  0
 16 17  1  0
 17 18  2  0
 19 17  1  0
 18 20  1  0
 21 19  2  0
 19 22  1  0
 20 23  1  0
 20 24  2  0
 24 21  1  0
 22 25  1  0
 22 26  2  0
 23 27  1  0
 24 28  1  0
 27 28  1  0
  4 29  2  0
  4 30  1  0
 31 30  1  0
 31 32  1  0
 32 33  1  0
 32 34  1  0
 33 35  1  0
 34 36  1  0
 34 37  1  0
 37 35  1  0
 35 38  1  0
 37 39  1  0
 40 38  1  0
 41 38  1  0
 42 40  2  0
 40 43  1  0
 44 41  2  0
 45 42  1  0
 43 46  2  0
 43 44  1  0
 47 45  2  0
 47 46  1  0
 46 48  1  0
  6 49  1  1
  7 50  1  0
  7 51  1  0
  8 52  1  0
  8 53  1  0
 10 54  1  0
 11 55  1  0
 12 56  1  0
 13 57  1  0
 16 58  1  0
 16 59  1  0
 18 60  1  0
 21 61  1  0
 27 62  1  0
 27 63  1  0
 31 64  1  0
 31 65  1  0
 32 66  1  0
 34 67  1  0
 35 68  1  0
 36 69  1  0
 37 70  1  0
 39 71  1  0
 41 72  1  0
 45 73  1  0
 48 74  1  0
 48 75  1  0
M  CHG  3   5  -1  22   1  25  -1
M  END
>  <EmbedRMS>  (192) 
0.0828315660277

$$$$

     RDKit          3D

 75 80  0  0  0  0  0  0  0  0999 V2000
   10.2803   43.7665   33.8250 C   0  0  0  0  0  0  0  0  0  0  0  0
   11.4110   43.5919   34.3666 O   0  0  0  0  0  0  0  0  0  0  0  0
    9.3616   42.7252   33.7348 O   0  0  0  0  0  0  0  0  0  0  0  0
    9.8898   41.2268   34.2939 P   0  0  0  0  0  0  0  0  0  0  0  0
   10.3738   41.4565   35.8831 O   0  0  0  0  0  0  0  0  0  0  0  0
    9.9460   45.0737   33.2112 C   0  0  1  0  0  0  0  0  0  0  0  0
   11.0267   46.0292   33.4708 N   0  0  0  0  0  0  0  0  0  0  0  0
    9.7540   44.8542   31.6949 C   0  0  0  0  0  0  0  0  0  0  0  0
    8.7956   45.8412   31.0848 C   0  0  0  0  0  0  0  0  0  0  0  0
    7.4087   45.5999   31.1012 C   0  0  0  0  0  0  0  0  0  0  0  0
    9.2824   46.9881   30.4396 C   0  0  0  0  0  0  0  0  0  0  0  0
    6.5256   46.4989   30.4865 C   0  0  0  0  0  0  0  0  0  0  0  0
    8.3998   47.8877   29.8308 C   0  0  0  0  0  0  0  0  0  0  0  0
    7.0186   47.6543   29.8464 C   0  0  0  0  0  0  0  0  0  0  0  0
    6.1778   48.5856   29.2198 O   0  0  0  0  0  0  0  0  0  0  0  0
    4.7566   48.4789   29.1605 C   0  0  0  0  0  0  0  0  0  0  0  0
    4.1876   49.6852   28.4545 C   0  0  0  0  0  0  0  0  0  0  0  0
    4.6100   50.9660   28.8825 C   0  0  0  0  0  0  0  0  0  0  0  0
    3.2692   49.5770   27.3582 C   0  0  0  0  0  0  0  0  0  0  0  0
    4.1548   52.0798   28.1887 C   0  0  0  0  0  0  0  0  0  0  0  0
    2.8544   50.7447   26.6786 C   0  0  0  0  0  0  0  0  0  0  0  0
    2.7278   48.3131   26.9460 N   0  0  0  0  0  0  0  0  0  0  0  0
    4.4439   53.4115   28.4167 O   0  0  0  0  0  0  0  0  0  0  0  0
    3.3195   51.9734   27.1294 C   0  0  0  0  0  0  0  0  0  0  0  0
    2.4945   48.0736   25.6115 O   0  0  0  0  0  0  0  0  0  0  0  0
    2.2329   47.5397   27.7917 O   0  0  0  0  0  0  0  0  0  0  0  0
    3.7436   54.1902   27.4367 C   0  0  0  0  0  0  0  0  0  0  0  0
    3.0379   53.2326   26.6354 O   0  0  0  0  0  0  0  0  0  0  0  0
    8.8122   40.1845   34.2134 O   0  0  0  0  0  0  0  0  0  0  0  0
   11.2400   40.7954   33.3680 O   0  0  0  0  0  0  0  0  0  0  0  0
   10.9124   40.6877   31.9967 C   0  0  0  0  0  0  0  0  0  0  0  0
   11.5169   39.3811   31.4420 C   0  0  0  0  0  0  0  0  0  0  0  0
   12.7500   39.0881   32.0760 O   0  0  0  0  0  0  0  0  0  0  0  0
   10.6043   38.1893   31.6659 C   0  0  0  0  0  0  0  0  0  0  0  0
   12.9395   37.6814   32.0280 C   0  0  0  0  0  0  0  0  0  0  0  0
    9.6353   38.0951   30.6499 O   0  0  0  0  0  0  0  0  0  0  0  0
   11.5804   37.0191   31.6934 C   0  0  0  0  0  0  0  0  0  0  0  0
   13.4851   37.2119   33.3244 N   0  0  0  0  0  0  0  0  0  0  0  0
   11.6118   36.3189   30.4673 O   0  0  0  0  0  0  0  0  0  0  0  0
   14.4801   36.3316   33.5732 C   0  0  0  0  0  0  0  0  0  0  0  0
   13.1139   37.6277   34.5692 C   0  0  0  0  0  0  0  0  0  0  0  0
   15.2076   35.6154   32.6744 N   0  0  0  0  0  0  0  0  0  0  0  0
   14.6756   36.2303   34.9186 C   0  0  0  0  0  0  0  0  0  0  0  0
   13.8215   37.0451   35.5786 N   0  0  0  0  0  0  0  0  0  0  0  0
   16.1642   34.7602   33.1551 C   0  0  0  0  0  0  0  0  0  0  0  0
   15.6526   35.3505   35.4134 C   0  0  0  0  0  0  0  0  0  0  0  0
   16.3796   34.6316   34.5045 N   0  0  0  0  0  0  0  0  0  0  0  0
   15.9001   35.1933   36.8093 N   0  0  0  0  0  0  0  0  0  0  0  0
    8.9996   45.4383   33.6721 H   0  0  0  0  0  0  0  0  0  0  0  0
   11.0503   46.2277   34.4982 H   0  0  0  0  0  0  0  0  0  0  0  0
   10.7766   46.9369   33.0159 H   0  0  0  0  0  0  0  0  0  0  0  0
    9.3646   43.8354   31.4711 H   0  0  0  0  0  0  0  0  0  0  0  0
   10.7411   44.9080   31.1835 H   0  0  0  0  0  0  0  0  0  0  0  0
    7.0146   44.7151   31.5859 H   0  0  0  0  0  0  0  0  0  0  0  0
   10.3463   47.1879   30.4054 H   0  0  0  0  0  0  0  0  0  0  0  0
    5.4659   46.2856   30.5159 H   0  0  0  0  0  0  0  0  0  0  0  0
    8.7916   48.7698   29.3402 H   0  0  0  0  0  0  0  0  0  0  0  0
    4.5018   47.5357   28.6388 H   0  0  0  0  0  0  0  0  0  0  0  0
    4.3433   48.4466   30.1916 H   0  0  0  0  0  0  0  0  0  0  0  0
    5.2894   51.0873   29.7171 H   0  0  0  0  0  0  0  0  0  0  0  0
    2.1663   50.6970   25.8444 H   0  0  0  0  0  0  0  0  0  0  0  0
    4.4639   54.7572   26.8105 H   0  0  0  0  0  0  0  0  0  0  0  0
    3.0265   54.8772   27.9330 H   0  0  0  0  0  0  0  0  0  0  0  0
   11.3807   41.5456   31.4683 H   0  0  0  0  0  0  0  0  0  0  0  0
    9.8215   40.7221   31.7644 H   0  0  0  0  0  0  0  0  0  0  0  0
   11.6986   39.5088   30.3499 H   0  0  0  0  0  0  0  0  0  0  0  0
   10.1109   38.2737   32.6630 H   0  0  0  0  0  0  0  0  0  0  0  0
   13.6783   37.4562   31.2271 H   0  0  0  0  0  0  0  0  0  0  0  0
    9.0020   37.3860   30.9348 H   0  0  0  0  0  0  0  0  0  0  0  0
   11.2808   36.3052   32.4921 H   0  0  0  0  0  0  0  0  0  0  0  0
   11.8819   36.9600   29.7584 H   0  0  0  0  0  0  0  0  0  0  0  0
   12.3303   38.3538   34.7446 H   0  0  0  0  0  0  0  0  0  0  0  0
   16.7563   34.1783   32.4623 H   0  0  0  0  0  0  0  0  0  0  0  0
   15.3532   35.7359   37.5142 H   0  0  0  0  0  0  0  0  0  0  0  0
   16.6348   34.5301   37.1418 H   0  0  0  0  0  0  0  0  0  0  0  0
  1  2  2  0
  1  3  1  0
  3  4  1  0
  4  5  1  0
  6  1  1  0
  7  6  1  0
  6  8  1  0
  8  9  1  0
  9 10  2  0
 11  9  1  0
 10 12  1  0
 13 11  2  0
 12 14  2  0
 14 13  1  0
 14 15  1  0
 15 16  1  0
 16 17  1  0
 17 18  2  0
 19 17  1  0
 18 20  1  0
 21 19  2  0
 19 22  1  0
 20 23  1  0
 20 24  2  0
 24 21  1  0
 22 25  1  0
 22 26  2  0
 23 27  1  0
 24 28  1  0
 27 28  1  0
  4 29  2  0
  4 30  1  0
 31 30  1  0
 31 32  1  0
 32 33  1  0
 32 34  1  0
 33 35  1  0
 34 36  1  0
 34 37  1  0
 37 35  1  0
 35 38  1  0
 37 39  1  0
 40 38  1  0
 41 38  1  0
 42 40  2  0
 40 43  1  0
 44 41  2  0
 45 42  1  0
 43 46  2  0
 43 44  1  0
 47 45  2  0
 47 46  1  0
 46 48  1  0
  6 49  1  1
  7 50  1  0
  7 51  1  0
  8 52  1  0
  8 53  1  0
 10 54  1  0
 11 55  1  0
 12 56  1  0
 13 57  1  0
 16 58  1  0
 16 59  1  0
 18 60  1  0
 21 61  1  0
 27 62  1  0
 27 63  1  0
 31 64  1  0
 31 65  1  0
 32 66  1  0
 34 67  1  0
 35 68  1  0
 36 69  1  0
 37 70  1  0
 39 71  1  0
 41 72  1  0
 45 73  1  0
 48 74  1  0
 48 75  1  0
M  CHG  3   5  -1  22   1  25  -1
M  END
>  <EmbedRMS>  (193) 
0.0813766048299

$$$$

     RDKit          3D

 75 80  0  0  0  0  0  0  0  0999 V2000
   10.2835   43.7662   33.8256 C   0  0  0  0  0  0  0  0  0  0  0  0
   11.4102   43.5930   34.3752 O   0  0  0  0  0  0  0  0  0  0  0  0
    9.3637   42.7255   33.7349 O   0  0  0  0  0  0  0  0  0  0  0  0
    9.8902   41.2267   34.2942 P   0  0  0  0  0  0  0  0  0  0  0  0
   10.3736   41.4561   35.8836 O   0  0  0  0  0  0  0  0  0  0  0  0
    9.9548   45.0695   33.2035 C   0  0  1  0  0  0  0  0  0  0  0  0
   11.0274   46.0322   33.4759 N   0  0  0  0  0  0  0  0  0  0  0  0
    9.7471   44.8484   31.6876 C   0  0  0  0  0  0  0  0  0  0  0  0
    8.7924   45.8409   31.0844 C   0  0  0  0  0  0  0  0  0  0  0  0
    7.4055   45.6009   31.0995 C   0  0  0  0  0  0  0  0  0  0  0  0
    9.2818   46.9881   30.4421 C   0  0  0  0  0  0  0  0  0  0  0  0
    6.5241   46.5011   30.4849 C   0  0  0  0  0  0  0  0  0  0  0  0
    8.4006   47.8885   29.8321 C   0  0  0  0  0  0  0  0  0  0  0  0
    7.0191   47.6560   29.8459 C   0  0  0  0  0  0  0  0  0  0  0  0
    6.1802   48.5886   29.2190 O   0  0  0  0  0  0  0  0  0  0  0  0
    4.7587   48.4912   29.1700 C   0  0  0  0  0  0  0  0  0  0  0  0
    4.1938   49.6955   28.4600 C   0  0  0  0  0  0  0  0  0  0  0  0
    3.4148   49.4863   27.2970 C   0  0  0  0  0  0  0  0  0  0  0  0
    4.4571   51.0367   28.9028 C   0  0  0  0  0  0  0  0  0  0  0  0
    2.9373   50.5950   26.6110 C   0  0  0  0  0  0  0  0  0  0  0  0
    3.9533   52.1251   28.1528 C   0  0  0  0  0  0  0  0  0  0  0  0
    5.2397   51.3153   30.0790 N   0  0  0  0  0  0  0  0  0  0  0  0
    2.1683   50.6296   25.4636 O   0  0  0  0  0  0  0  0  0  0  0  0
    3.1969   51.8581   27.0194 C   0  0  0  0  0  0  0  0  0  0  0  0
    5.9489   52.4911   30.1681 O   0  0  0  0  0  0  0  0  0  0  0  0
    5.1618   50.5865   31.0887 O   0  0  0  0  0  0  0  0  0  0  0  0
    1.9299   52.0044   25.1322 C   0  0  0  0  0  0  0  0  0  0  0  0
    2.6044   52.7550   26.1512 O   0  0  0  0  0  0  0  0  0  0  0  0
    8.8121   40.1850   34.2131 O   0  0  0  0  0  0  0  0  0  0  0  0
   11.2404   40.7941   33.3690 O   0  0  0  0  0  0  0  0  0  0  0  0
   10.9143   40.6898   31.9972 C   0  0  0  0  0  0  0  0  0  0  0  0
   11.5261   39.3885   31.4376 C   0  0  0  0  0  0  0  0  0  0  0  0
   12.7504   39.0888   32.0816 O   0  0  0  0  0  0  0  0  0  0  0  0
   10.6115   38.1910   31.6460 C   0  0  0  0  0  0  0  0  0  0  0  0
   12.9357   37.6812   32.0303 C   0  0  0  0  0  0  0  0  0  0  0  0
    9.6145   38.0859   30.6534 O   0  0  0  0  0  0  0  0  0  0  0  0
   11.5769   37.0148   31.7012 C   0  0  0  0  0  0  0  0  0  0  0  0
   13.4849   37.2112   33.3247 N   0  0  0  0  0  0  0  0  0  0  0  0
   11.6193   36.3261   30.4724 O   0  0  0  0  0  0  0  0  0  0  0  0
   14.4802   36.3313   33.5730 C   0  0  0  0  0  0  0  0  0  0  0  0
   13.1141   37.6268   34.5698 C   0  0  0  0  0  0  0  0  0  0  0  0
   15.2075   35.6151   32.6740 N   0  0  0  0  0  0  0  0  0  0  0  0
   14.6761   36.2300   34.9184 C   0  0  0  0  0  0  0  0  0  0  0  0
   13.8220   37.0445   35.5789 N   0  0  0  0  0  0  0  0  0  0  0  0
   16.1642   34.7600   33.1547 C   0  0  0  0  0  0  0  0  0  0  0  0
   15.6529   35.3503   35.4131 C   0  0  0  0  0  0  0  0  0  0  0  0
   16.3797   34.6314   34.5042 N   0  0  0  0  0  0  0  0  0  0  0  0
   15.9004   35.1930   36.8090 N   0  0  0  0  0  0  0  0  0  0  0  0
    9.0121   45.4317   33.6713 H   0  0  0  0  0  0  0  0  0  0  0  0
   10.7261   46.9688   33.1215 H   0  0  0  0  0  0  0  0  0  0  0  0
   11.8908   45.7659   32.9476 H   0  0  0  0  0  0  0  0  0  0  0  0
   10.7235   44.8825   31.1557 H   0  0  0  0  0  0  0  0  0  0  0  0
    9.3425   43.8331   31.4758 H   0  0  0  0  0  0  0  0  0  0  0  0
    7.0099   44.7156   31.5820 H   0  0  0  0  0  0  0  0  0  0  0  0
   10.3460   47.1865   30.4106 H   0  0  0  0  0  0  0  0  0  0  0  0
    5.4644   46.2883   30.5122 H   0  0  0  0  0  0  0  0  0  0  0  0
    8.7935   48.7708   29.3429 H   0  0  0  0  0  0  0  0  0  0  0  0
    4.4798   47.5531   28.6420 H   0  0  0  0  0  0  0  0  0  0  0  0
    4.3378   48.4349   30.1957 H   0  0  0  0  0  0  0  0  0  0  0  0
    3.1950   48.4915   26.9305 H   0  0  0  0  0  0  0  0  0  0  0  0
    4.1333   53.1495   28.4522 H   0  0  0  0  0  0  0  0  0  0  0  0
    0.8414   52.2214   25.1535 H   0  0  0  0  0  0  0  0  0  0  0  0
    2.3594   52.2392   24.1357 H   0  0  0  0  0  0  0  0  0  0  0  0
    9.8233   40.7191   31.7646 H   0  0  0  0  0  0  0  0  0  0  0  0
   11.3779   41.5526   31.4727 H   0  0  0  0  0  0  0  0  0  0  0  0
   11.7283   39.5312   30.3515 H   0  0  0  0  0  0  0  0  0  0  0  0
   10.1127   38.2734   32.6376 H   0  0  0  0  0  0  0  0  0  0  0  0
   13.6692   37.4566   31.2242 H   0  0  0  0  0  0  0  0  0  0  0  0
   10.0533   38.1119   29.7636 H   0  0  0  0  0  0  0  0  0  0  0  0
   11.2607   36.3148   32.5102 H   0  0  0  0  0  0  0  0  0  0  0  0
   12.1496   35.5023   30.6324 H   0  0  0  0  0  0  0  0  0  0  0  0
   12.3301   38.3524   34.7455 H   0  0  0  0  0  0  0  0  0  0  0  0
   16.7562   34.1781   32.4619 H   0  0  0  0  0  0  0  0  0  0  0  0
   15.3536   35.7357   37.5139 H   0  0  0  0  0  0  0  0  0  0  0  0
   16.6351   34.5298   37.1415 H   0  0  0  0  0  0  0  0  0  0  0  0
  1  2  2  0
  1  3  1  0
  3  4  1  0
  4  5  1  0
  6  1  1  0
  7  6  1  0
  6  8  1  0
  8  9  1  0
  9 10  2  0
 11  9  1  0
 10 12  1  0
 13 11  2  0
 12 14  2  0
 14 13  1  0
 14 15  1  0
 15 16  1  0
 16 17  1  0
 17 18  2  0
 19 17  1  0
 18 20  1  0
 21 19  2  0
 19 22  1  0
 20 23  1  0
 20 24  2  0
 24 21  1  0
 22 25  1  0
 22 26  2  0
 23 27  1  0
 24 28  1  0
 27 28  1  0
  4 29  2  0
  4 30  1  0
 31 30  1  0
 31 32  1  0
 32 33  1  0
 32 34  1  0
 33 35  1  0
 34 36  1  0
 34 37  1  0
 37 35  1  0
 35 38  1  0
 37 39  1  0
 40 38  1  0
 41 38  1  0
 42 40  2  0
 40 43  1  0
 44 41  2  0
 45 42  1  0
 43 46  2  0
 43 44  1  0
 47 45  2  0
 47 46  1  0
 46 48  1  0
  6 49  1  1
  7 50  1  0
  7 51  1  0
  8 52  1  0
  8 53  1  0
 10 54  1  0
 11 55  1  0
 12 56  1  0
 13 57  1  0
 16 58  1  0
 16 59  1  0
 18 60  1  0
 21 61  1  0
 27 62  1  0
 27 63  1  0
 31 64  1  0
 31 65  1  0
 32 66  1  0
 34 67  1  0
 35 68  1  0
 36 69  1  0
 37 70  1  0
 39 71  1  0
 41 72  1  0
 45 73  1  0
 48 74  1  0
 48 75  1  0
M  CHG  3   5  -1  22   1  25  -1
M  END
>  <EmbedRMS>  (194) 
0.0816098483613

$$$$

     RDKit          3D

 75 80  0  0  0  0  0  0  0  0999 V2000
   10.2839   43.7626   33.8276 C   0  0  0  0  0  0  0  0  0  0  0  0
   11.4103   43.5863   34.3766 O   0  0  0  0  0  0  0  0  0  0  0  0
    9.3631   42.7236   33.7355 O   0  0  0  0  0  0  0  0  0  0  0  0
    9.8895   41.2250   34.2947 P   0  0  0  0  0  0  0  0  0  0  0  0
   10.3720   41.4547   35.8844 O   0  0  0  0  0  0  0  0  0  0  0  0
    9.9549   45.0699   33.2063 C   0  0  1  0  0  0  0  0  0  0  0  0
   11.0198   46.0481   33.4570 N   0  0  0  0  0  0  0  0  0  0  0  0
    9.7506   44.8510   31.6921 C   0  0  0  0  0  0  0  0  0  0  0  0
    8.7944   45.8417   31.0867 C   0  0  0  0  0  0  0  0  0  0  0  0
    7.4076   45.6006   31.1008 C   0  0  0  0  0  0  0  0  0  0  0  0
    9.2826   46.9895   30.4449 C   0  0  0  0  0  0  0  0  0  0  0  0
    6.5257   46.5002   30.4862 C   0  0  0  0  0  0  0  0  0  0  0  0
    8.4009   47.8886   29.8337 C   0  0  0  0  0  0  0  0  0  0  0  0
    7.0195   47.6544   29.8442 C   0  0  0  0  0  0  0  0  0  0  0  0
    6.1820   48.5856   29.2089 O   0  0  0  0  0  0  0  0  0  0  0  0
    4.7694   48.4457   29.0477 C   0  0  0  0  0  0  0  0  0  0  0  0
    4.4473   47.3408   28.0660 C   0  0  0  0  0  0  0  0  0  0  0  0
    5.1635   47.3022   26.8465 C   0  0  0  0  0  0  0  0  0  0  0  0
    3.4796   46.3208   28.3465 C   0  0  0  0  0  0  0  0  0  0  0  0
    4.9393   46.2400   25.9803 C   0  0  0  0  0  0  0  0  0  0  0  0
    3.3067   45.2545   27.4354 C   0  0  0  0  0  0  0  0  0  0  0  0
    2.6574   46.3615   29.5224 N   0  0  0  0  0  0  0  0  0  0  0  0
    5.5303   45.9894   24.7570 O   0  0  0  0  0  0  0  0  0  0  0  0
    4.0551   45.2560   26.2653 C   0  0  0  0  0  0  0  0  0  0  0  0
    2.3132   45.1898   30.1560 O   0  0  0  0  0  0  0  0  0  0  0  0
    2.0563   47.4114   29.8299 O   0  0  0  0  0  0  0  0  0  0  0  0
    4.9802   44.7693   24.2416 C   0  0  0  0  0  0  0  0  0  0  0  0
    4.0421   44.3348   25.2358 O   0  0  0  0  0  0  0  0  0  0  0  0
    8.8117   40.1832   34.2124 O   0  0  0  0  0  0  0  0  0  0  0  0
   11.2411   40.7939   33.3709 O   0  0  0  0  0  0  0  0  0  0  0  0
   10.9179   40.6920   31.9985 C   0  0  0  0  0  0  0  0  0  0  0  0
   11.5175   39.3837   31.4422 C   0  0  0  0  0  0  0  0  0  0  0  0
   12.7508   39.0887   32.0751 O   0  0  0  0  0  0  0  0  0  0  0  0
   10.6028   38.1916   31.6658 C   0  0  0  0  0  0  0  0  0  0  0  0
   12.9385   37.6818   32.0278 C   0  0  0  0  0  0  0  0  0  0  0  0
    9.6371   38.0805   30.6470 O   0  0  0  0  0  0  0  0  0  0  0  0
   11.5780   37.0215   31.6934 C   0  0  0  0  0  0  0  0  0  0  0  0
   13.4844   37.2119   33.3242 N   0  0  0  0  0  0  0  0  0  0  0  0
   11.6095   36.3201   30.4679 O   0  0  0  0  0  0  0  0  0  0  0  0
   14.4797   36.3318   33.5730 C   0  0  0  0  0  0  0  0  0  0  0  0
   13.1135   37.6278   34.5691 C   0  0  0  0  0  0  0  0  0  0  0  0
   15.2073   35.6155   32.6742 N   0  0  0  0  0  0  0  0  0  0  0  0
   14.6754   36.2305   34.9184 C   0  0  0  0  0  0  0  0  0  0  0  0
   13.8213   37.0452   35.5785 N   0  0  0  0  0  0  0  0  0  0  0  0
   16.1640   34.7604   33.1549 C   0  0  0  0  0  0  0  0  0  0  0  0
   15.6524   35.3507   35.4132 C   0  0  0  0  0  0  0  0  0  0  0  0
   16.3794   34.6318   34.5044 N   0  0  0  0  0  0  0  0  0  0  0  0
   15.8999   35.1934   36.8091 N   0  0  0  0  0  0  0  0  0  0  0  0
    9.0098   45.4348   33.6668 H   0  0  0  0  0  0  0  0  0  0  0  0
   11.9349   45.6934   33.0928 H   0  0  0  0  0  0  0  0  0  0  0  0
   11.1132   46.1992   34.4883 H   0  0  0  0  0  0  0  0  0  0  0  0
   10.7309   44.8930   31.1675 H   0  0  0  0  0  0  0  0  0  0  0  0
    9.3518   43.8344   31.4758 H   0  0  0  0  0  0  0  0  0  0  0  0
    7.0124   44.7158   31.5846 H   0  0  0  0  0  0  0  0  0  0  0  0
   10.3466   47.1897   30.4154 H   0  0  0  0  0  0  0  0  0  0  0  0
    5.4672   46.2878   30.5212 H   0  0  0  0  0  0  0  0  0  0  0  0
    8.7938   48.7702   29.3432 H   0  0  0  0  0  0  0  0  0  0  0  0
    4.3709   49.3978   28.6395 H   0  0  0  0  0  0  0  0  0  0  0  0
    4.3089   48.2946   30.0438 H   0  0  0  0  0  0  0  0  0  0  0  0
    5.8910   48.0634   26.5938 H   0  0  0  0  0  0  0  0  0  0  0  0
    2.5899   44.4649   27.6209 H   0  0  0  0  0  0  0  0  0  0  0  0
    5.7809   44.0111   24.1131 H   0  0  0  0  0  0  0  0  0  0  0  0
    4.4590   44.9590   23.2800 H   0  0  0  0  0  0  0  0  0  0  0  0
   11.3956   41.5477   31.4751 H   0  0  0  0  0  0  0  0  0  0  0  0
    9.8292   40.7410   31.7624 H   0  0  0  0  0  0  0  0  0  0  0  0
   11.6981   39.5116   30.3500 H   0  0  0  0  0  0  0  0  0  0  0  0
   10.1117   38.2603   32.6660 H   0  0  0  0  0  0  0  0  0  0  0  0
   13.6767   37.4555   31.2267 H   0  0  0  0  0  0  0  0  0  0  0  0
    8.8961   38.6952   30.8871 H   0  0  0  0  0  0  0  0  0  0  0  0
   11.2792   36.3072   32.4922 H   0  0  0  0  0  0  0  0  0  0  0  0
   11.8828   36.9598   29.7588 H   0  0  0  0  0  0  0  0  0  0  0  0
   12.3300   38.3539   34.7446 H   0  0  0  0  0  0  0  0  0  0  0  0
   16.7562   34.1785   32.4622 H   0  0  0  0  0  0  0  0  0  0  0  0
   15.3531   35.7360   37.5140 H   0  0  0  0  0  0  0  0  0  0  0  0
   16.6346   34.5303   37.1416 H   0  0  0  0  0  0  0  0  0  0  0  0
  1  2  2  0
  1  3  1  0
  3  4  1  0
  4  5  1  0
  6  1  1  0
  7  6  1  0
  6  8  1  0
  8  9  1  0
  9 10  2  0
 11  9  1  0
 10 12  1  0
 13 11  2  0
 12 14  2  0
 14 13  1  0
 14 15  1  0
 15 16  1  0
 16 17  1  0
 17 18  2  0
 19 17  1  0
 18 20  1  0
 21 19  2  0
 19 22  1  0
 20 23  1  0
 20 24  2  0
 24 21  1  0
 22 25  1  0
 22 26  2  0
 23 27  1  0
 24 28  1  0
 27 28  1  0
  4 29  2  0
  4 30  1  0
 31 30  1  0
 31 32  1  0
 32 33  1  0
 32 34  1  0
 33 35  1  0
 34 36  1  0
 34 37  1  0
 37 35  1  0
 35 38  1  0
 37 39  1  0
 40 38  1  0
 41 38  1  0
 42 40  2  0
 40 43  1  0
 44 41  2  0
 45 42  1  0
 43 46  2  0
 43 44  1  0
 47 45  2  0
 47 46  1  0
 46 48  1  0
  6 49  1  1
  7 50  1  0
  7 51  1  0
  8 52  1  0
  8 53  1  0
 10 54  1  0
 11 55  1  0
 12 56  1  0
 13 57  1  0
 16 58  1  0
 16 59  1  0
 18 60  1  0
 21 61  1  0
 27 62  1  0
 27 63  1  0
 31 64  1  0
 31 65  1  0
 32 66  1  0
 34 67  1  0
 35 68  1  0
 36 69  1  0
 37 70  1  0
 39 71  1  0
 41 72  1  0
 45 73  1  0
 48 74  1  0
 48 75  1  0
M  CHG  3   5  -1  22   1  25  -1
M  END
>  <EmbedRMS>  (195) 
0.0828723431029

$$$$

     RDKit          3D

 75 80  0  0  0  0  0  0  0  0999 V2000
   10.2839   43.7626   33.8276 C   0  0  0  0  0  0  0  0  0  0  0  0
   11.4103   43.5863   34.3766 O   0  0  0  0  0  0  0  0  0  0  0  0
    9.3630   42.7236   33.7354 O   0  0  0  0  0  0  0  0  0  0  0  0
    9.8893   41.2249   34.2943 P   0  0  0  0  0  0  0  0  0  0  0  0
   10.3727   41.4546   35.8837 O   0  0  0  0  0  0  0  0  0  0  0  0
    9.9549   45.0700   33.2064 C   0  0  1  0  0  0  0  0  0  0  0  0
   11.0199   46.0481   33.4571 N   0  0  0  0  0  0  0  0  0  0  0  0
    9.7505   44.8512   31.6923 C   0  0  0  0  0  0  0  0  0  0  0  0
    8.7943   45.8419   31.0869 C   0  0  0  0  0  0  0  0  0  0  0  0
    7.4074   45.6004   31.1005 C   0  0  0  0  0  0  0  0  0  0  0  0
    9.2827   46.9894   30.4445 C   0  0  0  0  0  0  0  0  0  0  0  0
    6.5254   46.4999   30.4852 C   0  0  0  0  0  0  0  0  0  0  0  0
    8.4011   47.8885   29.8330 C   0  0  0  0  0  0  0  0  0  0  0  0
    7.0197   47.6549   29.8459 C   0  0  0  0  0  0  0  0  0  0  0  0
    6.1807   48.5853   29.2160 O   0  0  0  0  0  0  0  0  0  0  0  0
    4.7622   48.4679   29.1344 C   0  0  0  0  0  0  0  0  0  0  0  0
    4.2041   49.6238   28.3431 C   0  0  0  0  0  0  0  0  0  0  0  0
    3.2626   50.4751   28.9692 C   0  0  0  0  0  0  0  0  0  0  0  0
    4.6292   49.9062   27.0000 C   0  0  0  0  0  0  0  0  0  0  0  0
    2.7864   51.5706   28.2614 C   0  0  0  0  0  0  0  0  0  0  0  0
    4.1169   51.0457   26.3366 C   0  0  0  0  0  0  0  0  0  0  0  0
    5.5815   49.0772   26.3076 N   0  0  0  0  0  0  0  0  0  0  0  0
    1.8760   52.5267   28.6689 O   0  0  0  0  0  0  0  0  0  0  0  0
    3.1969   51.8450   27.0022 C   0  0  0  0  0  0  0  0  0  0  0  0
    6.3865   49.6236   25.3346 O   0  0  0  0  0  0  0  0  0  0  0  0
    5.5822   47.8386   26.4576 O   0  0  0  0  0  0  0  0  0  0  0  0
    1.7044   53.4605   27.5941 C   0  0  0  0  0  0  0  0  0  0  0  0
    2.5662   52.9880   26.5497 O   0  0  0  0  0  0  0  0  0  0  0  0
    8.8113   40.1834   34.2130 O   0  0  0  0  0  0  0  0  0  0  0  0
   11.2399   40.7932   33.3693 O   0  0  0  0  0  0  0  0  0  0  0  0
   10.9143   40.6896   31.9973 C   0  0  0  0  0  0  0  0  0  0  0  0
   11.5261   39.3884   31.4375 C   0  0  0  0  0  0  0  0  0  0  0  0
   12.7505   39.0887   32.0815 O   0  0  0  0  0  0  0  0  0  0  0  0
   10.6115   38.1909   31.6460 C   0  0  0  0  0  0  0  0  0  0  0  0
   12.9357   37.6812   32.0303 C   0  0  0  0  0  0  0  0  0  0  0  0
    9.6145   38.0858   30.6533 O   0  0  0  0  0  0  0  0  0  0  0  0
   11.5770   37.0148   31.7012 C   0  0  0  0  0  0  0  0  0  0  0  0
   13.4849   37.2112   33.3247 N   0  0  0  0  0  0  0  0  0  0  0  0
   11.6193   36.3260   30.4724 O   0  0  0  0  0  0  0  0  0  0  0  0
   14.4802   36.3313   33.5730 C   0  0  0  0  0  0  0  0  0  0  0  0
   13.1141   37.6268   34.5697 C   0  0  0  0  0  0  0  0  0  0  0  0
   15.2075   35.6151   32.6741 N   0  0  0  0  0  0  0  0  0  0  0  0
   14.6761   36.2300   34.9184 C   0  0  0  0  0  0  0  0  0  0  0  0
   13.8220   37.0445   35.5789 N   0  0  0  0  0  0  0  0  0  0  0  0
   16.1642   34.7600   33.1547 C   0  0  0  0  0  0  0  0  0  0  0  0
   15.6529   35.3503   35.4131 C   0  0  0  0  0  0  0  0  0  0  0  0
   16.3798   34.6314   34.5042 N   0  0  0  0  0  0  0  0  0  0  0  0
   15.9004   35.1930   36.8090 N   0  0  0  0  0  0  0  0  0  0  0  0
    9.0099   45.4349   33.6670 H   0  0  0  0  0  0  0  0  0  0  0  0
   11.1133   46.1992   34.4884 H   0  0  0  0  0  0  0  0  0  0  0  0
   11.9349   45.6933   33.0928 H   0  0  0  0  0  0  0  0  0  0  0  0
   10.7309   44.8932   31.1675 H   0  0  0  0  0  0  0  0  0  0  0  0
    9.3518   43.8345   31.4758 H   0  0  0  0  0  0  0  0  0  0  0  0
    7.0123   44.7150   31.5832 H   0  0  0  0  0  0  0  0  0  0  0  0
   10.3467   47.1895   30.4148 H   0  0  0  0  0  0  0  0  0  0  0  0
    5.4657   46.2870   30.5133 H   0  0  0  0  0  0  0  0  0  0  0  0
    8.7937   48.7704   29.3428 H   0  0  0  0  0  0  0  0  0  0  0  0
    4.3421   48.4531   30.1640 H   0  0  0  0  0  0  0  0  0  0  0  0
    4.4791   47.5129   28.6444 H   0  0  0  0  0  0  0  0  0  0  0  0
    2.9180   50.2968   29.9800 H   0  0  0  0  0  0  0  0  0  0  0  0
    4.4154   51.2935   25.3263 H   0  0  0  0  0  0  0  0  0  0  0  0
    0.6490   53.4601   27.2496 H   0  0  0  0  0  0  0  0  0  0  0  0
    2.0138   54.4771   27.9155 H   0  0  0  0  0  0  0  0  0  0  0  0
   11.3782   41.5525   31.4733 H   0  0  0  0  0  0  0  0  0  0  0  0
    9.8234   40.7191   31.7644 H   0  0  0  0  0  0  0  0  0  0  0  0
   11.7282   39.5312   30.3515 H   0  0  0  0  0  0  0  0  0  0  0  0
   10.1127   38.2733   32.6376 H   0  0  0  0  0  0  0  0  0  0  0  0
   13.6693   37.4565   31.2242 H   0  0  0  0  0  0  0  0  0  0  0  0
   10.0533   38.1117   29.7635 H   0  0  0  0  0  0  0  0  0  0  0  0
   11.2607   36.3147   32.5101 H   0  0  0  0  0  0  0  0  0  0  0  0
   12.1496   35.5022   30.6323 H   0  0  0  0  0  0  0  0  0  0  0  0
   12.3301   38.3524   34.7455 H   0  0  0  0  0  0  0  0  0  0  0  0
   16.7562   34.1780   32.4619 H   0  0  0  0  0  0  0  0  0  0  0  0
   15.3536   35.7357   37.5140 H   0  0  0  0  0  0  0  0  0  0  0  0
   16.6351   34.5298   37.1415 H   0  0  0  0  0  0  0  0  0  0  0  0
  1  2  2  0
  1  3  1  0
  3  4  1  0
  4  5  1  0
  6  1  1  0
  7  6  1  0
  6  8  1  0
  8  9  1  0
  9 10  2  0
 11  9  1  0
 10 12  1  0
 13 11  2  0
 12 14  2  0
 14 13  1  0
 14 15  1  0
 15 16  1  0
 16 17  1  0
 17 18  2  0
 19 17  1  0
 18 20  1  0
 21 19  2  0
 19 22  1  0
 20 23  1  0
 20 24  2  0
 24 21  1  0
 22 25  1  0
 22 26  2  0
 23 27  1  0
 24 28  1  0
 27 28  1  0
  4 29  2  0
  4 30  1  0
 31 30  1  0
 31 32  1  0
 32 33  1  0
 32 34  1  0
 33 35  1  0
 34 36  1  0
 34 37  1  0
 37 35  1  0
 35 38  1  0
 37 39  1  0
 40 38  1  0
 41 38  1  0
 42 40  2  0
 40 43  1  0
 44 41  2  0
 45 42  1  0
 43 46  2  0
 43 44  1  0
 47 45  2  0
 47 46  1  0
 46 48  1  0
  6 49  1  1
  7 50  1  0
  7 51  1  0
  8 52  1  0
  8 53  1  0
 10 54  1  0
 11 55  1  0
 12 56  1  0
 13 57  1  0
 16 58  1  0
 16 59  1  0
 18 60  1  0
 21 61  1  0
 27 62  1  0
 27 63  1  0
 31 64  1  0
 31 65  1  0
 32 66  1  0
 34 67  1  0
 35 68  1  0
 36 69  1  0
 37 70  1  0
 39 71  1  0
 41 72  1  0
 45 73  1  0
 48 74  1  0
 48 75  1  0
M  CHG  3   5  -1  22   1  25  -1
M  END
>  <EmbedRMS>  (196) 
0.0825118390345

$$$$

     RDKit          3D

 75 80  0  0  0  0  0  0  0  0999 V2000
   10.2835   43.7662   33.8256 C   0  0  0  0  0  0  0  0  0  0  0  0
   11.4102   43.5930   34.3753 O   0  0  0  0  0  0  0  0  0  0  0  0
    9.3638   42.7255   33.7350 O   0  0  0  0  0  0  0  0  0  0  0  0
    9.8903   41.2268   34.2946 P   0  0  0  0  0  0  0  0  0  0  0  0
   10.3728   41.4561   35.8842 O   0  0  0  0  0  0  0  0  0  0  0  0
    9.9548   45.0695   33.2035 C   0  0  1  0  0  0  0  0  0  0  0  0
   11.0274   46.0322   33.4759 N   0  0  0  0  0  0  0  0  0  0  0  0
    9.7470   44.8483   31.6875 C   0  0  0  0  0  0  0  0  0  0  0  0
    8.7924   45.8409   31.0844 C   0  0  0  0  0  0  0  0  0  0  0  0
    7.4055   45.6009   31.0995 C   0  0  0  0  0  0  0  0  0  0  0  0
    9.2818   46.9881   30.4420 C   0  0  0  0  0  0  0  0  0  0  0  0
    6.5241   46.5011   30.4850 C   0  0  0  0  0  0  0  0  0  0  0  0
    8.4006   47.8886   29.8322 C   0  0  0  0  0  0  0  0  0  0  0  0
    7.0190   47.6561   29.8458 C   0  0  0  0  0  0  0  0  0  0  0  0
    6.1802   48.5875   29.2171 O   0  0  0  0  0  0  0  0  0  0  0  0
    4.7616   48.4746   29.1437 C   0  0  0  0  0  0  0  0  0  0  0  0
    4.2069   49.6447   28.3758 C   0  0  0  0  0  0  0  0  0  0  0  0
    3.6978   50.7447   29.1052 C   0  0  0  0  0  0  0  0  0  0  0  0
    4.1572   49.6612   26.9423 C   0  0  0  0  0  0  0  0  0  0  0  0
    3.1431   51.8055   28.4015 C   0  0  0  0  0  0  0  0  0  0  0  0
    3.5670   50.7654   26.2822 C   0  0  0  0  0  0  0  0  0  0  0  0
    4.6818   48.5779   26.1527 N   0  0  0  0  0  0  0  0  0  0  0  0
    2.5876   52.9690   28.8981 O   0  0  0  0  0  0  0  0  0  0  0  0
    3.0777   51.8141   27.0502 C   0  0  0  0  0  0  0  0  0  0  0  0
    5.8473   47.9439   26.5146 O   0  0  0  0  0  0  0  0  0  0  0  0
    4.1767   48.3128   25.0421 O   0  0  0  0  0  0  0  0  0  0  0  0
    2.1458   53.7583   27.7851 C   0  0  0  0  0  0  0  0  0  0  0  0
    2.4780   52.9838   26.6246 O   0  0  0  0  0  0  0  0  0  0  0  0
    8.8125   40.1848   34.2126 O   0  0  0  0  0  0  0  0  0  0  0  0
   11.2416   40.7948   33.3707 O   0  0  0  0  0  0  0  0  0  0  0  0
   10.9179   40.6921   31.9984 C   0  0  0  0  0  0  0  0  0  0  0  0
   11.5175   39.3838   31.4423 C   0  0  0  0  0  0  0  0  0  0  0  0
   12.7508   39.0887   32.0752 O   0  0  0  0  0  0  0  0  0  0  0  0
   10.6028   38.1916   31.6659 C   0  0  0  0  0  0  0  0  0  0  0  0
   12.9385   37.6818   32.0278 C   0  0  0  0  0  0  0  0  0  0  0  0
    9.6371   38.0806   30.6470 O   0  0  0  0  0  0  0  0  0  0  0  0
   11.5780   37.0215   31.6935 C   0  0  0  0  0  0  0  0  0  0  0  0
   13.4844   37.2119   33.3242 N   0  0  0  0  0  0  0  0  0  0  0  0
   11.6095   36.3201   30.4679 O   0  0  0  0  0  0  0  0  0  0  0  0
   14.4797   36.3318   33.5730 C   0  0  0  0  0  0  0  0  0  0  0  0
   13.1136   37.6278   34.5691 C   0  0  0  0  0  0  0  0  0  0  0  0
   15.2073   35.6155   32.6742 N   0  0  0  0  0  0  0  0  0  0  0  0
   14.6754   36.2305   34.9184 C   0  0  0  0  0  0  0  0  0  0  0  0
   13.8213   37.0452   35.5785 N   0  0  0  0  0  0  0  0  0  0  0  0
   16.1640   34.7604   33.1549 C   0  0  0  0  0  0  0  0  0  0  0  0
   15.6524   35.3507   35.4132 C   0  0  0  0  0  0  0  0  0  0  0  0
   16.3794   34.6318   34.5044 N   0  0  0  0  0  0  0  0  0  0  0  0
   15.8999   35.1934   36.8091 N   0  0  0  0  0  0  0  0  0  0  0  0
    9.0121   45.4317   33.6713 H   0  0  0  0  0  0  0  0  0  0  0  0
   10.7261   46.9688   33.1214 H   0  0  0  0  0  0  0  0  0  0  0  0
   11.8908   45.7658   32.9475 H   0  0  0  0  0  0  0  0  0  0  0  0
   10.7235   44.8824   31.1557 H   0  0  0  0  0  0  0  0  0  0  0  0
    9.3425   43.8331   31.4758 H   0  0  0  0  0  0  0  0  0  0  0  0
    7.0099   44.7157   31.5822 H   0  0  0  0  0  0  0  0  0  0  0  0
   10.3461   47.1863   30.4103 H   0  0  0  0  0  0  0  0  0  0  0  0
    5.4643   46.2890   30.5135 H   0  0  0  0  0  0  0  0  0  0  0  0
    8.7937   48.7703   29.3421 H   0  0  0  0  0  0  0  0  0  0  0  0
    4.4697   47.5222   28.6515 H   0  0  0  0  0  0  0  0  0  0  0  0
    4.3435   48.4577   30.1743 H   0  0  0  0  0  0  0  0  0  0  0  0
    3.7260   50.7693   30.1874 H   0  0  0  0  0  0  0  0  0  0  0  0
    3.5074   50.8125   25.2024 H   0  0  0  0  0  0  0  0  0  0  0  0
    2.6841   54.7290   27.7648 H   0  0  0  0  0  0  0  0  0  0  0  0
    1.0483   53.9171   27.8385 H   0  0  0  0  0  0  0  0  0  0  0  0
   11.3952   41.5478   31.4744 H   0  0  0  0  0  0  0  0  0  0  0  0
    9.8291   40.7409   31.7627 H   0  0  0  0  0  0  0  0  0  0  0  0
   11.6981   39.5115   30.3500 H   0  0  0  0  0  0  0  0  0  0  0  0
   10.1117   38.2604   32.6660 H   0  0  0  0  0  0  0  0  0  0  0  0
   13.6767   37.4556   31.2267 H   0  0  0  0  0  0  0  0  0  0  0  0
    8.8961   38.6952   30.8872 H   0  0  0  0  0  0  0  0  0  0  0  0
   11.2791   36.3072   32.4922 H   0  0  0  0  0  0  0  0  0  0  0  0
   11.8828   36.9598   29.7588 H   0  0  0  0  0  0  0  0  0  0  0  0
   12.3300   38.3539   34.7446 H   0  0  0  0  0  0  0  0  0  0  0  0
   16.7562   34.1785   32.4622 H   0  0  0  0  0  0  0  0  0  0  0  0
   16.6347   34.5303   37.1416 H   0  0  0  0  0  0  0  0  0  0  0  0
   15.3531   35.7360   37.5140 H   0  0  0  0  0  0  0  0  0  0  0  0
  1  2  2  0
  1  3  1  0
  3  4  1  0
  4  5  1  0
  6  1  1  0
  7  6  1  0
  6  8  1  0
  8  9  1  0
  9 10  2  0
 11  9  1  0
 10 12  1  0
 13 11  2  0
 12 14  2  0
 14 13  1  0
 14 15  1  0
 15 16  1  0
 16 17  1  0
 17 18  2  0
 19 17  1  0
 18 20  1  0
 21 19  2  0
 19 22  1  0
 20 23  1  0
 20 24  2  0
 24 21  1  0
 22 25  1  0
 22 26  2  0
 23 27  1  0
 24 28  1  0
 27 28  1  0
  4 29  2  0
  4 30  1  0
 31 30  1  0
 31 32  1  0
 32 33  1  0
 32 34  1  0
 33 35  1  0
 34 36  1  0
 34 37  1  0
 37 35  1  0
 35 38  1  0
 37 39  1  0
 40 38  1  0
 41 38  1  0
 42 40  2  0
 40 43  1  0
 44 41  2  0
 45 42  1  0
 43 46  2  0
 43 44  1  0
 47 45  2  0
 47 46  1  0
 46 48  1  0
  6 49  1  1
  7 50  1  0
  7 51  1  0
  8 52  1  0
  8 53  1  0
 10 54  1  0
 11 55  1  0
 12 56  1  0
 13 57  1  0
 16 58  1  0
 16 59  1  0
 18 60  1  0
 21 61  1  0
 27 62  1  0
 27 63  1  0
 31 64  1  0
 31 65  1  0
 32 66  1  0
 34 67  1  0
 35 68  1  0
 36 69  1  0
 37 70  1  0
 39 71  1  0
 41 72  1  0
 45 73  1  0
 48 74  1  0
 48 75  1  0
M  CHG  3   5  -1  22   1  25  -1
M  END
>  <EmbedRMS>  (197) 
0.0819632891316

$$$$

     RDKit          3D

 75 80  0  0  0  0  0  0  0  0999 V2000
   10.2834   43.7663   33.8257 C   0  0  0  0  0  0  0  0  0  0  0  0
   11.4102   43.5932   34.3753 O   0  0  0  0  0  0  0  0  0  0  0  0
    9.3638   42.7255   33.7351 O   0  0  0  0  0  0  0  0  0  0  0  0
    9.8903   41.2268   34.2946 P   0  0  0  0  0  0  0  0  0  0  0  0
   10.3727   41.4561   35.8843 O   0  0  0  0  0  0  0  0  0  0  0  0
    9.9546   45.0696   33.2036 C   0  0  1  0  0  0  0  0  0  0  0  0
   11.0273   46.0323   33.4756 N   0  0  0  0  0  0  0  0  0  0  0  0
    9.7466   44.8480   31.6877 C   0  0  0  0  0  0  0  0  0  0  0  0
    8.7923   45.8406   31.0844 C   0  0  0  0  0  0  0  0  0  0  0  0
    7.4056   45.6012   31.0985 C   0  0  0  0  0  0  0  0  0  0  0  0
    9.2822   46.9875   30.4420 C   0  0  0  0  0  0  0  0  0  0  0  0
    6.5269   46.5031   30.4833 C   0  0  0  0  0  0  0  0  0  0  0  0
    8.4028   47.8894   29.8315 C   0  0  0  0  0  0  0  0  0  0  0  0
    7.0142   47.6541   29.8488 C   0  0  0  0  0  0  0  0  0  0  0  0
    6.0888   48.5289   29.2573 O   0  0  0  0  0  0  0  0  0  0  0  0
    6.4069   49.7711   28.6254 C   0  0  0  0  0  0  0  0  0  0  0  0
    6.8876   50.7969   29.6296 C   0  0  0  0  0  0  0  0  0  0  0  0
    6.2179   50.8808   30.8744 C   0  0  0  0  0  0  0  0  0  0  0  0
    7.9162   51.7481   29.3217 C   0  0  0  0  0  0  0  0  0  0  0  0
    6.6031   51.8696   31.7702 C   0  0  0  0  0  0  0  0  0  0  0  0
    8.2541   52.7427   30.2664 C   0  0  0  0  0  0  0  0  0  0  0  0
    8.5960   51.7485   28.0584 N   0  0  0  0  0  0  0  0  0  0  0  0
    6.1025   52.1283   33.0317 O   0  0  0  0  0  0  0  0  0  0  0  0
    7.5783   52.7611   31.4793 C   0  0  0  0  0  0  0  0  0  0  0  0
    8.8156   52.9418   27.4101 O   0  0  0  0  0  0  0  0  0  0  0  0
    9.2281   50.7388   27.6873 O   0  0  0  0  0  0  0  0  0  0  0  0
    6.8126   53.2536   33.5671 C   0  0  0  0  0  0  0  0  0  0  0  0
    7.7446   53.6270   32.5429 O   0  0  0  0  0  0  0  0  0  0  0  0
    8.8125   40.1849   34.2125 O   0  0  0  0  0  0  0  0  0  0  0  0
   11.2416   40.7948   33.3708 O   0  0  0  0  0  0  0  0  0  0  0  0
   10.9181   40.6922   31.9984 C   0  0  0  0  0  0  0  0  0  0  0  0
   11.5176   39.3837   31.4424 C   0  0  0  0  0  0  0  0  0  0  0  0
   12.7508   39.0887   32.0752 O   0  0  0  0  0  0  0  0  0  0  0  0
   10.6028   38.1916   31.6659 C   0  0  0  0  0  0  0  0  0  0  0  0
   12.9385   37.6818   32.0278 C   0  0  0  0  0  0  0  0  0  0  0  0
    9.6371   38.0806   30.6471 O   0  0  0  0  0  0  0  0  0  0  0  0
   11.5780   37.0215   31.6935 C   0  0  0  0  0  0  0  0  0  0  0  0
   13.4844   37.2119   33.3242 N   0  0  0  0  0  0  0  0  0  0  0  0
   11.6095   36.3201   30.4679 O   0  0  0  0  0  0  0  0  0  0  0  0
   14.4797   36.3317   33.5730 C   0  0  0  0  0  0  0  0  0  0  0  0
   13.1136   37.6278   34.5691 C   0  0  0  0  0  0  0  0  0  0  0  0
   15.2073   35.6155   32.6743 N   0  0  0  0  0  0  0  0  0  0  0  0
   14.6754   36.2304   34.9184 C   0  0  0  0  0  0  0  0  0  0  0  0
   13.8214   37.0452   35.5785 N   0  0  0  0  0  0  0  0  0  0  0  0
   16.1640   34.7604   33.1549 C   0  0  0  0  0  0  0  0  0  0  0  0
   15.6525   35.3507   35.4132 C   0  0  0  0  0  0  0  0  0  0  0  0
   16.3794   34.6318   34.5043 N   0  0  0  0  0  0  0  0  0  0  0  0
   15.9000   35.1933   36.8091 N   0  0  0  0  0  0  0  0  0  0  0  0
    9.0120   45.4319   33.6714 H   0  0  0  0  0  0  0  0  0  0  0  0
   11.8905   45.7661   32.9468 H   0  0  0  0  0  0  0  0  0  0  0  0
   10.7258   46.9690   33.1213 H   0  0  0  0  0  0  0  0  0  0  0  0
   10.7229   44.8812   31.1557 H   0  0  0  0  0  0  0  0  0  0  0  0
    9.3414   43.8328   31.4764 H   0  0  0  0  0  0  0  0  0  0  0  0
    7.0083   44.7164   31.5805 H   0  0  0  0  0  0  0  0  0  0  0  0
   10.3468   47.1845   30.4110 H   0  0  0  0  0  0  0  0  0  0  0  0
    5.4622   46.3079   30.5026 H   0  0  0  0  0  0  0  0  0  0  0  0
    8.8144   48.7618   29.3487 H   0  0  0  0  0  0  0  0  0  0  0  0
    5.4788   50.1641   28.1607 H   0  0  0  0  0  0  0  0  0  0  0  0
    7.1219   49.5897   27.8012 H   0  0  0  0  0  0  0  0  0  0  0  0
    5.4157   50.2016   31.1340 H   0  0  0  0  0  0  0  0  0  0  0  0
    9.0253   53.4741   30.0612 H   0  0  0  0  0  0  0  0  0  0  0  0
    7.3549   52.9614   34.4907 H   0  0  0  0  0  0  0  0  0  0  0  0
    6.1107   54.0896   33.7697 H   0  0  0  0  0  0  0  0  0  0  0  0
   11.3956   41.5477   31.4746 H   0  0  0  0  0  0  0  0  0  0  0  0
    9.8293   40.7411   31.7625 H   0  0  0  0  0  0  0  0  0  0  0  0
   11.6983   39.5115   30.3501 H   0  0  0  0  0  0  0  0  0  0  0  0
   10.1117   38.2604   32.6661 H   0  0  0  0  0  0  0  0  0  0  0  0
   13.6766   37.4555   31.2266 H   0  0  0  0  0  0  0  0  0  0  0  0
    8.8961   38.6952   30.8873 H   0  0  0  0  0  0  0  0  0  0  0  0
   11.2792   36.3072   32.4923 H   0  0  0  0  0  0  0  0  0  0  0  0
   11.8827   36.9597   29.7588 H   0  0  0  0  0  0  0  0  0  0  0  0
   12.3300   38.3537   34.7446 H   0  0  0  0  0  0  0  0  0  0  0  0
   16.7560   34.1785   32.4622 H   0  0  0  0  0  0  0  0  0  0  0  0
   16.6348   34.5302   37.1416 H   0  0  0  0  0  0  0  0  0  0  0  0
   15.3532   35.7360   37.5139 H   0  0  0  0  0  0  0  0  0  0  0  0
  1  2  2  0
  1  3  1  0
  3  4  1  0
  4  5  1  0
  6  1  1  0
  7  6  1  0
  6  8  1  0
  8  9  1  0
  9 10  2  0
 11  9  1  0
 10 12  1  0
 13 11  2  0
 12 14  2  0
 14 13  1  0
 14 15  1  0
 15 16  1  0
 16 17  1  0
 17 18  2  0
 19 17  1  0
 18 20  1  0
 21 19  2  0
 19 22  1  0
 20 23  1  0
 20 24  2  0
 24 21  1  0
 22 25  1  0
 22 26  2  0
 23 27  1  0
 24 28  1  0
 27 28  1  0
  4 29  2  0
  4 30  1  0
 31 30  1  0
 31 32  1  0
 32 33  1  0
 32 34  1  0
 33 35  1  0
 34 36  1  0
 34 37  1  0
 37 35  1  0
 35 38  1  0
 37 39  1  0
 40 38  1  0
 41 38  1  0
 42 40  2  0
 40 43  1  0
 44 41  2  0
 45 42  1  0
 43 46  2  0
 43 44  1  0
 47 45  2  0
 47 46  1  0
 46 48  1  0
  6 49  1  1
  7 50  1  0
  7 51  1  0
  8 52  1  0
  8 53  1  0
 10 54  1  0
 11 55  1  0
 12 56  1  0
 13 57  1  0
 16 58  1  0
 16 59  1  0
 18 60  1  0
 21 61  1  0
 27 62  1  0
 27 63  1  0
 31 64  1  0
 31 65  1  0
 32 66  1  0
 34 67  1  0
 35 68  1  0
 36 69  1  0
 37 70  1  0
 39 71  1  0
 41 72  1  0
 45 73  1  0
 48 74  1  0
 48 75  1  0
M  CHG  3   5  -1  22   1  25  -1
M  END
>  <EmbedRMS>  (198) 
0.0819899832927

$$$$

     RDKit          3D

 75 80  0  0  0  0  0  0  0  0999 V2000
   10.2802   43.7673   33.8260 C   0  0  0  0  0  0  0  0  0  0  0  0
   11.4122   43.5919   34.3649 O   0  0  0  0  0  0  0  0  0  0  0  0
    9.3612   42.7263   33.7370 O   0  0  0  0  0  0  0  0  0  0  0  0
    9.8897   41.2268   34.2929 P   0  0  0  0  0  0  0  0  0  0  0  0
   10.3737   41.4560   35.8821 O   0  0  0  0  0  0  0  0  0  0  0  0
    9.9442   45.0741   33.2121 C   0  0  1  0  0  0  0  0  0  0  0  0
   11.0254   46.0301   33.4692 N   0  0  0  0  0  0  0  0  0  0  0  0
    9.7505   44.8525   31.6966 C   0  0  0  0  0  0  0  0  0  0  0  0
    8.7930   45.8401   31.0873 C   0  0  0  0  0  0  0  0  0  0  0  0
    7.4050   45.5998   31.0968 C   0  0  0  0  0  0  0  0  0  0  0  0
    9.2840   46.9849   30.4431 C   0  0  0  0  0  0  0  0  0  0  0  0
    6.5275   46.5020   30.4769 C   0  0  0  0  0  0  0  0  0  0  0  0
    8.4071   47.8855   29.8312 C   0  0  0  0  0  0  0  0  0  0  0  0
    7.0183   47.6579   29.8520 C   0  0  0  0  0  0  0  0  0  0  0  0
    6.1050   48.5520   29.2686 O   0  0  0  0  0  0  0  0  0  0  0  0
    6.3664   49.9385   29.0382 C   0  0  0  0  0  0  0  0  0  0  0  0
    6.4659   50.6651   30.3593 C   0  0  0  0  0  0  0  0  0  0  0  0
    5.3234   50.6570   31.1936 C   0  0  0  0  0  0  0  0  0  0  0  0
    7.6849   51.2521   30.8383 C   0  0  0  0  0  0  0  0  0  0  0  0
    5.4319   51.1951   32.4696 C   0  0  0  0  0  0  0  0  0  0  0  0
    7.7440   51.7583   32.1573 C   0  0  0  0  0  0  0  0  0  0  0  0
    8.8555   51.3398   30.0143 N   0  0  0  0  0  0  0  0  0  0  0  0
    4.4589   51.2905   33.4453 O   0  0  0  0  0  0  0  0  0  0  0  0
    6.5934   51.7136   32.9352 C   0  0  0  0  0  0  0  0  0  0  0  0
    8.7820   51.9252   28.7691 O   0  0  0  0  0  0  0  0  0  0  0  0
    9.9792   51.1017   30.5073 O   0  0  0  0  0  0  0  0  0  0  0  0
    5.0488   51.9090   34.5980 C   0  0  0  0  0  0  0  0  0  0  0  0
    6.4140   52.1588   34.2317 O   0  0  0  0  0  0  0  0  0  0  0  0
    8.8119   40.1847   34.2119 O   0  0  0  0  0  0  0  0  0  0  0  0
   11.2398   40.7943   33.3666 O   0  0  0  0  0  0  0  0  0  0  0  0
   10.9130   40.6860   31.9949 C   0  0  0  0  0  0  0  0  0  0  0  0
   11.5178   39.3788   31.4395 C   0  0  0  0  0  0  0  0  0  0  0  0
   12.7482   39.0841   32.0749 O   0  0  0  0  0  0  0  0  0  0  0  0
   10.6046   38.1889   31.6664 C   0  0  0  0  0  0  0  0  0  0  0  0
   12.9320   37.6768   32.0297 C   0  0  0  0  0  0  0  0  0  0  0  0
    9.6370   38.0943   30.6495 O   0  0  0  0  0  0  0  0  0  0  0  0
   11.5733   37.0137   31.7067 C   0  0  0  0  0  0  0  0  0  0  0  0
   13.4838   37.2110   33.3247 N   0  0  0  0  0  0  0  0  0  0  0  0
   11.6226   36.3357   30.4709 O   0  0  0  0  0  0  0  0  0  0  0  0
   14.4809   36.3327   33.5725 C   0  0  0  0  0  0  0  0  0  0  0  0
   13.1127   37.6274   34.5696 C   0  0  0  0  0  0  0  0  0  0  0  0
   15.2065   35.6144   32.6732 N   0  0  0  0  0  0  0  0  0  0  0  0
   14.6770   36.2317   34.9179 C   0  0  0  0  0  0  0  0  0  0  0  0
   13.8221   37.0462   35.5786 N   0  0  0  0  0  0  0  0  0  0  0  0
   16.1639   34.7596   33.1534 C   0  0  0  0  0  0  0  0  0  0  0  0
   15.6543   35.3512   35.4119 C   0  0  0  0  0  0  0  0  0  0  0  0
   16.3808   34.6322   34.5025 N   0  0  0  0  0  0  0  0  0  0  0  0
   15.9028   35.1931   36.8077 N   0  0  0  0  0  0  0  0  0  0  0  0
    8.9976   45.4380   33.6745 H   0  0  0  0  0  0  0  0  0  0  0  0
   10.7773   46.9388   33.0144 H   0  0  0  0  0  0  0  0  0  0  0  0
   11.0509   46.2272   34.4966 H   0  0  0  0  0  0  0  0  0  0  0  0
   10.7378   44.9046   31.1842 H   0  0  0  0  0  0  0  0  0  0  0  0
    9.3589   43.8341   31.4743 H   0  0  0  0  0  0  0  0  0  0  0  0
    7.0052   44.7152   31.5783 H   0  0  0  0  0  0  0  0  0  0  0  0
   10.3490   47.1803   30.4081 H   0  0  0  0  0  0  0  0  0  0  0  0
    5.4626   46.3083   30.4922 H   0  0  0  0  0  0  0  0  0  0  0  0
    8.8246   48.7413   29.3253 H   0  0  0  0  0  0  0  0  0  0  0  0
    5.5171   50.3665   28.4648 H   0  0  0  0  0  0  0  0  0  0  0  0
    7.2618   50.0501   28.3981 H   0  0  0  0  0  0  0  0  0  0  0  0
    4.3881   50.2186   30.8643 H   0  0  0  0  0  0  0  0  0  0  0  0
    8.6536   52.1937   32.5540 H   0  0  0  0  0  0  0  0  0  0  0  0
    5.0020   51.2188   35.4680 H   0  0  0  0  0  0  0  0  0  0  0  0
    4.5349   52.8665   34.8256 H   0  0  0  0  0  0  0  0  0  0  0  0
    9.8224   40.7208   31.7628 H   0  0  0  0  0  0  0  0  0  0  0  0
   11.3803   41.5442   31.4672 H   0  0  0  0  0  0  0  0  0  0  0  0
   11.7017   39.5054   30.3468 H   0  0  0  0  0  0  0  0  0  0  0  0
   10.1098   38.2802   32.6624 H   0  0  0  0  0  0  0  0  0  0  0  0
   13.6627   37.4471   31.2228 H   0  0  0  0  0  0  0  0  0  0  0  0
    8.9772   37.4192   30.9558 H   0  0  0  0  0  0  0  0  0  0  0  0
   11.2794   36.3065   32.5188 H   0  0  0  0  0  0  0  0  0  0  0  0
   10.8647   35.6950   30.4667 H   0  0  0  0  0  0  0  0  0  0  0  0
   12.3254   38.3505   34.7455 H   0  0  0  0  0  0  0  0  0  0  0  0
   16.7571   34.1783   32.4614 H   0  0  0  0  0  0  0  0  0  0  0  0
   15.3544   35.7331   37.5134 H   0  0  0  0  0  0  0  0  0  0  0  0
   16.6355   34.5271   37.1396 H   0  0  0  0  0  0  0  0  0  0  0  0
  1  2  2  0
  1  3  1  0
  3  4  1  0
  4  5  1  0
  6  1  1  0
  7  6  1  0
  6  8  1  0
  8  9  1  0
  9 10  2  0
 11  9  1  0
 10 12  1  0
 13 11  2  0
 12 14  2  0
 14 13  1  0
 14 15  1  0
 15 16  1  0
 16 17  1  0
 17 18  2  0
 19 17  1  0
 18 20  1  0
 21 19  2  0
 19 22  1  0
 20 23  1  0
 20 24  2  0
 24 21  1  0
 22 25  1  0
 22 26  2  0
 23 27  1  0
 24 28  1  0
 27 28  1  0
  4 29  2  0
  4 30  1  0
 31 30  1  0
 31 32  1  0
 32 33  1  0
 32 34  1  0
 33 35  1  0
 34 36  1  0
 34 37  1  0
 37 35  1  0
 35 38  1  0
 37 39  1  0
 40 38  1  0
 41 38  1  0
 42 40  2  0
 40 43  1  0
 44 41  2  0
 45 42  1  0
 43 46  2  0
 43 44  1  0
 47 45  2  0
 47 46  1  0
 46 48  1  0
  6 49  1  1
  7 50  1  0
  7 51  1  0
  8 52  1  0
  8 53  1  0
 10 54  1  0
 11 55  1  0
 12 56  1  0
 13 57  1  0
 16 58  1  0
 16 59  1  0
 18 60  1  0
 21 61  1  0
 27 62  1  0
 27 63  1  0
 31 64  1  0
 31 65  1  0
 32 66  1  0
 34 67  1  0
 35 68  1  0
 36 69  1  0
 37 70  1  0
 39 71  1  0
 41 72  1  0
 45 73  1  0
 48 74  1  0
 48 75  1  0
M  CHG  3   5  -1  22   1  25  -1
M  END
>  <EmbedRMS>  (199) 
0.0824068585244

$$$$

     RDKit          3D

 75 80  0  0  0  0  0  0  0  0999 V2000
   10.2832   43.7663   33.8255 C   0  0  0  0  0  0  0  0  0  0  0  0
   11.4100   43.5931   34.3751 O   0  0  0  0  0  0  0  0  0  0  0  0
    9.3634   42.7257   33.7352 O   0  0  0  0  0  0  0  0  0  0  0  0
    9.8899   41.2270   34.2947 P   0  0  0  0  0  0  0  0  0  0  0  0
   10.3732   41.4563   35.8841 O   0  0  0  0  0  0  0  0  0  0  0  0
    9.9545   45.0694   33.2030 C   0  0  1  0  0  0  0  0  0  0  0  0
   11.0272   46.0321   33.4753 N   0  0  0  0  0  0  0  0  0  0  0  0
    9.7468   44.8477   31.6870 C   0  0  0  0  0  0  0  0  0  0  0  0
    8.7924   45.8398   31.0827 C   0  0  0  0  0  0  0  0  0  0  0  0
    7.4054   45.6022   31.1005 C   0  0  0  0  0  0  0  0  0  0  0  0
    9.2820   46.9888   30.4438 C   0  0  0  0  0  0  0  0  0  0  0  0
    6.5264   46.5055   30.4881 C   0  0  0  0  0  0  0  0  0  0  0  0
    8.4025   47.8923   29.8355 C   0  0  0  0  0  0  0  0  0  0  0  0
    7.0159   47.6478   29.8402 C   0  0  0  0  0  0  0  0  0  0  0  0
    6.0959   48.5192   29.2406 O   0  0  0  0  0  0  0  0  0  0  0  0
    6.3219   49.2648   28.0431 C   0  0  0  0  0  0  0  0  0  0  0  0
    5.6584   48.5652   26.8814 C   0  0  0  0  0  0  0  0  0  0  0  0
    4.4362   49.0830   26.3899 C   0  0  0  0  0  0  0  0  0  0  0  0
    6.1771   47.3474   26.3320 C   0  0  0  0  0  0  0  0  0  0  0  0
    3.7723   48.3793   25.3929 C   0  0  0  0  0  0  0  0  0  0  0  0
    5.4492   46.6655   25.3317 C   0  0  0  0  0  0  0  0  0  0  0  0
    7.4288   46.7981   26.7655 N   0  0  0  0  0  0  0  0  0  0  0  0
    2.5771   48.6893   24.7729 O   0  0  0  0  0  0  0  0  0  0  0  0
    4.2553   47.2199   24.8889 C   0  0  0  0  0  0  0  0  0  0  0  0
    7.5589   45.4373   26.9198 O   0  0  0  0  0  0  0  0  0  0  0  0
    8.4571   47.5046   26.7574 O   0  0  0  0  0  0  0  0  0  0  0  0
    2.2942   47.6585   23.8167 C   0  0  0  0  0  0  0  0  0  0  0  0
    3.3909   46.7405   23.9236 O   0  0  0  0  0  0  0  0  0  0  0  0
    8.8121   40.1850   34.2133 O   0  0  0  0  0  0  0  0  0  0  0  0
   11.2403   40.7947   33.3700 O   0  0  0  0  0  0  0  0  0  0  0  0
   10.9145   40.6914   31.9982 C   0  0  0  0  0  0  0  0  0  0  0  0
   11.5270   39.3912   31.4385 C   0  0  0  0  0  0  0  0  0  0  0  0
   12.7520   39.0911   32.0836 O   0  0  0  0  0  0  0  0  0  0  0  0
   10.6113   38.1932   31.6451 C   0  0  0  0  0  0  0  0  0  0  0  0
   12.9413   37.6838   32.0297 C   0  0  0  0  0  0  0  0  0  0  0  0
    9.6064   38.0878   30.6599 O   0  0  0  0  0  0  0  0  0  0  0  0
   11.5822   37.0198   31.6877 C   0  0  0  0  0  0  0  0  0  0  0  0
   13.4840   37.2104   33.3254 N   0  0  0  0  0  0  0  0  0  0  0  0
   11.6179   36.3072   30.4690 O   0  0  0  0  0  0  0  0  0  0  0  0
   14.4797   36.3309   33.5738 C   0  0  0  0  0  0  0  0  0  0  0  0
   13.1136   37.6269   34.5702 C   0  0  0  0  0  0  0  0  0  0  0  0
   15.2074   35.6152   32.6747 N   0  0  0  0  0  0  0  0  0  0  0  0
   14.6756   36.2298   34.9190 C   0  0  0  0  0  0  0  0  0  0  0  0
   13.8217   37.0445   35.5793 N   0  0  0  0  0  0  0  0  0  0  0  0
   16.1643   34.7603   33.1551 C   0  0  0  0  0  0  0  0  0  0  0  0
   15.6528   35.3503   35.4136 C   0  0  0  0  0  0  0  0  0  0  0  0
   16.3798   34.6316   34.5046 N   0  0  0  0  0  0  0  0  0  0  0  0
   15.9004   35.1930   36.8094 N   0  0  0  0  0  0  0  0  0  0  0  0
    9.0118   45.4318   33.6705 H   0  0  0  0  0  0  0  0  0  0  0  0
   11.8904   45.7660   32.9465 H   0  0  0  0  0  0  0  0  0  0  0  0
   10.7257   46.9688   33.1212 H   0  0  0  0  0  0  0  0  0  0  0  0
    9.3419   43.8324   31.4757 H   0  0  0  0  0  0  0  0  0  0  0  0
   10.7232   44.8813   31.1551 H   0  0  0  0  0  0  0  0  0  0  0  0
    7.0080   44.7184   31.5843 H   0  0  0  0  0  0  0  0  0  0  0  0
   10.3459   47.1910   30.4217 H   0  0  0  0  0  0  0  0  0  0  0  0
    5.4616   46.3106   30.5068 H   0  0  0  0  0  0  0  0  0  0  0  0
    8.8114   48.7858   29.3866 H   0  0  0  0  0  0  0  0  0  0  0  0
    7.3925   49.4476   27.8376 H   0  0  0  0  0  0  0  0  0  0  0  0
    5.8722   50.2703   28.1870 H   0  0  0  0  0  0  0  0  0  0  0  0
    4.0042   49.9933   26.7861 H   0  0  0  0  0  0  0  0  0  0  0  0
    5.8146   45.7426   24.8998 H   0  0  0  0  0  0  0  0  0  0  0  0
    1.3416   47.1488   24.0720 H   0  0  0  0  0  0  0  0  0  0  0  0
    2.2506   48.0857   22.7929 H   0  0  0  0  0  0  0  0  0  0  0  0
   11.3777   41.5549   31.4744 H   0  0  0  0  0  0  0  0  0  0  0  0
    9.8235   40.7202   31.7653 H   0  0  0  0  0  0  0  0  0  0  0  0
   11.7311   39.5363   30.3532 H   0  0  0  0  0  0  0  0  0  0  0  0
   10.1202   38.2697   32.6410 H   0  0  0  0  0  0  0  0  0  0  0  0
   13.6850   37.4639   31.2321 H   0  0  0  0  0  0  0  0  0  0  0  0
   10.0251   38.1793   29.7654 H   0  0  0  0  0  0  0  0  0  0  0  0
   11.2757   36.3135   32.4907 H   0  0  0  0  0  0  0  0  0  0  0  0
   11.9838   36.9111   29.7708 H   0  0  0  0  0  0  0  0  0  0  0  0
   12.3307   38.3536   34.7457 H   0  0  0  0  0  0  0  0  0  0  0  0
   16.7566   34.1787   32.4623 H   0  0  0  0  0  0  0  0  0  0  0  0
   16.6353   34.5301   37.1419 H   0  0  0  0  0  0  0  0  0  0  0  0
   15.3535   35.7355   37.5144 H   0  0  0  0  0  0  0  0  0  0  0  0
  1  2  2  0
  1  3  1  0
  3  4  1  0
  4  5  1  0
  6  1  1  0
  7  6  1  0
  6  8  1  0
  8  9  1  0
  9 10  2  0
 11  9  1  0
 10 12  1  0
 13 11  2  0
 12 14  2  0
 14 13  1  0
 14 15  1  0
 15 16  1  0
 16 17  1  0
 17 18  2  0
 19 17  1  0
 18 20  1  0
 21 19  2  0
 19 22  1  0
 20 23  1  0
 20 24  2  0
 24 21  1  0
 22 25  1  0
 22 26  2  0
 23 27  1  0
 24 28  1  0
 27 28  1  0
  4 29  2  0
  4 30  1  0
 31 30  1  0
 31 32  1  0
 32 33  1  0
 32 34  1  0
 33 35  1  0
 34 36  1  0
 34 37  1  0
 37 35  1  0
 35 38  1  0
 37 39  1  0
 40 38  1  0
 41 38  1  0
 42 40  2  0
 40 43  1  0
 44 41  2  0
 45 42  1  0
 43 46  2  0
 43 44  1  0
 47 45  2  0
 47 46  1  0
 46 48  1  0
  6 49  1  1
  7 50  1  0
  7 51  1  0
  8 52  1  0
  8 53  1  0
 10 54  1  0
 11 55  1  0
 12 56  1  0
 13 57  1  0
 16 58  1  0
 16 59  1  0
 18 60  1  0
 21 61  1  0
 27 62  1  0
 27 63  1  0
 31 64  1  0
 31 65  1  0
 32 66  1  0
 34 67  1  0
 35 68  1  0
 36 69  1  0
 37 70  1  0
 39 71  1  0
 41 72  1  0
 45 73  1  0
 48 74  1  0
 48 75  1  0
M  CHG  3   5  -1  22   1  25  -1
M  END
>  <EmbedRMS>  (200) 
0.0809113551032

$$$$

     RDKit          3D

 75 80  0  0  0  0  0  0  0  0999 V2000
   10.2803   43.7665   33.8251 C   0  0  0  0  0  0  0  0  0  0  0  0
   11.4110   43.5918   34.3666 O   0  0  0  0  0  0  0  0  0  0  0  0
    9.3616   42.7251   33.7349 O   0  0  0  0  0  0  0  0  0  0  0  0
    9.8896   41.2269   34.2945 P   0  0  0  0  0  0  0  0  0  0  0  0
   10.3732   41.4568   35.8838 O   0  0  0  0  0  0  0  0  0  0  0  0
    9.9459   45.0736   33.2112 C   0  0  1  0  0  0  0  0  0  0  0  0
   11.0267   46.0291   33.4706 N   0  0  0  0  0  0  0  0  0  0  0  0
    9.7535   44.8539   31.6950 C   0  0  0  0  0  0  0  0  0  0  0  0
    8.7955   45.8411   31.0848 C   0  0  0  0  0  0  0  0  0  0  0  0
    7.4085   45.6005   31.1007 C   0  0  0  0  0  0  0  0  0  0  0  0
    9.2831   46.9879   30.4397 C   0  0  0  0  0  0  0  0  0  0  0  0
    6.5278   46.5010   30.4854 C   0  0  0  0  0  0  0  0  0  0  0  0
    8.4025   47.8894   29.8302 C   0  0  0  0  0  0  0  0  0  0  0  0
    7.0139   47.6508   29.8482 C   0  0  0  0  0  0  0  0  0  0  0  0
    6.0918   48.5219   29.2500 O   0  0  0  0  0  0  0  0  0  0  0  0
    6.4431   49.7242   28.5661 C   0  0  0  0  0  0  0  0  0  0  0  0
    5.2214   50.4368   28.0298 C   0  0  0  0  0  0  0  0  0  0  0  0
    3.9898   49.7420   27.9195 C   0  0  0  0  0  0  0  0  0  0  0  0
    5.2857   51.8164   27.6396 C   0  0  0  0  0  0  0  0  0  0  0  0
    2.8751   50.4356   27.4672 C   0  0  0  0  0  0  0  0  0  0  0  0
    4.1112   52.4719   27.1997 C   0  0  0  0  0  0  0  0  0  0  0  0
    6.5182   52.5588   27.6883 N   0  0  0  0  0  0  0  0  0  0  0  0
    1.5869   49.9684   27.2903 O   0  0  0  0  0  0  0  0  0  0  0  0
    2.9321   51.7431   27.1269 C   0  0  0  0  0  0  0  0  0  0  0  0
    7.7074   51.9697   27.3263 O   0  0  0  0  0  0  0  0  0  0  0  0
    6.4990   53.7895   27.8975 O   0  0  0  0  0  0  0  0  0  0  0  0
    0.7845   51.0549   26.8082 C   0  0  0  0  0  0  0  0  0  0  0  0
    1.6829   52.1690   26.7181 O   0  0  0  0  0  0  0  0  0  0  0  0
    8.8122   40.1844   34.2135 O   0  0  0  0  0  0  0  0  0  0  0  0
   11.2401   40.7950   33.3698 O   0  0  0  0  0  0  0  0  0  0  0  0
   10.9143   40.6914   31.9981 C   0  0  0  0  0  0  0  0  0  0  0  0
   11.5269   39.3911   31.4385 C   0  0  0  0  0  0  0  0  0  0  0  0
   12.7519   39.0911   32.0837 O   0  0  0  0  0  0  0  0  0  0  0  0
   10.6113   38.1932   31.6451 C   0  0  0  0  0  0  0  0  0  0  0  0
   12.9413   37.6838   32.0297 C   0  0  0  0  0  0  0  0  0  0  0  0
    9.6064   38.0877   30.6599 O   0  0  0  0  0  0  0  0  0  0  0  0
   11.5822   37.0197   31.6877 C   0  0  0  0  0  0  0  0  0  0  0  0
   13.4840   37.2104   33.3254 N   0  0  0  0  0  0  0  0  0  0  0  0
   11.6179   36.3072   30.4690 O   0  0  0  0  0  0  0  0  0  0  0  0
   14.4797   36.3309   33.5738 C   0  0  0  0  0  0  0  0  0  0  0  0
   13.1137   37.6269   34.5702 C   0  0  0  0  0  0  0  0  0  0  0  0
   15.2074   35.6152   32.6747 N   0  0  0  0  0  0  0  0  0  0  0  0
   14.6756   36.2298   34.9190 C   0  0  0  0  0  0  0  0  0  0  0  0
   13.8217   37.0445   35.5793 N   0  0  0  0  0  0  0  0  0  0  0  0
   16.1643   34.7603   33.1551 C   0  0  0  0  0  0  0  0  0  0  0  0
   15.6528   35.3503   35.4136 C   0  0  0  0  0  0  0  0  0  0  0  0
   16.3798   34.6316   34.5046 N   0  0  0  0  0  0  0  0  0  0  0  0
   15.9004   35.1930   36.8094 N   0  0  0  0  0  0  0  0  0  0  0  0
    8.9996   45.4383   33.6723 H   0  0  0  0  0  0  0  0  0  0  0  0
   10.7765   46.9368   33.0156 H   0  0  0  0  0  0  0  0  0  0  0  0
   11.0505   46.2277   34.4980 H   0  0  0  0  0  0  0  0  0  0  0  0
    9.3634   43.8353   31.4716 H   0  0  0  0  0  0  0  0  0  0  0  0
   10.7406   44.9069   31.1835 H   0  0  0  0  0  0  0  0  0  0  0  0
    7.0130   44.7162   31.5850 H   0  0  0  0  0  0  0  0  0  0  0  0
   10.3474   47.1864   30.4064 H   0  0  0  0  0  0  0  0  0  0  0  0
    5.4633   46.3042   30.5047 H   0  0  0  0  0  0  0  0  0  0  0  0
    8.8120   48.7648   29.3451 H   0  0  0  0  0  0  0  0  0  0  0  0
    7.1180   49.4823   27.7174 H   0  0  0  0  0  0  0  0  0  0  0  0
    6.9658   50.3920   29.2847 H   0  0  0  0  0  0  0  0  0  0  0  0
    3.8932   48.6961   28.1795 H   0  0  0  0  0  0  0  0  0  0  0  0
    4.1221   53.5129   26.9035 H   0  0  0  0  0  0  0  0  0  0  0  0
    0.3723   50.8129   25.8062 H   0  0  0  0  0  0  0  0  0  0  0  0
   -0.0317   51.2780   27.5270 H   0  0  0  0  0  0  0  0  0  0  0  0
   11.3775   41.5548   31.4741 H   0  0  0  0  0  0  0  0  0  0  0  0
    9.8233   40.7200   31.7652 H   0  0  0  0  0  0  0  0  0  0  0  0
   11.7312   39.5361   30.3532 H   0  0  0  0  0  0  0  0  0  0  0  0
   10.1202   38.2696   32.6410 H   0  0  0  0  0  0  0  0  0  0  0  0
   13.6850   37.4639   31.2321 H   0  0  0  0  0  0  0  0  0  0  0  0
   10.0251   38.1792   29.7654 H   0  0  0  0  0  0  0  0  0  0  0  0
   11.2757   36.3135   32.4907 H   0  0  0  0  0  0  0  0  0  0  0  0
   11.9838   36.9111   29.7708 H   0  0  0  0  0  0  0  0  0  0  0  0
   12.3307   38.3536   34.7458 H   0  0  0  0  0  0  0  0  0  0  0  0
   16.7566   34.1787   32.4623 H   0  0  0  0  0  0  0  0  0  0  0  0
   15.3535   35.7355   37.5144 H   0  0  0  0  0  0  0  0  0  0  0  0
   16.6353   34.5301   37.1419 H   0  0  0  0  0  0  0  0  0  0  0  0
  1  2  2  0
  1  3  1  0
  3  4  1  0
  4  5  1  0
  6  1  1  0
  7  6  1  0
  6  8  1  0
  8  9  1  0
  9 10  2  0
 11  9  1  0
 10 12  1  0
 13 11  2  0
 12 14  2  0
 14 13  1  0
 14 15  1  0
 15 16  1  0
 16 17  1  0
 17 18  2  0
 19 17  1  0
 18 20  1  0
 21 19  2  0
 19 22  1  0
 20 23  1  0
 20 24  2  0
 24 21  1  0
 22 25  1  0
 22 26  2  0
 23 27  1  0
 24 28  1  0
 27 28  1  0
  4 29  2  0
  4 30  1  0
 31 30  1  0
 31 32  1  0
 32 33  1  0
 32 34  1  0
 33 35  1  0
 34 36  1  0
 34 37  1  0
 37 35  1  0
 35 38  1  0
 37 39  1  0
 40 38  1  0
 41 38  1  0
 42 40  2  0
 40 43  1  0
 44 41  2  0
 45 42  1  0
 43 46  2  0
 43 44  1  0
 47 45  2  0
 47 46  1  0
 46 48  1  0
  6 49  1  1
  7 50  1  0
  7 51  1  0
  8 52  1  0
  8 53  1  0
 10 54  1  0
 11 55  1  0
 12 56  1  0
 13 57  1  0
 16 58  1  0
 16 59  1  0
 18 60  1  0
 21 61  1  0
 27 62  1  0
 27 63  1  0
 31 64  1  0
 31 65  1  0
 32 66  1  0
 34 67  1  0
 35 68  1  0
 36 69  1  0
 37 70  1  0
 39 71  1  0
 41 72  1  0
 45 73  1  0
 48 74  1  0
 48 75  1  0
M  CHG  3   5  -1  22   1  25  -1
M  END
>  <EmbedRMS>  (201) 
0.0806517079606

$$$$

     RDKit          3D

 75 80  0  0  0  0  0  0  0  0999 V2000
   10.2839   43.7626   33.8276 C   0  0  0  0  0  0  0  0  0  0  0  0
   11.4103   43.5863   34.3767 O   0  0  0  0  0  0  0  0  0  0  0  0
    9.3631   42.7236   33.7355 O   0  0  0  0  0  0  0  0  0  0  0  0
    9.8895   41.2250   34.2947 P   0  0  0  0  0  0  0  0  0  0  0  0
   10.3720   41.4547   35.8844 O   0  0  0  0  0  0  0  0  0  0  0  0
    9.9549   45.0700   33.2063 C   0  0  1  0  0  0  0  0  0  0  0  0
   11.0198   46.0481   33.4570 N   0  0  0  0  0  0  0  0  0  0  0  0
    9.7506   44.8511   31.6922 C   0  0  0  0  0  0  0  0  0  0  0  0
    8.7944   45.8417   31.0867 C   0  0  0  0  0  0  0  0  0  0  0  0
    7.4077   45.6006   31.1008 C   0  0  0  0  0  0  0  0  0  0  0  0
    9.2826   46.9896   30.4450 C   0  0  0  0  0  0  0  0  0  0  0  0
    6.5257   46.5001   30.4863 C   0  0  0  0  0  0  0  0  0  0  0  0
    8.4008   47.8887   29.8338 C   0  0  0  0  0  0  0  0  0  0  0  0
    7.0195   47.6542   29.8440 C   0  0  0  0  0  0  0  0  0  0  0  0
    6.1819   48.5849   29.2079 O   0  0  0  0  0  0  0  0  0  0  0  0
    4.7696   48.4439   29.0451 C   0  0  0  0  0  0  0  0  0  0  0  0
    4.4489   47.3372   28.0656 C   0  0  0  0  0  0  0  0  0  0  0  0
    5.1695   47.2911   26.8490 C   0  0  0  0  0  0  0  0  0  0  0  0
    3.4777   46.3223   28.3476 C   0  0  0  0  0  0  0  0  0  0  0  0
    4.9445   46.2261   25.9863 C   0  0  0  0  0  0  0  0  0  0  0  0
    3.3026   45.2529   27.4393 C   0  0  0  0  0  0  0  0  0  0  0  0
    2.6512   46.3794   29.5200 N   0  0  0  0  0  0  0  0  0  0  0  0
    5.5391   45.9682   24.7662 O   0  0  0  0  0  0  0  0  0  0  0  0
    4.0554   45.2467   26.2720 C   0  0  0  0  0  0  0  0  0  0  0  0
    1.9901   47.5431   29.8388 O   0  0  0  0  0  0  0  0  0  0  0  0
    2.3436   45.3279   30.1184 O   0  0  0  0  0  0  0  0  0  0  0  0
    4.9860   44.7482   24.2537 C   0  0  0  0  0  0  0  0  0  0  0  0
    4.0425   44.3214   25.2461 O   0  0  0  0  0  0  0  0  0  0  0  0
    8.8117   40.1832   34.2124 O   0  0  0  0  0  0  0  0  0  0  0  0
   11.2411   40.7939   33.3709 O   0  0  0  0  0  0  0  0  0  0  0  0
   10.9179   40.6920   31.9985 C   0  0  0  0  0  0  0  0  0  0  0  0
   11.5175   39.3837   31.4422 C   0  0  0  0  0  0  0  0  0  0  0  0
   12.7508   39.0887   32.0751 O   0  0  0  0  0  0  0  0  0  0  0  0
   10.6028   38.1916   31.6658 C   0  0  0  0  0  0  0  0  0  0  0  0
   12.9384   37.6818   32.0278 C   0  0  0  0  0  0  0  0  0  0  0  0
    9.6371   38.0805   30.6470 O   0  0  0  0  0  0  0  0  0  0  0  0
   11.5780   37.0215   31.6934 C   0  0  0  0  0  0  0  0  0  0  0  0
   13.4844   37.2119   33.3241 N   0  0  0  0  0  0  0  0  0  0  0  0
   11.6095   36.3201   30.4678 O   0  0  0  0  0  0  0  0  0  0  0  0
   14.4797   36.3318   33.5730 C   0  0  0  0  0  0  0  0  0  0  0  0
   13.1135   37.6278   34.5691 C   0  0  0  0  0  0  0  0  0  0  0  0
   15.2073   35.6155   32.6742 N   0  0  0  0  0  0  0  0  0  0  0  0
   14.6754   36.2305   34.9184 C   0  0  0  0  0  0  0  0  0  0  0  0
   13.8213   37.0452   35.5785 N   0  0  0  0  0  0  0  0  0  0  0  0
   16.1640   34.7604   33.1549 C   0  0  0  0  0  0  0  0  0  0  0  0
   15.6524   35.3507   35.4132 C   0  0  0  0  0  0  0  0  0  0  0  0
   16.3794   34.6318   34.5044 N   0  0  0  0  0  0  0  0  0  0  0  0
   15.8999   35.1934   36.8091 N   0  0  0  0  0  0  0  0  0  0  0  0
    9.0098   45.4348   33.6668 H   0  0  0  0  0  0  0  0  0  0  0  0
   11.9349   45.6934   33.0928 H   0  0  0  0  0  0  0  0  0  0  0  0
   11.1132   46.1992   34.4883 H   0  0  0  0  0  0  0  0  0  0  0  0
   10.7310   44.8931   31.1675 H   0  0  0  0  0  0  0  0  0  0  0  0
    9.3519   43.8344   31.4758 H   0  0  0  0  0  0  0  0  0  0  0  0
    7.0124   44.7158   31.5847 H   0  0  0  0  0  0  0  0  0  0  0  0
   10.3466   47.1899   30.4155 H   0  0  0  0  0  0  0  0  0  0  0  0
    5.4672   46.2876   30.5211 H   0  0  0  0  0  0  0  0  0  0  0  0
    8.7937   48.7701   29.3431 H   0  0  0  0  0  0  0  0  0  0  0  0
    4.3077   48.2925   30.0407 H   0  0  0  0  0  0  0  0  0  0  0  0
    4.3709   49.3952   28.6351 H   0  0  0  0  0  0  0  0  0  0  0  0
    5.9006   48.0487   26.5959 H   0  0  0  0  0  0  0  0  0  0  0  0
    2.5816   44.4673   27.6254 H   0  0  0  0  0  0  0  0  0  0  0  0
    5.7842   43.9864   24.1313 H   0  0  0  0  0  0  0  0  0  0  0  0
    4.4691   44.9361   23.2894 H   0  0  0  0  0  0  0  0  0  0  0  0
    9.8292   40.7410   31.7624 H   0  0  0  0  0  0  0  0  0  0  0  0
   11.3955   41.5477   31.4750 H   0  0  0  0  0  0  0  0  0  0  0  0
   11.6981   39.5116   30.3500 H   0  0  0  0  0  0  0  0  0  0  0  0
   10.1117   38.2603   32.6660 H   0  0  0  0  0  0  0  0  0  0  0  0
   13.6767   37.4555   31.2267 H   0  0  0  0  0  0  0  0  0  0  0  0
    8.8961   38.6952   30.8871 H   0  0  0  0  0  0  0  0  0  0  0  0
   11.2791   36.3072   32.4922 H   0  0  0  0  0  0  0  0  0  0  0  0
   11.8828   36.9598   29.7588 H   0  0  0  0  0  0  0  0  0  0  0  0
   12.3300   38.3539   34.7446 H   0  0  0  0  0  0  0  0  0  0  0  0
   16.7561   34.1785   32.4622 H   0  0  0  0  0  0  0  0  0  0  0  0
   16.6346   34.5303   37.1416 H   0  0  0  0  0  0  0  0  0  0  0  0
   15.3531   35.7360   37.5140 H   0  0  0  0  0  0  0  0  0  0  0  0
  1  2  2  0
  1  3  1  0
  3  4  1  0
  4  5  1  0
  6  1  1  0
  7  6  1  0
  6  8  1  0
  8  9  1  0
  9 10  2  0
 11  9  1  0
 10 12  1  0
 13 11  2  0
 12 14  2  0
 14 13  1  0
 14 15  1  0
 15 16  1  0
 16 17  1  0
 17 18  2  0
 19 17  1  0
 18 20  1  0
 21 19  2  0
 19 22  1  0
 20 23  1  0
 20 24  2  0
 24 21  1  0
 22 25  1  0
 22 26  2  0
 23 27  1  0
 24 28  1  0
 27 28  1  0
  4 29  2  0
  4 30  1  0
 31 30  1  0
 31 32  1  0
 32 33  1  0
 32 34  1  0
 33 35  1  0
 34 36  1  0
 34 37  1  0
 37 35  1  0
 35 38  1  0
 37 39  1  0
 40 38  1  0
 41 38  1  0
 42 40  2  0
 40 43  1  0
 44 41  2  0
 45 42  1  0
 43 46  2  0
 43 44  1  0
 47 45  2  0
 47 46  1  0
 46 48  1  0
  6 49  1  1
  7 50  1  0
  7 51  1  0
  8 52  1  0
  8 53  1  0
 10 54  1  0
 11 55  1  0
 12 56  1  0
 13 57  1  0
 16 58  1  0
 16 59  1  0
 18 60  1  0
 21 61  1  0
 27 62  1  0
 27 63  1  0
 31 64  1  0
 31 65  1  0
 32 66  1  0
 34 67  1  0
 35 68  1  0
 36 69  1  0
 37 70  1  0
 39 71  1  0
 41 72  1  0
 45 73  1  0
 48 74  1  0
 48 75  1  0
M  CHG  3   5  -1  22   1  25  -1
M  END
>  <EmbedRMS>  (202) 
0.0828722539164

$$$$

     RDKit          3D

 75 80  0  0  0  0  0  0  0  0999 V2000
   10.2836   43.7661   33.8255 C   0  0  0  0  0  0  0  0  0  0  0  0
   11.4103   43.5930   34.3753 O   0  0  0  0  0  0  0  0  0  0  0  0
    9.3641   42.7253   33.7346 O   0  0  0  0  0  0  0  0  0  0  0  0
    9.8908   41.2265   34.2938 P   0  0  0  0  0  0  0  0  0  0  0  0
   10.3732   41.4559   35.8835 O   0  0  0  0  0  0  0  0  0  0  0  0
    9.9548   45.0694   33.2035 C   0  0  1  0  0  0  0  0  0  0  0  0
   11.0273   46.0322   33.4759 N   0  0  0  0  0  0  0  0  0  0  0  0
    9.7470   44.8484   31.6875 C   0  0  0  0  0  0  0  0  0  0  0  0
    8.7924   45.8409   31.0844 C   0  0  0  0  0  0  0  0  0  0  0  0
    7.4055   45.6009   31.0995 C   0  0  0  0  0  0  0  0  0  0  0  0
    9.2818   46.9881   30.4420 C   0  0  0  0  0  0  0  0  0  0  0  0
    6.5241   46.5011   30.4849 C   0  0  0  0  0  0  0  0  0  0  0  0
    8.4006   47.8886   29.8322 C   0  0  0  0  0  0  0  0  0  0  0  0
    7.0190   47.6561   29.8459 C   0  0  0  0  0  0  0  0  0  0  0  0
    6.1799   48.5881   29.2180 O   0  0  0  0  0  0  0  0  0  0  0  0
    4.7593   48.4788   29.1503 C   0  0  0  0  0  0  0  0  0  0  0  0
    4.1997   49.6342   28.3569 C   0  0  0  0  0  0  0  0  0  0  0  0
    4.7772   49.9161   27.0963 C   0  0  0  0  0  0  0  0  0  0  0  0
    3.1366   50.4638   28.8452 C   0  0  0  0  0  0  0  0  0  0  0  0
    4.3238   51.0246   26.3929 C   0  0  0  0  0  0  0  0  0  0  0  0
    2.7294   51.5893   28.0937 C   0  0  0  0  0  0  0  0  0  0  0  0
    2.4448   50.1666   30.0674 N   0  0  0  0  0  0  0  0  0  0  0  0
    4.7467   51.4948   25.1645 O   0  0  0  0  0  0  0  0  0  0  0  0
    3.3479   51.8295   26.8735 C   0  0  0  0  0  0  0  0  0  0  0  0
    2.0144   51.1942   30.8747 O   0  0  0  0  0  0  0  0  0  0  0  0
    2.0087   49.0155   30.2746 O   0  0  0  0  0  0  0  0  0  0  0  0
    3.9859   52.6705   24.8551 C   0  0  0  0  0  0  0  0  0  0  0  0
    3.1044   52.8482   25.9724 O   0  0  0  0  0  0  0  0  0  0  0  0
    8.8127   40.1848   34.2122 O   0  0  0  0  0  0  0  0  0  0  0  0
   11.2421   40.7941   33.3697 O   0  0  0  0  0  0  0  0  0  0  0  0
   10.9187   40.6911   31.9971 C   0  0  0  0  0  0  0  0  0  0  0  0
   11.5172   39.3815   31.4407 C   0  0  0  0  0  0  0  0  0  0  0  0
   12.7493   39.0855   32.0728 O   0  0  0  0  0  0  0  0  0  0  0  0
   10.6023   38.1908   31.6665 C   0  0  0  0  0  0  0  0  0  0  0  0
   12.9319   37.6781   32.0281 C   0  0  0  0  0  0  0  0  0  0  0  0
    9.6392   38.0798   30.6452 O   0  0  0  0  0  0  0  0  0  0  0  0
   11.5715   37.0166   31.7056 C   0  0  0  0  0  0  0  0  0  0  0  0
   13.4847   37.2121   33.3235 N   0  0  0  0  0  0  0  0  0  0  0  0
   11.6186   36.3384   30.4695 O   0  0  0  0  0  0  0  0  0  0  0  0
   14.4801   36.3321   33.5724 C   0  0  0  0  0  0  0  0  0  0  0  0
   13.1137   37.6275   34.5687 C   0  0  0  0  0  0  0  0  0  0  0  0
   15.2073   35.6153   32.6738 N   0  0  0  0  0  0  0  0  0  0  0  0
   14.6759   36.2308   34.9179 C   0  0  0  0  0  0  0  0  0  0  0  0
   13.8216   37.0452   35.5781 N   0  0  0  0  0  0  0  0  0  0  0  0
   16.1640   34.7601   33.1546 C   0  0  0  0  0  0  0  0  0  0  0  0
   15.6526   35.3508   35.4129 C   0  0  0  0  0  0  0  0  0  0  0  0
   16.3794   34.6317   34.5041 N   0  0  0  0  0  0  0  0  0  0  0  0
   15.8999   35.1934   36.8088 N   0  0  0  0  0  0  0  0  0  0  0  0
    9.0121   45.4316   33.6713 H   0  0  0  0  0  0  0  0  0  0  0  0
   10.7260   46.9687   33.1214 H   0  0  0  0  0  0  0  0  0  0  0  0
   11.8908   45.7659   32.9475 H   0  0  0  0  0  0  0  0  0  0  0  0
   10.7235   44.8824   31.1557 H   0  0  0  0  0  0  0  0  0  0  0  0
    9.3425   43.8331   31.4758 H   0  0  0  0  0  0  0  0  0  0  0  0
    7.0099   44.7157   31.5822 H   0  0  0  0  0  0  0  0  0  0  0  0
   10.3461   47.1864   30.4104 H   0  0  0  0  0  0  0  0  0  0  0  0
    5.4642   46.2887   30.5130 H   0  0  0  0  0  0  0  0  0  0  0  0
    8.7937   48.7705   29.3424 H   0  0  0  0  0  0  0  0  0  0  0  0
    4.3642   48.4576   30.1849 H   0  0  0  0  0  0  0  0  0  0  0  0
    4.4837   47.5326   28.6368 H   0  0  0  0  0  0  0  0  0  0  0  0
    5.5700   49.3018   26.6878 H   0  0  0  0  0  0  0  0  0  0  0  0
    1.9337   52.2382   28.4365 H   0  0  0  0  0  0  0  0  0  0  0  0
    3.3994   52.5148   23.9254 H   0  0  0  0  0  0  0  0  0  0  0  0
    4.6586   53.5479   24.7545 H   0  0  0  0  0  0  0  0  0  0  0  0
   11.3969   41.5460   31.4729 H   0  0  0  0  0  0  0  0  0  0  0  0
    9.8300   40.7410   31.7613 H   0  0  0  0  0  0  0  0  0  0  0  0
   11.6975   39.5067   30.3481 H   0  0  0  0  0  0  0  0  0  0  0  0
   10.1076   38.2648   32.6645 H   0  0  0  0  0  0  0  0  0  0  0  0
   13.6621   37.4467   31.2208 H   0  0  0  0  0  0  0  0  0  0  0  0
    8.8974   38.6944   30.8831 H   0  0  0  0  0  0  0  0  0  0  0  0
   11.2806   36.3073   32.5170 H   0  0  0  0  0  0  0  0  0  0  0  0
   10.8492   35.7110   30.4586 H   0  0  0  0  0  0  0  0  0  0  0  0
   12.3290   38.3524   34.7444 H   0  0  0  0  0  0  0  0  0  0  0  0
   16.7559   34.1780   32.4619 H   0  0  0  0  0  0  0  0  0  0  0  0
   15.3532   35.7362   37.5137 H   0  0  0  0  0  0  0  0  0  0  0  0
   16.6344   34.5301   37.1414 H   0  0  0  0  0  0  0  0  0  0  0  0
  1  2  2  0
  1  3  1  0
  3  4  1  0
  4  5  1  0
  6  1  1  0
  7  6  1  0
  6  8  1  0
  8  9  1  0
  9 10  2  0
 11  9  1  0
 10 12  1  0
 13 11  2  0
 12 14  2  0
 14 13  1  0
 14 15  1  0
 15 16  1  0
 16 17  1  0
 17 18  2  0
 19 17  1  0
 18 20  1  0
 21 19  2  0
 19 22  1  0
 20 23  1  0
 20 24  2  0
 24 21  1  0
 22 25  1  0
 22 26  2  0
 23 27  1  0
 24 28  1  0
 27 28  1  0
  4 29  2  0
  4 30  1  0
 31 30  1  0
 31 32  1  0
 32 33  1  0
 32 34  1  0
 33 35  1  0
 34 36  1  0
 34 37  1  0
 37 35  1  0
 35 38  1  0
 37 39  1  0
 40 38  1  0
 41 38  1  0
 42 40  2  0
 40 43  1  0
 44 41  2  0
 45 42  1  0
 43 46  2  0
 43 44  1  0
 47 45  2  0
 47 46  1  0
 46 48  1  0
  6 49  1  1
  7 50  1  0
  7 51  1  0
  8 52  1  0
  8 53  1  0
 10 54  1  0
 11 55  1  0
 12 56  1  0
 13 57  1  0
 16 58  1  0
 16 59  1  0
 18 60  1  0
 21 61  1  0
 27 62  1  0
 27 63  1  0
 31 64  1  0
 31 65  1  0
 32 66  1  0
 34 67  1  0
 35 68  1  0
 36 69  1  0
 37 70  1  0
 39 71  1  0
 41 72  1  0
 45 73  1  0
 48 74  1  0
 48 75  1  0
M  CHG  3   5  -1  22   1  25  -1
M  END
>  <EmbedRMS>  (203) 
0.0829303032136

$$$$

     RDKit          3D

 75 80  0  0  0  0  0  0  0  0999 V2000
   10.2803   43.7665   33.8251 C   0  0  0  0  0  0  0  0  0  0  0  0
   11.4110   43.5919   34.3666 O   0  0  0  0  0  0  0  0  0  0  0  0
    9.3616   42.7252   33.7348 O   0  0  0  0  0  0  0  0  0  0  0  0
    9.8898   41.2268   34.2939 P   0  0  0  0  0  0  0  0  0  0  0  0
   10.3738   41.4566   35.8831 O   0  0  0  0  0  0  0  0  0  0  0  0
    9.9459   45.0737   33.2112 C   0  0  1  0  0  0  0  0  0  0  0  0
   11.0266   46.0293   33.4709 N   0  0  0  0  0  0  0  0  0  0  0  0
    9.7540   44.8543   31.6949 C   0  0  0  0  0  0  0  0  0  0  0  0
    8.7957   45.8413   31.0849 C   0  0  0  0  0  0  0  0  0  0  0  0
    7.4090   45.5997   31.1008 C   0  0  0  0  0  0  0  0  0  0  0  0
    9.2824   46.9876   30.4390 C   0  0  0  0  0  0  0  0  0  0  0  0
    6.5261   46.4982   30.4857 C   0  0  0  0  0  0  0  0  0  0  0  0
    8.3997   47.8871   29.8302 C   0  0  0  0  0  0  0  0  0  0  0  0
    7.0181   47.6558   29.8484 C   0  0  0  0  0  0  0  0  0  0  0  0
    6.1781   48.5942   29.2270 O   0  0  0  0  0  0  0  0  0  0  0  0
    4.7501   48.5599   29.2469 C   0  0  0  0  0  0  0  0  0  0  0  0
    4.2245   48.8524   30.6346 C   0  0  0  0  0  0  0  0  0  0  0  0
    4.7773   49.9454   31.3425 C   0  0  0  0  0  0  0  0  0  0  0  0
    3.2256   48.0395   31.2624 C   0  0  0  0  0  0  0  0  0  0  0  0
    4.3654   50.1629   32.6509 C   0  0  0  0  0  0  0  0  0  0  0  0
    2.8569   48.2985   32.6026 C   0  0  0  0  0  0  0  0  0  0  0  0
    2.5634   46.9820   30.5525 N   0  0  0  0  0  0  0  0  0  0  0  0
    4.7776   51.1465   33.5292 O   0  0  0  0  0  0  0  0  0  0  0  0
    3.4507   49.3704   33.2565 C   0  0  0  0  0  0  0  0  0  0  0  0
    2.0366   47.2174   29.3035 O   0  0  0  0  0  0  0  0  0  0  0  0
    2.2587   45.9271   31.1463 O   0  0  0  0  0  0  0  0  0  0  0  0
    4.0751   50.9584   34.7654 C   0  0  0  0  0  0  0  0  0  0  0  0
    3.2381   49.8143   34.5475 O   0  0  0  0  0  0  0  0  0  0  0  0
    8.8122   40.1845   34.2134 O   0  0  0  0  0  0  0  0  0  0  0  0
   11.2400   40.7954   33.3680 O   0  0  0  0  0  0  0  0  0  0  0  0
   10.9124   40.6877   31.9967 C   0  0  0  0  0  0  0  0  0  0  0  0
   11.5169   39.3811   31.4420 C   0  0  0  0  0  0  0  0  0  0  0  0
   12.7500   39.0881   32.0760 O   0  0  0  0  0  0  0  0  0  0  0  0
   10.6043   38.1893   31.6659 C   0  0  0  0  0  0  0  0  0  0  0  0
   12.9395   37.6814   32.0280 C   0  0  0  0  0  0  0  0  0  0  0  0
    9.6353   38.0951   30.6499 O   0  0  0  0  0  0  0  0  0  0  0  0
   11.5804   37.0191   31.6934 C   0  0  0  0  0  0  0  0  0  0  0  0
   13.4851   37.2119   33.3244 N   0  0  0  0  0  0  0  0  0  0  0  0
   11.6118   36.3189   30.4673 O   0  0  0  0  0  0  0  0  0  0  0  0
   14.4801   36.3317   33.5732 C   0  0  0  0  0  0  0  0  0  0  0  0
   13.1139   37.6277   34.5692 C   0  0  0  0  0  0  0  0  0  0  0  0
   15.2076   35.6154   32.6744 N   0  0  0  0  0  0  0  0  0  0  0  0
   14.6756   36.2303   34.9186 C   0  0  0  0  0  0  0  0  0  0  0  0
   13.8215   37.0451   35.5786 N   0  0  0  0  0  0  0  0  0  0  0  0
   16.1642   34.7602   33.1551 C   0  0  0  0  0  0  0  0  0  0  0  0
   15.6526   35.3505   35.4134 C   0  0  0  0  0  0  0  0  0  0  0  0
   16.3796   34.6316   34.5045 N   0  0  0  0  0  0  0  0  0  0  0  0
   15.9001   35.1933   36.8093 N   0  0  0  0  0  0  0  0  0  0  0  0
    8.9994   45.4383   33.6721 H   0  0  0  0  0  0  0  0  0  0  0  0
   11.0501   46.2278   34.4983 H   0  0  0  0  0  0  0  0  0  0  0  0
   10.7764   46.9370   33.0159 H   0  0  0  0  0  0  0  0  0  0  0  0
    9.3647   43.8355   31.4711 H   0  0  0  0  0  0  0  0  0  0  0  0
   10.7412   44.9081   31.1837 H   0  0  0  0  0  0  0  0  0  0  0  0
    7.0150   44.7142   31.5842 H   0  0  0  0  0  0  0  0  0  0  0  0
   10.3463   47.1874   30.4045 H   0  0  0  0  0  0  0  0  0  0  0  0
    5.4687   46.2791   30.5113 H   0  0  0  0  0  0  0  0  0  0  0  0
    8.7916   48.7697   29.3407 H   0  0  0  0  0  0  0  0  0  0  0  0
    4.3743   49.3477   28.5613 H   0  0  0  0  0  0  0  0  0  0  0  0
    4.4098   47.5837   28.8485 H   0  0  0  0  0  0  0  0  0  0  0  0
    5.5237   50.5896   30.8948 H   0  0  0  0  0  0  0  0  0  0  0  0
    2.1099   47.6998   33.1078 H   0  0  0  0  0  0  0  0  0  0  0  0
    3.4538   51.8498   34.9935 H   0  0  0  0  0  0  0  0  0  0  0  0
    4.7927   50.7571   35.5881 H   0  0  0  0  0  0  0  0  0  0  0  0
    9.8214   40.7221   31.7645 H   0  0  0  0  0  0  0  0  0  0  0  0
   11.3806   41.5456   31.4683 H   0  0  0  0  0  0  0  0  0  0  0  0
   11.6986   39.5088   30.3499 H   0  0  0  0  0  0  0  0  0  0  0  0
   10.1109   38.2737   32.6630 H   0  0  0  0  0  0  0  0  0  0  0  0
   13.6783   37.4562   31.2271 H   0  0  0  0  0  0  0  0  0  0  0  0
    9.0020   37.3860   30.9348 H   0  0  0  0  0  0  0  0  0  0  0  0
   11.2808   36.3052   32.4921 H   0  0  0  0  0  0  0  0  0  0  0  0
   11.8818   36.9600   29.7584 H   0  0  0  0  0  0  0  0  0  0  0  0
   12.3303   38.3538   34.7446 H   0  0  0  0  0  0  0  0  0  0  0  0
   16.7563   34.1783   32.4623 H   0  0  0  0  0  0  0  0  0  0  0  0
   16.6348   34.5301   37.1418 H   0  0  0  0  0  0  0  0  0  0  0  0
   15.3532   35.7359   37.5142 H   0  0  0  0  0  0  0  0  0  0  0  0
  1  2  2  0
  1  3  1  0
  3  4  1  0
  4  5  1  0
  6  1  1  0
  7  6  1  0
  6  8  1  0
  8  9  1  0
  9 10  2  0
 11  9  1  0
 10 12  1  0
 13 11  2  0
 12 14  2  0
 14 13  1  0
 14 15  1  0
 15 16  1  0
 16 17  1  0
 17 18  2  0
 19 17  1  0
 18 20  1  0
 21 19  2  0
 19 22  1  0
 20 23  1  0
 20 24  2  0
 24 21  1  0
 22 25  1  0
 22 26  2  0
 23 27  1  0
 24 28  1  0
 27 28  1  0
  4 29  2  0
  4 30  1  0
 31 30  1  0
 31 32  1  0
 32 33  1  0
 32 34  1  0
 33 35  1  0
 34 36  1  0
 34 37  1  0
 37 35  1  0
 35 38  1  0
 37 39  1  0
 40 38  1  0
 41 38  1  0
 42 40  2  0
 40 43  1  0
 44 41  2  0
 45 42  1  0
 43 46  2  0
 43 44  1  0
 47 45  2  0
 47 46  1  0
 46 48  1  0
  6 49  1  1
  7 50  1  0
  7 51  1  0
  8 52  1  0
  8 53  1  0
 10 54  1  0
 11 55  1  0
 12 56  1  0
 13 57  1  0
 16 58  1  0
 16 59  1  0
 18 60  1  0
 21 61  1  0
 27 62  1  0
 27 63  1  0
 31 64  1  0
 31 65  1  0
 32 66  1  0
 34 67  1  0
 35 68  1  0
 36 69  1  0
 37 70  1  0
 39 71  1  0
 41 72  1  0
 45 73  1  0
 48 74  1  0
 48 75  1  0
M  CHG  3   5  -1  22   1  25  -1
M  END
>  <EmbedRMS>  (204) 
0.0813794151483

$$$$

     RDKit          3D

 75 80  0  0  0  0  0  0  0  0999 V2000
   10.2838   43.7626   33.8276 C   0  0  0  0  0  0  0  0  0  0  0  0
   11.4103   43.5863   34.3766 O   0  0  0  0  0  0  0  0  0  0  0  0
    9.3630   42.7236   33.7354 O   0  0  0  0  0  0  0  0  0  0  0  0
    9.8897   41.2248   34.2935 P   0  0  0  0  0  0  0  0  0  0  0  0
   10.3735   41.4542   35.8829 O   0  0  0  0  0  0  0  0  0  0  0  0
    9.9548   45.0699   33.2064 C   0  0  1  0  0  0  0  0  0  0  0  0
   11.0198   46.0480   33.4568 N   0  0  0  0  0  0  0  0  0  0  0  0
    9.7500   44.8508   31.6924 C   0  0  0  0  0  0  0  0  0  0  0  0
    8.7942   45.8419   31.0869 C   0  0  0  0  0  0  0  0  0  0  0  0
    7.4073   45.6010   31.1000 C   0  0  0  0  0  0  0  0  0  0  0  0
    9.2834   46.9893   30.4448 C   0  0  0  0  0  0  0  0  0  0  0  0
    6.5276   46.5018   30.4841 C   0  0  0  0  0  0  0  0  0  0  0  0
    8.4037   47.8902   29.8324 C   0  0  0  0  0  0  0  0  0  0  0  0
    7.0149   47.6515   29.8476 C   0  0  0  0  0  0  0  0  0  0  0  0
    6.0938   48.5215   29.2466 O   0  0  0  0  0  0  0  0  0  0  0  0
    6.4455   49.7191   28.5589 C   0  0  0  0  0  0  0  0  0  0  0  0
    5.1980   50.3760   28.0311 C   0  0  0  0  0  0  0  0  0  0  0  0
    4.6252   51.4286   28.7828 C   0  0  0  0  0  0  0  0  0  0  0  0
    4.5979   49.9851   26.7882 C   0  0  0  0  0  0  0  0  0  0  0  0
    3.5012   52.0678   28.2765 C   0  0  0  0  0  0  0  0  0  0  0  0
    3.4606   50.6840   26.3178 C   0  0  0  0  0  0  0  0  0  0  0  0
    5.1276   48.9056   25.9968 N   0  0  0  0  0  0  0  0  0  0  0  0
    2.7845   53.1117   28.8292 O   0  0  0  0  0  0  0  0  0  0  0  0
    2.9455   51.7134   27.0950 C   0  0  0  0  0  0  0  0  0  0  0  0
    5.6088   47.7648   26.5956 O   0  0  0  0  0  0  0  0  0  0  0  0
    5.0024   48.9219   24.7547 O   0  0  0  0  0  0  0  0  0  0  0  0
    1.7092   53.4319   27.9357 C   0  0  0  0  0  0  0  0  0  0  0  0
    1.8492   52.5152   26.8416 O   0  0  0  0  0  0  0  0  0  0  0  0
    8.8114   40.1834   34.2127 O   0  0  0  0  0  0  0  0  0  0  0  0
   11.2399   40.7937   33.3671 O   0  0  0  0  0  0  0  0  0  0  0  0
   10.9125   40.6857   31.9955 C   0  0  0  0  0  0  0  0  0  0  0  0
   11.5175   39.3786   31.4405 C   0  0  0  0  0  0  0  0  0  0  0  0
   12.7490   39.0863   32.0751 O   0  0  0  0  0  0  0  0  0  0  0  0
   10.6061   38.1867   31.6656 C   0  0  0  0  0  0  0  0  0  0  0  0
   12.9356   37.6796   32.0292 C   0  0  0  0  0  0  0  0  0  0  0  0
    9.6399   38.0902   30.6471 O   0  0  0  0  0  0  0  0  0  0  0  0
   11.5765   37.0145   31.7043 C   0  0  0  0  0  0  0  0  0  0  0  0
   13.4858   37.2125   33.3244 N   0  0  0  0  0  0  0  0  0  0  0  0
   11.6101   36.3396   30.4673 O   0  0  0  0  0  0  0  0  0  0  0  0
   14.4805   36.3319   33.5730 C   0  0  0  0  0  0  0  0  0  0  0  0
   13.1143   37.6276   34.5694 C   0  0  0  0  0  0  0  0  0  0  0  0
   15.2076   35.6153   32.6741 N   0  0  0  0  0  0  0  0  0  0  0  0
   14.6760   36.2304   34.9184 C   0  0  0  0  0  0  0  0  0  0  0  0
   13.8219   37.0449   35.5786 N   0  0  0  0  0  0  0  0  0  0  0  0
   16.1641   34.7600   33.1548 C   0  0  0  0  0  0  0  0  0  0  0  0
   15.6528   35.3505   35.4132 C   0  0  0  0  0  0  0  0  0  0  0  0
   16.3795   34.6314   34.5043 N   0  0  0  0  0  0  0  0  0  0  0  0
   15.9002   35.1931   36.8091 N   0  0  0  0  0  0  0  0  0  0  0  0
    9.0099   45.4349   33.6672 H   0  0  0  0  0  0  0  0  0  0  0  0
   11.1135   46.1992   34.4881 H   0  0  0  0  0  0  0  0  0  0  0  0
   11.9348   45.6932   33.0924 H   0  0  0  0  0  0  0  0  0  0  0  0
   10.7303   44.8922   31.1675 H   0  0  0  0  0  0  0  0  0  0  0  0
    9.3507   43.8344   31.4763 H   0  0  0  0  0  0  0  0  0  0  0  0
    7.0107   44.7158   31.5819 H   0  0  0  0  0  0  0  0  0  0  0  0
   10.3477   47.1882   30.4163 H   0  0  0  0  0  0  0  0  0  0  0  0
    5.4632   46.3046   30.5009 H   0  0  0  0  0  0  0  0  0  0  0  0
    8.8141   48.7660   29.3490 H   0  0  0  0  0  0  0  0  0  0  0  0
    7.1442   49.4998   27.7233 H   0  0  0  0  0  0  0  0  0  0  0  0
    6.9720   50.4018   29.2617 H   0  0  0  0  0  0  0  0  0  0  0  0
    5.0471   51.7447   29.7287 H   0  0  0  0  0  0  0  0  0  0  0  0
    2.9824   50.4211   25.3830 H   0  0  0  0  0  0  0  0  0  0  0  0
    1.8080   54.4771   27.5749 H   0  0  0  0  0  0  0  0  0  0  0  0
    0.7322   53.2797   28.4405 H   0  0  0  0  0  0  0  0  0  0  0  0
   11.3806   41.5436   31.4669 H   0  0  0  0  0  0  0  0  0  0  0  0
    9.8215   40.7200   31.7634 H   0  0  0  0  0  0  0  0  0  0  0  0
   11.6998   39.5041   30.3481 H   0  0  0  0  0  0  0  0  0  0  0  0
   10.1085   38.2765   32.6603 H   0  0  0  0  0  0  0  0  0  0  0  0
   13.6680   37.4519   31.2229 H   0  0  0  0  0  0  0  0  0  0  0  0
    9.0016   37.3867   30.9349 H   0  0  0  0  0  0  0  0  0  0  0  0
   11.2666   36.3061   32.5083 H   0  0  0  0  0  0  0  0  0  0  0  0
   12.1389   35.5126   30.6149 H   0  0  0  0  0  0  0  0  0  0  0  0
   12.3300   38.3529   34.7449 H   0  0  0  0  0  0  0  0  0  0  0  0
   16.7560   34.1779   32.4620 H   0  0  0  0  0  0  0  0  0  0  0  0
   15.3534   35.7359   37.5140 H   0  0  0  0  0  0  0  0  0  0  0  0
   16.6347   34.5298   37.1416 H   0  0  0  0  0  0  0  0  0  0  0  0
  1  2  2  0
  1  3  1  0
  3  4  1  0
  4  5  1  0
  6  1  1  0
  7  6  1  0
  6  8  1  0
  8  9  1  0
  9 10  2  0
 11  9  1  0
 10 12  1  0
 13 11  2  0
 12 14  2  0
 14 13  1  0
 14 15  1  0
 15 16  1  0
 16 17  1  0
 17 18  2  0
 19 17  1  0
 18 20  1  0
 21 19  2  0
 19 22  1  0
 20 23  1  0
 20 24  2  0
 24 21  1  0
 22 25  1  0
 22 26  2  0
 23 27  1  0
 24 28  1  0
 27 28  1  0
  4 29  2  0
  4 30  1  0
 31 30  1  0
 31 32  1  0
 32 33  1  0
 32 34  1  0
 33 35  1  0
 34 36  1  0
 34 37  1  0
 37 35  1  0
 35 38  1  0
 37 39  1  0
 40 38  1  0
 41 38  1  0
 42 40  2  0
 40 43  1  0
 44 41  2  0
 45 42  1  0
 43 46  2  0
 43 44  1  0
 47 45  2  0
 47 46  1  0
 46 48  1  0
  6 49  1  1
  7 50  1  0
  7 51  1  0
  8 52  1  0
  8 53  1  0
 10 54  1  0
 11 55  1  0
 12 56  1  0
 13 57  1  0
 16 58  1  0
 16 59  1  0
 18 60  1  0
 21 61  1  0
 27 62  1  0
 27 63  1  0
 31 64  1  0
 31 65  1  0
 32 66  1  0
 34 67  1  0
 35 68  1  0
 36 69  1  0
 37 70  1  0
 39 71  1  0
 41 72  1  0
 45 73  1  0
 48 74  1  0
 48 75  1  0
M  CHG  3   5  -1  22   1  25  -1
M  END
>  <EmbedRMS>  (205) 
0.0832906129576

$$$$

     RDKit          3D

 75 80  0  0  0  0  0  0  0  0999 V2000
   10.2834   43.7663   33.8257 C   0  0  0  0  0  0  0  0  0  0  0  0
   11.4102   43.5930   34.3752 O   0  0  0  0  0  0  0  0  0  0  0  0
    9.3635   42.7257   33.7352 O   0  0  0  0  0  0  0  0  0  0  0  0
    9.8902   41.2269   34.2942 P   0  0  0  0  0  0  0  0  0  0  0  0
   10.3739   41.4560   35.8835 O   0  0  0  0  0  0  0  0  0  0  0  0
    9.9548   45.0696   33.2035 C   0  0  1  0  0  0  0  0  0  0  0  0
   11.0274   46.0322   33.4759 N   0  0  0  0  0  0  0  0  0  0  0  0
    9.7470   44.8484   31.6875 C   0  0  0  0  0  0  0  0  0  0  0  0
    8.7924   45.8409   31.0844 C   0  0  0  0  0  0  0  0  0  0  0  0
    7.4055   45.6009   31.0995 C   0  0  0  0  0  0  0  0  0  0  0  0
    9.2818   46.9881   30.4420 C   0  0  0  0  0  0  0  0  0  0  0  0
    6.5241   46.5011   30.4849 C   0  0  0  0  0  0  0  0  0  0  0  0
    8.4006   47.8886   29.8322 C   0  0  0  0  0  0  0  0  0  0  0  0
    7.0190   47.6561   29.8459 C   0  0  0  0  0  0  0  0  0  0  0  0
    6.1798   48.5880   29.2179 O   0  0  0  0  0  0  0  0  0  0  0  0
    4.7593   48.4788   29.1504 C   0  0  0  0  0  0  0  0  0  0  0  0
    4.1995   49.6347   28.3588 C   0  0  0  0  0  0  0  0  0  0  0  0
    4.7751   49.9191   27.0980 C   0  0  0  0  0  0  0  0  0  0  0  0
    3.1383   50.4626   28.8511 C   0  0  0  0  0  0  0  0  0  0  0  0
    4.3197   51.0285   26.3971 C   0  0  0  0  0  0  0  0  0  0  0  0
    2.7274   51.5890   28.1013 C   0  0  0  0  0  0  0  0  0  0  0  0
    2.4498   50.1550   30.0727 N   0  0  0  0  0  0  0  0  0  0  0  0
    4.7403   51.5010   25.1688 O   0  0  0  0  0  0  0  0  0  0  0  0
    3.3438   51.8318   26.8804 C   0  0  0  0  0  0  0  0  0  0  0  0
    1.9667   48.8847   30.2868 O   0  0  0  0  0  0  0  0  0  0  0  0
    2.0752   51.0771   30.8263 O   0  0  0  0  0  0  0  0  0  0  0  0
    3.9778   52.6764   24.8623 C   0  0  0  0  0  0  0  0  0  0  0  0
    3.0979   52.8516   25.9813 O   0  0  0  0  0  0  0  0  0  0  0  0
    8.8121   40.1852   34.2131 O   0  0  0  0  0  0  0  0  0  0  0  0
   11.2402   40.7951   33.3682 O   0  0  0  0  0  0  0  0  0  0  0  0
   10.9126   40.6877   31.9968 C   0  0  0  0  0  0  0  0  0  0  0  0
   11.5169   39.3811   31.4420 C   0  0  0  0  0  0  0  0  0  0  0  0
   12.7500   39.0881   32.0759 O   0  0  0  0  0  0  0  0  0  0  0  0
   10.6043   38.1893   31.6659 C   0  0  0  0  0  0  0  0  0  0  0  0
   12.9395   37.6814   32.0280 C   0  0  0  0  0  0  0  0  0  0  0  0
    9.6353   38.0951   30.6499 O   0  0  0  0  0  0  0  0  0  0  0  0
   11.5804   37.0191   31.6934 C   0  0  0  0  0  0  0  0  0  0  0  0
   13.4851   37.2119   33.3244 N   0  0  0  0  0  0  0  0  0  0  0  0
   11.6118   36.3189   30.4673 O   0  0  0  0  0  0  0  0  0  0  0  0
   14.4801   36.3316   33.5732 C   0  0  0  0  0  0  0  0  0  0  0  0
   13.1139   37.6277   34.5692 C   0  0  0  0  0  0  0  0  0  0  0  0
   15.2076   35.6154   32.6744 N   0  0  0  0  0  0  0  0  0  0  0  0
   14.6756   36.2303   34.9186 C   0  0  0  0  0  0  0  0  0  0  0  0
   13.8215   37.0450   35.5786 N   0  0  0  0  0  0  0  0  0  0  0  0
   16.1642   34.7602   33.1551 C   0  0  0  0  0  0  0  0  0  0  0  0
   15.6526   35.3505   35.4134 C   0  0  0  0  0  0  0  0  0  0  0  0
   16.3796   34.6316   34.5045 N   0  0  0  0  0  0  0  0  0  0  0  0
   15.9001   35.1933   36.8093 N   0  0  0  0  0  0  0  0  0  0  0  0
    9.0121   45.4319   33.6712 H   0  0  0  0  0  0  0  0  0  0  0  0
   11.8908   45.7658   32.9475 H   0  0  0  0  0  0  0  0  0  0  0  0
   10.7262   46.9688   33.1214 H   0  0  0  0  0  0  0  0  0  0  0  0
   10.7235   44.8824   31.1557 H   0  0  0  0  0  0  0  0  0  0  0  0
    9.3425   43.8331   31.4759 H   0  0  0  0  0  0  0  0  0  0  0  0
    7.0099   44.7156   31.5821 H   0  0  0  0  0  0  0  0  0  0  0  0
   10.3461   47.1864   30.4104 H   0  0  0  0  0  0  0  0  0  0  0  0
    5.4642   46.2887   30.5130 H   0  0  0  0  0  0  0  0  0  0  0  0
    8.7937   48.7705   29.3424 H   0  0  0  0  0  0  0  0  0  0  0  0
    4.4834   47.5329   28.6364 H   0  0  0  0  0  0  0  0  0  0  0  0
    4.3638   48.4580   30.1851 H   0  0  0  0  0  0  0  0  0  0  0  0
    5.5675   49.3058   26.6873 H   0  0  0  0  0  0  0  0  0  0  0  0
    1.9313   52.2362   28.4464 H   0  0  0  0  0  0  0  0  0  0  0  0
    4.6496   53.5547   24.7621 H   0  0  0  0  0  0  0  0  0  0  0  0
    3.3901   52.5215   23.9333 H   0  0  0  0  0  0  0  0  0  0  0  0
    9.8216   40.7222   31.7647 H   0  0  0  0  0  0  0  0  0  0  0  0
   11.3808   41.5456   31.4686 H   0  0  0  0  0  0  0  0  0  0  0  0
   11.6986   39.5089   30.3499 H   0  0  0  0  0  0  0  0  0  0  0  0
   10.1109   38.2737   32.6630 H   0  0  0  0  0  0  0  0  0  0  0  0
   13.6783   37.4562   31.2271 H   0  0  0  0  0  0  0  0  0  0  0  0
    9.0020   37.3860   30.9348 H   0  0  0  0  0  0  0  0  0  0  0  0
   11.2807   36.3053   32.4921 H   0  0  0  0  0  0  0  0  0  0  0  0
   11.8818   36.9600   29.7584 H   0  0  0  0  0  0  0  0  0  0  0  0
   12.3303   38.3538   34.7446 H   0  0  0  0  0  0  0  0  0  0  0  0
   16.7564   34.1783   32.4623 H   0  0  0  0  0  0  0  0  0  0  0  0
   15.3532   35.7359   37.5142 H   0  0  0  0  0  0  0  0  0  0  0  0
   16.6348   34.5301   37.1418 H   0  0  0  0  0  0  0  0  0  0  0  0
  1  2  2  0
  1  3  1  0
  3  4  1  0
  4  5  1  0
  6  1  1  0
  7  6  1  0
  6  8  1  0
  8  9  1  0
  9 10  2  0
 11  9  1  0
 10 12  1  0
 13 11  2  0
 12 14  2  0
 14 13  1  0
 14 15  1  0
 15 16  1  0
 16 17  1  0
 17 18  2  0
 19 17  1  0
 18 20  1  0
 21 19  2  0
 19 22  1  0
 20 23  1  0
 20 24  2  0
 24 21  1  0
 22 25  1  0
 22 26  2  0
 23 27  1  0
 24 28  1  0
 27 28  1  0
  4 29  2  0
  4 30  1  0
 31 30  1  0
 31 32  1  0
 32 33  1  0
 32 34  1  0
 33 35  1  0
 34 36  1  0
 34 37  1  0
 37 35  1  0
 35 38  1  0
 37 39  1  0
 40 38  1  0
 41 38  1  0
 42 40  2  0
 40 43  1  0
 44 41  2  0
 45 42  1  0
 43 46  2  0
 43 44  1  0
 47 45  2  0
 47 46  1  0
 46 48  1  0
  6 49  1  1
  7 50  1  0
  7 51  1  0
  8 52  1  0
  8 53  1  0
 10 54  1  0
 11 55  1  0
 12 56  1  0
 13 57  1  0
 16 58  1  0
 16 59  1  0
 18 60  1  0
 21 61  1  0
 27 62  1  0
 27 63  1  0
 31 64  1  0
 31 65  1  0
 32 66  1  0
 34 67  1  0
 35 68  1  0
 36 69  1  0
 37 70  1  0
 39 71  1  0
 41 72  1  0
 45 73  1  0
 48 74  1  0
 48 75  1  0
M  CHG  3   5  -1  22   1  25  -1
M  END
>  <EmbedRMS>  (206) 
0.0815523922189

$$$$

     RDKit          3D

 75 80  0  0  0  0  0  0  0  0999 V2000
   10.2806   43.7663   33.8250 C   0  0  0  0  0  0  0  0  0  0  0  0
   11.4112   43.5918   34.3668 O   0  0  0  0  0  0  0  0  0  0  0  0
    9.3622   42.7247   33.7343 O   0  0  0  0  0  0  0  0  0  0  0  0
    9.8904   41.2264   34.2936 P   0  0  0  0  0  0  0  0  0  0  0  0
   10.3731   41.4564   35.8832 O   0  0  0  0  0  0  0  0  0  0  0  0
    9.9459   45.0735   33.2113 C   0  0  1  0  0  0  0  0  0  0  0  0
   11.0267   46.0291   33.4706 N   0  0  0  0  0  0  0  0  0  0  0  0
    9.7534   44.8539   31.6951 C   0  0  0  0  0  0  0  0  0  0  0  0
    8.7954   45.8415   31.0854 C   0  0  0  0  0  0  0  0  0  0  0  0
    7.4086   45.6006   31.1008 C   0  0  0  0  0  0  0  0  0  0  0  0
    9.2830   46.9876   30.4396 C   0  0  0  0  0  0  0  0  0  0  0  0
    6.5281   46.5006   30.4847 C   0  0  0  0  0  0  0  0  0  0  0  0
    8.4027   47.8889   29.8299 C   0  0  0  0  0  0  0  0  0  0  0  0
    7.0133   47.6515   29.8487 C   0  0  0  0  0  0  0  0  0  0  0  0
    6.0874   48.5177   29.2422 O   0  0  0  0  0  0  0  0  0  0  0  0
    6.4066   49.7742   28.6390 C   0  0  0  0  0  0  0  0  0  0  0  0
    6.9516   49.6422   27.2279 C   0  0  0  0  0  0  0  0  0  0  0  0
    7.1268   48.3615   26.6403 C   0  0  0  0  0  0  0  0  0  0  0  0
    7.2308   50.8120   26.4430 C   0  0  0  0  0  0  0  0  0  0  0  0
    7.5805   48.2863   25.3305 C   0  0  0  0  0  0  0  0  0  0  0  0
    7.6782   50.6693   25.1086 C   0  0  0  0  0  0  0  0  0  0  0  0
    7.0352   52.1386   26.9650 N   0  0  0  0  0  0  0  0  0  0  0  0
    7.8245   47.1585   24.5705 O   0  0  0  0  0  0  0  0  0  0  0  0
    7.8448   49.3905   24.5973 C   0  0  0  0  0  0  0  0  0  0  0  0
    7.4631   52.4663   28.2299 O   0  0  0  0  0  0  0  0  0  0  0  0
    6.6456   53.0533   26.2098 O   0  0  0  0  0  0  0  0  0  0  0  0
    8.2740   47.5851   23.2773 C   0  0  0  0  0  0  0  0  0  0  0  0
    8.2716   49.0179   23.3372 O   0  0  0  0  0  0  0  0  0  0  0  0
    8.8129   40.1841   34.2124 O   0  0  0  0  0  0  0  0  0  0  0  0
   11.2419   40.7944   33.3695 O   0  0  0  0  0  0  0  0  0  0  0  0
   10.9186   40.6911   31.9969 C   0  0  0  0  0  0  0  0  0  0  0  0
   11.5172   39.3814   31.4407 C   0  0  0  0  0  0  0  0  0  0  0  0
   12.7492   39.0856   32.0729 O   0  0  0  0  0  0  0  0  0  0  0  0
   10.6023   38.1908   31.6665 C   0  0  0  0  0  0  0  0  0  0  0  0
   12.9319   37.6781   32.0281 C   0  0  0  0  0  0  0  0  0  0  0  0
    9.6392   38.0797   30.6452 O   0  0  0  0  0  0  0  0  0  0  0  0
   11.5715   37.0165   31.7056 C   0  0  0  0  0  0  0  0  0  0  0  0
   13.4847   37.2121   33.3235 N   0  0  0  0  0  0  0  0  0  0  0  0
   11.6187   36.3384   30.4695 O   0  0  0  0  0  0  0  0  0  0  0  0
   14.4801   36.3321   33.5724 C   0  0  0  0  0  0  0  0  0  0  0  0
   13.1137   37.6276   34.5688 C   0  0  0  0  0  0  0  0  0  0  0  0
   15.2073   35.6153   32.6738 N   0  0  0  0  0  0  0  0  0  0  0  0
   14.6759   36.2308   34.9179 C   0  0  0  0  0  0  0  0  0  0  0  0
   13.8216   37.0452   35.5781 N   0  0  0  0  0  0  0  0  0  0  0  0
   16.1640   34.7602   33.1546 C   0  0  0  0  0  0  0  0  0  0  0  0
   15.6526   35.3508   35.4129 C   0  0  0  0  0  0  0  0  0  0  0  0
   16.3794   34.6317   34.5041 N   0  0  0  0  0  0  0  0  0  0  0  0
   15.8999   35.1934   36.8088 N   0  0  0  0  0  0  0  0  0  0  0  0
    8.9997   45.4380   33.6726 H   0  0  0  0  0  0  0  0  0  0  0  0
   11.0505   46.2277   34.4980 H   0  0  0  0  0  0  0  0  0  0  0  0
   10.7765   46.9367   33.0155 H   0  0  0  0  0  0  0  0  0  0  0  0
    9.3632   43.8354   31.4715 H   0  0  0  0  0  0  0  0  0  0  0  0
   10.7404   44.9069   31.1835 H   0  0  0  0  0  0  0  0  0  0  0  0
    7.0131   44.7159   31.5844 H   0  0  0  0  0  0  0  0  0  0  0  0
   10.3475   47.1840   30.4028 H   0  0  0  0  0  0  0  0  0  0  0  0
    5.4639   46.3021   30.5019 H   0  0  0  0  0  0  0  0  0  0  0  0
    8.8158   48.7551   29.3323 H   0  0  0  0  0  0  0  0  0  0  0  0
    7.1196   50.3180   29.2910 H   0  0  0  0  0  0  0  0  0  0  0  0
    5.4728   50.3729   28.5924 H   0  0  0  0  0  0  0  0  0  0  0  0
    6.9058   47.4446   27.1672 H   0  0  0  0  0  0  0  0  0  0  0  0
    7.8969   51.5314   24.4916 H   0  0  0  0  0  0  0  0  0  0  0  0
    7.5730   47.2332   22.4916 H   0  0  0  0  0  0  0  0  0  0  0  0
    9.3016   47.2113   23.0851 H   0  0  0  0  0  0  0  0  0  0  0  0
   11.3967   41.5459   31.4726 H   0  0  0  0  0  0  0  0  0  0  0  0
    9.8298   40.7409   31.7611 H   0  0  0  0  0  0  0  0  0  0  0  0
   11.6975   39.5066   30.3481 H   0  0  0  0  0  0  0  0  0  0  0  0
   10.1077   38.2648   32.6645 H   0  0  0  0  0  0  0  0  0  0  0  0
   13.6621   37.4468   31.2209 H   0  0  0  0  0  0  0  0  0  0  0  0
    8.8974   38.6942   30.8832 H   0  0  0  0  0  0  0  0  0  0  0  0
   11.2806   36.3073   32.5170 H   0  0  0  0  0  0  0  0  0  0  0  0
   10.8493   35.7110   30.4586 H   0  0  0  0  0  0  0  0  0  0  0  0
   12.3291   38.3524   34.7444 H   0  0  0  0  0  0  0  0  0  0  0  0
   16.7559   34.1780   32.4619 H   0  0  0  0  0  0  0  0  0  0  0  0
   15.3531   35.7362   37.5137 H   0  0  0  0  0  0  0  0  0  0  0  0
   16.6344   34.5301   37.1414 H   0  0  0  0  0  0  0  0  0  0  0  0
  1  2  2  0
  1  3  1  0
  3  4  1  0
  4  5  1  0
  6  1  1  0
  7  6  1  0
  6  8  1  0
  8  9  1  0
  9 10  2  0
 11  9  1  0
 10 12  1  0
 13 11  2  0
 12 14  2  0
 14 13  1  0
 14 15  1  0
 15 16  1  0
 16 17  1  0
 17 18  2  0
 19 17  1  0
 18 20  1  0
 21 19  2  0
 19 22  1  0
 20 23  1  0
 20 24  2  0
 24 21  1  0
 22 25  1  0
 22 26  2  0
 23 27  1  0
 24 28  1  0
 27 28  1  0
  4 29  2  0
  4 30  1  0
 31 30  1  0
 31 32  1  0
 32 33  1  0
 32 34  1  0
 33 35  1  0
 34 36  1  0
 34 37  1  0
 37 35  1  0
 35 38  1  0
 37 39  1  0
 40 38  1  0
 41 38  1  0
 42 40  2  0
 40 43  1  0
 44 41  2  0
 45 42  1  0
 43 46  2  0
 43 44  1  0
 47 45  2  0
 47 46  1  0
 46 48  1  0
  6 49  1  1
  7 50  1  0
  7 51  1  0
  8 52  1  0
  8 53  1  0
 10 54  1  0
 11 55  1  0
 12 56  1  0
 13 57  1  0
 16 58  1  0
 16 59  1  0
 18 60  1  0
 21 61  1  0
 27 62  1  0
 27 63  1  0
 31 64  1  0
 31 65  1  0
 32 66  1  0
 34 67  1  0
 35 68  1  0
 36 69  1  0
 37 70  1  0
 39 71  1  0
 41 72  1  0
 45 73  1  0
 48 74  1  0
 48 75  1  0
M  CHG  3   5  -1  22   1  25  -1
M  END
>  <EmbedRMS>  (207) 
0.0827631428187

$$$$

     RDKit          3D

 75 80  0  0  0  0  0  0  0  0999 V2000
   10.2804   43.7664   33.8249 C   0  0  0  0  0  0  0  0  0  0  0  0
   11.4110   43.5919   34.3666 O   0  0  0  0  0  0  0  0  0  0  0  0
    9.3619   42.7249   33.7344 O   0  0  0  0  0  0  0  0  0  0  0  0
    9.8899   41.2266   34.2940 P   0  0  0  0  0  0  0  0  0  0  0  0
   10.3734   41.4567   35.8833 O   0  0  0  0  0  0  0  0  0  0  0  0
    9.9460   45.0736   33.2110 C   0  0  1  0  0  0  0  0  0  0  0  0
   11.0266   46.0292   33.4707 N   0  0  0  0  0  0  0  0  0  0  0  0
    9.7541   44.8541   31.6946 C   0  0  0  0  0  0  0  0  0  0  0  0
    8.7958   45.8409   31.0844 C   0  0  0  0  0  0  0  0  0  0  0  0
    7.4089   45.6003   31.1016 C   0  0  0  0  0  0  0  0  0  0  0  0
    9.2824   46.9883   30.4401 C   0  0  0  0  0  0  0  0  0  0  0  0
    6.5259   46.4996   30.4878 C   0  0  0  0  0  0  0  0  0  0  0  0
    8.3995   47.8880   29.8320 C   0  0  0  0  0  0  0  0  0  0  0  0
    7.0185   47.6530   29.8441 C   0  0  0  0  0  0  0  0  0  0  0  0
    6.1810   48.5841   29.2094 O   0  0  0  0  0  0  0  0  0  0  0  0
    4.7778   48.4231   28.9964 C   0  0  0  0  0  0  0  0  0  0  0  0
    4.5046   47.3251   27.9945 C   0  0  0  0  0  0  0  0  0  0  0  0
    3.6142   46.2879   28.3598 C   0  0  0  0  0  0  0  0  0  0  0  0
    5.1489   47.2844   26.7132 C   0  0  0  0  0  0  0  0  0  0  0  0
    3.4136   45.2425   27.4684 C   0  0  0  0  0  0  0  0  0  0  0  0
    4.9139   46.1858   25.8527 C   0  0  0  0  0  0  0  0  0  0  0  0
    6.0421   48.3265   26.2812 N   0  0  0  0  0  0  0  0  0  0  0  0
    2.6067   44.1308   27.6159 O   0  0  0  0  0  0  0  0  0  0  0  0
    4.0385   45.1918   26.2696 C   0  0  0  0  0  0  0  0  0  0  0  0
    5.7608   49.6465   26.5457 O   0  0  0  0  0  0  0  0  0  0  0  0
    6.9948   48.0577   25.5204 O   0  0  0  0  0  0  0  0  0  0  0  0
    2.7341   43.3316   26.4319 C   0  0  0  0  0  0  0  0  0  0  0  0
    3.6574   44.0457   25.5986 O   0  0  0  0  0  0  0  0  0  0  0  0
    8.8123   40.1844   34.2133 O   0  0  0  0  0  0  0  0  0  0  0  0
   11.2405   40.7942   33.3691 O   0  0  0  0  0  0  0  0  0  0  0  0
   10.9150   40.6905   31.9972 C   0  0  0  0  0  0  0  0  0  0  0  0
   11.5252   39.3886   31.4375 C   0  0  0  0  0  0  0  0  0  0  0  0
   12.7499   39.0874   32.0799 O   0  0  0  0  0  0  0  0  0  0  0  0
   10.6092   38.1926   31.6469 C   0  0  0  0  0  0  0  0  0  0  0  0
   12.9332   37.6793   32.0294 C   0  0  0  0  0  0  0  0  0  0  0  0
    9.6122   38.0894   30.6542 O   0  0  0  0  0  0  0  0  0  0  0  0
   11.5743   37.0145   31.7024 C   0  0  0  0  0  0  0  0  0  0  0  0
   13.4844   37.2108   33.3241 N   0  0  0  0  0  0  0  0  0  0  0  0
   11.6297   36.3239   30.4740 O   0  0  0  0  0  0  0  0  0  0  0  0
   14.4802   36.3313   33.5727 C   0  0  0  0  0  0  0  0  0  0  0  0
   13.1138   37.6266   34.5692 C   0  0  0  0  0  0  0  0  0  0  0  0
   15.2075   35.6149   32.6739 N   0  0  0  0  0  0  0  0  0  0  0  0
   14.6761   36.2303   34.9182 C   0  0  0  0  0  0  0  0  0  0  0  0
   13.8220   37.0447   35.5785 N   0  0  0  0  0  0  0  0  0  0  0  0
   16.1643   34.7600   33.1547 C   0  0  0  0  0  0  0  0  0  0  0  0
   15.6529   35.3505   35.4130 C   0  0  0  0  0  0  0  0  0  0  0  0
   16.3798   34.6315   34.5042 N   0  0  0  0  0  0  0  0  0  0  0  0
   15.9003   35.1932   36.8090 N   0  0  0  0  0  0  0  0  0  0  0  0
    8.9995   45.4381   33.6719 H   0  0  0  0  0  0  0  0  0  0  0  0
   11.0501   46.2277   34.4981 H   0  0  0  0  0  0  0  0  0  0  0  0
   10.7764   46.9369   33.0158 H   0  0  0  0  0  0  0  0  0  0  0  0
   10.7412   44.9078   31.1833 H   0  0  0  0  0  0  0  0  0  0  0  0
    9.3646   43.8353   31.4709 H   0  0  0  0  0  0  0  0  0  0  0  0
    7.0146   44.7170   31.5888 H   0  0  0  0  0  0  0  0  0  0  0  0
   10.3462   47.1883   30.4059 H   0  0  0  0  0  0  0  0  0  0  0  0
    5.4674   46.2899   30.5290 H   0  0  0  0  0  0  0  0  0  0  0  0
    8.7915   48.7691   29.3399 H   0  0  0  0  0  0  0  0  0  0  0  0
    4.2710   48.2386   29.9684 H   0  0  0  0  0  0  0  0  0  0  0  0
    4.3620   49.3750   28.6081 H   0  0  0  0  0  0  0  0  0  0  0  0
    3.1056   46.2865   29.3156 H   0  0  0  0  0  0  0  0  0  0  0  0
    5.3868   46.1177   24.8815 H   0  0  0  0  0  0  0  0  0  0  0  0
    3.1422   42.3310   26.6861 H   0  0  0  0  0  0  0  0  0  0  0  0
    1.7515   43.2392   25.9234 H   0  0  0  0  0  0  0  0  0  0  0  0
    9.8242   40.7216   31.7640 H   0  0  0  0  0  0  0  0  0  0  0  0
   11.3801   41.5528   31.4730 H   0  0  0  0  0  0  0  0  0  0  0  0
   11.7266   39.5310   30.3512 H   0  0  0  0  0  0  0  0  0  0  0  0
   10.1110   38.2747   32.6387 H   0  0  0  0  0  0  0  0  0  0  0  0
   13.6652   37.4520   31.2226 H   0  0  0  0  0  0  0  0  0  0  0  0
   10.0511   38.1143   29.7645 H   0  0  0  0  0  0  0  0  0  0  0  0
   11.2761   36.3142   32.5190 H   0  0  0  0  0  0  0  0  0  0  0  0
   10.8593   35.6978   30.4640 H   0  0  0  0  0  0  0  0  0  0  0  0
   12.3294   38.3518   34.7449 H   0  0  0  0  0  0  0  0  0  0  0  0
   16.7564   34.1779   32.4620 H   0  0  0  0  0  0  0  0  0  0  0  0
   15.3534   35.7359   37.5138 H   0  0  0  0  0  0  0  0  0  0  0  0
   16.6349   34.5300   37.1415 H   0  0  0  0  0  0  0  0  0  0  0  0
  1  2  2  0
  1  3  1  0
  3  4  1  0
  4  5  1  0
  6  1  1  0
  7  6  1  0
  6  8  1  0
  8  9  1  0
  9 10  2  0
 11  9  1  0
 10 12  1  0
 13 11  2  0
 12 14  2  0
 14 13  1  0
 14 15  1  0
 15 16  1  0
 16 17  1  0
 17 18  2  0
 19 17  1  0
 18 20  1  0
 21 19  2  0
 19 22  1  0
 20 23  1  0
 20 24  2  0
 24 21  1  0
 22 25  1  0
 22 26  2  0
 23 27  1  0
 24 28  1  0
 27 28  1  0
  4 29  2  0
  4 30  1  0
 31 30  1  0
 31 32  1  0
 32 33  1  0
 32 34  1  0
 33 35  1  0
 34 36  1  0
 34 37  1  0
 37 35  1  0
 35 38  1  0
 37 39  1  0
 40 38  1  0
 41 38  1  0
 42 40  2  0
 40 43  1  0
 44 41  2  0
 45 42  1  0
 43 46  2  0
 43 44  1  0
 47 45  2  0
 47 46  1  0
 46 48  1  0
  6 49  1  1
  7 50  1  0
  7 51  1  0
  8 52  1  0
  8 53  1  0
 10 54  1  0
 11 55  1  0
 12 56  1  0
 13 57  1  0
 16 58  1  0
 16 59  1  0
 18 60  1  0
 21 61  1  0
 27 62  1  0
 27 63  1  0
 31 64  1  0
 31 65  1  0
 32 66  1  0
 34 67  1  0
 35 68  1  0
 36 69  1  0
 37 70  1  0
 39 71  1  0
 41 72  1  0
 45 73  1  0
 48 74  1  0
 48 75  1  0
M  CHG  3   5  -1  22   1  25  -1
M  END
>  <EmbedRMS>  (208) 
0.0816468507181

$$$$

     RDKit          3D

 75 80  0  0  0  0  0  0  0  0999 V2000
   10.2838   43.7627   33.8275 C   0  0  0  0  0  0  0  0  0  0  0  0
   11.4101   43.5863   34.3768 O   0  0  0  0  0  0  0  0  0  0  0  0
    9.3630   42.7237   33.7352 O   0  0  0  0  0  0  0  0  0  0  0  0
    9.8893   41.2250   34.2942 P   0  0  0  0  0  0  0  0  0  0  0  0
   10.3728   41.4546   35.8835 O   0  0  0  0  0  0  0  0  0  0  0  0
    9.9551   45.0701   33.2065 C   0  0  1  0  0  0  0  0  0  0  0  0
   11.0201   46.0480   33.4576 N   0  0  0  0  0  0  0  0  0  0  0  0
    9.7508   44.8515   31.6923 C   0  0  0  0  0  0  0  0  0  0  0  0
    8.7943   45.8422   31.0874 C   0  0  0  0  0  0  0  0  0  0  0  0
    7.4076   45.6004   31.1008 C   0  0  0  0  0  0  0  0  0  0  0  0
    9.2825   46.9889   30.4438 C   0  0  0  0  0  0  0  0  0  0  0  0
    6.5255   46.4999   30.4863 C   0  0  0  0  0  0  0  0  0  0  0  0
    8.4009   47.8871   29.8310 C   0  0  0  0  0  0  0  0  0  0  0  0
    7.0191   47.6557   29.8466 C   0  0  0  0  0  0  0  0  0  0  0  0
    6.1799   48.5858   29.2093 O   0  0  0  0  0  0  0  0  0  0  0  0
    4.7505   48.5640   29.2443 C   0  0  0  0  0  0  0  0  0  0  0  0
    4.1375   47.5907   28.2523 C   0  0  0  0  0  0  0  0  0  0  0  0
    4.9699   46.7970   27.4196 C   0  0  0  0  0  0  0  0  0  0  0  0
    2.7102   47.5038   28.0962 C   0  0  0  0  0  0  0  0  0  0  0  0
    4.3743   45.9484   26.4967 C   0  0  0  0  0  0  0  0  0  0  0  0
    2.1663   46.6289   27.1273 C   0  0  0  0  0  0  0  0  0  0  0  0
    1.8032   48.3110   28.8710 N   0  0  0  0  0  0  0  0  0  0  0  0
    4.9843   45.0910   25.6010 O   0  0  0  0  0  0  0  0  0  0  0  0
    3.0327   45.8674   26.3570 C   0  0  0  0  0  0  0  0  0  0  0  0
    0.5906   48.6811   28.3368 O   0  0  0  0  0  0  0  0  0  0  0  0
    2.0160   48.5369   30.0792 O   0  0  0  0  0  0  0  0  0  0  0  0
    3.9560   44.4275   24.8534 C   0  0  0  0  0  0  0  0  0  0  0  0
    2.7249   44.9533   25.3676 O   0  0  0  0  0  0  0  0  0  0  0  0
    8.8111   40.1836   34.2127 O   0  0  0  0  0  0  0  0  0  0  0  0
   11.2400   40.7932   33.3693 O   0  0  0  0  0  0  0  0  0  0  0  0
   10.9144   40.6896   31.9973 C   0  0  0  0  0  0  0  0  0  0  0  0
   11.5261   39.3884   31.4375 C   0  0  0  0  0  0  0  0  0  0  0  0
   12.7505   39.0887   32.0814 O   0  0  0  0  0  0  0  0  0  0  0  0
   10.6115   38.1910   31.6460 C   0  0  0  0  0  0  0  0  0  0  0  0
   12.9358   37.6812   32.0301 C   0  0  0  0  0  0  0  0  0  0  0  0
    9.6146   38.0860   30.6532 O   0  0  0  0  0  0  0  0  0  0  0  0
   11.5770   37.0148   31.7011 C   0  0  0  0  0  0  0  0  0  0  0  0
   13.4849   37.2111   33.3247 N   0  0  0  0  0  0  0  0  0  0  0  0
   11.6193   36.3261   30.4723 O   0  0  0  0  0  0  0  0  0  0  0  0
   14.4803   36.3314   33.5731 C   0  0  0  0  0  0  0  0  0  0  0  0
   13.1140   37.6267   34.5697 C   0  0  0  0  0  0  0  0  0  0  0  0
   15.2077   35.6154   32.6741 N   0  0  0  0  0  0  0  0  0  0  0  0
   14.6760   36.2300   34.9185 C   0  0  0  0  0  0  0  0  0  0  0  0
   13.8220   37.0444   35.5789 N   0  0  0  0  0  0  0  0  0  0  0  0
   16.1643   34.7603   33.1547 C   0  0  0  0  0  0  0  0  0  0  0  0
   15.6528   35.3501   35.4133 C   0  0  0  0  0  0  0  0  0  0  0  0
   16.3797   34.6313   34.5042 N   0  0  0  0  0  0  0  0  0  0  0  0
   15.9002   35.1926   36.8092 N   0  0  0  0  0  0  0  0  0  0  0  0
    9.0101   45.4347   33.6673 H   0  0  0  0  0  0  0  0  0  0  0  0
   11.9353   45.6933   33.0935 H   0  0  0  0  0  0  0  0  0  0  0  0
   11.1133   46.1990   34.4890 H   0  0  0  0  0  0  0  0  0  0  0  0
    9.3520   43.8349   31.4758 H   0  0  0  0  0  0  0  0  0  0  0  0
   10.7311   44.8937   31.1676 H   0  0  0  0  0  0  0  0  0  0  0  0
    7.0129   44.7131   31.5805 H   0  0  0  0  0  0  0  0  0  0  0  0
   10.3467   47.1884   30.4126 H   0  0  0  0  0  0  0  0  0  0  0  0
    5.4678   46.2780   30.5038 H   0  0  0  0  0  0  0  0  0  0  0  0
    8.7940   48.7675   29.3386 H   0  0  0  0  0  0  0  0  0  0  0  0
    4.3912   49.5838   28.9925 H   0  0  0  0  0  0  0  0  0  0  0  0
    4.4190   48.3366   30.2781 H   0  0  0  0  0  0  0  0  0  0  0  0
    6.0485   46.8382   27.4667 H   0  0  0  0  0  0  0  0  0  0  0  0
    1.0973   46.5385   26.9843 H   0  0  0  0  0  0  0  0  0  0  0  0
    4.0526   44.6646   23.7732 H   0  0  0  0  0  0  0  0  0  0  0  0
    4.0048   43.3313   25.0223 H   0  0  0  0  0  0  0  0  0  0  0  0
    9.8236   40.7194   31.7642 H   0  0  0  0  0  0  0  0  0  0  0  0
   11.3781   41.5526   31.4733 H   0  0  0  0  0  0  0  0  0  0  0  0
   11.7281   39.5312   30.3514 H   0  0  0  0  0  0  0  0  0  0  0  0
   10.1124   38.2733   32.6374 H   0  0  0  0  0  0  0  0  0  0  0  0
   13.6694   37.4566   31.2239 H   0  0  0  0  0  0  0  0  0  0  0  0
   10.0534   38.1116   29.7634 H   0  0  0  0  0  0  0  0  0  0  0  0
   11.2610   36.3148   32.5101 H   0  0  0  0  0  0  0  0  0  0  0  0
   12.1498   35.5024   30.6321 H   0  0  0  0  0  0  0  0  0  0  0  0
   12.3300   38.3522   34.7454 H   0  0  0  0  0  0  0  0  0  0  0  0
   16.7561   34.1784   32.4618 H   0  0  0  0  0  0  0  0  0  0  0  0
   15.3536   35.7354   37.5141 H   0  0  0  0  0  0  0  0  0  0  0  0
   16.6351   34.5296   37.1417 H   0  0  0  0  0  0  0  0  0  0  0  0
  1  2  2  0
  1  3  1  0
  3  4  1  0
  4  5  1  0
  6  1  1  0
  7  6  1  0
  6  8  1  0
  8  9  1  0
  9 10  2  0
 11  9  1  0
 10 12  1  0
 13 11  2  0
 12 14  2  0
 14 13  1  0
 14 15  1  0
 15 16  1  0
 16 17  1  0
 17 18  2  0
 19 17  1  0
 18 20  1  0
 21 19  2  0
 19 22  1  0
 20 23  1  0
 20 24  2  0
 24 21  1  0
 22 25  1  0
 22 26  2  0
 23 27  1  0
 24 28  1  0
 27 28  1  0
  4 29  2  0
  4 30  1  0
 31 30  1  0
 31 32  1  0
 32 33  1  0
 32 34  1  0
 33 35  1  0
 34 36  1  0
 34 37  1  0
 37 35  1  0
 35 38  1  0
 37 39  1  0
 40 38  1  0
 41 38  1  0
 42 40  2  0
 40 43  1  0
 44 41  2  0
 45 42  1  0
 43 46  2  0
 43 44  1  0
 47 45  2  0
 47 46  1  0
 46 48  1  0
  6 49  1  1
  7 50  1  0
  7 51  1  0
  8 52  1  0
  8 53  1  0
 10 54  1  0
 11 55  1  0
 12 56  1  0
 13 57  1  0
 16 58  1  0
 16 59  1  0
 18 60  1  0
 21 61  1  0
 27 62  1  0
 27 63  1  0
 31 64  1  0
 31 65  1  0
 32 66  1  0
 34 67  1  0
 35 68  1  0
 36 69  1  0
 37 70  1  0
 39 71  1  0
 41 72  1  0
 45 73  1  0
 48 74  1  0
 48 75  1  0
M  CHG  3   5  -1  22   1  25  -1
M  END
>  <EmbedRMS>  (209) 
0.0824761601989

$$$$

     RDKit          3D

 75 80  0  0  0  0  0  0  0  0999 V2000
   10.2839   43.7626   33.8275 C   0  0  0  0  0  0  0  0  0  0  0  0
   11.4103   43.5863   34.3766 O   0  0  0  0  0  0  0  0  0  0  0  0
    9.3631   42.7236   33.7353 O   0  0  0  0  0  0  0  0  0  0  0  0
    9.8894   41.2249   34.2944 P   0  0  0  0  0  0  0  0  0  0  0  0
   10.3726   41.4547   35.8838 O   0  0  0  0  0  0  0  0  0  0  0  0
    9.9549   45.0700   33.2064 C   0  0  1  0  0  0  0  0  0  0  0  0
   11.0198   46.0481   33.4571 N   0  0  0  0  0  0  0  0  0  0  0  0
    9.7505   44.8512   31.6922 C   0  0  0  0  0  0  0  0  0  0  0  0
    8.7943   45.8419   31.0869 C   0  0  0  0  0  0  0  0  0  0  0  0
    7.4074   45.6004   31.1005 C   0  0  0  0  0  0  0  0  0  0  0  0
    9.2827   46.9894   30.4445 C   0  0  0  0  0  0  0  0  0  0  0  0
    6.5254   46.4999   30.4852 C   0  0  0  0  0  0  0  0  0  0  0  0
    8.4010   47.8885   29.8330 C   0  0  0  0  0  0  0  0  0  0  0  0
    7.0197   47.6550   29.8460 C   0  0  0  0  0  0  0  0  0  0  0  0
    6.1806   48.5855   29.2165 O   0  0  0  0  0  0  0  0  0  0  0  0
    4.7622   48.4683   29.1350 C   0  0  0  0  0  0  0  0  0  0  0  0
    4.2032   49.6234   28.3439 C   0  0  0  0  0  0  0  0  0  0  0  0
    3.2430   50.4604   28.9608 C   0  0  0  0  0  0  0  0  0  0  0  0
    4.6461   49.9189   27.0108 C   0  0  0  0  0  0  0  0  0  0  0  0
    2.7661   51.5555   28.2526 C   0  0  0  0  0  0  0  0  0  0  0  0
    4.1319   51.0574   26.3456 C   0  0  0  0  0  0  0  0  0  0  0  0
    5.6174   49.0996   26.3338 N   0  0  0  0  0  0  0  0  0  0  0  0
    1.8393   52.4992   28.6519 O   0  0  0  0  0  0  0  0  0  0  0  0
    3.1932   51.8426   27.0017 C   0  0  0  0  0  0  0  0  0  0  0  0
    5.5920   47.7300   26.4554 O   0  0  0  0  0  0  0  0  0  0  0  0
    6.3942   49.6115   25.5010 O   0  0  0  0  0  0  0  0  0  0  0  0
    1.6744   53.4383   27.5805 C   0  0  0  0  0  0  0  0  0  0  0  0
    2.5573   52.9817   26.5466 O   0  0  0  0  0  0  0  0  0  0  0  0
    8.8114   40.1834   34.2129 O   0  0  0  0  0  0  0  0  0  0  0  0
   11.2402   40.7930   33.3696 O   0  0  0  0  0  0  0  0  0  0  0  0
   10.9151   40.6903   31.9975 C   0  0  0  0  0  0  0  0  0  0  0  0
   11.5252   39.3885   31.4375 C   0  0  0  0  0  0  0  0  0  0  0  0
   12.7500   39.0873   32.0798 O   0  0  0  0  0  0  0  0  0  0  0  0
   10.6092   38.1925   31.6469 C   0  0  0  0  0  0  0  0  0  0  0  0
   12.9332   37.6792   32.0294 C   0  0  0  0  0  0  0  0  0  0  0  0
    9.6122   38.0894   30.6542 O   0  0  0  0  0  0  0  0  0  0  0  0
   11.5743   37.0144   31.7024 C   0  0  0  0  0  0  0  0  0  0  0  0
   13.4844   37.2107   33.3241 N   0  0  0  0  0  0  0  0  0  0  0  0
   11.6297   36.3238   30.4740 O   0  0  0  0  0  0  0  0  0  0  0  0
   14.4802   36.3313   33.5727 C   0  0  0  0  0  0  0  0  0  0  0  0
   13.1138   37.6266   34.5692 C   0  0  0  0  0  0  0  0  0  0  0  0
   15.2075   35.6149   32.6739 N   0  0  0  0  0  0  0  0  0  0  0  0
   14.6761   36.2303   34.9181 C   0  0  0  0  0  0  0  0  0  0  0  0
   13.8220   37.0447   35.5785 N   0  0  0  0  0  0  0  0  0  0  0  0
   16.1643   34.7600   33.1547 C   0  0  0  0  0  0  0  0  0  0  0  0
   15.6529   35.3505   35.4130 C   0  0  0  0  0  0  0  0  0  0  0  0
   16.3798   34.6315   34.5042 N   0  0  0  0  0  0  0  0  0  0  0  0
   15.9003   35.1932   36.8090 N   0  0  0  0  0  0  0  0  0  0  0  0
    9.0099   45.4348   33.6670 H   0  0  0  0  0  0  0  0  0  0  0  0
   11.9349   45.6933   33.0928 H   0  0  0  0  0  0  0  0  0  0  0  0
   11.1133   46.1992   34.4884 H   0  0  0  0  0  0  0  0  0  0  0  0
    9.3518   43.8345   31.4758 H   0  0  0  0  0  0  0  0  0  0  0  0
   10.7309   44.8932   31.1675 H   0  0  0  0  0  0  0  0  0  0  0  0
    7.0123   44.7149   31.5832 H   0  0  0  0  0  0  0  0  0  0  0  0
   10.3468   47.1894   30.4147 H   0  0  0  0  0  0  0  0  0  0  0  0
    5.4657   46.2870   30.5134 H   0  0  0  0  0  0  0  0  0  0  0  0
    8.7936   48.7704   29.3428 H   0  0  0  0  0  0  0  0  0  0  0  0
    4.3419   48.4534   30.1646 H   0  0  0  0  0  0  0  0  0  0  0  0
    4.4790   47.5135   28.6450 H   0  0  0  0  0  0  0  0  0  0  0  0
    2.8846   50.2715   29.9648 H   0  0  0  0  0  0  0  0  0  0  0  0
    4.4444   51.3142   25.3416 H   0  0  0  0  0  0  0  0  0  0  0  0
    0.6246   53.4288   27.2196 H   0  0  0  0  0  0  0  0  0  0  0  0
    1.9679   54.4559   27.9132 H   0  0  0  0  0  0  0  0  0  0  0  0
    9.8243   40.7216   31.7640 H   0  0  0  0  0  0  0  0  0  0  0  0
   11.3805   41.5528   31.4740 H   0  0  0  0  0  0  0  0  0  0  0  0
   11.7265   39.5311   30.3512 H   0  0  0  0  0  0  0  0  0  0  0  0
   10.1110   38.2746   32.6387 H   0  0  0  0  0  0  0  0  0  0  0  0
   13.6652   37.4518   31.2226 H   0  0  0  0  0  0  0  0  0  0  0  0
   10.0511   38.1142   29.7644 H   0  0  0  0  0  0  0  0  0  0  0  0
   11.2762   36.3141   32.5189 H   0  0  0  0  0  0  0  0  0  0  0  0
   10.8593   35.6977   30.4640 H   0  0  0  0  0  0  0  0  0  0  0  0
   12.3294   38.3518   34.7449 H   0  0  0  0  0  0  0  0  0  0  0  0
   16.7564   34.1780   32.4620 H   0  0  0  0  0  0  0  0  0  0  0  0
   16.6349   34.5300   37.1416 H   0  0  0  0  0  0  0  0  0  0  0  0
   15.3534   35.7359   37.5138 H   0  0  0  0  0  0  0  0  0  0  0  0
  1  2  2  0
  1  3  1  0
  3  4  1  0
  4  5  1  0
  6  1  1  0
  7  6  1  0
  6  8  1  0
  8  9  1  0
  9 10  2  0
 11  9  1  0
 10 12  1  0
 13 11  2  0
 12 14  2  0
 14 13  1  0
 14 15  1  0
 15 16  1  0
 16 17  1  0
 17 18  2  0
 19 17  1  0
 18 20  1  0
 21 19  2  0
 19 22  1  0
 20 23  1  0
 20 24  2  0
 24 21  1  0
 22 25  1  0
 22 26  2  0
 23 27  1  0
 24 28  1  0
 27 28  1  0
  4 29  2  0
  4 30  1  0
 31 30  1  0
 31 32  1  0
 32 33  1  0
 32 34  1  0
 33 35  1  0
 34 36  1  0
 34 37  1  0
 37 35  1  0
 35 38  1  0
 37 39  1  0
 40 38  1  0
 41 38  1  0
 42 40  2  0
 40 43  1  0
 44 41  2  0
 45 42  1  0
 43 46  2  0
 43 44  1  0
 47 45  2  0
 47 46  1  0
 46 48  1  0
  6 49  1  1
  7 50  1  0
  7 51  1  0
  8 52  1  0
  8 53  1  0
 10 54  1  0
 11 55  1  0
 12 56  1  0
 13 57  1  0
 16 58  1  0
 16 59  1  0
 18 60  1  0
 21 61  1  0
 27 62  1  0
 27 63  1  0
 31 64  1  0
 31 65  1  0
 32 66  1  0
 34 67  1  0
 35 68  1  0
 36 69  1  0
 37 70  1  0
 39 71  1  0
 41 72  1  0
 45 73  1  0
 48 74  1  0
 48 75  1  0
M  CHG  3   5  -1  22   1  25  -1
M  END
>  <EmbedRMS>  (210) 
0.0827057078522

$$$$

     RDKit          3D

 75 80  0  0  0  0  0  0  0  0999 V2000
   10.2839   43.7626   33.8276 C   0  0  0  0  0  0  0  0  0  0  0  0
   11.4103   43.5863   34.3766 O   0  0  0  0  0  0  0  0  0  0  0  0
    9.3630   42.7236   33.7354 O   0  0  0  0  0  0  0  0  0  0  0  0
    9.8893   41.2249   34.2943 P   0  0  0  0  0  0  0  0  0  0  0  0
   10.3727   41.4546   35.8837 O   0  0  0  0  0  0  0  0  0  0  0  0
    9.9549   45.0700   33.2064 C   0  0  1  0  0  0  0  0  0  0  0  0
   11.0199   46.0481   33.4571 N   0  0  0  0  0  0  0  0  0  0  0  0
    9.7506   44.8512   31.6923 C   0  0  0  0  0  0  0  0  0  0  0  0
    8.7943   45.8419   31.0869 C   0  0  0  0  0  0  0  0  0  0  0  0
    7.4074   45.6004   31.1005 C   0  0  0  0  0  0  0  0  0  0  0  0
    9.2827   46.9894   30.4445 C   0  0  0  0  0  0  0  0  0  0  0  0
    6.5254   46.4998   30.4852 C   0  0  0  0  0  0  0  0  0  0  0  0
    8.4010   47.8885   29.8329 C   0  0  0  0  0  0  0  0  0  0  0  0
    7.0196   47.6549   29.8460 C   0  0  0  0  0  0  0  0  0  0  0  0
    6.1799   48.5858   29.2174 O   0  0  0  0  0  0  0  0  0  0  0  0
    4.7586   48.4751   29.1509 C   0  0  0  0  0  0  0  0  0  0  0  0
    4.1410   49.6360   28.4019 C   0  0  0  0  0  0  0  0  0  0  0  0
    4.9613   50.4910   27.6218 C   0  0  0  0  0  0  0  0  0  0  0  0
    2.7304   49.8971   28.4796 C   0  0  0  0  0  0  0  0  0  0  0  0
    4.3725   51.5741   26.9830 C   0  0  0  0  0  0  0  0  0  0  0  0
    2.1935   51.0256   27.8175 C   0  0  0  0  0  0  0  0  0  0  0  0
    1.8381   49.0482   29.2256 N   0  0  0  0  0  0  0  0  0  0  0  0
    4.9722   52.5306   26.1864 O   0  0  0  0  0  0  0  0  0  0  0  0
    3.0488   51.8323   27.0800 C   0  0  0  0  0  0  0  0  0  0  0  0
    0.6839   49.5699   29.7632 O   0  0  0  0  0  0  0  0  0  0  0  0
    2.0047   47.8117   29.2522 O   0  0  0  0  0  0  0  0  0  0  0  0
    3.9574   53.4482   25.7568 C   0  0  0  0  0  0  0  0  0  0  0  0
    2.7443   52.9652   26.3500 O   0  0  0  0  0  0  0  0  0  0  0  0
    8.8113   40.1834   34.2130 O   0  0  0  0  0  0  0  0  0  0  0  0
   11.2399   40.7932   33.3693 O   0  0  0  0  0  0  0  0  0  0  0  0
   10.9143   40.6896   31.9973 C   0  0  0  0  0  0  0  0  0  0  0  0
   11.5261   39.3884   31.4375 C   0  0  0  0  0  0  0  0  0  0  0  0
   12.7505   39.0887   32.0815 O   0  0  0  0  0  0  0  0  0  0  0  0
   10.6115   38.1909   31.6460 C   0  0  0  0  0  0  0  0  0  0  0  0
   12.9357   37.6812   32.0303 C   0  0  0  0  0  0  0  0  0  0  0  0
    9.6146   38.0858   30.6533 O   0  0  0  0  0  0  0  0  0  0  0  0
   11.5769   37.0148   31.7012 C   0  0  0  0  0  0  0  0  0  0  0  0
   13.4849   37.2112   33.3247 N   0  0  0  0  0  0  0  0  0  0  0  0
   11.6193   36.3260   30.4724 O   0  0  0  0  0  0  0  0  0  0  0  0
   14.4802   36.3313   33.5730 C   0  0  0  0  0  0  0  0  0  0  0  0
   13.1141   37.6268   34.5697 C   0  0  0  0  0  0  0  0  0  0  0  0
   15.2075   35.6151   32.6741 N   0  0  0  0  0  0  0  0  0  0  0  0
   14.6761   36.2300   34.9184 C   0  0  0  0  0  0  0  0  0  0  0  0
   13.8220   37.0445   35.5789 N   0  0  0  0  0  0  0  0  0  0  0  0
   16.1642   34.7600   33.1547 C   0  0  0  0  0  0  0  0  0  0  0  0
   15.6529   35.3503   35.4131 C   0  0  0  0  0  0  0  0  0  0  0  0
   16.3797   34.6314   34.5042 N   0  0  0  0  0  0  0  0  0  0  0  0
   15.9004   35.1930   36.8090 N   0  0  0  0  0  0  0  0  0  0  0  0
    9.0099   45.4349   33.6670 H   0  0  0  0  0  0  0  0  0  0  0  0
   11.9350   45.6933   33.0929 H   0  0  0  0  0  0  0  0  0  0  0  0
   11.1133   46.1992   34.4885 H   0  0  0  0  0  0  0  0  0  0  0  0
    9.3519   43.8345   31.4758 H   0  0  0  0  0  0  0  0  0  0  0  0
   10.7309   44.8933   31.1676 H   0  0  0  0  0  0  0  0  0  0  0  0
    7.0124   44.7148   31.5831 H   0  0  0  0  0  0  0  0  0  0  0  0
   10.3467   47.1896   30.4148 H   0  0  0  0  0  0  0  0  0  0  0  0
    5.4656   46.2867   30.5128 H   0  0  0  0  0  0  0  0  0  0  0  0
    8.7935   48.7707   29.3431 H   0  0  0  0  0  0  0  0  0  0  0  0
    4.3615   48.4641   30.1891 H   0  0  0  0  0  0  0  0  0  0  0  0
    4.4874   47.5298   28.6340 H   0  0  0  0  0  0  0  0  0  0  0  0
    6.0254   50.3283   27.5133 H   0  0  0  0  0  0  0  0  0  0  0  0
    1.1369   51.2561   27.8594 H   0  0  0  0  0  0  0  0  0  0  0  0
    4.1833   54.4709   26.1251 H   0  0  0  0  0  0  0  0  0  0  0  0
    3.8734   53.4374   24.6498 H   0  0  0  0  0  0  0  0  0  0  0  0
    9.8234   40.7192   31.7644 H   0  0  0  0  0  0  0  0  0  0  0  0
   11.3782   41.5525   31.4733 H   0  0  0  0  0  0  0  0  0  0  0  0
   11.7283   39.5312   30.3515 H   0  0  0  0  0  0  0  0  0  0  0  0
   10.1127   38.2733   32.6376 H   0  0  0  0  0  0  0  0  0  0  0  0
   13.6693   37.4565   31.2242 H   0  0  0  0  0  0  0  0  0  0  0  0
   10.0533   38.1118   29.7635 H   0  0  0  0  0  0  0  0  0  0  0  0
   11.2607   36.3147   32.5101 H   0  0  0  0  0  0  0  0  0  0  0  0
   12.1496   35.5022   30.6323 H   0  0  0  0  0  0  0  0  0  0  0  0
   12.3301   38.3524   34.7455 H   0  0  0  0  0  0  0  0  0  0  0  0
   16.7562   34.1781   32.4619 H   0  0  0  0  0  0  0  0  0  0  0  0
   15.3536   35.7357   37.5140 H   0  0  0  0  0  0  0  0  0  0  0  0
   16.6351   34.5298   37.1416 H   0  0  0  0  0  0  0  0  0  0  0  0
  1  2  2  0
  1  3  1  0
  3  4  1  0
  4  5  1  0
  6  1  1  0
  7  6  1  0
  6  8  1  0
  8  9  1  0
  9 10  2  0
 11  9  1  0
 10 12  1  0
 13 11  2  0
 12 14  2  0
 14 13  1  0
 14 15  1  0
 15 16  1  0
 16 17  1  0
 17 18  2  0
 19 17  1  0
 18 20  1  0
 21 19  2  0
 19 22  1  0
 20 23  1  0
 20 24  2  0
 24 21  1  0
 22 25  1  0
 22 26  2  0
 23 27  1  0
 24 28  1  0
 27 28  1  0
  4 29  2  0
  4 30  1  0
 31 30  1  0
 31 32  1  0
 32 33  1  0
 32 34  1  0
 33 35  1  0
 34 36  1  0
 34 37  1  0
 37 35  1  0
 35 38  1  0
 37 39  1  0
 40 38  1  0
 41 38  1  0
 42 40  2  0
 40 43  1  0
 44 41  2  0
 45 42  1  0
 43 46  2  0
 43 44  1  0
 47 45  2  0
 47 46  1  0
 46 48  1  0
  6 49  1  1
  7 50  1  0
  7 51  1  0
  8 52  1  0
  8 53  1  0
 10 54  1  0
 11 55  1  0
 12 56  1  0
 13 57  1  0
 16 58  1  0
 16 59  1  0
 18 60  1  0
 21 61  1  0
 27 62  1  0
 27 63  1  0
 31 64  1  0
 31 65  1  0
 32 66  1  0
 34 67  1  0
 35 68  1  0
 36 69  1  0
 37 70  1  0
 39 71  1  0
 41 72  1  0
 45 73  1  0
 48 74  1  0
 48 75  1  0
M  CHG  3   5  -1  22   1  25  -1
M  END
>  <EmbedRMS>  (211) 
0.0825109701951

$$$$

     RDKit          3D

 75 80  0  0  0  0  0  0  0  0999 V2000
   10.2798   43.7669   33.8247 C   0  0  0  0  0  0  0  0  0  0  0  0
   11.4106   43.5924   34.3658 O   0  0  0  0  0  0  0  0  0  0  0  0
    9.3616   42.7251   33.7337 O   0  0  0  0  0  0  0  0  0  0  0  0
    9.8900   41.2273   34.2939 P   0  0  0  0  0  0  0  0  0  0  0  0
   10.3735   41.4588   35.8829 O   0  0  0  0  0  0  0  0  0  0  0  0
    9.9457   45.0736   33.2104 C   0  0  1  0  0  0  0  0  0  0  0  0
   11.0273   46.0289   33.4683 N   0  0  0  0  0  0  0  0  0  0  0  0
    9.7528   44.8521   31.6946 C   0  0  0  0  0  0  0  0  0  0  0  0
    8.7953   45.8391   31.0831 C   0  0  0  0  0  0  0  0  0  0  0  0
    7.4084   45.5970   31.0948 C   0  0  0  0  0  0  0  0  0  0  0  0
    9.2833   46.9865   30.4399 C   0  0  0  0  0  0  0  0  0  0  0  0
    6.5288   46.4977   30.4782 C   0  0  0  0  0  0  0  0  0  0  0  0
    8.4031   47.8911   29.8358 C   0  0  0  0  0  0  0  0  0  0  0  0
    7.0144   47.6576   29.8595 C   0  0  0  0  0  0  0  0  0  0  0  0
    6.0906   48.5545   29.2994 O   0  0  0  0  0  0  0  0  0  0  0  0
    6.3645   49.9276   29.0123 C   0  0  0  0  0  0  0  0  0  0  0  0
    6.6505   50.6789   30.2948 C   0  0  0  0  0  0  0  0  0  0  0  0
    5.6984   50.5864   31.3361 C   0  0  0  0  0  0  0  0  0  0  0  0
    7.8754   51.3896   30.5220 C   0  0  0  0  0  0  0  0  0  0  0  0
    6.0070   51.1473   32.5680 C   0  0  0  0  0  0  0  0  0  0  0  0
    8.1439   51.9235   31.8029 C   0  0  0  0  0  0  0  0  0  0  0  0
    8.8423   51.5831   29.4798 N   0  0  0  0  0  0  0  0  0  0  0  0
    5.2449   51.1567   33.7209 O   0  0  0  0  0  0  0  0  0  0  0  0
    7.1833   51.7777   32.7961 C   0  0  0  0  0  0  0  0  0  0  0  0
   10.1844   51.5128   29.7740 O   0  0  0  0  0  0  0  0  0  0  0  0
    8.4886   52.0310   28.3700 O   0  0  0  0  0  0  0  0  0  0  0  0
    5.9942   51.8354   34.7394 C   0  0  0  0  0  0  0  0  0  0  0  0
    7.2268   52.2141   34.1069 O   0  0  0  0  0  0  0  0  0  0  0  0
    8.8124   40.1851   34.2138 O   0  0  0  0  0  0  0  0  0  0  0  0
   11.2413   40.7950   33.3702 O   0  0  0  0  0  0  0  0  0  0  0  0
   10.9174   40.6918   31.9982 C   0  0  0  0  0  0  0  0  0  0  0  0
   11.5168   39.3833   31.4427 C   0  0  0  0  0  0  0  0  0  0  0  0
   12.7505   39.0885   32.0751 O   0  0  0  0  0  0  0  0  0  0  0  0
   10.6019   38.1911   31.6659 C   0  0  0  0  0  0  0  0  0  0  0  0
   12.9385   37.6817   32.0281 C   0  0  0  0  0  0  0  0  0  0  0  0
    9.6358   38.0811   30.6472 O   0  0  0  0  0  0  0  0  0  0  0  0
   11.5780   37.0212   31.6933 C   0  0  0  0  0  0  0  0  0  0  0  0
   13.4840   37.2121   33.3251 N   0  0  0  0  0  0  0  0  0  0  0  0
   11.6105   36.3194   30.4682 O   0  0  0  0  0  0  0  0  0  0  0  0
   14.4801   36.3328   33.5736 C   0  0  0  0  0  0  0  0  0  0  0  0
   13.1128   37.6269   34.5706 C   0  0  0  0  0  0  0  0  0  0  0  0
   15.2073   35.6163   32.6745 N   0  0  0  0  0  0  0  0  0  0  0  0
   14.6765   36.2315   34.9189 C   0  0  0  0  0  0  0  0  0  0  0  0
   13.8215   37.0449   35.5795 N   0  0  0  0  0  0  0  0  0  0  0  0
   16.1637   34.7605   33.1548 C   0  0  0  0  0  0  0  0  0  0  0  0
   15.6530   35.3509   35.4130 C   0  0  0  0  0  0  0  0  0  0  0  0
   16.3792   34.6318   34.5040 N   0  0  0  0  0  0  0  0  0  0  0  0
   15.9011   35.1922   36.8083 N   0  0  0  0  0  0  0  0  0  0  0  0
    8.9994   45.4384   33.6707 H   0  0  0  0  0  0  0  0  0  0  0  0
   10.7765   46.9360   33.0126 H   0  0  0  0  0  0  0  0  0  0  0  0
   11.0564   46.2283   34.4956 H   0  0  0  0  0  0  0  0  0  0  0  0
    9.3614   43.8336   31.4741 H   0  0  0  0  0  0  0  0  0  0  0  0
   10.7397   44.9024   31.1824 H   0  0  0  0  0  0  0  0  0  0  0  0
    7.0113   44.7116   31.5759 H   0  0  0  0  0  0  0  0  0  0  0  0
   10.3473   47.1837   30.4040 H   0  0  0  0  0  0  0  0  0  0  0  0
    5.4644   46.3028   30.4984 H   0  0  0  0  0  0  0  0  0  0  0  0
    8.8144   48.7621   29.3473 H   0  0  0  0  0  0  0  0  0  0  0  0
    5.4647   50.3725   28.5386 H   0  0  0  0  0  0  0  0  0  0  0  0
    7.1835   49.9881   28.2704 H   0  0  0  0  0  0  0  0  0  0  0  0
    4.7616   50.0608   31.1991 H   0  0  0  0  0  0  0  0  0  0  0  0
    9.0651   52.4522   32.0118 H   0  0  0  0  0  0  0  0  0  0  0  0
    5.4456   52.7392   35.0811 H   0  0  0  0  0  0  0  0  0  0  0  0
    6.1938   51.1502   35.5913 H   0  0  0  0  0  0  0  0  0  0  0  0
   11.3951   41.5469   31.4743 H   0  0  0  0  0  0  0  0  0  0  0  0
    9.8286   40.7409   31.7624 H   0  0  0  0  0  0  0  0  0  0  0  0
   11.6967   39.5114   30.3506 H   0  0  0  0  0  0  0  0  0  0  0  0
   10.1105   38.2578   32.6661 H   0  0  0  0  0  0  0  0  0  0  0  0
   13.6781   37.4558   31.2275 H   0  0  0  0  0  0  0  0  0  0  0  0
    8.8946   38.6957   30.8877 H   0  0  0  0  0  0  0  0  0  0  0  0
   11.2792   36.3063   32.4912 H   0  0  0  0  0  0  0  0  0  0  0  0
   11.8810   36.9601   29.7592 H   0  0  0  0  0  0  0  0  0  0  0  0
   12.3282   38.3512   34.7482 H   0  0  0  0  0  0  0  0  0  0  0  0
   16.7550   34.1770   32.4626 H   0  0  0  0  0  0  0  0  0  0  0  0
   16.6361   34.5281   37.1387 H   0  0  0  0  0  0  0  0  0  0  0  0
   15.3543   35.7341   37.5136 H   0  0  0  0  0  0  0  0  0  0  0  0
  1  2  2  0
  1  3  1  0
  3  4  1  0
  4  5  1  0
  6  1  1  0
  7  6  1  0
  6  8  1  0
  8  9  1  0
  9 10  2  0
 11  9  1  0
 10 12  1  0
 13 11  2  0
 12 14  2  0
 14 13  1  0
 14 15  1  0
 15 16  1  0
 16 17  1  0
 17 18  2  0
 19 17  1  0
 18 20  1  0
 21 19  2  0
 19 22  1  0
 20 23  1  0
 20 24  2  0
 24 21  1  0
 22 25  1  0
 22 26  2  0
 23 27  1  0
 24 28  1  0
 27 28  1  0
  4 29  2  0
  4 30  1  0
 31 30  1  0
 31 32  1  0
 32 33  1  0
 32 34  1  0
 33 35  1  0
 34 36  1  0
 34 37  1  0
 37 35  1  0
 35 38  1  0
 37 39  1  0
 40 38  1  0
 41 38  1  0
 42 40  2  0
 40 43  1  0
 44 41  2  0
 45 42  1  0
 43 46  2  0
 43 44  1  0
 47 45  2  0
 47 46  1  0
 46 48  1  0
  6 49  1  1
  7 50  1  0
  7 51  1  0
  8 52  1  0
  8 53  1  0
 10 54  1  0
 11 55  1  0
 12 56  1  0
 13 57  1  0
 16 58  1  0
 16 59  1  0
 18 60  1  0
 21 61  1  0
 27 62  1  0
 27 63  1  0
 31 64  1  0
 31 65  1  0
 32 66  1  0
 34 67  1  0
 35 68  1  0
 36 69  1  0
 37 70  1  0
 39 71  1  0
 41 72  1  0
 45 73  1  0
 48 74  1  0
 48 75  1  0
M  CHG  3   5  -1  22   1  25  -1
M  END
>  <EmbedRMS>  (212) 
0.0816027690142

$$$$

     RDKit          3D

 75 80  0  0  0  0  0  0  0  0999 V2000
   10.2835   43.7662   33.8258 C   0  0  0  0  0  0  0  0  0  0  0  0
   11.4103   43.5930   34.3753 O   0  0  0  0  0  0  0  0  0  0  0  0
    9.3638   42.7255   33.7350 O   0  0  0  0  0  0  0  0  0  0  0  0
    9.8904   41.2267   34.2943 P   0  0  0  0  0  0  0  0  0  0  0  0
   10.3735   41.4560   35.8837 O   0  0  0  0  0  0  0  0  0  0  0  0
    9.9546   45.0695   33.2039 C   0  0  1  0  0  0  0  0  0  0  0  0
   11.0273   46.0323   33.4758 N   0  0  0  0  0  0  0  0  0  0  0  0
    9.7464   44.8482   31.6881 C   0  0  0  0  0  0  0  0  0  0  0  0
    8.7921   45.8413   31.0855 C   0  0  0  0  0  0  0  0  0  0  0  0
    7.4056   45.6010   31.0980 C   0  0  0  0  0  0  0  0  0  0  0  0
    9.2821   46.9870   30.4413 C   0  0  0  0  0  0  0  0  0  0  0  0
    6.5272   46.5020   30.4814 C   0  0  0  0  0  0  0  0  0  0  0  0
    8.4030   47.8884   29.8294 C   0  0  0  0  0  0  0  0  0  0  0  0
    7.0140   47.6561   29.8520 C   0  0  0  0  0  0  0  0  0  0  0  0
    6.0872   48.5280   29.2596 O   0  0  0  0  0  0  0  0  0  0  0  0
    6.3402   49.8797   28.8731 C   0  0  0  0  0  0  0  0  0  0  0  0
    6.5000   50.7651   30.0873 C   0  0  0  0  0  0  0  0  0  0  0  0
    7.7886   51.2677   30.3881 C   0  0  0  0  0  0  0  0  0  0  0  0
    5.3838   51.1517   30.9050 C   0  0  0  0  0  0  0  0  0  0  0  0
    7.9366   52.1013   31.4880 C   0  0  0  0  0  0  0  0  0  0  0  0
    5.5985   52.0139   32.0072 C   0  0  0  0  0  0  0  0  0  0  0  0
    4.0380   50.7300   30.6120 N   0  0  0  0  0  0  0  0  0  0  0  0
    9.0890   52.6936   31.9678 O   0  0  0  0  0  0  0  0  0  0  0  0
    6.8886   52.4570   32.2644 C   0  0  0  0  0  0  0  0  0  0  0  0
    3.7727   49.4542   30.1749 O   0  0  0  0  0  0  0  0  0  0  0  0
    3.0765   51.4729   30.8991 O   0  0  0  0  0  0  0  0  0  0  0  0
    8.7398   53.4689   33.1225 C   0  0  0  0  0  0  0  0  0  0  0  0
    7.3251   53.2907   33.2760 O   0  0  0  0  0  0  0  0  0  0  0  0
    8.8122   40.1850   34.2131 O   0  0  0  0  0  0  0  0  0  0  0  0
   11.2407   40.7939   33.3693 O   0  0  0  0  0  0  0  0  0  0  0  0
   10.9151   40.6905   31.9974 C   0  0  0  0  0  0  0  0  0  0  0  0
   11.5252   39.3886   31.4375 C   0  0  0  0  0  0  0  0  0  0  0  0
   12.7500   39.0874   32.0799 O   0  0  0  0  0  0  0  0  0  0  0  0
   10.6092   38.1926   31.6469 C   0  0  0  0  0  0  0  0  0  0  0  0
   12.9332   37.6792   32.0294 C   0  0  0  0  0  0  0  0  0  0  0  0
    9.6122   38.0895   30.6542 O   0  0  0  0  0  0  0  0  0  0  0  0
   11.5743   37.0145   31.7024 C   0  0  0  0  0  0  0  0  0  0  0  0
   13.4844   37.2107   33.3241 N   0  0  0  0  0  0  0  0  0  0  0  0
   11.6297   36.3239   30.4740 O   0  0  0  0  0  0  0  0  0  0  0  0
   14.4802   36.3313   33.5727 C   0  0  0  0  0  0  0  0  0  0  0  0
   13.1139   37.6266   34.5693 C   0  0  0  0  0  0  0  0  0  0  0  0
   15.2075   35.6149   32.6739 N   0  0  0  0  0  0  0  0  0  0  0  0
   14.6761   36.2303   34.9182 C   0  0  0  0  0  0  0  0  0  0  0  0
   13.8220   37.0447   35.5785 N   0  0  0  0  0  0  0  0  0  0  0  0
   16.1643   34.7600   33.1547 C   0  0  0  0  0  0  0  0  0  0  0  0
   15.6529   35.3505   35.4130 C   0  0  0  0  0  0  0  0  0  0  0  0
   16.3798   34.6315   34.5042 N   0  0  0  0  0  0  0  0  0  0  0  0
   15.9003   35.1932   36.8090 N   0  0  0  0  0  0  0  0  0  0  0  0
    9.0121   45.4318   33.6719 H   0  0  0  0  0  0  0  0  0  0  0  0
   10.7258   46.9689   33.1213 H   0  0  0  0  0  0  0  0  0  0  0  0
   11.8906   45.7660   32.9471 H   0  0  0  0  0  0  0  0  0  0  0  0
    9.3411   43.8332   31.4766 H   0  0  0  0  0  0  0  0  0  0  0  0
   10.7227   44.8815   31.1559 H   0  0  0  0  0  0  0  0  0  0  0  0
    7.0082   44.7156   31.5790 H   0  0  0  0  0  0  0  0  0  0  0  0
   10.3472   47.1802   30.4039 H   0  0  0  0  0  0  0  0  0  0  0  0
    5.4626   46.3062   30.4996 H   0  0  0  0  0  0  0  0  0  0  0  0
    8.8193   48.7439   29.3217 H   0  0  0  0  0  0  0  0  0  0  0  0
    5.4854   50.2478   28.2681 H   0  0  0  0  0  0  0  0  0  0  0  0
    7.2263   49.9250   28.2048 H   0  0  0  0  0  0  0  0  0  0  0  0
    8.6502   51.0297   29.7790 H   0  0  0  0  0  0  0  0  0  0  0  0
    4.7832   52.3264   32.6469 H   0  0  0  0  0  0  0  0  0  0  0  0
    8.9747   54.5403   32.9512 H   0  0  0  0  0  0  0  0  0  0  0  0
    9.2735   53.0865   34.0177 H   0  0  0  0  0  0  0  0  0  0  0  0
    9.8242   40.7215   31.7644 H   0  0  0  0  0  0  0  0  0  0  0  0
   11.3800   41.5529   31.4733 H   0  0  0  0  0  0  0  0  0  0  0  0
   11.7266   39.5311   30.3513 H   0  0  0  0  0  0  0  0  0  0  0  0
   10.1110   38.2747   32.6387 H   0  0  0  0  0  0  0  0  0  0  0  0
   13.6652   37.4519   31.2226 H   0  0  0  0  0  0  0  0  0  0  0  0
   10.0511   38.1143   29.7645 H   0  0  0  0  0  0  0  0  0  0  0  0
   11.2762   36.3141   32.5189 H   0  0  0  0  0  0  0  0  0  0  0  0
   10.8593   35.6978   30.4639 H   0  0  0  0  0  0  0  0  0  0  0  0
   12.3295   38.3518   34.7450 H   0  0  0  0  0  0  0  0  0  0  0  0
   16.7564   34.1779   32.4620 H   0  0  0  0  0  0  0  0  0  0  0  0
   16.6349   34.5300   37.1415 H   0  0  0  0  0  0  0  0  0  0  0  0
   15.3534   35.7359   37.5138 H   0  0  0  0  0  0  0  0  0  0  0  0
  1  2  2  0
  1  3  1  0
  3  4  1  0
  4  5  1  0
  6  1  1  0
  7  6  1  0
  6  8  1  0
  8  9  1  0
  9 10  2  0
 11  9  1  0
 10 12  1  0
 13 11  2  0
 12 14  2  0
 14 13  1  0
 14 15  1  0
 15 16  1  0
 16 17  1  0
 17 18  2  0
 19 17  1  0
 18 20  1  0
 21 19  2  0
 19 22  1  0
 20 23  1  0
 20 24  2  0
 24 21  1  0
 22 25  1  0
 22 26  2  0
 23 27  1  0
 24 28  1  0
 27 28  1  0
  4 29  2  0
  4 30  1  0
 31 30  1  0
 31 32  1  0
 32 33  1  0
 32 34  1  0
 33 35  1  0
 34 36  1  0
 34 37  1  0
 37 35  1  0
 35 38  1  0
 37 39  1  0
 40 38  1  0
 41 38  1  0
 42 40  2  0
 40 43  1  0
 44 41  2  0
 45 42  1  0
 43 46  2  0
 43 44  1  0
 47 45  2  0
 47 46  1  0
 46 48  1  0
  6 49  1  1
  7 50  1  0
  7 51  1  0
  8 52  1  0
  8 53  1  0
 10 54  1  0
 11 55  1  0
 12 56  1  0
 13 57  1  0
 16 58  1  0
 16 59  1  0
 18 60  1  0
 21 61  1  0
 27 62  1  0
 27 63  1  0
 31 64  1  0
 31 65  1  0
 32 66  1  0
 34 67  1  0
 35 68  1  0
 36 69  1  0
 37 70  1  0
 39 71  1  0
 41 72  1  0
 45 73  1  0
 48 74  1  0
 48 75  1  0
M  CHG  3   5  -1  22   1  25  -1
M  END
>  <EmbedRMS>  (213) 
0.0818145478576

$$$$

     RDKit          3D

 75 80  0  0  0  0  0  0  0  0999 V2000
   10.2803   43.7665   33.8250 C   0  0  0  0  0  0  0  0  0  0  0  0
   11.4110   43.5918   34.3666 O   0  0  0  0  0  0  0  0  0  0  0  0
    9.3616   42.7251   33.7348 O   0  0  0  0  0  0  0  0  0  0  0  0
    9.8896   41.2269   34.2945 P   0  0  0  0  0  0  0  0  0  0  0  0
   10.3731   41.4568   35.8838 O   0  0  0  0  0  0  0  0  0  0  0  0
    9.9460   45.0737   33.2112 C   0  0  1  0  0  0  0  0  0  0  0  0
   11.0267   46.0292   33.4708 N   0  0  0  0  0  0  0  0  0  0  0  0
    9.7540   44.8542   31.6949 C   0  0  0  0  0  0  0  0  0  0  0  0
    8.7956   45.8412   31.0848 C   0  0  0  0  0  0  0  0  0  0  0  0
    7.4086   45.5999   31.1011 C   0  0  0  0  0  0  0  0  0  0  0  0
    9.2825   46.9880   30.4396 C   0  0  0  0  0  0  0  0  0  0  0  0
    6.5256   46.4989   30.4863 C   0  0  0  0  0  0  0  0  0  0  0  0
    8.3998   47.8877   29.8308 C   0  0  0  0  0  0  0  0  0  0  0  0
    7.0186   47.6543   29.8465 C   0  0  0  0  0  0  0  0  0  0  0  0
    6.1780   48.5863   29.2210 O   0  0  0  0  0  0  0  0  0  0  0  0
    4.7577   48.4837   29.1688 C   0  0  0  0  0  0  0  0  0  0  0  0
    4.1977   49.6761   28.4400 C   0  0  0  0  0  0  0  0  0  0  0  0
    3.8752   49.5337   27.0700 C   0  0  0  0  0  0  0  0  0  0  0  0
    3.9605   50.9289   29.0972 C   0  0  0  0  0  0  0  0  0  0  0  0
    3.3154   50.6173   26.4060 C   0  0  0  0  0  0  0  0  0  0  0  0
    3.3747   51.9926   28.3702 C   0  0  0  0  0  0  0  0  0  0  0  0
    4.2916   51.1329   30.4831 N   0  0  0  0  0  0  0  0  0  0  0  0
    2.9213   50.7050   25.0847 O   0  0  0  0  0  0  0  0  0  0  0  0
    3.0730   51.7934   27.0292 C   0  0  0  0  0  0  0  0  0  0  0  0
    5.4429   50.6024   31.0167 O   0  0  0  0  0  0  0  0  0  0  0  0
    3.6254   51.9319   31.1735 O   0  0  0  0  0  0  0  0  0  0  0  0
    2.3981   52.0223   24.8657 C   0  0  0  0  0  0  0  0  0  0  0  0
    2.5137   52.6839   26.1329 O   0  0  0  0  0  0  0  0  0  0  0  0
    8.8122   40.1844   34.2135 O   0  0  0  0  0  0  0  0  0  0  0  0
   11.2401   40.7949   33.3698 O   0  0  0  0  0  0  0  0  0  0  0  0
   10.9143   40.6914   31.9981 C   0  0  0  0  0  0  0  0  0  0  0  0
   11.5269   39.3912   31.4385 C   0  0  0  0  0  0  0  0  0  0  0  0
   12.7519   39.0911   32.0837 O   0  0  0  0  0  0  0  0  0  0  0  0
   10.6113   38.1932   31.6451 C   0  0  0  0  0  0  0  0  0  0  0  0
   12.9413   37.6838   32.0297 C   0  0  0  0  0  0  0  0  0  0  0  0
    9.6064   38.0877   30.6599 O   0  0  0  0  0  0  0  0  0  0  0  0
   11.5822   37.0197   31.6877 C   0  0  0  0  0  0  0  0  0  0  0  0
   13.4840   37.2104   33.3254 N   0  0  0  0  0  0  0  0  0  0  0  0
   11.6179   36.3072   30.4690 O   0  0  0  0  0  0  0  0  0  0  0  0
   14.4797   36.3309   33.5738 C   0  0  0  0  0  0  0  0  0  0  0  0
   13.1136   37.6269   34.5702 C   0  0  0  0  0  0  0  0  0  0  0  0
   15.2074   35.6152   32.6747 N   0  0  0  0  0  0  0  0  0  0  0  0
   14.6756   36.2298   34.9190 C   0  0  0  0  0  0  0  0  0  0  0  0
   13.8217   37.0445   35.5793 N   0  0  0  0  0  0  0  0  0  0  0  0
   16.1643   34.7603   33.1551 C   0  0  0  0  0  0  0  0  0  0  0  0
   15.6528   35.3503   35.4136 C   0  0  0  0  0  0  0  0  0  0  0  0
   16.3798   34.6316   34.5046 N   0  0  0  0  0  0  0  0  0  0  0  0
   15.9004   35.1931   36.8094 N   0  0  0  0  0  0  0  0  0  0  0  0
    8.9996   45.4383   33.6721 H   0  0  0  0  0  0  0  0  0  0  0  0
   10.7766   46.9369   33.0159 H   0  0  0  0  0  0  0  0  0  0  0  0
   11.0503   46.2277   34.4982 H   0  0  0  0  0  0  0  0  0  0  0  0
   10.7411   44.9080   31.1835 H   0  0  0  0  0  0  0  0  0  0  0  0
    9.3646   43.8354   31.4711 H   0  0  0  0  0  0  0  0  0  0  0  0
    7.0146   44.7150   31.5857 H   0  0  0  0  0  0  0  0  0  0  0  0
   10.3463   47.1879   30.4054 H   0  0  0  0  0  0  0  0  0  0  0  0
    5.4660   46.2854   30.5153 H   0  0  0  0  0  0  0  0  0  0  0  0
    8.7916   48.7699   29.3405 H   0  0  0  0  0  0  0  0  0  0  0  0
    4.4792   47.5448   28.6415 H   0  0  0  0  0  0  0  0  0  0  0  0
    4.3313   48.4279   30.1934 H   0  0  0  0  0  0  0  0  0  0  0  0
    4.0480   48.6052   26.5403 H   0  0  0  0  0  0  0  0  0  0  0  0
    3.1767   52.9513   28.8321 H   0  0  0  0  0  0  0  0  0  0  0  0
    1.3328   51.9663   24.5585 H   0  0  0  0  0  0  0  0  0  0  0  0
    3.0019   52.5529   24.1000 H   0  0  0  0  0  0  0  0  0  0  0  0
   11.3775   41.5548   31.4742 H   0  0  0  0  0  0  0  0  0  0  0  0
    9.8234   40.7201   31.7652 H   0  0  0  0  0  0  0  0  0  0  0  0
   11.7312   39.5362   30.3532 H   0  0  0  0  0  0  0  0  0  0  0  0
   10.1202   38.2696   32.6410 H   0  0  0  0  0  0  0  0  0  0  0  0
   13.6850   37.4639   31.2321 H   0  0  0  0  0  0  0  0  0  0  0  0
   10.0251   38.1792   29.7654 H   0  0  0  0  0  0  0  0  0  0  0  0
   11.2757   36.3135   32.4908 H   0  0  0  0  0  0  0  0  0  0  0  0
   11.9839   36.9111   29.7708 H   0  0  0  0  0  0  0  0  0  0  0  0
   12.3307   38.3536   34.7458 H   0  0  0  0  0  0  0  0  0  0  0  0
   16.7565   34.1787   32.4622 H   0  0  0  0  0  0  0  0  0  0  0  0
   16.6353   34.5301   37.1419 H   0  0  0  0  0  0  0  0  0  0  0  0
   15.3535   35.7355   37.5144 H   0  0  0  0  0  0  0  0  0  0  0  0
  1  2  2  0
  1  3  1  0
  3  4  1  0
  4  5  1  0
  6  1  1  0
  7  6  1  0
  6  8  1  0
  8  9  1  0
  9 10  2  0
 11  9  1  0
 10 12  1  0
 13 11  2  0
 12 14  2  0
 14 13  1  0
 14 15  1  0
 15 16  1  0
 16 17  1  0
 17 18  2  0
 19 17  1  0
 18 20  1  0
 21 19  2  0
 19 22  1  0
 20 23  1  0
 20 24  2  0
 24 21  1  0
 22 25  1  0
 22 26  2  0
 23 27  1  0
 24 28  1  0
 27 28  1  0
  4 29  2  0
  4 30  1  0
 31 30  1  0
 31 32  1  0
 32 33  1  0
 32 34  1  0
 33 35  1  0
 34 36  1  0
 34 37  1  0
 37 35  1  0
 35 38  1  0
 37 39  1  0
 40 38  1  0
 41 38  1  0
 42 40  2  0
 40 43  1  0
 44 41  2  0
 45 42  1  0
 43 46  2  0
 43 44  1  0
 47 45  2  0
 47 46  1  0
 46 48  1  0
  6 49  1  1
  7 50  1  0
  7 51  1  0
  8 52  1  0
  8 53  1  0
 10 54  1  0
 11 55  1  0
 12 56  1  0
 13 57  1  0
 16 58  1  0
 16 59  1  0
 18 60  1  0
 21 61  1  0
 27 62  1  0
 27 63  1  0
 31 64  1  0
 31 65  1  0
 32 66  1  0
 34 67  1  0
 35 68  1  0
 36 69  1  0
 37 70  1  0
 39 71  1  0
 41 72  1  0
 45 73  1  0
 48 74  1  0
 48 75  1  0
M  CHG  3   5  -1  22   1  25  -1
M  END
>  <EmbedRMS>  (214) 
0.0806392974264

$$$$

     RDKit          3D

 75 80  0  0  0  0  0  0  0  0999 V2000
   10.2805   43.7663   33.8249 C   0  0  0  0  0  0  0  0  0  0  0  0
   11.4111   43.5919   34.3667 O   0  0  0  0  0  0  0  0  0  0  0  0
    9.3622   42.7247   33.7343 O   0  0  0  0  0  0  0  0  0  0  0  0
    9.8904   41.2264   34.2936 P   0  0  0  0  0  0  0  0  0  0  0  0
   10.3731   41.4564   35.8832 O   0  0  0  0  0  0  0  0  0  0  0  0
    9.9459   45.0735   33.2111 C   0  0  1  0  0  0  0  0  0  0  0  0
   11.0266   46.0291   33.4705 N   0  0  0  0  0  0  0  0  0  0  0  0
    9.7536   44.8537   31.6948 C   0  0  0  0  0  0  0  0  0  0  0  0
    8.7955   45.8408   31.0844 C   0  0  0  0  0  0  0  0  0  0  0  0
    7.4086   45.6008   31.1014 C   0  0  0  0  0  0  0  0  0  0  0  0
    9.2829   46.9879   30.4402 C   0  0  0  0  0  0  0  0  0  0  0  0
    6.5281   46.5017   30.4865 C   0  0  0  0  0  0  0  0  0  0  0  0
    8.4023   47.8897   29.8314 C   0  0  0  0  0  0  0  0  0  0  0  0
    7.0139   47.6497   29.8457 C   0  0  0  0  0  0  0  0  0  0  0  0
    6.0877   48.5153   29.2422 O   0  0  0  0  0  0  0  0  0  0  0  0
    6.4174   49.6359   28.4203 C   0  0  0  0  0  0  0  0  0  0  0  0
    7.0219   49.1869   27.1099 C   0  0  0  0  0  0  0  0  0  0  0  0
    8.2700   49.7301   26.7240 C   0  0  0  0  0  0  0  0  0  0  0  0
    6.3911   48.2040   26.2764 C   0  0  0  0  0  0  0  0  0  0  0  0
    8.8597   49.2694   25.5545 C   0  0  0  0  0  0  0  0  0  0  0  0
    7.0478   47.7650   25.1024 C   0  0  0  0  0  0  0  0  0  0  0  0
    5.1101   47.6390   26.6085 N   0  0  0  0  0  0  0  0  0  0  0  0
   10.0656   49.6455   24.9947 O   0  0  0  0  0  0  0  0  0  0  0  0
    8.2764   48.3261   24.7800 C   0  0  0  0  0  0  0  0  0  0  0  0
    4.1084   48.4264   27.1263 O   0  0  0  0  0  0  0  0  0  0  0  0
    4.8395   46.4660   26.2776 O   0  0  0  0  0  0  0  0  0  0  0  0
   10.2493   48.8886   23.7904 C   0  0  0  0  0  0  0  0  0  0  0  0
    9.0837   48.0589   23.6911 O   0  0  0  0  0  0  0  0  0  0  0  0
    8.8129   40.1841   34.2124 O   0  0  0  0  0  0  0  0  0  0  0  0
   11.2419   40.7944   33.3695 O   0  0  0  0  0  0  0  0  0  0  0  0
   10.9186   40.6911   31.9969 C   0  0  0  0  0  0  0  0  0  0  0  0
   11.5172   39.3814   31.4407 C   0  0  0  0  0  0  0  0  0  0  0  0
   12.7492   39.0856   32.0729 O   0  0  0  0  0  0  0  0  0  0  0  0
   10.6023   38.1908   31.6665 C   0  0  0  0  0  0  0  0  0  0  0  0
   12.9319   37.6781   32.0281 C   0  0  0  0  0  0  0  0  0  0  0  0
    9.6392   38.0797   30.6452 O   0  0  0  0  0  0  0  0  0  0  0  0
   11.5715   37.0165   31.7056 C   0  0  0  0  0  0  0  0  0  0  0  0
   13.4847   37.2121   33.3235 N   0  0  0  0  0  0  0  0  0  0  0  0
   11.6187   36.3384   30.4695 O   0  0  0  0  0  0  0  0  0  0  0  0
   14.4801   36.3321   33.5724 C   0  0  0  0  0  0  0  0  0  0  0  0
   13.1137   37.6275   34.5688 C   0  0  0  0  0  0  0  0  0  0  0  0
   15.2073   35.6153   32.6738 N   0  0  0  0  0  0  0  0  0  0  0  0
   14.6759   36.2308   34.9179 C   0  0  0  0  0  0  0  0  0  0  0  0
   13.8216   37.0452   35.5781 N   0  0  0  0  0  0  0  0  0  0  0  0
   16.1640   34.7602   33.1546 C   0  0  0  0  0  0  0  0  0  0  0  0
   15.6526   35.3508   35.4129 C   0  0  0  0  0  0  0  0  0  0  0  0
   16.3794   34.6317   34.5041 N   0  0  0  0  0  0  0  0  0  0  0  0
   15.8999   35.1934   36.8088 N   0  0  0  0  0  0  0  0  0  0  0  0
    8.9995   45.4380   33.6722 H   0  0  0  0  0  0  0  0  0  0  0  0
   11.0503   46.2276   34.4979 H   0  0  0  0  0  0  0  0  0  0  0  0
   10.7762   46.9368   33.0156 H   0  0  0  0  0  0  0  0  0  0  0  0
   10.7407   44.9069   31.1833 H   0  0  0  0  0  0  0  0  0  0  0  0
    9.3636   43.8351   31.4713 H   0  0  0  0  0  0  0  0  0  0  0  0
    7.0129   44.7167   31.5858 H   0  0  0  0  0  0  0  0  0  0  0  0
   10.3469   47.1878   30.4091 H   0  0  0  0  0  0  0  0  0  0  0  0
    5.4638   46.3040   30.5047 H   0  0  0  0  0  0  0  0  0  0  0  0
    8.8135   48.7686   29.3576 H   0  0  0  0  0  0  0  0  0  0  0  0
    7.0898   50.3235   28.9778 H   0  0  0  0  0  0  0  0  0  0  0  0
    5.4932   50.2118   28.2108 H   0  0  0  0  0  0  0  0  0  0  0  0
    8.7743   50.4770   27.3241 H   0  0  0  0  0  0  0  0  0  0  0  0
    6.6056   47.0208   24.4525 H   0  0  0  0  0  0  0  0  0  0  0  0
   11.1613   48.2603   23.8671 H   0  0  0  0  0  0  0  0  0  0  0  0
   10.3113   49.5686   22.9151 H   0  0  0  0  0  0  0  0  0  0  0  0
    9.8298   40.7409   31.7611 H   0  0  0  0  0  0  0  0  0  0  0  0
   11.3967   41.5459   31.4725 H   0  0  0  0  0  0  0  0  0  0  0  0
   11.6975   39.5066   30.3481 H   0  0  0  0  0  0  0  0  0  0  0  0
   10.1076   38.2647   32.6645 H   0  0  0  0  0  0  0  0  0  0  0  0
   13.6621   37.4468   31.2209 H   0  0  0  0  0  0  0  0  0  0  0  0
    8.8974   38.6943   30.8831 H   0  0  0  0  0  0  0  0  0  0  0  0
   11.2806   36.3073   32.5170 H   0  0  0  0  0  0  0  0  0  0  0  0
   10.8493   35.7110   30.4586 H   0  0  0  0  0  0  0  0  0  0  0  0
   12.3290   38.3524   34.7444 H   0  0  0  0  0  0  0  0  0  0  0  0
   16.7559   34.1780   32.4619 H   0  0  0  0  0  0  0  0  0  0  0  0
   15.3531   35.7362   37.5137 H   0  0  0  0  0  0  0  0  0  0  0  0
   16.6344   34.5301   37.1414 H   0  0  0  0  0  0  0  0  0  0  0  0
  1  2  2  0
  1  3  1  0
  3  4  1  0
  4  5  1  0
  6  1  1  0
  7  6  1  0
  6  8  1  0
  8  9  1  0
  9 10  2  0
 11  9  1  0
 10 12  1  0
 13 11  2  0
 12 14  2  0
 14 13  1  0
 14 15  1  0
 15 16  1  0
 16 17  1  0
 17 18  2  0
 19 17  1  0
 18 20  1  0
 21 19  2  0
 19 22  1  0
 20 23  1  0
 20 24  2  0
 24 21  1  0
 22 25  1  0
 22 26  2  0
 23 27  1  0
 24 28  1  0
 27 28  1  0
  4 29  2  0
  4 30  1  0
 31 30  1  0
 31 32  1  0
 32 33  1  0
 32 34  1  0
 33 35  1  0
 34 36  1  0
 34 37  1  0
 37 35  1  0
 35 38  1  0
 37 39  1  0
 40 38  1  0
 41 38  1  0
 42 40  2  0
 40 43  1  0
 44 41  2  0
 45 42  1  0
 43 46  2  0
 43 44  1  0
 47 45  2  0
 47 46  1  0
 46 48  1  0
  6 49  1  1
  7 50  1  0
  7 51  1  0
  8 52  1  0
  8 53  1  0
 10 54  1  0
 11 55  1  0
 12 56  1  0
 13 57  1  0
 16 58  1  0
 16 59  1  0
 18 60  1  0
 21 61  1  0
 27 62  1  0
 27 63  1  0
 31 64  1  0
 31 65  1  0
 32 66  1  0
 34 67  1  0
 35 68  1  0
 36 69  1  0
 37 70  1  0
 39 71  1  0
 41 72  1  0
 45 73  1  0
 48 74  1  0
 48 75  1  0
M  CHG  3   5  -1  22   1  25  -1
M  END
>  <EmbedRMS>  (215) 
0.0827830159215

$$$$

     RDKit          3D

 75 80  0  0  0  0  0  0  0  0999 V2000
   10.2835   43.7662   33.8257 C   0  0  0  0  0  0  0  0  0  0  0  0
   11.4102   43.5931   34.3753 O   0  0  0  0  0  0  0  0  0  0  0  0
    9.3638   42.7255   33.7351 O   0  0  0  0  0  0  0  0  0  0  0  0
    9.8904   41.2268   34.2946 P   0  0  0  0  0  0  0  0  0  0  0  0
   10.3729   41.4561   35.8842 O   0  0  0  0  0  0  0  0  0  0  0  0
    9.9546   45.0694   33.2034 C   0  0  1  0  0  0  0  0  0  0  0  0
   11.0273   46.0321   33.4755 N   0  0  0  0  0  0  0  0  0  0  0  0
    9.7466   44.8479   31.6875 C   0  0  0  0  0  0  0  0  0  0  0  0
    8.7923   45.8406   31.0841 C   0  0  0  0  0  0  0  0  0  0  0  0
    7.4055   45.6017   31.0994 C   0  0  0  0  0  0  0  0  0  0  0  0
    9.2823   46.9878   30.4426 C   0  0  0  0  0  0  0  0  0  0  0  0
    6.5266   46.5036   30.4845 C   0  0  0  0  0  0  0  0  0  0  0  0
    8.4032   47.8904   29.8327 C   0  0  0  0  0  0  0  0  0  0  0  0
    7.0141   47.6521   29.8459 C   0  0  0  0  0  0  0  0  0  0  0  0
    6.0899   48.5204   29.2423 O   0  0  0  0  0  0  0  0  0  0  0  0
    6.4274   49.6773   28.4751 C   0  0  0  0  0  0  0  0  0  0  0  0
    7.0621   49.2842   27.1599 C   0  0  0  0  0  0  0  0  0  0  0  0
    6.4501   48.2581   26.4022 C   0  0  0  0  0  0  0  0  0  0  0  0
    8.2726   49.8847   26.6839 C   0  0  0  0  0  0  0  0  0  0  0  0
    7.0773   47.8305   25.2391 C   0  0  0  0  0  0  0  0  0  0  0  0
    8.8747   49.3972   25.5010 C   0  0  0  0  0  0  0  0  0  0  0  0
    8.8774   50.9952   27.3636 N   0  0  0  0  0  0  0  0  0  0  0  0
    6.6764   46.8429   24.3600 O   0  0  0  0  0  0  0  0  0  0  0  0
    8.2416   48.3714   24.8110 C   0  0  0  0  0  0  0  0  0  0  0  0
    8.1115   52.0793   27.7252 O   0  0  0  0  0  0  0  0  0  0  0  0
   10.1209   51.0893   27.4213 O   0  0  0  0  0  0  0  0  0  0  0  0
    7.6527   46.7601   23.3127 C   0  0  0  0  0  0  0  0  0  0  0  0
    8.6342   47.7536   23.6393 O   0  0  0  0  0  0  0  0  0  0  0  0
    8.8125   40.1848   34.2126 O   0  0  0  0  0  0  0  0  0  0  0  0
   11.2416   40.7948   33.3707 O   0  0  0  0  0  0  0  0  0  0  0  0
   10.9179   40.6922   31.9984 C   0  0  0  0  0  0  0  0  0  0  0  0
   11.5175   39.3838   31.4423 C   0  0  0  0  0  0  0  0  0  0  0  0
   12.7508   39.0887   32.0752 O   0  0  0  0  0  0  0  0  0  0  0  0
   10.6028   38.1916   31.6659 C   0  0  0  0  0  0  0  0  0  0  0  0
   12.9384   37.6818   32.0278 C   0  0  0  0  0  0  0  0  0  0  0  0
    9.6371   38.0806   30.6470 O   0  0  0  0  0  0  0  0  0  0  0  0
   11.5780   37.0215   31.6935 C   0  0  0  0  0  0  0  0  0  0  0  0
   13.4844   37.2119   33.3242 N   0  0  0  0  0  0  0  0  0  0  0  0
   11.6095   36.3201   30.4679 O   0  0  0  0  0  0  0  0  0  0  0  0
   14.4797   36.3318   33.5730 C   0  0  0  0  0  0  0  0  0  0  0  0
   13.1135   37.6278   34.5691 C   0  0  0  0  0  0  0  0  0  0  0  0
   15.2073   35.6155   32.6742 N   0  0  0  0  0  0  0  0  0  0  0  0
   14.6754   36.2305   34.9184 C   0  0  0  0  0  0  0  0  0  0  0  0
   13.8213   37.0452   35.5785 N   0  0  0  0  0  0  0  0  0  0  0  0
   16.1640   34.7604   33.1549 C   0  0  0  0  0  0  0  0  0  0  0  0
   15.6524   35.3507   35.4133 C   0  0  0  0  0  0  0  0  0  0  0  0
   16.3794   34.6317   34.5044 N   0  0  0  0  0  0  0  0  0  0  0  0
   15.8999   35.1934   36.8091 N   0  0  0  0  0  0  0  0  0  0  0  0
    9.0121   45.4317   33.6713 H   0  0  0  0  0  0  0  0  0  0  0  0
   11.8906   45.7658   32.9467 H   0  0  0  0  0  0  0  0  0  0  0  0
   10.7259   46.9687   33.1211 H   0  0  0  0  0  0  0  0  0  0  0  0
   10.7229   44.8812   31.1555 H   0  0  0  0  0  0  0  0  0  0  0  0
    9.3414   43.8328   31.4762 H   0  0  0  0  0  0  0  0  0  0  0  0
    7.0082   44.7171   31.5816 H   0  0  0  0  0  0  0  0  0  0  0  0
   10.3468   47.1857   30.4131 H   0  0  0  0  0  0  0  0  0  0  0  0
    5.4621   46.3069   30.5017 H   0  0  0  0  0  0  0  0  0  0  0  0
    8.8163   48.7672   29.3558 H   0  0  0  0  0  0  0  0  0  0  0  0
    7.0697   50.3392   29.0889 H   0  0  0  0  0  0  0  0  0  0  0  0
    5.4920   50.2329   28.2555 H   0  0  0  0  0  0  0  0  0  0  0  0
    5.5274   47.7915   26.7237 H   0  0  0  0  0  0  0  0  0  0  0  0
    9.7921   49.8250   25.1175 H   0  0  0  0  0  0  0  0  0  0  0  0
    8.1176   45.7520   23.2999 H   0  0  0  0  0  0  0  0  0  0  0  0
    7.1851   46.9911   22.3326 H   0  0  0  0  0  0  0  0  0  0  0  0
    9.8291   40.7409   31.7627 H   0  0  0  0  0  0  0  0  0  0  0  0
   11.3952   41.5478   31.4744 H   0  0  0  0  0  0  0  0  0  0  0  0
   11.6981   39.5115   30.3500 H   0  0  0  0  0  0  0  0  0  0  0  0
   10.1117   38.2604   32.6660 H   0  0  0  0  0  0  0  0  0  0  0  0
   13.6767   37.4556   31.2267 H   0  0  0  0  0  0  0  0  0  0  0  0
    8.8961   38.6952   30.8872 H   0  0  0  0  0  0  0  0  0  0  0  0
   11.2791   36.3072   32.4922 H   0  0  0  0  0  0  0  0  0  0  0  0
   11.8828   36.9598   29.7589 H   0  0  0  0  0  0  0  0  0  0  0  0
   12.3300   38.3538   34.7446 H   0  0  0  0  0  0  0  0  0  0  0  0
   16.7561   34.1785   32.4622 H   0  0  0  0  0  0  0  0  0  0  0  0
   15.3531   35.7360   37.5140 H   0  0  0  0  0  0  0  0  0  0  0  0
   16.6347   34.5303   37.1416 H   0  0  0  0  0  0  0  0  0  0  0  0
  1  2  2  0
  1  3  1  0
  3  4  1  0
  4  5  1  0
  6  1  1  0
  7  6  1  0
  6  8  1  0
  8  9  1  0
  9 10  2  0
 11  9  1  0
 10 12  1  0
 13 11  2  0
 12 14  2  0
 14 13  1  0
 14 15  1  0
 15 16  1  0
 16 17  1  0
 17 18  2  0
 19 17  1  0
 18 20  1  0
 21 19  2  0
 19 22  1  0
 20 23  1  0
 20 24  2  0
 24 21  1  0
 22 25  1  0
 22 26  2  0
 23 27  1  0
 24 28  1  0
 27 28  1  0
  4 29  2  0
  4 30  1  0
 31 30  1  0
 31 32  1  0
 32 33  1  0
 32 34  1  0
 33 35  1  0
 34 36  1  0
 34 37  1  0
 37 35  1  0
 35 38  1  0
 37 39  1  0
 40 38  1  0
 41 38  1  0
 42 40  2  0
 40 43  1  0
 44 41  2  0
 45 42  1  0
 43 46  2  0
 43 44  1  0
 47 45  2  0
 47 46  1  0
 46 48  1  0
  6 49  1  1
  7 50  1  0
  7 51  1  0
  8 52  1  0
  8 53  1  0
 10 54  1  0
 11 55  1  0
 12 56  1  0
 13 57  1  0
 16 58  1  0
 16 59  1  0
 18 60  1  0
 21 61  1  0
 27 62  1  0
 27 63  1  0
 31 64  1  0
 31 65  1  0
 32 66  1  0
 34 67  1  0
 35 68  1  0
 36 69  1  0
 37 70  1  0
 39 71  1  0
 41 72  1  0
 45 73  1  0
 48 74  1  0
 48 75  1  0
M  CHG  3   5  -1  22   1  25  -1
M  END
>  <EmbedRMS>  (216) 
0.0819861745947

$$$$

     RDKit          3D

 75 80  0  0  0  0  0  0  0  0999 V2000
   10.2838   43.7627   33.8277 C   0  0  0  0  0  0  0  0  0  0  0  0
   11.4103   43.5863   34.3766 O   0  0  0  0  0  0  0  0  0  0  0  0
    9.3628   42.7238   33.7358 O   0  0  0  0  0  0  0  0  0  0  0  0
    9.8891   41.2251   34.2949 P   0  0  0  0  0  0  0  0  0  0  0  0
   10.3724   41.4548   35.8843 O   0  0  0  0  0  0  0  0  0  0  0  0
    9.9548   45.0700   33.2064 C   0  0  1  0  0  0  0  0  0  0  0  0
   11.0199   46.0480   33.4568 N   0  0  0  0  0  0  0  0  0  0  0  0
    9.7500   44.8508   31.6924 C   0  0  0  0  0  0  0  0  0  0  0  0
    8.7942   45.8418   31.0870 C   0  0  0  0  0  0  0  0  0  0  0  0
    7.4072   45.6010   31.1000 C   0  0  0  0  0  0  0  0  0  0  0  0
    9.2834   46.9892   30.4447 C   0  0  0  0  0  0  0  0  0  0  0  0
    6.5276   46.5019   30.4842 C   0  0  0  0  0  0  0  0  0  0  0  0
    8.4037   47.8901   29.8323 C   0  0  0  0  0  0  0  0  0  0  0  0
    7.0150   47.6516   29.8476 C   0  0  0  0  0  0  0  0  0  0  0  0
    6.0939   48.5217   29.2466 O   0  0  0  0  0  0  0  0  0  0  0  0
    6.4461   49.7177   28.5564 C   0  0  0  0  0  0  0  0  0  0  0  0
    5.1987   50.3758   28.0297 C   0  0  0  0  0  0  0  0  0  0  0  0
    4.6306   51.4324   28.7792 C   0  0  0  0  0  0  0  0  0  0  0  0
    4.5947   49.9823   26.7895 C   0  0  0  0  0  0  0  0  0  0  0  0
    3.5071   52.0729   28.2735 C   0  0  0  0  0  0  0  0  0  0  0  0
    3.4580   50.6827   26.3196 C   0  0  0  0  0  0  0  0  0  0  0  0
    5.1199   48.8993   25.9999 N   0  0  0  0  0  0  0  0  0  0  0  0
    2.7946   53.1207   28.8243 O   0  0  0  0  0  0  0  0  0  0  0  0
    2.9475   51.7160   27.0946 C   0  0  0  0  0  0  0  0  0  0  0  0
    5.6010   47.7596   26.6009 O   0  0  0  0  0  0  0  0  0  0  0  0
    4.9912   48.9119   24.7581 O   0  0  0  0  0  0  0  0  0  0  0  0
    1.7182   53.4409   27.9324 C   0  0  0  0  0  0  0  0  0  0  0  0
    1.8529   52.5201   26.8411 O   0  0  0  0  0  0  0  0  0  0  0  0
    8.8112   40.1834   34.2132 O   0  0  0  0  0  0  0  0  0  0  0  0
   11.2398   40.7938   33.3702 O   0  0  0  0  0  0  0  0  0  0  0  0
   10.9144   40.6912   31.9983 C   0  0  0  0  0  0  0  0  0  0  0  0
   11.5270   39.3911   31.4385 C   0  0  0  0  0  0  0  0  0  0  0  0
   12.7520   39.0910   32.0836 O   0  0  0  0  0  0  0  0  0  0  0  0
   10.6114   38.1931   31.6451 C   0  0  0  0  0  0  0  0  0  0  0  0
   12.9413   37.6837   32.0297 C   0  0  0  0  0  0  0  0  0  0  0  0
    9.6064   38.0877   30.6599 O   0  0  0  0  0  0  0  0  0  0  0  0
   11.5822   37.0197   31.6876 C   0  0  0  0  0  0  0  0  0  0  0  0
   13.4840   37.2104   33.3254 N   0  0  0  0  0  0  0  0  0  0  0  0
   11.6179   36.3071   30.4690 O   0  0  0  0  0  0  0  0  0  0  0  0
   14.4797   36.3309   33.5738 C   0  0  0  0  0  0  0  0  0  0  0  0
   13.1136   37.6269   34.5702 C   0  0  0  0  0  0  0  0  0  0  0  0
   15.2074   35.6152   32.6747 N   0  0  0  0  0  0  0  0  0  0  0  0
   14.6756   36.2298   34.9190 C   0  0  0  0  0  0  0  0  0  0  0  0
   13.8217   37.0445   35.5793 N   0  0  0  0  0  0  0  0  0  0  0  0
   16.1643   34.7603   33.1551 C   0  0  0  0  0  0  0  0  0  0  0  0
   15.6528   35.3503   35.4136 C   0  0  0  0  0  0  0  0  0  0  0  0
   16.3798   34.6316   34.5046 N   0  0  0  0  0  0  0  0  0  0  0  0
   15.9004   35.1930   36.8094 N   0  0  0  0  0  0  0  0  0  0  0  0
    9.0099   45.4350   33.6672 H   0  0  0  0  0  0  0  0  0  0  0  0
   11.9348   45.6932   33.0923 H   0  0  0  0  0  0  0  0  0  0  0  0
   11.1136   46.1992   34.4881 H   0  0  0  0  0  0  0  0  0  0  0  0
    9.3506   43.8343   31.4764 H   0  0  0  0  0  0  0  0  0  0  0  0
   10.7303   44.8921   31.1675 H   0  0  0  0  0  0  0  0  0  0  0  0
    7.0107   44.7159   31.5820 H   0  0  0  0  0  0  0  0  0  0  0  0
   10.3477   47.1880   30.4161 H   0  0  0  0  0  0  0  0  0  0  0  0
    5.4632   46.3048   30.5011 H   0  0  0  0  0  0  0  0  0  0  0  0
    8.8143   48.7657   29.3487 H   0  0  0  0  0  0  0  0  0  0  0  0
    6.9749   50.4007   29.2571 H   0  0  0  0  0  0  0  0  0  0  0  0
    7.1430   49.4960   27.7198 H   0  0  0  0  0  0  0  0  0  0  0  0
    5.0556   51.7506   29.7230 H   0  0  0  0  0  0  0  0  0  0  0  0
    2.9768   50.4180   25.3869 H   0  0  0  0  0  0  0  0  0  0  0  0
    0.7419   53.2932   28.4400 H   0  0  0  0  0  0  0  0  0  0  0  0
    1.8191   54.4846   27.5677 H   0  0  0  0  0  0  0  0  0  0  0  0
    9.8235   40.7202   31.7651 H   0  0  0  0  0  0  0  0  0  0  0  0
   11.3780   41.5548   31.4751 H   0  0  0  0  0  0  0  0  0  0  0  0
   11.7311   39.5363   30.3531 H   0  0  0  0  0  0  0  0  0  0  0  0
   10.1203   38.2695   32.6410 H   0  0  0  0  0  0  0  0  0  0  0  0
   13.6850   37.4638   31.2321 H   0  0  0  0  0  0  0  0  0  0  0  0
   10.0251   38.1792   29.7654 H   0  0  0  0  0  0  0  0  0  0  0  0
   11.2757   36.3135   32.4907 H   0  0  0  0  0  0  0  0  0  0  0  0
   11.9838   36.9111   29.7708 H   0  0  0  0  0  0  0  0  0  0  0  0
   12.3307   38.3536   34.7457 H   0  0  0  0  0  0  0  0  0  0  0  0
   16.7566   34.1786   32.4623 H   0  0  0  0  0  0  0  0  0  0  0  0
   16.6353   34.5301   37.1419 H   0  0  0  0  0  0  0  0  0  0  0  0
   15.3535   35.7355   37.5144 H   0  0  0  0  0  0  0  0  0  0  0  0
  1  2  2  0
  1  3  1  0
  3  4  1  0
  4  5  1  0
  6  1  1  0
  7  6  1  0
  6  8  1  0
  8  9  1  0
  9 10  2  0
 11  9  1  0
 10 12  1  0
 13 11  2  0
 12 14  2  0
 14 13  1  0
 14 15  1  0
 15 16  1  0
 16 17  1  0
 17 18  2  0
 19 17  1  0
 18 20  1  0
 21 19  2  0
 19 22  1  0
 20 23  1  0
 20 24  2  0
 24 21  1  0
 22 25  1  0
 22 26  2  0
 23 27  1  0
 24 28  1  0
 27 28  1  0
  4 29  2  0
  4 30  1  0
 31 30  1  0
 31 32  1  0
 32 33  1  0
 32 34  1  0
 33 35  1  0
 34 36  1  0
 34 37  1  0
 37 35  1  0
 35 38  1  0
 37 39  1  0
 40 38  1  0
 41 38  1  0
 42 40  2  0
 40 43  1  0
 44 41  2  0
 45 42  1  0
 43 46  2  0
 43 44  1  0
 47 45  2  0
 47 46  1  0
 46 48  1  0
  6 49  1  1
  7 50  1  0
  7 51  1  0
  8 52  1  0
  8 53  1  0
 10 54  1  0
 11 55  1  0
 12 56  1  0
 13 57  1  0
 16 58  1  0
 16 59  1  0
 18 60  1  0
 21 61  1  0
 27 62  1  0
 27 63  1  0
 31 64  1  0
 31 65  1  0
 32 66  1  0
 34 67  1  0
 35 68  1  0
 36 69  1  0
 37 70  1  0
 39 71  1  0
 41 72  1  0
 45 73  1  0
 48 74  1  0
 48 75  1  0
M  CHG  3   5  -1  22   1  25  -1
M  END
>  <EmbedRMS>  (217) 
0.081741280907

$$$$

     RDKit          3D

 75 80  0  0  0  0  0  0  0  0999 V2000
   10.2842   43.7623   33.8274 C   0  0  0  0  0  0  0  0  0  0  0  0
   11.4104   43.5860   34.3770 O   0  0  0  0  0  0  0  0  0  0  0  0
    9.3632   42.7234   33.7350 O   0  0  0  0  0  0  0  0  0  0  0  0
    9.8886   41.2247   34.2943 P   0  0  0  0  0  0  0  0  0  0  0  0
   10.3718   41.4542   35.8838 O   0  0  0  0  0  0  0  0  0  0  0  0
    9.9551   45.0696   33.2062 C   0  0  1  0  0  0  0  0  0  0  0  0
   11.0198   46.0479   33.4567 N   0  0  0  0  0  0  0  0  0  0  0  0
    9.7506   44.8508   31.6922 C   0  0  0  0  0  0  0  0  0  0  0  0
    8.7946   45.8418   31.0868 C   0  0  0  0  0  0  0  0  0  0  0  0
    7.4080   45.5994   31.0980 C   0  0  0  0  0  0  0  0  0  0  0  0
    9.2834   46.9874   30.4415 C   0  0  0  0  0  0  0  0  0  0  0  0
    6.5263   46.4992   30.4831 C   0  0  0  0  0  0  0  0  0  0  0  0
    8.4015   47.8864   29.8304 C   0  0  0  0  0  0  0  0  0  0  0  0
    7.0187   47.6604   29.8559 C   0  0  0  0  0  0  0  0  0  0  0  0
    6.1799   48.6082   29.2499 O   0  0  0  0  0  0  0  0  0  0  0  0
    4.7835   48.7675   29.5077 C   0  0  0  0  0  0  0  0  0  0  0  0
    4.5495   49.2585   30.9183 C   0  0  0  0  0  0  0  0  0  0  0  0
    3.9720   48.3638   31.8515 C   0  0  0  0  0  0  0  0  0  0  0  0
    4.8533   50.6028   31.3259 C   0  0  0  0  0  0  0  0  0  0  0  0
    3.7493   48.8069   33.1479 C   0  0  0  0  0  0  0  0  0  0  0  0
    4.5951   50.9955   32.6622 C   0  0  0  0  0  0  0  0  0  0  0  0
    5.3681   51.5863   30.4059 N   0  0  0  0  0  0  0  0  0  0  0  0
    3.2128   48.1100   34.2132 O   0  0  0  0  0  0  0  0  0  0  0  0
    4.0521   50.0652   33.5378 C   0  0  0  0  0  0  0  0  0  0  0  0
    6.2846   51.2470   29.4394 O   0  0  0  0  0  0  0  0  0  0  0  0
    5.1009   52.7942   30.5736 O   0  0  0  0  0  0  0  0  0  0  0  0
    3.1813   48.9891   35.3458 C   0  0  0  0  0  0  0  0  0  0  0  0
    3.7266   50.2270   34.8710 O   0  0  0  0  0  0  0  0  0  0  0  0
    8.8101   40.1835   34.2128 O   0  0  0  0  0  0  0  0  0  0  0  0
   11.2395   40.7928   33.3697 O   0  0  0  0  0  0  0  0  0  0  0  0
   10.9150   40.6904   31.9974 C   0  0  0  0  0  0  0  0  0  0  0  0
   11.5252   39.3885   31.4378 C   0  0  0  0  0  0  0  0  0  0  0  0
   12.7498   39.0872   32.0803 O   0  0  0  0  0  0  0  0  0  0  0  0
   10.6092   38.1926   31.6469 C   0  0  0  0  0  0  0  0  0  0  0  0
   12.9330   37.6792   32.0294 C   0  0  0  0  0  0  0  0  0  0  0  0
    9.6121   38.0901   30.6540 O   0  0  0  0  0  0  0  0  0  0  0  0
   11.5742   37.0143   31.7026 C   0  0  0  0  0  0  0  0  0  0  0  0
   13.4844   37.2107   33.3240 N   0  0  0  0  0  0  0  0  0  0  0  0
   11.6300   36.3235   30.4744 O   0  0  0  0  0  0  0  0  0  0  0  0
   14.4801   36.3313   33.5725 C   0  0  0  0  0  0  0  0  0  0  0  0
   13.1141   37.6269   34.5692 C   0  0  0  0  0  0  0  0  0  0  0  0
   15.2077   35.6150   32.6738 N   0  0  0  0  0  0  0  0  0  0  0  0
   14.6762   36.2305   34.9180 C   0  0  0  0  0  0  0  0  0  0  0  0
   13.8224   37.0452   35.5783 N   0  0  0  0  0  0  0  0  0  0  0  0
   16.1646   34.7601   33.1548 C   0  0  0  0  0  0  0  0  0  0  0  0
   15.6531   35.3510   35.4131 C   0  0  0  0  0  0  0  0  0  0  0  0
   16.3800   34.6320   34.5043 N   0  0  0  0  0  0  0  0  0  0  0  0
   15.9004   35.1935   36.8091 N   0  0  0  0  0  0  0  0  0  0  0  0
    9.0101   45.4339   33.6670 H   0  0  0  0  0  0  0  0  0  0  0  0
   11.9348   45.6926   33.0930 H   0  0  0  0  0  0  0  0  0  0  0  0
   11.1133   46.1994   34.4879 H   0  0  0  0  0  0  0  0  0  0  0  0
   10.7311   44.8933   31.1678 H   0  0  0  0  0  0  0  0  0  0  0  0
    9.3520   43.8340   31.4759 H   0  0  0  0  0  0  0  0  0  0  0  0
    7.0138   44.7095   31.5729 H   0  0  0  0  0  0  0  0  0  0  0  0
   10.3478   47.1867   30.4106 H   0  0  0  0  0  0  0  0  0  0  0  0
    5.4721   46.2691   30.4852 H   0  0  0  0  0  0  0  0  0  0  0  0
    8.7942   48.7708   29.3445 H   0  0  0  0  0  0  0  0  0  0  0  0
    4.3654   49.5063   28.7926 H   0  0  0  0  0  0  0  0  0  0  0  0
    4.2512   47.8132   29.3070 H   0  0  0  0  0  0  0  0  0  0  0  0
    3.6962   47.3541   31.5772 H   0  0  0  0  0  0  0  0  0  0  0  0
    4.8143   51.9972   33.0086 H   0  0  0  0  0  0  0  0  0  0  0  0
    3.8100   48.5823   36.1644 H   0  0  0  0  0  0  0  0  0  0  0  0
    2.1359   49.1379   35.6881 H   0  0  0  0  0  0  0  0  0  0  0  0
   11.3815   41.5524   31.4737 H   0  0  0  0  0  0  0  0  0  0  0  0
    9.8242   40.7219   31.7636 H   0  0  0  0  0  0  0  0  0  0  0  0
   11.7267   39.5309   30.3517 H   0  0  0  0  0  0  0  0  0  0  0  0
   10.1109   38.2749   32.6386 H   0  0  0  0  0  0  0  0  0  0  0  0
   13.6648   37.4520   31.2224 H   0  0  0  0  0  0  0  0  0  0  0  0
   10.0508   38.1157   29.7642 H   0  0  0  0  0  0  0  0  0  0  0  0
   11.2760   36.3137   32.5190 H   0  0  0  0  0  0  0  0  0  0  0  0
   10.8595   35.6975   30.4647 H   0  0  0  0  0  0  0  0  0  0  0  0
   12.3294   38.3515   34.7454 H   0  0  0  0  0  0  0  0  0  0  0  0
   16.7566   34.1775   32.4626 H   0  0  0  0  0  0  0  0  0  0  0  0
   16.6348   34.5301   37.1418 H   0  0  0  0  0  0  0  0  0  0  0  0
   15.3534   35.7360   37.5140 H   0  0  0  0  0  0  0  0  0  0  0  0
  1  2  2  0
  1  3  1  0
  3  4  1  0
  4  5  1  0
  6  1  1  0
  7  6  1  0
  6  8  1  0
  8  9  1  0
  9 10  2  0
 11  9  1  0
 10 12  1  0
 13 11  2  0
 12 14  2  0
 14 13  1  0
 14 15  1  0
 15 16  1  0
 16 17  1  0
 17 18  2  0
 19 17  1  0
 18 20  1  0
 21 19  2  0
 19 22  1  0
 20 23  1  0
 20 24  2  0
 24 21  1  0
 22 25  1  0
 22 26  2  0
 23 27  1  0
 24 28  1  0
 27 28  1  0
  4 29  2  0
  4 30  1  0
 31 30  1  0
 31 32  1  0
 32 33  1  0
 32 34  1  0
 33 35  1  0
 34 36  1  0
 34 37  1  0
 37 35  1  0
 35 38  1  0
 37 39  1  0
 40 38  1  0
 41 38  1  0
 42 40  2  0
 40 43  1  0
 44 41  2  0
 45 42  1  0
 43 46  2  0
 43 44  1  0
 47 45  2  0
 47 46  1  0
 46 48  1  0
  6 49  1  1
  7 50  1  0
  7 51  1  0
  8 52  1  0
  8 53  1  0
 10 54  1  0
 11 55  1  0
 12 56  1  0
 13 57  1  0
 16 58  1  0
 16 59  1  0
 18 60  1  0
 21 61  1  0
 27 62  1  0
 27 63  1  0
 31 64  1  0
 31 65  1  0
 32 66  1  0
 34 67  1  0
 35 68  1  0
 36 69  1  0
 37 70  1  0
 39 71  1  0
 41 72  1  0
 45 73  1  0
 48 74  1  0
 48 75  1  0
M  CHG  3   5  -1  22   1  25  -1
M  END
>  <EmbedRMS>  (218) 
0.082747010436

$$$$

     RDKit          3D

 75 80  0  0  0  0  0  0  0  0999 V2000
   10.2834   43.7663   33.8258 C   0  0  0  0  0  0  0  0  0  0  0  0
   11.4103   43.5930   34.3753 O   0  0  0  0  0  0  0  0  0  0  0  0
    9.3635   42.7257   33.7353 O   0  0  0  0  0  0  0  0  0  0  0  0
    9.8900   41.2270   34.2948 P   0  0  0  0  0  0  0  0  0  0  0  0
   10.3733   41.4562   35.8842 O   0  0  0  0  0  0  0  0  0  0  0  0
    9.9547   45.0696   33.2038 C   0  0  1  0  0  0  0  0  0  0  0  0
   11.0274   46.0323   33.4757 N   0  0  0  0  0  0  0  0  0  0  0  0
    9.7464   44.8482   31.6881 C   0  0  0  0  0  0  0  0  0  0  0  0
    8.7921   45.8413   31.0854 C   0  0  0  0  0  0  0  0  0  0  0  0
    7.4056   45.6010   31.0980 C   0  0  0  0  0  0  0  0  0  0  0  0
    9.2820   46.9871   30.4415 C   0  0  0  0  0  0  0  0  0  0  0  0
    6.5272   46.5021   30.4815 C   0  0  0  0  0  0  0  0  0  0  0  0
    8.4030   47.8885   29.8296 C   0  0  0  0  0  0  0  0  0  0  0  0
    7.0140   47.6559   29.8516 C   0  0  0  0  0  0  0  0  0  0  0  0
    6.0872   48.5275   29.2587 O   0  0  0  0  0  0  0  0  0  0  0  0
    6.3474   49.8712   28.8492 C   0  0  0  0  0  0  0  0  0  0  0  0
    6.5399   50.7726   30.0476 C   0  0  0  0  0  0  0  0  0  0  0  0
    7.8325   51.2975   30.2885 C   0  0  0  0  0  0  0  0  0  0  0  0
    5.4530   51.1499   30.9116 C   0  0  0  0  0  0  0  0  0  0  0  0
    8.0156   52.1417   31.3744 C   0  0  0  0  0  0  0  0  0  0  0  0
    5.7044   52.0230   31.9966 C   0  0  0  0  0  0  0  0  0  0  0  0
    4.0979   50.7124   30.6873 N   0  0  0  0  0  0  0  0  0  0  0  0
    9.1787   52.7547   31.7990 O   0  0  0  0  0  0  0  0  0  0  0  0
    6.9975   52.4873   32.1935 C   0  0  0  0  0  0  0  0  0  0  0  0
    3.0476   51.4814   31.1339 O   0  0  0  0  0  0  0  0  0  0  0  0
    3.8505   49.5842   30.2171 O   0  0  0  0  0  0  0  0  0  0  0  0
    8.8687   53.5334   32.9626 C   0  0  0  0  0  0  0  0  0  0  0  0
    7.4650   53.3350   33.1793 O   0  0  0  0  0  0  0  0  0  0  0  0
    8.8121   40.1850   34.2133 O   0  0  0  0  0  0  0  0  0  0  0  0
   11.2403   40.7947   33.3700 O   0  0  0  0  0  0  0  0  0  0  0  0
   10.9144   40.6914   31.9982 C   0  0  0  0  0  0  0  0  0  0  0  0
   11.5270   39.3912   31.4385 C   0  0  0  0  0  0  0  0  0  0  0  0
   12.7520   39.0911   32.0836 O   0  0  0  0  0  0  0  0  0  0  0  0
   10.6114   38.1932   31.6451 C   0  0  0  0  0  0  0  0  0  0  0  0
   12.9413   37.6838   32.0297 C   0  0  0  0  0  0  0  0  0  0  0  0
    9.6064   38.0878   30.6599 O   0  0  0  0  0  0  0  0  0  0  0  0
   11.5822   37.0198   31.6877 C   0  0  0  0  0  0  0  0  0  0  0  0
   13.4840   37.2105   33.3254 N   0  0  0  0  0  0  0  0  0  0  0  0
   11.6179   36.3072   30.4691 O   0  0  0  0  0  0  0  0  0  0  0  0
   14.4797   36.3309   33.5738 C   0  0  0  0  0  0  0  0  0  0  0  0
   13.1136   37.6269   34.5702 C   0  0  0  0  0  0  0  0  0  0  0  0
   15.2074   35.6152   32.6747 N   0  0  0  0  0  0  0  0  0  0  0  0
   14.6756   36.2298   34.9190 C   0  0  0  0  0  0  0  0  0  0  0  0
   13.8217   37.0445   35.5793 N   0  0  0  0  0  0  0  0  0  0  0  0
   16.1643   34.7603   33.1551 C   0  0  0  0  0  0  0  0  0  0  0  0
   15.6528   35.3503   35.4136 C   0  0  0  0  0  0  0  0  0  0  0  0
   16.3798   34.6316   34.5046 N   0  0  0  0  0  0  0  0  0  0  0  0
   15.9004   35.1930   36.8094 N   0  0  0  0  0  0  0  0  0  0  0  0
    9.0122   45.4319   33.6719 H   0  0  0  0  0  0  0  0  0  0  0  0
   11.8906   45.7659   32.9470 H   0  0  0  0  0  0  0  0  0  0  0  0
   10.7259   46.9689   33.1213 H   0  0  0  0  0  0  0  0  0  0  0  0
    9.3410   43.8332   31.4767 H   0  0  0  0  0  0  0  0  0  0  0  0
   10.7227   44.8814   31.1559 H   0  0  0  0  0  0  0  0  0  0  0  0
    7.0083   44.7157   31.5791 H   0  0  0  0  0  0  0  0  0  0  0  0
   10.3471   47.1806   30.4046 H   0  0  0  0  0  0  0  0  0  0  0  0
    5.4626   46.3062   30.4997 H   0  0  0  0  0  0  0  0  0  0  0  0
    8.8190   48.7452   29.3239 H   0  0  0  0  0  0  0  0  0  0  0  0
    5.4859   50.2412   28.2550 H   0  0  0  0  0  0  0  0  0  0  0  0
    7.2213   49.8952   28.1637 H   0  0  0  0  0  0  0  0  0  0  0  0
    8.6709   51.0665   29.6449 H   0  0  0  0  0  0  0  0  0  0  0  0
    4.9151   52.3290   32.6709 H   0  0  0  0  0  0  0  0  0  0  0  0
    9.0794   54.6069   32.7737 H   0  0  0  0  0  0  0  0  0  0  0  0
    9.4469   53.1657   33.8361 H   0  0  0  0  0  0  0  0  0  0  0  0
    9.8234   40.7201   31.7654 H   0  0  0  0  0  0  0  0  0  0  0  0
   11.3776   41.5549   31.4744 H   0  0  0  0  0  0  0  0  0  0  0  0
   11.7312   39.5363   30.3532 H   0  0  0  0  0  0  0  0  0  0  0  0
   10.1203   38.2697   32.6410 H   0  0  0  0  0  0  0  0  0  0  0  0
   13.6850   37.4639   31.2321 H   0  0  0  0  0  0  0  0  0  0  0  0
   10.0251   38.1793   29.7654 H   0  0  0  0  0  0  0  0  0  0  0  0
   11.2757   36.3135   32.4908 H   0  0  0  0  0  0  0  0  0  0  0  0
   11.9838   36.9111   29.7708 H   0  0  0  0  0  0  0  0  0  0  0  0
   12.3307   38.3536   34.7458 H   0  0  0  0  0  0  0  0  0  0  0  0
   16.7566   34.1787   32.4622 H   0  0  0  0  0  0  0  0  0  0  0  0
   15.3535   35.7355   37.5144 H   0  0  0  0  0  0  0  0  0  0  0  0
   16.6353   34.5300   37.1418 H   0  0  0  0  0  0  0  0  0  0  0  0
  1  2  2  0
  1  3  1  0
  3  4  1  0
  4  5  1  0
  6  1  1  0
  7  6  1  0
  6  8  1  0
  8  9  1  0
  9 10  2  0
 11  9  1  0
 10 12  1  0
 13 11  2  0
 12 14  2  0
 14 13  1  0
 14 15  1  0
 15 16  1  0
 16 17  1  0
 17 18  2  0
 19 17  1  0
 18 20  1  0
 21 19  2  0
 19 22  1  0
 20 23  1  0
 20 24  2  0
 24 21  1  0
 22 25  1  0
 22 26  2  0
 23 27  1  0
 24 28  1  0
 27 28  1  0
  4 29  2  0
  4 30  1  0
 31 30  1  0
 31 32  1  0
 32 33  1  0
 32 34  1  0
 33 35  1  0
 34 36  1  0
 34 37  1  0
 37 35  1  0
 35 38  1  0
 37 39  1  0
 40 38  1  0
 41 38  1  0
 42 40  2  0
 40 43  1  0
 44 41  2  0
 45 42  1  0
 43 46  2  0
 43 44  1  0
 47 45  2  0
 47 46  1  0
 46 48  1  0
  6 49  1  1
  7 50  1  0
  7 51  1  0
  8 52  1  0
  8 53  1  0
 10 54  1  0
 11 55  1  0
 12 56  1  0
 13 57  1  0
 16 58  1  0
 16 59  1  0
 18 60  1  0
 21 61  1  0
 27 62  1  0
 27 63  1  0
 31 64  1  0
 31 65  1  0
 32 66  1  0
 34 67  1  0
 35 68  1  0
 36 69  1  0
 37 70  1  0
 39 71  1  0
 41 72  1  0
 45 73  1  0
 48 74  1  0
 48 75  1  0
M  CHG  3   5  -1  22   1  25  -1
M  END
>  <EmbedRMS>  (219) 
0.0808234881818

$$$$

     RDKit          3D

 75 80  0  0  0  0  0  0  0  0999 V2000
   10.2839   43.7626   33.8275 C   0  0  0  0  0  0  0  0  0  0  0  0
   11.4103   43.5863   34.3766 O   0  0  0  0  0  0  0  0  0  0  0  0
    9.3631   42.7236   33.7354 O   0  0  0  0  0  0  0  0  0  0  0  0
    9.8894   41.2249   34.2944 P   0  0  0  0  0  0  0  0  0  0  0  0
   10.3727   41.4546   35.8838 O   0  0  0  0  0  0  0  0  0  0  0  0
    9.9548   45.0699   33.2063 C   0  0  1  0  0  0  0  0  0  0  0  0
   11.0198   46.0480   33.4567 N   0  0  0  0  0  0  0  0  0  0  0  0
    9.7501   44.8507   31.6922 C   0  0  0  0  0  0  0  0  0  0  0  0
    8.7943   45.8415   31.0866 C   0  0  0  0  0  0  0  0  0  0  0  0
    7.4074   45.6013   31.1006 C   0  0  0  0  0  0  0  0  0  0  0  0
    9.2832   46.9893   30.4452 C   0  0  0  0  0  0  0  0  0  0  0  0
    6.5279   46.5025   30.4852 C   0  0  0  0  0  0  0  0  0  0  0  0
    8.4035   47.8905   29.8336 C   0  0  0  0  0  0  0  0  0  0  0  0
    7.0150   47.6505   29.8453 C   0  0  0  0  0  0  0  0  0  0  0  0
    6.0899   48.5162   29.2403 O   0  0  0  0  0  0  0  0  0  0  0  0
    6.4210   49.6388   28.4217 C   0  0  0  0  0  0  0  0  0  0  0  0
    7.0296   49.1933   27.1120 C   0  0  0  0  0  0  0  0  0  0  0  0
    8.2779   49.7392   26.7305 C   0  0  0  0  0  0  0  0  0  0  0  0
    6.4023   48.2115   26.2747 C   0  0  0  0  0  0  0  0  0  0  0  0
    8.8713   49.2819   25.5615 C   0  0  0  0  0  0  0  0  0  0  0  0
    7.0627   47.7759   25.1014 C   0  0  0  0  0  0  0  0  0  0  0  0
    5.1212   47.6440   26.6021 N   0  0  0  0  0  0  0  0  0  0  0  0
   10.0780   49.6610   25.0056 O   0  0  0  0  0  0  0  0  0  0  0  0
    8.2913   48.3396   24.7834 C   0  0  0  0  0  0  0  0  0  0  0  0
    4.1172   48.4290   27.1189 O   0  0  0  0  0  0  0  0  0  0  0  0
    4.8531   46.4714   26.2678 O   0  0  0  0  0  0  0  0  0  0  0  0
   10.2659   48.9071   23.8001 C   0  0  0  0  0  0  0  0  0  0  0  0
    9.1017   48.0760   23.6959 O   0  0  0  0  0  0  0  0  0  0  0  0
    8.8114   40.1833   34.2130 O   0  0  0  0  0  0  0  0  0  0  0  0
   11.2402   40.7930   33.3696 O   0  0  0  0  0  0  0  0  0  0  0  0
   10.9151   40.6903   31.9975 C   0  0  0  0  0  0  0  0  0  0  0  0
   11.5252   39.3885   31.4375 C   0  0  0  0  0  0  0  0  0  0  0  0
   12.7500   39.0873   32.0798 O   0  0  0  0  0  0  0  0  0  0  0  0
   10.6092   38.1925   31.6469 C   0  0  0  0  0  0  0  0  0  0  0  0
   12.9332   37.6792   32.0294 C   0  0  0  0  0  0  0  0  0  0  0  0
    9.6122   38.0894   30.6542 O   0  0  0  0  0  0  0  0  0  0  0  0
   11.5743   37.0144   31.7024 C   0  0  0  0  0  0  0  0  0  0  0  0
   13.4844   37.2108   33.3241 N   0  0  0  0  0  0  0  0  0  0  0  0
   11.6298   36.3239   30.4740 O   0  0  0  0  0  0  0  0  0  0  0  0
   14.4802   36.3313   33.5727 C   0  0  0  0  0  0  0  0  0  0  0  0
   13.1138   37.6267   34.5692 C   0  0  0  0  0  0  0  0  0  0  0  0
   15.2075   35.6149   32.6739 N   0  0  0  0  0  0  0  0  0  0  0  0
   14.6761   36.2303   34.9181 C   0  0  0  0  0  0  0  0  0  0  0  0
   13.8220   37.0447   35.5784 N   0  0  0  0  0  0  0  0  0  0  0  0
   16.1643   34.7600   33.1547 C   0  0  0  0  0  0  0  0  0  0  0  0
   15.6529   35.3505   35.4130 C   0  0  0  0  0  0  0  0  0  0  0  0
   16.3798   34.6315   34.5042 N   0  0  0  0  0  0  0  0  0  0  0  0
   15.9002   35.1932   36.8090 N   0  0  0  0  0  0  0  0  0  0  0  0
    9.0099   45.4348   33.6669 H   0  0  0  0  0  0  0  0  0  0  0  0
   11.1135   46.1991   34.4880 H   0  0  0  0  0  0  0  0  0  0  0  0
   11.9348   45.6933   33.0922 H   0  0  0  0  0  0  0  0  0  0  0  0
   10.7304   44.8922   31.1673 H   0  0  0  0  0  0  0  0  0  0  0  0
    9.3509   43.8342   31.4761 H   0  0  0  0  0  0  0  0  0  0  0  0
    7.0107   44.7163   31.5828 H   0  0  0  0  0  0  0  0  0  0  0  0
   10.3473   47.1896   30.4188 H   0  0  0  0  0  0  0  0  0  0  0  0
    5.4636   46.3048   30.5013 H   0  0  0  0  0  0  0  0  0  0  0  0
    8.8155   48.7697   29.3610 H   0  0  0  0  0  0  0  0  0  0  0  0
    5.4970   50.2144   28.2108 H   0  0  0  0  0  0  0  0  0  0  0  0
    7.0913   50.3258   28.9827 H   0  0  0  0  0  0  0  0  0  0  0  0
    8.7796   50.4855   27.3335 H   0  0  0  0  0  0  0  0  0  0  0  0
    6.6233   47.0326   24.4487 H   0  0  0  0  0  0  0  0  0  0  0  0
   11.1787   48.2800   23.8776 H   0  0  0  0  0  0  0  0  0  0  0  0
   10.3291   49.5892   22.9264 H   0  0  0  0  0  0  0  0  0  0  0  0
   11.3805   41.5528   31.4740 H   0  0  0  0  0  0  0  0  0  0  0  0
    9.8243   40.7216   31.7641 H   0  0  0  0  0  0  0  0  0  0  0  0
   11.7265   39.5311   30.3512 H   0  0  0  0  0  0  0  0  0  0  0  0
   10.1110   38.2746   32.6387 H   0  0  0  0  0  0  0  0  0  0  0  0
   13.6652   37.4519   31.2226 H   0  0  0  0  0  0  0  0  0  0  0  0
   10.0511   38.1142   29.7644 H   0  0  0  0  0  0  0  0  0  0  0  0
   11.2762   36.3141   32.5189 H   0  0  0  0  0  0  0  0  0  0  0  0
   10.8593   35.6977   30.4639 H   0  0  0  0  0  0  0  0  0  0  0  0
   12.3295   38.3518   34.7449 H   0  0  0  0  0  0  0  0  0  0  0  0
   16.7564   34.1779   32.4620 H   0  0  0  0  0  0  0  0  0  0  0  0
   16.6348   34.5300   37.1415 H   0  0  0  0  0  0  0  0  0  0  0  0
   15.3534   35.7359   37.5138 H   0  0  0  0  0  0  0  0  0  0  0  0
  1  2  2  0
  1  3  1  0
  3  4  1  0
  4  5  1  0
  6  1  1  0
  7  6  1  0
  6  8  1  0
  8  9  1  0
  9 10  2  0
 11  9  1  0
 10 12  1  0
 13 11  2  0
 12 14  2  0
 14 13  1  0
 14 15  1  0
 15 16  1  0
 16 17  1  0
 17 18  2  0
 19 17  1  0
 18 20  1  0
 21 19  2  0
 19 22  1  0
 20 23  1  0
 20 24  2  0
 24 21  1  0
 22 25  1  0
 22 26  2  0
 23 27  1  0
 24 28  1  0
 27 28  1  0
  4 29  2  0
  4 30  1  0
 31 30  1  0
 31 32  1  0
 32 33  1  0
 32 34  1  0
 33 35  1  0
 34 36  1  0
 34 37  1  0
 37 35  1  0
 35 38  1  0
 37 39  1  0
 40 38  1  0
 41 38  1  0
 42 40  2  0
 40 43  1  0
 44 41  2  0
 45 42  1  0
 43 46  2  0
 43 44  1  0
 47 45  2  0
 47 46  1  0
 46 48  1  0
  6 49  1  1
  7 50  1  0
  7 51  1  0
  8 52  1  0
  8 53  1  0
 10 54  1  0
 11 55  1  0
 12 56  1  0
 13 57  1  0
 16 58  1  0
 16 59  1  0
 18 60  1  0
 21 61  1  0
 27 62  1  0
 27 63  1  0
 31 64  1  0
 31 65  1  0
 32 66  1  0
 34 67  1  0
 35 68  1  0
 36 69  1  0
 37 70  1  0
 39 71  1  0
 41 72  1  0
 45 73  1  0
 48 74  1  0
 48 75  1  0
M  CHG  3   5  -1  22   1  25  -1
M  END
>  <EmbedRMS>  (220) 
0.0827359971233

$$$$

     RDKit          3D

 75 80  0  0  0  0  0  0  0  0999 V2000
   10.2834   43.7662   33.8256 C   0  0  0  0  0  0  0  0  0  0  0  0
   11.4102   43.5930   34.3752 O   0  0  0  0  0  0  0  0  0  0  0  0
    9.3637   42.7255   33.7349 O   0  0  0  0  0  0  0  0  0  0  0  0
    9.8903   41.2267   34.2942 P   0  0  0  0  0  0  0  0  0  0  0  0
   10.3735   41.4561   35.8837 O   0  0  0  0  0  0  0  0  0  0  0  0
    9.9546   45.0694   33.2033 C   0  0  1  0  0  0  0  0  0  0  0  0
   11.0273   46.0321   33.4755 N   0  0  0  0  0  0  0  0  0  0  0  0
    9.7468   44.8478   31.6873 C   0  0  0  0  0  0  0  0  0  0  0  0
    8.7925   45.8400   31.0834 C   0  0  0  0  0  0  0  0  0  0  0  0
    7.4056   45.6019   31.0999 C   0  0  0  0  0  0  0  0  0  0  0  0
    9.2819   46.9881   30.4431 C   0  0  0  0  0  0  0  0  0  0  0  0
    6.5269   46.5045   30.4861 C   0  0  0  0  0  0  0  0  0  0  0  0
    8.4025   47.8910   29.8338 C   0  0  0  0  0  0  0  0  0  0  0  0
    7.0146   47.6509   29.8434 C   0  0  0  0  0  0  0  0  0  0  0  0
    6.0880   48.5176   29.2430 O   0  0  0  0  0  0  0  0  0  0  0  0
    6.3953   49.5538   28.3088 C   0  0  0  0  0  0  0  0  0  0  0  0
    6.8128   48.9731   26.9768 C   0  0  0  0  0  0  0  0  0  0  0  0
    8.1617   49.1249   26.5747 C   0  0  0  0  0  0  0  0  0  0  0  0
    5.8815   48.3250   26.0919 C   0  0  0  0  0  0  0  0  0  0  0  0
    8.5502   48.6145   25.3442 C   0  0  0  0  0  0  0  0  0  0  0  0
    6.3396   47.8349   24.8459 C   0  0  0  0  0  0  0  0  0  0  0  0
    4.4794   48.1980   26.4015 N   0  0  0  0  0  0  0  0  0  0  0  0
    9.8021   48.6408   24.7602 O   0  0  0  0  0  0  0  0  0  0  0  0
    7.6786   47.9950   24.5175 C   0  0  0  0  0  0  0  0  0  0  0  0
    3.5588   48.1080   25.3825 O   0  0  0  0  0  0  0  0  0  0  0  0
    4.0869   48.0300   27.5732 O   0  0  0  0  0  0  0  0  0  0  0  0
    9.7085   47.9922   23.4847 C   0  0  0  0  0  0  0  0  0  0  0  0
    8.3352   47.5958   23.3692 O   0  0  0  0  0  0  0  0  0  0  0  0
    8.8122   40.1850   34.2131 O   0  0  0  0  0  0  0  0  0  0  0  0
   11.2407   40.7940   33.3693 O   0  0  0  0  0  0  0  0  0  0  0  0
   10.9152   40.6905   31.9974 C   0  0  0  0  0  0  0  0  0  0  0  0
   11.5252   39.3886   31.4375 C   0  0  0  0  0  0  0  0  0  0  0  0
   12.7500   39.0874   32.0799 O   0  0  0  0  0  0  0  0  0  0  0  0
   10.6092   38.1926   31.6469 C   0  0  0  0  0  0  0  0  0  0  0  0
   12.9332   37.6792   32.0294 C   0  0  0  0  0  0  0  0  0  0  0  0
    9.6122   38.0895   30.6542 O   0  0  0  0  0  0  0  0  0  0  0  0
   11.5743   37.0145   31.7024 C   0  0  0  0  0  0  0  0  0  0  0  0
   13.4844   37.2108   33.3241 N   0  0  0  0  0  0  0  0  0  0  0  0
   11.6297   36.3239   30.4740 O   0  0  0  0  0  0  0  0  0  0  0  0
   14.4802   36.3313   33.5727 C   0  0  0  0  0  0  0  0  0  0  0  0
   13.1138   37.6266   34.5692 C   0  0  0  0  0  0  0  0  0  0  0  0
   15.2075   35.6149   32.6739 N   0  0  0  0  0  0  0  0  0  0  0  0
   14.6761   36.2303   34.9182 C   0  0  0  0  0  0  0  0  0  0  0  0
   13.8220   37.0447   35.5785 N   0  0  0  0  0  0  0  0  0  0  0  0
   16.1643   34.7600   33.1547 C   0  0  0  0  0  0  0  0  0  0  0  0
   15.6529   35.3505   35.4130 C   0  0  0  0  0  0  0  0  0  0  0  0
   16.3798   34.6315   34.5042 N   0  0  0  0  0  0  0  0  0  0  0  0
   15.9002   35.1932   36.8090 N   0  0  0  0  0  0  0  0  0  0  0  0
    9.0120   45.4317   33.6709 H   0  0  0  0  0  0  0  0  0  0  0  0
   11.8905   45.7659   32.9468 H   0  0  0  0  0  0  0  0  0  0  0  0
   10.7258   46.9687   33.1213 H   0  0  0  0  0  0  0  0  0  0  0  0
   10.7233   44.8814   31.1554 H   0  0  0  0  0  0  0  0  0  0  0  0
    9.3420   43.8325   31.4759 H   0  0  0  0  0  0  0  0  0  0  0  0
    7.0082   44.7177   31.5829 H   0  0  0  0  0  0  0  0  0  0  0  0
   10.3461   47.1886   30.4180 H   0  0  0  0  0  0  0  0  0  0  0  0
    5.4623   46.3085   30.5043 H   0  0  0  0  0  0  0  0  0  0  0  0
    8.8144   48.7765   29.3767 H   0  0  0  0  0  0  0  0  0  0  0  0
    5.4941   50.1846   28.1597 H   0  0  0  0  0  0  0  0  0  0  0  0
    7.1704   50.2276   28.7325 H   0  0  0  0  0  0  0  0  0  0  0  0
    8.8874   49.6351   27.1939 H   0  0  0  0  0  0  0  0  0  0  0  0
    5.6721   47.3394   24.1530 H   0  0  0  0  0  0  0  0  0  0  0  0
   10.3684   47.0998   23.4582 H   0  0  0  0  0  0  0  0  0  0  0  0
    9.9721   48.7019   22.6727 H   0  0  0  0  0  0  0  0  0  0  0  0
    9.8243   40.7216   31.7643 H   0  0  0  0  0  0  0  0  0  0  0  0
   11.3802   41.5529   31.4733 H   0  0  0  0  0  0  0  0  0  0  0  0
   11.7266   39.5311   30.3513 H   0  0  0  0  0  0  0  0  0  0  0  0
   10.1110   38.2747   32.6387 H   0  0  0  0  0  0  0  0  0  0  0  0
   13.6652   37.4519   31.2226 H   0  0  0  0  0  0  0  0  0  0  0  0
   10.0512   38.1143   29.7645 H   0  0  0  0  0  0  0  0  0  0  0  0
   11.2762   36.3141   32.5189 H   0  0  0  0  0  0  0  0  0  0  0  0
   10.8593   35.6978   30.4640 H   0  0  0  0  0  0  0  0  0  0  0  0
   12.3294   38.3518   34.7449 H   0  0  0  0  0  0  0  0  0  0  0  0
   16.7564   34.1780   32.4620 H   0  0  0  0  0  0  0  0  0  0  0  0
   15.3534   35.7359   37.5138 H   0  0  0  0  0  0  0  0  0  0  0  0
   16.6348   34.5300   37.1416 H   0  0  0  0  0  0  0  0  0  0  0  0
  1  2  2  0
  1  3  1  0
  3  4  1  0
  4  5  1  0
  6  1  1  0
  7  6  1  0
  6  8  1  0
  8  9  1  0
  9 10  2  0
 11  9  1  0
 10 12  1  0
 13 11  2  0
 12 14  2  0
 14 13  1  0
 14 15  1  0
 15 16  1  0
 16 17  1  0
 17 18  2  0
 19 17  1  0
 18 20  1  0
 21 19  2  0
 19 22  1  0
 20 23  1  0
 20 24  2  0
 24 21  1  0
 22 25  1  0
 22 26  2  0
 23 27  1  0
 24 28  1  0
 27 28  1  0
  4 29  2  0
  4 30  1  0
 31 30  1  0
 31 32  1  0
 32 33  1  0
 32 34  1  0
 33 35  1  0
 34 36  1  0
 34 37  1  0
 37 35  1  0
 35 38  1  0
 37 39  1  0
 40 38  1  0
 41 38  1  0
 42 40  2  0
 40 43  1  0
 44 41  2  0
 45 42  1  0
 43 46  2  0
 43 44  1  0
 47 45  2  0
 47 46  1  0
 46 48  1  0
  6 49  1  1
  7 50  1  0
  7 51  1  0
  8 52  1  0
  8 53  1  0
 10 54  1  0
 11 55  1  0
 12 56  1  0
 13 57  1  0
 16 58  1  0
 16 59  1  0
 18 60  1  0
 21 61  1  0
 27 62  1  0
 27 63  1  0
 31 64  1  0
 31 65  1  0
 32 66  1  0
 34 67  1  0
 35 68  1  0
 36 69  1  0
 37 70  1  0
 39 71  1  0
 41 72  1  0
 45 73  1  0
 48 74  1  0
 48 75  1  0
M  CHG  3   5  -1  22   1  25  -1
M  END
>  <EmbedRMS>  (221) 
0.0818496138169

$$$$

     RDKit          3D

 75 80  0  0  0  0  0  0  0  0999 V2000
   10.2838   43.7627   33.8276 C   0  0  0  0  0  0  0  0  0  0  0  0
   11.4103   43.5863   34.3766 O   0  0  0  0  0  0  0  0  0  0  0  0
    9.3628   42.7238   33.7357 O   0  0  0  0  0  0  0  0  0  0  0  0
    9.8890   41.2252   34.2949 P   0  0  0  0  0  0  0  0  0  0  0  0
   10.3724   41.4548   35.8843 O   0  0  0  0  0  0  0  0  0  0  0  0
    9.9549   45.0701   33.2064 C   0  0  1  0  0  0  0  0  0  0  0  0
   11.0199   46.0481   33.4571 N   0  0  0  0  0  0  0  0  0  0  0  0
    9.7505   44.8512   31.6923 C   0  0  0  0  0  0  0  0  0  0  0  0
    8.7943   45.8419   31.0869 C   0  0  0  0  0  0  0  0  0  0  0  0
    7.4074   45.6004   31.1005 C   0  0  0  0  0  0  0  0  0  0  0  0
    9.2827   46.9894   30.4445 C   0  0  0  0  0  0  0  0  0  0  0  0
    6.5254   46.4998   30.4851 C   0  0  0  0  0  0  0  0  0  0  0  0
    8.4011   47.8885   29.8329 C   0  0  0  0  0  0  0  0  0  0  0  0
    7.0196   47.6550   29.8460 C   0  0  0  0  0  0  0  0  0  0  0  0
    6.1801   48.5861   29.2172 O   0  0  0  0  0  0  0  0  0  0  0  0
    4.7595   48.4765   29.1503 C   0  0  0  0  0  0  0  0  0  0  0  0
    4.1996   49.6312   28.3563 C   0  0  0  0  0  0  0  0  0  0  0  0
    4.7732   49.9086   27.0929 C   0  0  0  0  0  0  0  0  0  0  0  0
    3.1408   50.4650   28.8467 C   0  0  0  0  0  0  0  0  0  0  0  0
    4.3201   51.0166   26.3885 C   0  0  0  0  0  0  0  0  0  0  0  0
    2.7337   51.5897   28.0940 C   0  0  0  0  0  0  0  0  0  0  0  0
    2.4532   50.1730   30.0725 N   0  0  0  0  0  0  0  0  0  0  0  0
    4.7396   51.4826   25.1574 O   0  0  0  0  0  0  0  0  0  0  0  0
    3.3481   51.8253   26.8708 C   0  0  0  0  0  0  0  0  0  0  0  0
    2.0308   51.2039   30.8798 O   0  0  0  0  0  0  0  0  0  0  0  0
    2.0128   49.0243   30.2835 O   0  0  0  0  0  0  0  0  0  0  0  0
    3.9807   52.6596   24.8479 C   0  0  0  0  0  0  0  0  0  0  0  0
    3.1039   52.8424   25.9681 O   0  0  0  0  0  0  0  0  0  0  0  0
    8.8112   40.1834   34.2131 O   0  0  0  0  0  0  0  0  0  0  0  0
   11.2398   40.7938   33.3702 O   0  0  0  0  0  0  0  0  0  0  0  0
   10.9144   40.6912   31.9983 C   0  0  0  0  0  0  0  0  0  0  0  0
   11.5270   39.3911   31.4385 C   0  0  0  0  0  0  0  0  0  0  0  0
   12.7520   39.0910   32.0835 O   0  0  0  0  0  0  0  0  0  0  0  0
   10.6114   38.1931   31.6451 C   0  0  0  0  0  0  0  0  0  0  0  0
   12.9413   37.6837   32.0297 C   0  0  0  0  0  0  0  0  0  0  0  0
    9.6064   38.0877   30.6599 O   0  0  0  0  0  0  0  0  0  0  0  0
   11.5822   37.0197   31.6876 C   0  0  0  0  0  0  0  0  0  0  0  0
   13.4840   37.2104   33.3254 N   0  0  0  0  0  0  0  0  0  0  0  0
   11.6179   36.3071   30.4690 O   0  0  0  0  0  0  0  0  0  0  0  0
   14.4797   36.3309   33.5738 C   0  0  0  0  0  0  0  0  0  0  0  0
   13.1136   37.6269   34.5702 C   0  0  0  0  0  0  0  0  0  0  0  0
   15.2074   35.6152   32.6747 N   0  0  0  0  0  0  0  0  0  0  0  0
   14.6756   36.2298   34.9190 C   0  0  0  0  0  0  0  0  0  0  0  0
   13.8217   37.0445   35.5793 N   0  0  0  0  0  0  0  0  0  0  0  0
   16.1643   34.7603   33.1551 C   0  0  0  0  0  0  0  0  0  0  0  0
   15.6528   35.3503   35.4136 C   0  0  0  0  0  0  0  0  0  0  0  0
   16.3798   34.6316   34.5046 N   0  0  0  0  0  0  0  0  0  0  0  0
   15.9004   35.1930   36.8094 N   0  0  0  0  0  0  0  0  0  0  0  0
    9.0099   45.4350   33.6670 H   0  0  0  0  0  0  0  0  0  0  0  0
   11.9350   45.6933   33.0928 H   0  0  0  0  0  0  0  0  0  0  0  0
   11.1133   46.1992   34.4884 H   0  0  0  0  0  0  0  0  0  0  0  0
   10.7309   44.8932   31.1676 H   0  0  0  0  0  0  0  0  0  0  0  0
    9.3518   43.8345   31.4759 H   0  0  0  0  0  0  0  0  0  0  0  0
    7.0124   44.7148   31.5830 H   0  0  0  0  0  0  0  0  0  0  0  0
   10.3467   47.1895   30.4149 H   0  0  0  0  0  0  0  0  0  0  0  0
    5.4657   46.2864   30.5126 H   0  0  0  0  0  0  0  0  0  0  0  0
    8.7937   48.7706   29.3431 H   0  0  0  0  0  0  0  0  0  0  0  0
    4.4838   47.5298   28.6376 H   0  0  0  0  0  0  0  0  0  0  0  0
    4.3648   48.4557   30.1851 H   0  0  0  0  0  0  0  0  0  0  0  0
    5.5629   49.2912   26.6830 H   0  0  0  0  0  0  0  0  0  0  0  0
    1.9412   52.2416   28.4383 H   0  0  0  0  0  0  0  0  0  0  0  0
    3.3903   52.5031   23.9208 H   0  0  0  0  0  0  0  0  0  0  0  0
    4.6553   53.5349   24.7426 H   0  0  0  0  0  0  0  0  0  0  0  0
   11.3780   41.5548   31.4751 H   0  0  0  0  0  0  0  0  0  0  0  0
    9.8235   40.7202   31.7651 H   0  0  0  0  0  0  0  0  0  0  0  0
   11.7311   39.5363   30.3531 H   0  0  0  0  0  0  0  0  0  0  0  0
   10.1203   38.2695   32.6410 H   0  0  0  0  0  0  0  0  0  0  0  0
   13.6850   37.4638   31.2321 H   0  0  0  0  0  0  0  0  0  0  0  0
   10.0251   38.1792   29.7654 H   0  0  0  0  0  0  0  0  0  0  0  0
   11.2757   36.3135   32.4907 H   0  0  0  0  0  0  0  0  0  0  0  0
   11.9838   36.9111   29.7708 H   0  0  0  0  0  0  0  0  0  0  0  0
   12.3307   38.3536   34.7457 H   0  0  0  0  0  0  0  0  0  0  0  0
   16.7566   34.1787   32.4623 H   0  0  0  0  0  0  0  0  0  0  0  0
   15.3535   35.7355   37.5144 H   0  0  0  0  0  0  0  0  0  0  0  0
   16.6353   34.5301   37.1419 H   0  0  0  0  0  0  0  0  0  0  0  0
  1  2  2  0
  1  3  1  0
  3  4  1  0
  4  5  1  0
  6  1  1  0
  7  6  1  0
  6  8  1  0
  8  9  1  0
  9 10  2  0
 11  9  1  0
 10 12  1  0
 13 11  2  0
 12 14  2  0
 14 13  1  0
 14 15  1  0
 15 16  1  0
 16 17  1  0
 17 18  2  0
 19 17  1  0
 18 20  1  0
 21 19  2  0
 19 22  1  0
 20 23  1  0
 20 24  2  0
 24 21  1  0
 22 25  1  0
 22 26  2  0
 23 27  1  0
 24 28  1  0
 27 28  1  0
  4 29  2  0
  4 30  1  0
 31 30  1  0
 31 32  1  0
 32 33  1  0
 32 34  1  0
 33 35  1  0
 34 36  1  0
 34 37  1  0
 37 35  1  0
 35 38  1  0
 37 39  1  0
 40 38  1  0
 41 38  1  0
 42 40  2  0
 40 43  1  0
 44 41  2  0
 45 42  1  0
 43 46  2  0
 43 44  1  0
 47 45  2  0
 47 46  1  0
 46 48  1  0
  6 49  1  1
  7 50  1  0
  7 51  1  0
  8 52  1  0
  8 53  1  0
 10 54  1  0
 11 55  1  0
 12 56  1  0
 13 57  1  0
 16 58  1  0
 16 59  1  0
 18 60  1  0
 21 61  1  0
 27 62  1  0
 27 63  1  0
 31 64  1  0
 31 65  1  0
 32 66  1  0
 34 67  1  0
 35 68  1  0
 36 69  1  0
 37 70  1  0
 39 71  1  0
 41 72  1  0
 45 73  1  0
 48 74  1  0
 48 75  1  0
M  CHG  3   5  -1  22   1  25  -1
M  END
>  <EmbedRMS>  (222) 
0.0817257525264

$$$$

     RDKit          3D

 75 80  0  0  0  0  0  0  0  0999 V2000
   10.2833   43.7663   33.8256 C   0  0  0  0  0  0  0  0  0  0  0  0
   11.4101   43.5931   34.3751 O   0  0  0  0  0  0  0  0  0  0  0  0
    9.3634   42.7257   33.7352 O   0  0  0  0  0  0  0  0  0  0  0  0
    9.8902   41.2269   34.2941 P   0  0  0  0  0  0  0  0  0  0  0  0
   10.3739   41.4560   35.8835 O   0  0  0  0  0  0  0  0  0  0  0  0
    9.9547   45.0695   33.2033 C   0  0  1  0  0  0  0  0  0  0  0  0
   11.0273   46.0322   33.4757 N   0  0  0  0  0  0  0  0  0  0  0  0
    9.7472   44.8481   31.6872 C   0  0  0  0  0  0  0  0  0  0  0  0
    8.7928   45.8403   31.0834 C   0  0  0  0  0  0  0  0  0  0  0  0
    7.4059   45.6017   31.1002 C   0  0  0  0  0  0  0  0  0  0  0  0
    9.2817   46.9884   30.4429 C   0  0  0  0  0  0  0  0  0  0  0  0
    6.5246   46.5026   30.4870 C   0  0  0  0  0  0  0  0  0  0  0  0
    8.4000   47.8892   29.8346 C   0  0  0  0  0  0  0  0  0  0  0  0
    7.0187   47.6537   29.8418 C   0  0  0  0  0  0  0  0  0  0  0  0
    6.1846   48.5881   29.2081 O   0  0  0  0  0  0  0  0  0  0  0  0
    4.8157   48.3828   28.8550 C   0  0  0  0  0  0  0  0  0  0  0  0
    4.6945   47.3994   27.7130 C   0  0  0  0  0  0  0  0  0  0  0  0
    4.1235   46.1318   27.9804 C   0  0  0  0  0  0  0  0  0  0  0  0
    5.0886   47.7262   26.3683 C   0  0  0  0  0  0  0  0  0  0  0  0
    3.9887   45.2293   26.9349 C   0  0  0  0  0  0  0  0  0  0  0  0
    4.9154   46.7642   25.3449 C   0  0  0  0  0  0  0  0  0  0  0  0
    5.6096   49.0208   26.0070 N   0  0  0  0  0  0  0  0  0  0  0  0
    3.4734   43.9478   26.9679 O   0  0  0  0  0  0  0  0  0  0  0  0
    4.3698   45.5311   25.6738 C   0  0  0  0  0  0  0  0  0  0  0  0
    5.4515   49.4881   24.7222 O   0  0  0  0  0  0  0  0  0  0  0  0
    6.3219   49.6755   26.7938 O   0  0  0  0  0  0  0  0  0  0  0  0
    3.5391   43.4107   25.6398 C   0  0  0  0  0  0  0  0  0  0  0  0
    4.1171   44.4550   24.8448 O   0  0  0  0  0  0  0  0  0  0  0  0
    8.8121   40.1851   34.2131 O   0  0  0  0  0  0  0  0  0  0  0  0
   11.2402   40.7952   33.3681 O   0  0  0  0  0  0  0  0  0  0  0  0
   10.9125   40.6877   31.9968 C   0  0  0  0  0  0  0  0  0  0  0  0
   11.5169   39.3811   31.4420 C   0  0  0  0  0  0  0  0  0  0  0  0
   12.7500   39.0881   32.0759 O   0  0  0  0  0  0  0  0  0  0  0  0
   10.6043   38.1893   31.6659 C   0  0  0  0  0  0  0  0  0  0  0  0
   12.9395   37.6814   32.0280 C   0  0  0  0  0  0  0  0  0  0  0  0
    9.6353   38.0951   30.6499 O   0  0  0  0  0  0  0  0  0  0  0  0
   11.5803   37.0191   31.6934 C   0  0  0  0  0  0  0  0  0  0  0  0
   13.4851   37.2119   33.3244 N   0  0  0  0  0  0  0  0  0  0  0  0
   11.6118   36.3189   30.4673 O   0  0  0  0  0  0  0  0  0  0  0  0
   14.4801   36.3316   33.5732 C   0  0  0  0  0  0  0  0  0  0  0  0
   13.1139   37.6277   34.5692 C   0  0  0  0  0  0  0  0  0  0  0  0
   15.2076   35.6154   32.6744 N   0  0  0  0  0  0  0  0  0  0  0  0
   14.6756   36.2303   34.9186 C   0  0  0  0  0  0  0  0  0  0  0  0
   13.8215   37.0451   35.5786 N   0  0  0  0  0  0  0  0  0  0  0  0
   16.1642   34.7602   33.1551 C   0  0  0  0  0  0  0  0  0  0  0  0
   15.6526   35.3505   35.4134 C   0  0  0  0  0  0  0  0  0  0  0  0
   16.3796   34.6316   34.5045 N   0  0  0  0  0  0  0  0  0  0  0  0
   15.9001   35.1933   36.8093 N   0  0  0  0  0  0  0  0  0  0  0  0
    9.0119   45.4318   33.6707 H   0  0  0  0  0  0  0  0  0  0  0  0
   11.8907   45.7659   32.9474 H   0  0  0  0  0  0  0  0  0  0  0  0
   10.7260   46.9688   33.1212 H   0  0  0  0  0  0  0  0  0  0  0  0
   10.7238   44.8820   31.1555 H   0  0  0  0  0  0  0  0  0  0  0  0
    9.3426   43.8328   31.4757 H   0  0  0  0  0  0  0  0  0  0  0  0
    7.0097   44.7200   31.5888 H   0  0  0  0  0  0  0  0  0  0  0  0
   10.3459   47.1874   30.4121 H   0  0  0  0  0  0  0  0  0  0  0  0
    5.4666   46.3014   30.5418 H   0  0  0  0  0  0  0  0  0  0  0  0
    8.7932   48.7711   29.3449 H   0  0  0  0  0  0  0  0  0  0  0  0
    4.3737   49.3522   28.5435 H   0  0  0  0  0  0  0  0  0  0  0  0
    4.2391   48.0595   29.7480 H   0  0  0  0  0  0  0  0  0  0  0  0
    3.7825   45.8570   28.9696 H   0  0  0  0  0  0  0  0  0  0  0  0
    5.2011   46.9695   24.3214 H   0  0  0  0  0  0  0  0  0  0  0  0
    2.5197   43.1690   25.2725 H   0  0  0  0  0  0  0  0  0  0  0  0
    4.1887   42.5106   25.6211 H   0  0  0  0  0  0  0  0  0  0  0  0
   11.3808   41.5456   31.4685 H   0  0  0  0  0  0  0  0  0  0  0  0
    9.8216   40.7222   31.7646 H   0  0  0  0  0  0  0  0  0  0  0  0
   11.6986   39.5089   30.3499 H   0  0  0  0  0  0  0  0  0  0  0  0
   10.1109   38.2737   32.6630 H   0  0  0  0  0  0  0  0  0  0  0  0
   13.6783   37.4562   31.2271 H   0  0  0  0  0  0  0  0  0  0  0  0
    9.0020   37.3860   30.9348 H   0  0  0  0  0  0  0  0  0  0  0  0
   11.2807   36.3053   32.4921 H   0  0  0  0  0  0  0  0  0  0  0  0
   11.8818   36.9600   29.7584 H   0  0  0  0  0  0  0  0  0  0  0  0
   12.3303   38.3538   34.7445 H   0  0  0  0  0  0  0  0  0  0  0  0
   16.7563   34.1783   32.4623 H   0  0  0  0  0  0  0  0  0  0  0  0
   15.3532   35.7359   37.5142 H   0  0  0  0  0  0  0  0  0  0  0  0
   16.6348   34.5301   37.1418 H   0  0  0  0  0  0  0  0  0  0  0  0
  1  2  2  0
  1  3  1  0
  3  4  1  0
  4  5  1  0
  6  1  1  0
  7  6  1  0
  6  8  1  0
  8  9  1  0
  9 10  2  0
 11  9  1  0
 10 12  1  0
 13 11  2  0
 12 14  2  0
 14 13  1  0
 14 15  1  0
 15 16  1  0
 16 17  1  0
 17 18  2  0
 19 17  1  0
 18 20  1  0
 21 19  2  0
 19 22  1  0
 20 23  1  0
 20 24  2  0
 24 21  1  0
 22 25  1  0
 22 26  2  0
 23 27  1  0
 24 28  1  0
 27 28  1  0
  4 29  2  0
  4 30  1  0
 31 30  1  0
 31 32  1  0
 32 33  1  0
 32 34  1  0
 33 35  1  0
 34 36  1  0
 34 37  1  0
 37 35  1  0
 35 38  1  0
 37 39  1  0
 40 38  1  0
 41 38  1  0
 42 40  2  0
 40 43  1  0
 44 41  2  0
 45 42  1  0
 43 46  2  0
 43 44  1  0
 47 45  2  0
 47 46  1  0
 46 48  1  0
  6 49  1  1
  7 50  1  0
  7 51  1  0
  8 52  1  0
  8 53  1  0
 10 54  1  0
 11 55  1  0
 12 56  1  0
 13 57  1  0
 16 58  1  0
 16 59  1  0
 18 60  1  0
 21 61  1  0
 27 62  1  0
 27 63  1  0
 31 64  1  0
 31 65  1  0
 32 66  1  0
 34 67  1  0
 35 68  1  0
 36 69  1  0
 37 70  1  0
 39 71  1  0
 41 72  1  0
 45 73  1  0
 48 74  1  0
 48 75  1  0
M  CHG  3   5  -1  22   1  25  -1
M  END
>  <EmbedRMS>  (223) 
0.0815881771193

$$$$

     RDKit          3D

 75 80  0  0  0  0  0  0  0  0999 V2000
   10.2838   43.7626   33.8276 C   0  0  0  0  0  0  0  0  0  0  0  0
   11.4103   43.5863   34.3766 O   0  0  0  0  0  0  0  0  0  0  0  0
    9.3630   42.7236   33.7354 O   0  0  0  0  0  0  0  0  0  0  0  0
    9.8893   41.2249   34.2944 P   0  0  0  0  0  0  0  0  0  0  0  0
   10.3727   41.4546   35.8838 O   0  0  0  0  0  0  0  0  0  0  0  0
    9.9548   45.0699   33.2063 C   0  0  1  0  0  0  0  0  0  0  0  0
   11.0198   46.0480   33.4567 N   0  0  0  0  0  0  0  0  0  0  0  0
    9.7501   44.8507   31.6923 C   0  0  0  0  0  0  0  0  0  0  0  0
    8.7942   45.8416   31.0867 C   0  0  0  0  0  0  0  0  0  0  0  0
    7.4073   45.6013   31.1005 C   0  0  0  0  0  0  0  0  0  0  0  0
    9.2833   46.9892   30.4451 C   0  0  0  0  0  0  0  0  0  0  0  0
    6.5278   46.5023   30.4848 C   0  0  0  0  0  0  0  0  0  0  0  0
    8.4037   47.8903   29.8334 C   0  0  0  0  0  0  0  0  0  0  0  0
    7.0148   47.6509   29.8458 C   0  0  0  0  0  0  0  0  0  0  0  0
    6.0903   48.5178   29.2406 O   0  0  0  0  0  0  0  0  0  0  0  0
    6.4275   49.6726   28.4702 C   0  0  0  0  0  0  0  0  0  0  0  0
    7.0632   49.2759   27.1565 C   0  0  0  0  0  0  0  0  0  0  0  0
    6.4523   48.2470   26.4017 C   0  0  0  0  0  0  0  0  0  0  0  0
    8.2737   49.8755   26.6794 C   0  0  0  0  0  0  0  0  0  0  0  0
    7.0806   47.8159   25.2404 C   0  0  0  0  0  0  0  0  0  0  0  0
    8.8769   49.3846   25.4985 C   0  0  0  0  0  0  0  0  0  0  0  0
    8.8774   50.9886   27.3558 N   0  0  0  0  0  0  0  0  0  0  0  0
    6.6810   46.8251   24.3644 O   0  0  0  0  0  0  0  0  0  0  0  0
    8.2449   48.3561   24.8115 C   0  0  0  0  0  0  0  0  0  0  0  0
    8.1105   52.0733   27.7138 O   0  0  0  0  0  0  0  0  0  0  0  0
   10.1207   51.0837   27.4140 O   0  0  0  0  0  0  0  0  0  0  0  0
    7.6582   46.7393   23.3182 C   0  0  0  0  0  0  0  0  0  0  0  0
    8.6388   47.7345   23.6421 O   0  0  0  0  0  0  0  0  0  0  0  0
    8.8113   40.1833   34.2130 O   0  0  0  0  0  0  0  0  0  0  0  0
   11.2399   40.7932   33.3693 O   0  0  0  0  0  0  0  0  0  0  0  0
   10.9143   40.6896   31.9973 C   0  0  0  0  0  0  0  0  0  0  0  0
   11.5261   39.3884   31.4375 C   0  0  0  0  0  0  0  0  0  0  0  0
   12.7504   39.0887   32.0815 O   0  0  0  0  0  0  0  0  0  0  0  0
   10.6115   38.1909   31.6460 C   0  0  0  0  0  0  0  0  0  0  0  0
   12.9357   37.6812   32.0303 C   0  0  0  0  0  0  0  0  0  0  0  0
    9.6146   38.0858   30.6533 O   0  0  0  0  0  0  0  0  0  0  0  0
   11.5769   37.0148   31.7012 C   0  0  0  0  0  0  0  0  0  0  0  0
   13.4849   37.2112   33.3247 N   0  0  0  0  0  0  0  0  0  0  0  0
   11.6193   36.3260   30.4724 O   0  0  0  0  0  0  0  0  0  0  0  0
   14.4802   36.3313   33.5730 C   0  0  0  0  0  0  0  0  0  0  0  0
   13.1141   37.6268   34.5697 C   0  0  0  0  0  0  0  0  0  0  0  0
   15.2075   35.6151   32.6741 N   0  0  0  0  0  0  0  0  0  0  0  0
   14.6761   36.2300   34.9184 C   0  0  0  0  0  0  0  0  0  0  0  0
   13.8220   37.0445   35.5789 N   0  0  0  0  0  0  0  0  0  0  0  0
   16.1642   34.7600   33.1547 C   0  0  0  0  0  0  0  0  0  0  0  0
   15.6529   35.3503   35.4131 C   0  0  0  0  0  0  0  0  0  0  0  0
   16.3797   34.6314   34.5042 N   0  0  0  0  0  0  0  0  0  0  0  0
   15.9004   35.1930   36.8090 N   0  0  0  0  0  0  0  0  0  0  0  0
    9.0099   45.4349   33.6670 H   0  0  0  0  0  0  0  0  0  0  0  0
   11.9348   45.6932   33.0922 H   0  0  0  0  0  0  0  0  0  0  0  0
   11.1135   46.1992   34.4880 H   0  0  0  0  0  0  0  0  0  0  0  0
    9.3508   43.8342   31.4762 H   0  0  0  0  0  0  0  0  0  0  0  0
   10.7304   44.8921   31.1674 H   0  0  0  0  0  0  0  0  0  0  0  0
    7.0107   44.7163   31.5826 H   0  0  0  0  0  0  0  0  0  0  0  0
   10.3475   47.1888   30.4177 H   0  0  0  0  0  0  0  0  0  0  0  0
    5.4635   46.3046   30.5013 H   0  0  0  0  0  0  0  0  0  0  0  0
    8.8163   48.7673   29.3564 H   0  0  0  0  0  0  0  0  0  0  0  0
    7.0692   50.3367   29.0823 H   0  0  0  0  0  0  0  0  0  0  0  0
    5.4920   50.2271   28.2484 H   0  0  0  0  0  0  0  0  0  0  0  0
    5.5297   47.7809   26.7240 H   0  0  0  0  0  0  0  0  0  0  0  0
    9.7944   49.8116   25.1143 H   0  0  0  0  0  0  0  0  0  0  0  0
    7.1913   46.9667   22.3370 H   0  0  0  0  0  0  0  0  0  0  0  0
    8.1237   45.7315   23.3092 H   0  0  0  0  0  0  0  0  0  0  0  0
    9.8234   40.7192   31.7644 H   0  0  0  0  0  0  0  0  0  0  0  0
   11.3783   41.5525   31.4733 H   0  0  0  0  0  0  0  0  0  0  0  0
   11.7283   39.5312   30.3515 H   0  0  0  0  0  0  0  0  0  0  0  0
   10.1127   38.2733   32.6376 H   0  0  0  0  0  0  0  0  0  0  0  0
   13.6692   37.4565   31.2242 H   0  0  0  0  0  0  0  0  0  0  0  0
   10.0533   38.1118   29.7635 H   0  0  0  0  0  0  0  0  0  0  0  0
   11.2607   36.3147   32.5101 H   0  0  0  0  0  0  0  0  0  0  0  0
   12.1496   35.5022   30.6323 H   0  0  0  0  0  0  0  0  0  0  0  0
   12.3301   38.3524   34.7455 H   0  0  0  0  0  0  0  0  0  0  0  0
   16.7563   34.1781   32.4619 H   0  0  0  0  0  0  0  0  0  0  0  0
   15.3536   35.7357   37.5140 H   0  0  0  0  0  0  0  0  0  0  0  0
   16.6351   34.5298   37.1416 H   0  0  0  0  0  0  0  0  0  0  0  0
  1  2  2  0
  1  3  1  0
  3  4  1  0
  4  5  1  0
  6  1  1  0
  7  6  1  0
  6  8  1  0
  8  9  1  0
  9 10  2  0
 11  9  1  0
 10 12  1  0
 13 11  2  0
 12 14  2  0
 14 13  1  0
 14 15  1  0
 15 16  1  0
 16 17  1  0
 17 18  2  0
 19 17  1  0
 18 20  1  0
 21 19  2  0
 19 22  1  0
 20 23  1  0
 20 24  2  0
 24 21  1  0
 22 25  1  0
 22 26  2  0
 23 27  1  0
 24 28  1  0
 27 28  1  0
  4 29  2  0
  4 30  1  0
 31 30  1  0
 31 32  1  0
 32 33  1  0
 32 34  1  0
 33 35  1  0
 34 36  1  0
 34 37  1  0
 37 35  1  0
 35 38  1  0
 37 39  1  0
 40 38  1  0
 41 38  1  0
 42 40  2  0
 40 43  1  0
 44 41  2  0
 45 42  1  0
 43 46  2  0
 43 44  1  0
 47 45  2  0
 47 46  1  0
 46 48  1  0
  6 49  1  1
  7 50  1  0
  7 51  1  0
  8 52  1  0
  8 53  1  0
 10 54  1  0
 11 55  1  0
 12 56  1  0
 13 57  1  0
 16 58  1  0
 16 59  1  0
 18 60  1  0
 21 61  1  0
 27 62  1  0
 27 63  1  0
 31 64  1  0
 31 65  1  0
 32 66  1  0
 34 67  1  0
 35 68  1  0
 36 69  1  0
 37 70  1  0
 39 71  1  0
 41 72  1  0
 45 73  1  0
 48 74  1  0
 48 75  1  0
M  CHG  3   5  -1  22   1  25  -1
M  END
>  <EmbedRMS>  (224) 
0.0825352999047

$$$$

     RDKit          3D

 75 80  0  0  0  0  0  0  0  0999 V2000
   10.2805   43.7663   33.8249 C   0  0  0  0  0  0  0  0  0  0  0  0
   11.4111   43.5919   34.3667 O   0  0  0  0  0  0  0  0  0  0  0  0
    9.3622   42.7247   33.7343 O   0  0  0  0  0  0  0  0  0  0  0  0
    9.8904   41.2264   34.2936 P   0  0  0  0  0  0  0  0  0  0  0  0
   10.3732   41.4564   35.8832 O   0  0  0  0  0  0  0  0  0  0  0  0
    9.9459   45.0735   33.2112 C   0  0  1  0  0  0  0  0  0  0  0  0
   11.0267   46.0291   33.4706 N   0  0  0  0  0  0  0  0  0  0  0  0
    9.7536   44.8538   31.6949 C   0  0  0  0  0  0  0  0  0  0  0  0
    8.7955   45.8411   31.0849 C   0  0  0  0  0  0  0  0  0  0  0  0
    7.4087   45.6007   31.1010 C   0  0  0  0  0  0  0  0  0  0  0  0
    9.2828   46.9878   30.4400 C   0  0  0  0  0  0  0  0  0  0  0  0
    6.5282   46.5013   30.4855 C   0  0  0  0  0  0  0  0  0  0  0  0
    8.4020   47.8890   29.8309 C   0  0  0  0  0  0  0  0  0  0  0  0
    7.0139   47.6508   29.8470 C   0  0  0  0  0  0  0  0  0  0  0  0
    6.0878   48.5176   29.2446 O   0  0  0  0  0  0  0  0  0  0  0  0
    6.4122   49.7077   28.5223 C   0  0  0  0  0  0  0  0  0  0  0  0
    7.1065   49.3930   27.2150 C   0  0  0  0  0  0  0  0  0  0  0  0
    6.6417   48.2943   26.4524 C   0  0  0  0  0  0  0  0  0  0  0  0
    8.1368   50.2327   26.6786 C   0  0  0  0  0  0  0  0  0  0  0  0
    7.2265   48.0495   25.2167 C   0  0  0  0  0  0  0  0  0  0  0  0
    8.6850   49.9432   25.4086 C   0  0  0  0  0  0  0  0  0  0  0  0
    8.6109   51.3879   27.3846 N   0  0  0  0  0  0  0  0  0  0  0  0
    6.9434   47.0399   24.3171 O   0  0  0  0  0  0  0  0  0  0  0  0
    8.2054   48.8387   24.7170 C   0  0  0  0  0  0  0  0  0  0  0  0
    9.1887   51.2467   28.6244 O   0  0  0  0  0  0  0  0  0  0  0  0
    8.7496   52.4690   26.7762 O   0  0  0  0  0  0  0  0  0  0  0  0
    7.8030   47.2058   23.1811 C   0  0  0  0  0  0  0  0  0  0  0  0
    8.5916   48.3664   23.4775 O   0  0  0  0  0  0  0  0  0  0  0  0
    8.8129   40.1841   34.2124 O   0  0  0  0  0  0  0  0  0  0  0  0
   11.2419   40.7944   33.3695 O   0  0  0  0  0  0  0  0  0  0  0  0
   10.9186   40.6911   31.9969 C   0  0  0  0  0  0  0  0  0  0  0  0
   11.5172   39.3814   31.4407 C   0  0  0  0  0  0  0  0  0  0  0  0
   12.7492   39.0856   32.0729 O   0  0  0  0  0  0  0  0  0  0  0  0
   10.6023   38.1908   31.6665 C   0  0  0  0  0  0  0  0  0  0  0  0
   12.9319   37.6781   32.0281 C   0  0  0  0  0  0  0  0  0  0  0  0
    9.6392   38.0797   30.6452 O   0  0  0  0  0  0  0  0  0  0  0  0
   11.5715   37.0165   31.7056 C   0  0  0  0  0  0  0  0  0  0  0  0
   13.4847   37.2121   33.3235 N   0  0  0  0  0  0  0  0  0  0  0  0
   11.6187   36.3383   30.4695 O   0  0  0  0  0  0  0  0  0  0  0  0
   14.4801   36.3321   33.5724 C   0  0  0  0  0  0  0  0  0  0  0  0
   13.1137   37.6275   34.5688 C   0  0  0  0  0  0  0  0  0  0  0  0
   15.2073   35.6153   32.6738 N   0  0  0  0  0  0  0  0  0  0  0  0
   14.6759   36.2308   34.9179 C   0  0  0  0  0  0  0  0  0  0  0  0
   13.8216   37.0452   35.5781 N   0  0  0  0  0  0  0  0  0  0  0  0
   16.1640   34.7602   33.1546 C   0  0  0  0  0  0  0  0  0  0  0  0
   15.6526   35.3508   35.4129 C   0  0  0  0  0  0  0  0  0  0  0  0
   16.3794   34.6317   34.5041 N   0  0  0  0  0  0  0  0  0  0  0  0
   15.8999   35.1935   36.8088 N   0  0  0  0  0  0  0  0  0  0  0  0
    8.9996   45.4380   33.6723 H   0  0  0  0  0  0  0  0  0  0  0  0
   10.7764   46.9367   33.0155 H   0  0  0  0  0  0  0  0  0  0  0  0
   11.0504   46.2277   34.4979 H   0  0  0  0  0  0  0  0  0  0  0  0
   10.7406   44.9070   31.1834 H   0  0  0  0  0  0  0  0  0  0  0  0
    9.3636   43.8352   31.4714 H   0  0  0  0  0  0  0  0  0  0  0  0
    7.0130   44.7163   31.5851 H   0  0  0  0  0  0  0  0  0  0  0  0
   10.3470   47.1864   30.4063 H   0  0  0  0  0  0  0  0  0  0  0  0
    5.4640   46.3036   30.5039 H   0  0  0  0  0  0  0  0  0  0  0  0
    8.8123   48.7614   29.3469 H   0  0  0  0  0  0  0  0  0  0  0  0
    6.9932   50.3856   29.1755 H   0  0  0  0  0  0  0  0  0  0  0  0
    5.4630   50.2304   28.2825 H   0  0  0  0  0  0  0  0  0  0  0  0
    5.8436   47.6544   26.8071 H   0  0  0  0  0  0  0  0  0  0  0  0
    9.4643   50.5596   24.9790 H   0  0  0  0  0  0  0  0  0  0  0  0
    7.1998   47.3761   22.2648 H   0  0  0  0  0  0  0  0  0  0  0  0
    8.4582   46.3175   23.0623 H   0  0  0  0  0  0  0  0  0  0  0  0
    9.8299   40.7409   31.7611 H   0  0  0  0  0  0  0  0  0  0  0  0
   11.3967   41.5460   31.4725 H   0  0  0  0  0  0  0  0  0  0  0  0
   11.6975   39.5066   30.3481 H   0  0  0  0  0  0  0  0  0  0  0  0
   10.1077   38.2648   32.6645 H   0  0  0  0  0  0  0  0  0  0  0  0
   13.6621   37.4468   31.2209 H   0  0  0  0  0  0  0  0  0  0  0  0
    8.8974   38.6943   30.8831 H   0  0  0  0  0  0  0  0  0  0  0  0
   11.2806   36.3073   32.5171 H   0  0  0  0  0  0  0  0  0  0  0  0
   10.8492   35.7110   30.4586 H   0  0  0  0  0  0  0  0  0  0  0  0
   12.3290   38.3524   34.7444 H   0  0  0  0  0  0  0  0  0  0  0  0
   16.7559   34.1780   32.4619 H   0  0  0  0  0  0  0  0  0  0  0  0
   15.3531   35.7362   37.5137 H   0  0  0  0  0  0  0  0  0  0  0  0
   16.6344   34.5301   37.1414 H   0  0  0  0  0  0  0  0  0  0  0  0
  1  2  2  0
  1  3  1  0
  3  4  1  0
  4  5  1  0
  6  1  1  0
  7  6  1  0
  6  8  1  0
  8  9  1  0
  9 10  2  0
 11  9  1  0
 10 12  1  0
 13 11  2  0
 12 14  2  0
 14 13  1  0
 14 15  1  0
 15 16  1  0
 16 17  1  0
 17 18  2  0
 19 17  1  0
 18 20  1  0
 21 19  2  0
 19 22  1  0
 20 23  1  0
 20 24  2  0
 24 21  1  0
 22 25  1  0
 22 26  2  0
 23 27  1  0
 24 28  1  0
 27 28  1  0
  4 29  2  0
  4 30  1  0
 31 30  1  0
 31 32  1  0
 32 33  1  0
 32 34  1  0
 33 35  1  0
 34 36  1  0
 34 37  1  0
 37 35  1  0
 35 38  1  0
 37 39  1  0
 40 38  1  0
 41 38  1  0
 42 40  2  0
 40 43  1  0
 44 41  2  0
 45 42  1  0
 43 46  2  0
 43 44  1  0
 47 45  2  0
 47 46  1  0
 46 48  1  0
  6 49  1  1
  7 50  1  0
  7 51  1  0
  8 52  1  0
  8 53  1  0
 10 54  1  0
 11 55  1  0
 12 56  1  0
 13 57  1  0
 16 58  1  0
 16 59  1  0
 18 60  1  0
 21 61  1  0
 27 62  1  0
 27 63  1  0
 31 64  1  0
 31 65  1  0
 32 66  1  0
 34 67  1  0
 35 68  1  0
 36 69  1  0
 37 70  1  0
 39 71  1  0
 41 72  1  0
 45 73  1  0
 48 74  1  0
 48 75  1  0
M  CHG  3   5  -1  22   1  25  -1
M  END
>  <EmbedRMS>  (225) 
0.0827723169877

$$$$

     RDKit          3D

 75 80  0  0  0  0  0  0  0  0999 V2000
   10.2804   43.7664   33.8250 C   0  0  0  0  0  0  0  0  0  0  0  0
   11.4111   43.5918   34.3667 O   0  0  0  0  0  0  0  0  0  0  0  0
    9.3618   42.7249   33.7345 O   0  0  0  0  0  0  0  0  0  0  0  0
    9.8902   41.2265   34.2931 P   0  0  0  0  0  0  0  0  0  0  0  0
   10.3743   41.4562   35.8824 O   0  0  0  0  0  0  0  0  0  0  0  0
    9.9459   45.0736   33.2113 C   0  0  1  0  0  0  0  0  0  0  0  0
   11.0268   46.0291   33.4706 N   0  0  0  0  0  0  0  0  0  0  0  0
    9.7534   44.8540   31.6951 C   0  0  0  0  0  0  0  0  0  0  0  0
    8.7954   45.8415   31.0853 C   0  0  0  0  0  0  0  0  0  0  0  0
    7.4086   45.6006   31.1008 C   0  0  0  0  0  0  0  0  0  0  0  0
    9.2830   46.9876   30.4396 C   0  0  0  0  0  0  0  0  0  0  0  0
    6.5280   46.5006   30.4846 C   0  0  0  0  0  0  0  0  0  0  0  0
    8.4027   47.8889   29.8299 C   0  0  0  0  0  0  0  0  0  0  0  0
    7.0133   47.6515   29.8487 C   0  0  0  0  0  0  0  0  0  0  0  0
    6.0874   48.5178   29.2422 O   0  0  0  0  0  0  0  0  0  0  0  0
    6.4072   49.7736   28.6379 C   0  0  0  0  0  0  0  0  0  0  0  0
    6.9578   49.6403   27.2285 C   0  0  0  0  0  0  0  0  0  0  0  0
    7.1225   48.3581   26.6410 C   0  0  0  0  0  0  0  0  0  0  0  0
    7.2554   50.8086   26.4447 C   0  0  0  0  0  0  0  0  0  0  0  0
    7.5839   48.2782   25.3344 C   0  0  0  0  0  0  0  0  0  0  0  0
    7.7097   50.6597   25.1139 C   0  0  0  0  0  0  0  0  0  0  0  0
    7.0699   52.1412   26.9570 N   0  0  0  0  0  0  0  0  0  0  0  0
    7.8204   47.1478   24.5758 O   0  0  0  0  0  0  0  0  0  0  0  0
    7.8654   49.3793   24.6036 C   0  0  0  0  0  0  0  0  0  0  0  0
    6.7327   53.1626   26.0988 O   0  0  0  0  0  0  0  0  0  0  0  0
    7.3812   52.4260   28.1309 O   0  0  0  0  0  0  0  0  0  0  0  0
    8.2833   47.5696   23.2858 C   0  0  0  0  0  0  0  0  0  0  0  0
    8.2966   49.0023   23.3462 O   0  0  0  0  0  0  0  0  0  0  0  0
    8.8123   40.1844   34.2130 O   0  0  0  0  0  0  0  0  0  0  0  0
   11.2401   40.7949   33.3666 O   0  0  0  0  0  0  0  0  0  0  0  0
   10.9124   40.6859   31.9952 C   0  0  0  0  0  0  0  0  0  0  0  0
   11.5175   39.3786   31.4405 C   0  0  0  0  0  0  0  0  0  0  0  0
   12.7490   39.0864   32.0753 O   0  0  0  0  0  0  0  0  0  0  0  0
   10.6060   38.1867   31.6656 C   0  0  0  0  0  0  0  0  0  0  0  0
   12.9355   37.6796   32.0292 C   0  0  0  0  0  0  0  0  0  0  0  0
    9.6399   38.0903   30.6471 O   0  0  0  0  0  0  0  0  0  0  0  0
   11.5765   37.0145   31.7044 C   0  0  0  0  0  0  0  0  0  0  0  0
   13.4858   37.2125   33.3244 N   0  0  0  0  0  0  0  0  0  0  0  0
   11.6101   36.3397   30.4673 O   0  0  0  0  0  0  0  0  0  0  0  0
   14.4805   36.3319   33.5729 C   0  0  0  0  0  0  0  0  0  0  0  0
   13.1143   37.6276   34.5694 C   0  0  0  0  0  0  0  0  0  0  0  0
   15.2076   35.6153   32.6741 N   0  0  0  0  0  0  0  0  0  0  0  0
   14.6760   36.2304   34.9184 C   0  0  0  0  0  0  0  0  0  0  0  0
   13.8219   37.0449   35.5786 N   0  0  0  0  0  0  0  0  0  0  0  0
   16.1641   34.7600   33.1548 C   0  0  0  0  0  0  0  0  0  0  0  0
   15.6528   35.3505   35.4132 C   0  0  0  0  0  0  0  0  0  0  0  0
   16.3795   34.6314   34.5043 N   0  0  0  0  0  0  0  0  0  0  0  0
   15.9002   35.1931   36.8091 N   0  0  0  0  0  0  0  0  0  0  0  0
    8.9997   45.4382   33.6725 H   0  0  0  0  0  0  0  0  0  0  0  0
   10.7766   46.9367   33.0155 H   0  0  0  0  0  0  0  0  0  0  0  0
   11.0505   46.2278   34.4980 H   0  0  0  0  0  0  0  0  0  0  0  0
   10.7404   44.9070   31.1835 H   0  0  0  0  0  0  0  0  0  0  0  0
    9.3632   43.8354   31.4716 H   0  0  0  0  0  0  0  0  0  0  0  0
    7.0131   44.7159   31.5843 H   0  0  0  0  0  0  0  0  0  0  0  0
   10.3475   47.1840   30.4029 H   0  0  0  0  0  0  0  0  0  0  0  0
    5.4639   46.3021   30.5019 H   0  0  0  0  0  0  0  0  0  0  0  0
    8.8158   48.7552   29.3326 H   0  0  0  0  0  0  0  0  0  0  0  0
    5.4729   50.3712   28.5869 H   0  0  0  0  0  0  0  0  0  0  0  0
    7.1178   50.3186   29.2921 H   0  0  0  0  0  0  0  0  0  0  0  0
    6.8879   47.4433   27.1657 H   0  0  0  0  0  0  0  0  0  0  0  0
    7.9427   51.5183   24.4974 H   0  0  0  0  0  0  0  0  0  0  0  0
    7.5837   47.2258   22.4953 H   0  0  0  0  0  0  0  0  0  0  0  0
    9.3079   47.1844   23.1004 H   0  0  0  0  0  0  0  0  0  0  0  0
    9.8214   40.7199   31.7634 H   0  0  0  0  0  0  0  0  0  0  0  0
   11.3801   41.5436   31.4660 H   0  0  0  0  0  0  0  0  0  0  0  0
   11.6999   39.5040   30.3482 H   0  0  0  0  0  0  0  0  0  0  0  0
   10.1085   38.2766   32.6603 H   0  0  0  0  0  0  0  0  0  0  0  0
   13.6679   37.4521   31.2229 H   0  0  0  0  0  0  0  0  0  0  0  0
    9.0016   37.3867   30.9349 H   0  0  0  0  0  0  0  0  0  0  0  0
   11.2667   36.3062   32.5083 H   0  0  0  0  0  0  0  0  0  0  0  0
   12.1389   35.5126   30.6150 H   0  0  0  0  0  0  0  0  0  0  0  0
   12.3300   38.3529   34.7449 H   0  0  0  0  0  0  0  0  0  0  0  0
   16.7560   34.1779   32.4621 H   0  0  0  0  0  0  0  0  0  0  0  0
   16.6347   34.5298   37.1416 H   0  0  0  0  0  0  0  0  0  0  0  0
   15.3534   35.7359   37.5140 H   0  0  0  0  0  0  0  0  0  0  0  0
  1  2  2  0
  1  3  1  0
  3  4  1  0
  4  5  1  0
  6  1  1  0
  7  6  1  0
  6  8  1  0
  8  9  1  0
  9 10  2  0
 11  9  1  0
 10 12  1  0
 13 11  2  0
 12 14  2  0
 14 13  1  0
 14 15  1  0
 15 16  1  0
 16 17  1  0
 17 18  2  0
 19 17  1  0
 18 20  1  0
 21 19  2  0
 19 22  1  0
 20 23  1  0
 20 24  2  0
 24 21  1  0
 22 25  1  0
 22 26  2  0
 23 27  1  0
 24 28  1  0
 27 28  1  0
  4 29  2  0
  4 30  1  0
 31 30  1  0
 31 32  1  0
 32 33  1  0
 32 34  1  0
 33 35  1  0
 34 36  1  0
 34 37  1  0
 37 35  1  0
 35 38  1  0
 37 39  1  0
 40 38  1  0
 41 38  1  0
 42 40  2  0
 40 43  1  0
 44 41  2  0
 45 42  1  0
 43 46  2  0
 43 44  1  0
 47 45  2  0
 47 46  1  0
 46 48  1  0
  6 49  1  1
  7 50  1  0
  7 51  1  0
  8 52  1  0
  8 53  1  0
 10 54  1  0
 11 55  1  0
 12 56  1  0
 13 57  1  0
 16 58  1  0
 16 59  1  0
 18 60  1  0
 21 61  1  0
 27 62  1  0
 27 63  1  0
 31 64  1  0
 31 65  1  0
 32 66  1  0
 34 67  1  0
 35 68  1  0
 36 69  1  0
 37 70  1  0
 39 71  1  0
 41 72  1  0
 45 73  1  0
 48 74  1  0
 48 75  1  0
M  CHG  3   5  -1  22   1  25  -1
M  END
>  <EmbedRMS>  (226) 
0.0822157536763

$$$$

     RDKit          3D

 75 80  0  0  0  0  0  0  0  0999 V2000
   10.2835   43.7662   33.8256 C   0  0  0  0  0  0  0  0  0  0  0  0
   11.4102   43.5930   34.3752 O   0  0  0  0  0  0  0  0  0  0  0  0
    9.3638   42.7255   33.7348 O   0  0  0  0  0  0  0  0  0  0  0  0
    9.8903   41.2267   34.2942 P   0  0  0  0  0  0  0  0  0  0  0  0
   10.3735   41.4561   35.8837 O   0  0  0  0  0  0  0  0  0  0  0  0
    9.9548   45.0695   33.2035 C   0  0  1  0  0  0  0  0  0  0  0  0
   11.0274   46.0322   33.4759 N   0  0  0  0  0  0  0  0  0  0  0  0
    9.7471   44.8484   31.6875 C   0  0  0  0  0  0  0  0  0  0  0  0
    8.7924   45.8409   31.0844 C   0  0  0  0  0  0  0  0  0  0  0  0
    7.4055   45.6009   31.0995 C   0  0  0  0  0  0  0  0  0  0  0  0
    9.2818   46.9881   30.4420 C   0  0  0  0  0  0  0  0  0  0  0  0
    6.5241   46.5011   30.4849 C   0  0  0  0  0  0  0  0  0  0  0  0
    8.4006   47.8886   29.8322 C   0  0  0  0  0  0  0  0  0  0  0  0
    7.0190   47.6561   29.8459 C   0  0  0  0  0  0  0  0  0  0  0  0
    6.1798   48.5879   29.2182 O   0  0  0  0  0  0  0  0  0  0  0  0
    4.7579   48.4815   29.1578 C   0  0  0  0  0  0  0  0  0  0  0  0
    4.1432   49.6490   28.4181 C   0  0  0  0  0  0  0  0  0  0  0  0
    4.9030   50.8270   28.2012 C   0  0  0  0  0  0  0  0  0  0  0  0
    2.7996   49.5793   27.9187 C   0  0  0  0  0  0  0  0  0  0  0  0
    4.3274   51.8640   27.4791 C   0  0  0  0  0  0  0  0  0  0  0  0
    2.2742   50.6643   27.1775 C   0  0  0  0  0  0  0  0  0  0  0  0
    1.9673   48.4271   28.1474 N   0  0  0  0  0  0  0  0  0  0  0  0
    4.8783   53.0861   27.1443 O   0  0  0  0  0  0  0  0  0  0  0  0
    3.0710   51.7845   26.9853 C   0  0  0  0  0  0  0  0  0  0  0  0
    1.9953   47.7695   29.3553 O   0  0  0  0  0  0  0  0  0  0  0  0
    1.0909   48.1136   27.3153 O   0  0  0  0  0  0  0  0  0  0  0  0
    3.9031   53.8196   26.3910 C   0  0  0  0  0  0  0  0  0  0  0  0
    2.7640   52.9519   26.3131 O   0  0  0  0  0  0  0  0  0  0  0  0
    8.8121   40.1850   34.2130 O   0  0  0  0  0  0  0  0  0  0  0  0
   11.2407   40.7939   33.3694 O   0  0  0  0  0  0  0  0  0  0  0  0
   10.9152   40.6905   31.9974 C   0  0  0  0  0  0  0  0  0  0  0  0
   11.5252   39.3886   31.4375 C   0  0  0  0  0  0  0  0  0  0  0  0
   12.7500   39.0874   32.0799 O   0  0  0  0  0  0  0  0  0  0  0  0
   10.6092   38.1926   31.6470 C   0  0  0  0  0  0  0  0  0  0  0  0
   12.9332   37.6792   32.0294 C   0  0  0  0  0  0  0  0  0  0  0  0
    9.6122   38.0895   30.6542 O   0  0  0  0  0  0  0  0  0  0  0  0
   11.5743   37.0145   31.7024 C   0  0  0  0  0  0  0  0  0  0  0  0
   13.4844   37.2108   33.3241 N   0  0  0  0  0  0  0  0  0  0  0  0
   11.6297   36.3239   30.4740 O   0  0  0  0  0  0  0  0  0  0  0  0
   14.4802   36.3313   33.5727 C   0  0  0  0  0  0  0  0  0  0  0  0
   13.1138   37.6266   34.5692 C   0  0  0  0  0  0  0  0  0  0  0  0
   15.2075   35.6149   32.6739 N   0  0  0  0  0  0  0  0  0  0  0  0
   14.6761   36.2303   34.9181 C   0  0  0  0  0  0  0  0  0  0  0  0
   13.8220   37.0447   35.5785 N   0  0  0  0  0  0  0  0  0  0  0  0
   16.1643   34.7600   33.1547 C   0  0  0  0  0  0  0  0  0  0  0  0
   15.6529   35.3505   35.4130 C   0  0  0  0  0  0  0  0  0  0  0  0
   16.3798   34.6315   34.5042 N   0  0  0  0  0  0  0  0  0  0  0  0
   15.9003   35.1932   36.8090 N   0  0  0  0  0  0  0  0  0  0  0  0
    9.0121   45.4317   33.6713 H   0  0  0  0  0  0  0  0  0  0  0  0
   11.8908   45.7658   32.9475 H   0  0  0  0  0  0  0  0  0  0  0  0
   10.7261   46.9688   33.1215 H   0  0  0  0  0  0  0  0  0  0  0  0
   10.7235   44.8825   31.1557 H   0  0  0  0  0  0  0  0  0  0  0  0
    9.3425   43.8331   31.4758 H   0  0  0  0  0  0  0  0  0  0  0  0
    7.0099   44.7156   31.5821 H   0  0  0  0  0  0  0  0  0  0  0  0
   10.3461   47.1865   30.4104 H   0  0  0  0  0  0  0  0  0  0  0  0
    5.4642   46.2888   30.5127 H   0  0  0  0  0  0  0  0  0  0  0  0
    8.7936   48.7707   29.3425 H   0  0  0  0  0  0  0  0  0  0  0  0
    4.3457   48.4538   30.1891 H   0  0  0  0  0  0  0  0  0  0  0  0
    4.5028   47.5401   28.6246 H   0  0  0  0  0  0  0  0  0  0  0  0
    5.9120   50.9387   28.5757 H   0  0  0  0  0  0  0  0  0  0  0  0
    1.2672   50.6431   26.7811 H   0  0  0  0  0  0  0  0  0  0  0  0
    3.6347   54.7577   26.9206 H   0  0  0  0  0  0  0  0  0  0  0  0
    4.2888   54.0379   25.3731 H   0  0  0  0  0  0  0  0  0  0  0  0
   11.3802   41.5529   31.4733 H   0  0  0  0  0  0  0  0  0  0  0  0
    9.8243   40.7216   31.7643 H   0  0  0  0  0  0  0  0  0  0  0  0
   11.7266   39.5311   30.3513 H   0  0  0  0  0  0  0  0  0  0  0  0
   10.1110   38.2747   32.6387 H   0  0  0  0  0  0  0  0  0  0  0  0
   13.6652   37.4519   31.2226 H   0  0  0  0  0  0  0  0  0  0  0  0
   10.0511   38.1143   29.7645 H   0  0  0  0  0  0  0  0  0  0  0  0
   11.2762   36.3141   32.5189 H   0  0  0  0  0  0  0  0  0  0  0  0
   10.8593   35.6978   30.4640 H   0  0  0  0  0  0  0  0  0  0  0  0
   12.3294   38.3518   34.7449 H   0  0  0  0  0  0  0  0  0  0  0  0
   16.7564   34.1780   32.4620 H   0  0  0  0  0  0  0  0  0  0  0  0
   16.6349   34.5300   37.1415 H   0  0  0  0  0  0  0  0  0  0  0  0
   15.3534   35.7359   37.5138 H   0  0  0  0  0  0  0  0  0  0  0  0
  1  2  2  0
  1  3  1  0
  3  4  1  0
  4  5  1  0
  6  1  1  0
  7  6  1  0
  6  8  1  0
  8  9  1  0
  9 10  2  0
 11  9  1  0
 10 12  1  0
 13 11  2  0
 12 14  2  0
 14 13  1  0
 14 15  1  0
 15 16  1  0
 16 17  1  0
 17 18  2  0
 19 17  1  0
 18 20  1  0
 21 19  2  0
 19 22  1  0
 20 23  1  0
 20 24  2  0
 24 21  1  0
 22 25  1  0
 22 26  2  0
 23 27  1  0
 24 28  1  0
 27 28  1  0
  4 29  2  0
  4 30  1  0
 31 30  1  0
 31 32  1  0
 32 33  1  0
 32 34  1  0
 33 35  1  0
 34 36  1  0
 34 37  1  0
 37 35  1  0
 35 38  1  0
 37 39  1  0
 40 38  1  0
 41 38  1  0
 42 40  2  0
 40 43  1  0
 44 41  2  0
 45 42  1  0
 43 46  2  0
 43 44  1  0
 47 45  2  0
 47 46  1  0
 46 48  1  0
  6 49  1  1
  7 50  1  0
  7 51  1  0
  8 52  1  0
  8 53  1  0
 10 54  1  0
 11 55  1  0
 12 56  1  0
 13 57  1  0
 16 58  1  0
 16 59  1  0
 18 60  1  0
 21 61  1  0
 27 62  1  0
 27 63  1  0
 31 64  1  0
 31 65  1  0
 32 66  1  0
 34 67  1  0
 35 68  1  0
 36 69  1  0
 37 70  1  0
 39 71  1  0
 41 72  1  0
 45 73  1  0
 48 74  1  0
 48 75  1  0
M  CHG  3   5  -1  22   1  25  -1
M  END
>  <EmbedRMS>  (227) 
0.0818052572192

$$$$

     RDKit          3D

 75 80  0  0  0  0  0  0  0  0999 V2000
   10.2836   43.7661   33.8255 C   0  0  0  0  0  0  0  0  0  0  0  0
   11.4103   43.5930   34.3753 O   0  0  0  0  0  0  0  0  0  0  0  0
    9.3640   42.7253   33.7346 O   0  0  0  0  0  0  0  0  0  0  0  0
    9.8908   41.2265   34.2938 P   0  0  0  0  0  0  0  0  0  0  0  0
   10.3732   41.4559   35.8835 O   0  0  0  0  0  0  0  0  0  0  0  0
    9.9548   45.0694   33.2035 C   0  0  1  0  0  0  0  0  0  0  0  0
   11.0274   46.0322   33.4759 N   0  0  0  0  0  0  0  0  0  0  0  0
    9.7471   44.8484   31.6875 C   0  0  0  0  0  0  0  0  0  0  0  0
    8.7924   45.8409   31.0844 C   0  0  0  0  0  0  0  0  0  0  0  0
    7.4055   45.6009   31.0995 C   0  0  0  0  0  0  0  0  0  0  0  0
    9.2818   46.9881   30.4420 C   0  0  0  0  0  0  0  0  0  0  0  0
    6.5241   46.5011   30.4849 C   0  0  0  0  0  0  0  0  0  0  0  0
    8.4006   47.8886   29.8322 C   0  0  0  0  0  0  0  0  0  0  0  0
    7.0190   47.6561   29.8459 C   0  0  0  0  0  0  0  0  0  0  0  0
    6.1798   48.5884   29.2185 O   0  0  0  0  0  0  0  0  0  0  0  0
    4.7587   48.4830   29.1573 C   0  0  0  0  0  0  0  0  0  0  0  0
    4.1915   49.6902   28.4515 C   0  0  0  0  0  0  0  0  0  0  0  0
    4.6145   50.9704   28.8809 C   0  0  0  0  0  0  0  0  0  0  0  0
    3.2743   49.5837   27.3541 C   0  0  0  0  0  0  0  0  0  0  0  0
    4.1609   52.0851   28.1876 C   0  0  0  0  0  0  0  0  0  0  0  0
    2.8611   50.7523   26.6750 C   0  0  0  0  0  0  0  0  0  0  0  0
    2.7322   48.3206   26.9403 N   0  0  0  0  0  0  0  0  0  0  0  0
    4.4507   53.4164   28.4170 O   0  0  0  0  0  0  0  0  0  0  0  0
    3.3266   51.9803   27.1273 C   0  0  0  0  0  0  0  0  0  0  0  0
    2.5000   48.0825   25.6054 O   0  0  0  0  0  0  0  0  0  0  0  0
    2.2359   47.5468   27.7848 O   0  0  0  0  0  0  0  0  0  0  0  0
    3.7520   54.1964   27.4370 C   0  0  0  0  0  0  0  0  0  0  0  0
    3.0465   53.2401   26.6341 O   0  0  0  0  0  0  0  0  0  0  0  0
    8.8127   40.1848   34.2122 O   0  0  0  0  0  0  0  0  0  0  0  0
   11.2421   40.7941   33.3697 O   0  0  0  0  0  0  0  0  0  0  0  0
   10.9187   40.6911   31.9971 C   0  0  0  0  0  0  0  0  0  0  0  0
   11.5172   39.3815   31.4407 C   0  0  0  0  0  0  0  0  0  0  0  0
   12.7493   39.0855   32.0728 O   0  0  0  0  0  0  0  0  0  0  0  0
   10.6023   38.1908   31.6665 C   0  0  0  0  0  0  0  0  0  0  0  0
   12.9319   37.6781   32.0281 C   0  0  0  0  0  0  0  0  0  0  0  0
    9.6392   38.0798   30.6452 O   0  0  0  0  0  0  0  0  0  0  0  0
   11.5715   37.0165   31.7056 C   0  0  0  0  0  0  0  0  0  0  0  0
   13.4847   37.2121   33.3235 N   0  0  0  0  0  0  0  0  0  0  0  0
   11.6187   36.3384   30.4695 O   0  0  0  0  0  0  0  0  0  0  0  0
   14.4801   36.3321   33.5724 C   0  0  0  0  0  0  0  0  0  0  0  0
   13.1137   37.6275   34.5688 C   0  0  0  0  0  0  0  0  0  0  0  0
   15.2073   35.6153   32.6738 N   0  0  0  0  0  0  0  0  0  0  0  0
   14.6759   36.2308   34.9179 C   0  0  0  0  0  0  0  0  0  0  0  0
   13.8216   37.0452   35.5781 N   0  0  0  0  0  0  0  0  0  0  0  0
   16.1640   34.7602   33.1546 C   0  0  0  0  0  0  0  0  0  0  0  0
   15.6526   35.3508   35.4129 C   0  0  0  0  0  0  0  0  0  0  0  0
   16.3794   34.6317   34.5041 N   0  0  0  0  0  0  0  0  0  0  0  0
   15.8999   35.1935   36.8088 N   0  0  0  0  0  0  0  0  0  0  0  0
    9.0121   45.4316   33.6713 H   0  0  0  0  0  0  0  0  0  0  0  0
   10.7260   46.9688   33.1215 H   0  0  0  0  0  0  0  0  0  0  0  0
   11.8908   45.7659   32.9475 H   0  0  0  0  0  0  0  0  0  0  0  0
    9.3425   43.8331   31.4757 H   0  0  0  0  0  0  0  0  0  0  0  0
   10.7235   44.8824   31.1557 H   0  0  0  0  0  0  0  0  0  0  0  0
    7.0099   44.7156   31.5821 H   0  0  0  0  0  0  0  0  0  0  0  0
   10.3461   47.1864   30.4105 H   0  0  0  0  0  0  0  0  0  0  0  0
    5.4643   46.2887   30.5130 H   0  0  0  0  0  0  0  0  0  0  0  0
    8.7937   48.7707   29.3427 H   0  0  0  0  0  0  0  0  0  0  0  0
    4.5038   47.5403   28.6344 H   0  0  0  0  0  0  0  0  0  0  0  0
    4.3439   48.4502   30.1878 H   0  0  0  0  0  0  0  0  0  0  0  0
    5.2931   51.0905   29.7163 H   0  0  0  0  0  0  0  0  0  0  0  0
    2.1738   50.7059   25.8401 H   0  0  0  0  0  0  0  0  0  0  0  0
    3.0349   54.8835   27.9332 H   0  0  0  0  0  0  0  0  0  0  0  0
    4.4733   54.7636   26.8121 H   0  0  0  0  0  0  0  0  0  0  0  0
    9.8300   40.7410   31.7613 H   0  0  0  0  0  0  0  0  0  0  0  0
   11.3969   41.5460   31.4729 H   0  0  0  0  0  0  0  0  0  0  0  0
   11.6975   39.5067   30.3481 H   0  0  0  0  0  0  0  0  0  0  0  0
   10.1077   38.2648   32.6645 H   0  0  0  0  0  0  0  0  0  0  0  0
   13.6621   37.4467   31.2209 H   0  0  0  0  0  0  0  0  0  0  0  0
    8.8975   38.6944   30.8831 H   0  0  0  0  0  0  0  0  0  0  0  0
   11.2806   36.3073   32.5170 H   0  0  0  0  0  0  0  0  0  0  0  0
   10.8492   35.7110   30.4586 H   0  0  0  0  0  0  0  0  0  0  0  0
   12.3290   38.3524   34.7444 H   0  0  0  0  0  0  0  0  0  0  0  0
   16.7559   34.1780   32.4619 H   0  0  0  0  0  0  0  0  0  0  0  0
   16.6344   34.5301   37.1414 H   0  0  0  0  0  0  0  0  0  0  0  0
   15.3531   35.7362   37.5137 H   0  0  0  0  0  0  0  0  0  0  0  0
  1  2  2  0
  1  3  1  0
  3  4  1  0
  4  5  1  0
  6  1  1  0
  7  6  1  0
  6  8  1  0
  8  9  1  0
  9 10  2  0
 11  9  1  0
 10 12  1  0
 13 11  2  0
 12 14  2  0
 14 13  1  0
 14 15  1  0
 15 16  1  0
 16 17  1  0
 17 18  2  0
 19 17  1  0
 18 20  1  0
 21 19  2  0
 19 22  1  0
 20 23  1  0
 20 24  2  0
 24 21  1  0
 22 25  1  0
 22 26  2  0
 23 27  1  0
 24 28  1  0
 27 28  1  0
  4 29  2  0
  4 30  1  0
 31 30  1  0
 31 32  1  0
 32 33  1  0
 32 34  1  0
 33 35  1  0
 34 36  1  0
 34 37  1  0
 37 35  1  0
 35 38  1  0
 37 39  1  0
 40 38  1  0
 41 38  1  0
 42 40  2  0
 40 43  1  0
 44 41  2  0
 45 42  1  0
 43 46  2  0
 43 44  1  0
 47 45  2  0
 47 46  1  0
 46 48  1  0
  6 49  1  1
  7 50  1  0
  7 51  1  0
  8 52  1  0
  8 53  1  0
 10 54  1  0
 11 55  1  0
 12 56  1  0
 13 57  1  0
 16 58  1  0
 16 59  1  0
 18 60  1  0
 21 61  1  0
 27 62  1  0
 27 63  1  0
 31 64  1  0
 31 65  1  0
 32 66  1  0
 34 67  1  0
 35 68  1  0
 36 69  1  0
 37 70  1  0
 39 71  1  0
 41 72  1  0
 45 73  1  0
 48 74  1  0
 48 75  1  0
M  CHG  3   5  -1  22   1  25  -1
M  END
>  <EmbedRMS>  (228) 
0.0829295607949

$$$$

     RDKit          3D

 75 80  0  0  0  0  0  0  0  0999 V2000
   10.2806   43.7664   33.8249 C   0  0  0  0  0  0  0  0  0  0  0  0
   11.4107   43.5922   34.3679 O   0  0  0  0  0  0  0  0  0  0  0  0
    9.3624   42.7247   33.7337 O   0  0  0  0  0  0  0  0  0  0  0  0
    9.8900   41.2264   34.2937 P   0  0  0  0  0  0  0  0  0  0  0  0
   10.3728   41.4560   35.8833 O   0  0  0  0  0  0  0  0  0  0  0  0
    9.9463   45.0735   33.2109 C   0  0  1  0  0  0  0  0  0  0  0  0
   11.0269   46.0289   33.4711 N   0  0  0  0  0  0  0  0  0  0  0  0
    9.7549   44.8544   31.6943 C   0  0  0  0  0  0  0  0  0  0  0  0
    8.7966   45.8412   31.0842 C   0  0  0  0  0  0  0  0  0  0  0  0
    7.4098   45.6011   31.1035 C   0  0  0  0  0  0  0  0  0  0  0  0
    9.2827   46.9895   30.4405 C   0  0  0  0  0  0  0  0  0  0  0  0
    6.5287   46.5017   30.4896 C   0  0  0  0  0  0  0  0  0  0  0  0
    8.4007   47.8900   29.8312 C   0  0  0  0  0  0  0  0  0  0  0  0
    7.0141   47.6453   29.8410 C   0  0  0  0  0  0  0  0  0  0  0  0
    6.0870   48.5009   29.2269 O   0  0  0  0  0  0  0  0  0  0  0  0
    6.3866   49.4737   28.2249 C   0  0  0  0  0  0  0  0  0  0  0  0
    6.8125   48.8077   26.9362 C   0  0  0  0  0  0  0  0  0  0  0  0
    8.1638   48.9331   26.5346 C   0  0  0  0  0  0  0  0  0  0  0  0
    5.8889   48.1013   26.0910 C   0  0  0  0  0  0  0  0  0  0  0  0
    8.5625   48.3380   25.3456 C   0  0  0  0  0  0  0  0  0  0  0  0
    6.3585   47.5205   24.8875 C   0  0  0  0  0  0  0  0  0  0  0  0
    4.4837   48.0062   26.3977 N   0  0  0  0  0  0  0  0  0  0  0  0
    9.8177   48.3273   24.7692 O   0  0  0  0  0  0  0  0  0  0  0  0
    7.6994   47.6580   24.5592 C   0  0  0  0  0  0  0  0  0  0  0  0
    4.0430   47.8573   27.6911 O   0  0  0  0  0  0  0  0  0  0  0  0
    3.6516   47.9076   25.4727 O   0  0  0  0  0  0  0  0  0  0  0  0
    9.7353   47.5887   23.5423 C   0  0  0  0  0  0  0  0  0  0  0  0
    8.3654   47.1782   23.4473 O   0  0  0  0  0  0  0  0  0  0  0  0
    8.8118   40.1848   34.2128 O   0  0  0  0  0  0  0  0  0  0  0  0
   11.2412   40.7937   33.3694 O   0  0  0  0  0  0  0  0  0  0  0  0
   10.9177   40.6903   31.9968 C   0  0  0  0  0  0  0  0  0  0  0  0
   11.5177   39.3815   31.4404 C   0  0  0  0  0  0  0  0  0  0  0  0
   12.7494   39.0871   32.0743 O   0  0  0  0  0  0  0  0  0  0  0  0
   10.6040   38.1894   31.6652 C   0  0  0  0  0  0  0  0  0  0  0  0
   12.9343   37.6802   32.0289 C   0  0  0  0  0  0  0  0  0  0  0  0
    9.6409   38.0761   30.6440 O   0  0  0  0  0  0  0  0  0  0  0  0
   11.5739   37.0173   31.7040 C   0  0  0  0  0  0  0  0  0  0  0  0
   13.4851   37.2125   33.3242 N   0  0  0  0  0  0  0  0  0  0  0  0
   11.6083   36.3408   30.4676 O   0  0  0  0  0  0  0  0  0  0  0  0
   14.4802   36.3322   33.5728 C   0  0  0  0  0  0  0  0  0  0  0  0
   13.1142   37.6273   34.5694 C   0  0  0  0  0  0  0  0  0  0  0  0
   15.2073   35.6160   32.6740 N   0  0  0  0  0  0  0  0  0  0  0  0
   14.6760   36.2305   34.9183 C   0  0  0  0  0  0  0  0  0  0  0  0
   13.8222   37.0450   35.5787 N   0  0  0  0  0  0  0  0  0  0  0  0
   16.1641   34.7609   33.1544 C   0  0  0  0  0  0  0  0  0  0  0  0
   15.6525   35.3503   35.4130 C   0  0  0  0  0  0  0  0  0  0  0  0
   16.3796   34.6317   34.5039 N   0  0  0  0  0  0  0  0  0  0  0  0
   15.8997   35.1930   36.8090 N   0  0  0  0  0  0  0  0  0  0  0  0
    8.9996   45.4377   33.6715 H   0  0  0  0  0  0  0  0  0  0  0  0
   11.0510   46.2268   34.4987 H   0  0  0  0  0  0  0  0  0  0  0  0
   10.7766   46.9367   33.0165 H   0  0  0  0  0  0  0  0  0  0  0  0
    9.3663   43.8354   31.4696 H   0  0  0  0  0  0  0  0  0  0  0  0
   10.7418   44.9088   31.1825 H   0  0  0  0  0  0  0  0  0  0  0  0
    7.0150   44.7170   31.5889 H   0  0  0  0  0  0  0  0  0  0  0  0
   10.3463   47.1926   30.4117 H   0  0  0  0  0  0  0  0  0  0  0  0
    5.4646   46.3028   30.5074 H   0  0  0  0  0  0  0  0  0  0  0  0
    8.8082   48.7759   29.3699 H   0  0  0  0  0  0  0  0  0  0  0  0
    7.1577   50.1780   28.6031 H   0  0  0  0  0  0  0  0  0  0  0  0
    5.4805   50.0858   28.0326 H   0  0  0  0  0  0  0  0  0  0  0  0
    8.8843   49.4857   27.1228 H   0  0  0  0  0  0  0  0  0  0  0  0
    5.6965   46.9770   24.2263 H   0  0  0  0  0  0  0  0  0  0  0  0
   10.0005   48.2397   22.6827 H   0  0  0  0  0  0  0  0  0  0  0  0
   10.3995   46.7011   23.5837 H   0  0  0  0  0  0  0  0  0  0  0  0
    9.8290   40.7391   31.7616 H   0  0  0  0  0  0  0  0  0  0  0  0
   11.3948   41.5454   31.4720 H   0  0  0  0  0  0  0  0  0  0  0  0
   11.6992   39.5070   30.3479 H   0  0  0  0  0  0  0  0  0  0  0  0
   10.1086   38.2635   32.6631 H   0  0  0  0  0  0  0  0  0  0  0  0
   13.6660   37.4518   31.2220 H   0  0  0  0  0  0  0  0  0  0  0  0
    8.8998   38.6929   30.8789 H   0  0  0  0  0  0  0  0  0  0  0  0
   11.2639   36.3091   32.5081 H   0  0  0  0  0  0  0  0  0  0  0  0
   12.1374   35.5140   30.6166 H   0  0  0  0  0  0  0  0  0  0  0  0
   12.3294   38.3515   34.7452 H   0  0  0  0  0  0  0  0  0  0  0  0
   16.7553   34.1790   32.4609 H   0  0  0  0  0  0  0  0  0  0  0  0
   15.3527   35.7360   37.5136 H   0  0  0  0  0  0  0  0  0  0  0  0
   16.6343   34.5297   37.1416 H   0  0  0  0  0  0  0  0  0  0  0  0
  1  2  2  0
  1  3  1  0
  3  4  1  0
  4  5  1  0
  6  1  1  0
  7  6  1  0
  6  8  1  0
  8  9  1  0
  9 10  2  0
 11  9  1  0
 10 12  1  0
 13 11  2  0
 12 14  2  0
 14 13  1  0
 14 15  1  0
 15 16  1  0
 16 17  1  0
 17 18  2  0
 19 17  1  0
 18 20  1  0
 21 19  2  0
 19 22  1  0
 20 23  1  0
 20 24  2  0
 24 21  1  0
 22 25  1  0
 22 26  2  0
 23 27  1  0
 24 28  1  0
 27 28  1  0
  4 29  2  0
  4 30  1  0
 31 30  1  0
 31 32  1  0
 32 33  1  0
 32 34  1  0
 33 35  1  0
 34 36  1  0
 34 37  1  0
 37 35  1  0
 35 38  1  0
 37 39  1  0
 40 38  1  0
 41 38  1  0
 42 40  2  0
 40 43  1  0
 44 41  2  0
 45 42  1  0
 43 46  2  0
 43 44  1  0
 47 45  2  0
 47 46  1  0
 46 48  1  0
  6 49  1  1
  7 50  1  0
  7 51  1  0
  8 52  1  0
  8 53  1  0
 10 54  1  0
 11 55  1  0
 12 56  1  0
 13 57  1  0
 16 58  1  0
 16 59  1  0
 18 60  1  0
 21 61  1  0
 27 62  1  0
 27 63  1  0
 31 64  1  0
 31 65  1  0
 32 66  1  0
 34 67  1  0
 35 68  1  0
 36 69  1  0
 37 70  1  0
 39 71  1  0
 41 72  1  0
 45 73  1  0
 48 74  1  0
 48 75  1  0
M  CHG  3   5  -1  22   1  25  -1
M  END
>  <EmbedRMS>  (229) 
0.0827859271529

$$$$

     RDKit          3D

 75 80  0  0  0  0  0  0  0  0999 V2000
   10.2804   43.7666   33.8250 C   0  0  0  0  0  0  0  0  0  0  0  0
   11.4112   43.5919   34.3664 O   0  0  0  0  0  0  0  0  0  0  0  0
    9.3618   42.7251   33.7346 O   0  0  0  0  0  0  0  0  0  0  0  0
    9.8899   41.2268   34.2940 P   0  0  0  0  0  0  0  0  0  0  0  0
   10.3734   41.4569   35.8833 O   0  0  0  0  0  0  0  0  0  0  0  0
    9.9459   45.0738   33.2114 C   0  0  1  0  0  0  0  0  0  0  0  0
   11.0264   46.0295   33.4713 N   0  0  0  0  0  0  0  0  0  0  0  0
    9.7543   44.8545   31.6951 C   0  0  0  0  0  0  0  0  0  0  0  0
    8.7959   45.8415   31.0854 C   0  0  0  0  0  0  0  0  0  0  0  0
    7.4095   45.5987   31.0993 C   0  0  0  0  0  0  0  0  0  0  0  0
    9.2826   46.9869   30.4380 C   0  0  0  0  0  0  0  0  0  0  0  0
    6.5268   46.4973   30.4840 C   0  0  0  0  0  0  0  0  0  0  0  0
    8.3997   47.8856   29.8285 C   0  0  0  0  0  0  0  0  0  0  0  0
    7.0176   47.6579   29.8536 C   0  0  0  0  0  0  0  0  0  0  0  0
    6.1786   48.6003   29.2390 O   0  0  0  0  0  0  0  0  0  0  0  0
    4.7783   48.7482   29.4789 C   0  0  0  0  0  0  0  0  0  0  0  0
    4.5268   49.2808   30.8707 C   0  0  0  0  0  0  0  0  0  0  0  0
    3.9816   48.4046   31.8398 C   0  0  0  0  0  0  0  0  0  0  0  0
    4.7825   50.6495   31.2225 C   0  0  0  0  0  0  0  0  0  0  0  0
    3.7395   48.8937   33.1162 C   0  0  0  0  0  0  0  0  0  0  0  0
    4.5002   51.0918   32.5371 C   0  0  0  0  0  0  0  0  0  0  0  0
    5.2782   51.6040   30.2650 N   0  0  0  0  0  0  0  0  0  0  0  0
    3.2322   48.2216   34.2119 O   0  0  0  0  0  0  0  0  0  0  0  0
    3.9892   50.1798   33.4506 C   0  0  0  0  0  0  0  0  0  0  0  0
    6.2585   51.2604   29.3656 O   0  0  0  0  0  0  0  0  0  0  0  0
    4.9399   52.8027   30.3491 O   0  0  0  0  0  0  0  0  0  0  0  0
    3.1639   49.1469   35.3056 C   0  0  0  0  0  0  0  0  0  0  0  0
    3.6542   50.3862   34.7751 O   0  0  0  0  0  0  0  0  0  0  0  0
    8.8124   40.1845   34.2132 O   0  0  0  0  0  0  0  0  0  0  0  0
   11.2404   40.7943   33.3692 O   0  0  0  0  0  0  0  0  0  0  0  0
   10.9147   40.6903   31.9972 C   0  0  0  0  0  0  0  0  0  0  0  0
   11.5250   39.3886   31.4375 C   0  0  0  0  0  0  0  0  0  0  0  0
   12.7497   39.0873   32.0800 O   0  0  0  0  0  0  0  0  0  0  0  0
   10.6091   38.1925   31.6467 C   0  0  0  0  0  0  0  0  0  0  0  0
   12.9330   37.6792   32.0294 C   0  0  0  0  0  0  0  0  0  0  0  0
    9.6120   38.0892   30.6540 O   0  0  0  0  0  0  0  0  0  0  0  0
   11.5742   37.0144   31.7021 C   0  0  0  0  0  0  0  0  0  0  0  0
   13.4842   37.2107   33.3242 N   0  0  0  0  0  0  0  0  0  0  0  0
   11.6299   36.3239   30.4737 O   0  0  0  0  0  0  0  0  0  0  0  0
   14.4803   36.3316   33.5727 C   0  0  0  0  0  0  0  0  0  0  0  0
   13.1136   37.6267   34.5693 C   0  0  0  0  0  0  0  0  0  0  0  0
   15.2074   35.6150   32.6740 N   0  0  0  0  0  0  0  0  0  0  0  0
   14.6763   36.2306   34.9182 C   0  0  0  0  0  0  0  0  0  0  0  0
   13.8219   37.0448   35.5785 N   0  0  0  0  0  0  0  0  0  0  0  0
   16.1643   34.7600   33.1547 C   0  0  0  0  0  0  0  0  0  0  0  0
   15.6530   35.3507   35.4131 C   0  0  0  0  0  0  0  0  0  0  0  0
   16.3797   34.6315   34.5042 N   0  0  0  0  0  0  0  0  0  0  0  0
   15.9002   35.1932   36.8091 N   0  0  0  0  0  0  0  0  0  0  0  0
    8.9993   45.4382   33.6723 H   0  0  0  0  0  0  0  0  0  0  0  0
   10.7764   46.9372   33.0162 H   0  0  0  0  0  0  0  0  0  0  0  0
   11.0493   46.2280   34.4987 H   0  0  0  0  0  0  0  0  0  0  0  0
   10.7415   44.9089   31.1839 H   0  0  0  0  0  0  0  0  0  0  0  0
    9.3651   43.8357   31.4710 H   0  0  0  0  0  0  0  0  0  0  0  0
    7.0162   44.7097   31.5770 H   0  0  0  0  0  0  0  0  0  0  0  0
   10.3466   47.1857   30.4020 H   0  0  0  0  0  0  0  0  0  0  0  0
    5.4735   46.2655   30.4889 H   0  0  0  0  0  0  0  0  0  0  0  0
    8.7912   48.7681   29.3385 H   0  0  0  0  0  0  0  0  0  0  0  0
    4.2581   47.7827   29.3037 H   0  0  0  0  0  0  0  0  0  0  0  0
    4.3581   49.4594   28.7373 H   0  0  0  0  0  0  0  0  0  0  0  0
    3.7441   47.3749   31.6084 H   0  0  0  0  0  0  0  0  0  0  0  0
    4.6820   52.1152   32.8394 H   0  0  0  0  0  0  0  0  0  0  0  0
    2.1131   49.2639   35.6448 H   0  0  0  0  0  0  0  0  0  0  0  0
    3.8120   48.8043   36.1399 H   0  0  0  0  0  0  0  0  0  0  0  0
   11.3796   41.5525   31.4728 H   0  0  0  0  0  0  0  0  0  0  0  0
    9.8239   40.7207   31.7641 H   0  0  0  0  0  0  0  0  0  0  0  0
   11.7263   39.5314   30.3512 H   0  0  0  0  0  0  0  0  0  0  0  0
   10.1109   38.2744   32.6384 H   0  0  0  0  0  0  0  0  0  0  0  0
   13.6652   37.4520   31.2228 H   0  0  0  0  0  0  0  0  0  0  0  0
   10.0508   38.1148   29.7641 H   0  0  0  0  0  0  0  0  0  0  0  0
   11.2759   36.3141   32.5186 H   0  0  0  0  0  0  0  0  0  0  0  0
   10.8596   35.6976   30.4634 H   0  0  0  0  0  0  0  0  0  0  0  0
   12.3293   38.3519   34.7451 H   0  0  0  0  0  0  0  0  0  0  0  0
   16.7567   34.1781   32.4621 H   0  0  0  0  0  0  0  0  0  0  0  0
   15.3532   35.7360   37.5137 H   0  0  0  0  0  0  0  0  0  0  0  0
   16.6347   34.5299   37.1419 H   0  0  0  0  0  0  0  0  0  0  0  0
  1  2  2  0
  1  3  1  0
  3  4  1  0
  4  5  1  0
  6  1  1  0
  7  6  1  0
  6  8  1  0
  8  9  1  0
  9 10  2  0
 11  9  1  0
 10 12  1  0
 13 11  2  0
 12 14  2  0
 14 13  1  0
 14 15  1  0
 15 16  1  0
 16 17  1  0
 17 18  2  0
 19 17  1  0
 18 20  1  0
 21 19  2  0
 19 22  1  0
 20 23  1  0
 20 24  2  0
 24 21  1  0
 22 25  1  0
 22 26  2  0
 23 27  1  0
 24 28  1  0
 27 28  1  0
  4 29  2  0
  4 30  1  0
 31 30  1  0
 31 32  1  0
 32 33  1  0
 32 34  1  0
 33 35  1  0
 34 36  1  0
 34 37  1  0
 37 35  1  0
 35 38  1  0
 37 39  1  0
 40 38  1  0
 41 38  1  0
 42 40  2  0
 40 43  1  0
 44 41  2  0
 45 42  1  0
 43 46  2  0
 43 44  1  0
 47 45  2  0
 47 46  1  0
 46 48  1  0
  6 49  1  1
  7 50  1  0
  7 51  1  0
  8 52  1  0
  8 53  1  0
 10 54  1  0
 11 55  1  0
 12 56  1  0
 13 57  1  0
 16 58  1  0
 16 59  1  0
 18 60  1  0
 21 61  1  0
 27 62  1  0
 27 63  1  0
 31 64  1  0
 31 65  1  0
 32 66  1  0
 34 67  1  0
 35 68  1  0
 36 69  1  0
 37 70  1  0
 39 71  1  0
 41 72  1  0
 45 73  1  0
 48 74  1  0
 48 75  1  0
M  CHG  3   5  -1  22   1  25  -1
M  END
>  <EmbedRMS>  (230) 
0.081620333709

$$$$

     RDKit          3D

 75 80  0  0  0  0  0  0  0  0999 V2000
   10.2835   43.7662   33.8256 C   0  0  0  0  0  0  0  0  0  0  0  0
   11.4102   43.5930   34.3752 O   0  0  0  0  0  0  0  0  0  0  0  0
    9.3638   42.7255   33.7348 O   0  0  0  0  0  0  0  0  0  0  0  0
    9.8906   41.2266   34.2933 P   0  0  0  0  0  0  0  0  0  0  0  0
   10.3743   41.4557   35.8827 O   0  0  0  0  0  0  0  0  0  0  0  0
    9.9547   45.0695   33.2035 C   0  0  1  0  0  0  0  0  0  0  0  0
   11.0274   46.0322   33.4759 N   0  0  0  0  0  0  0  0  0  0  0  0
    9.7471   44.8484   31.6875 C   0  0  0  0  0  0  0  0  0  0  0  0
    8.7924   45.8409   31.0843 C   0  0  0  0  0  0  0  0  0  0  0  0
    7.4055   45.6009   31.0994 C   0  0  0  0  0  0  0  0  0  0  0  0
    9.2818   46.9881   30.4420 C   0  0  0  0  0  0  0  0  0  0  0  0
    6.5241   46.5011   30.4849 C   0  0  0  0  0  0  0  0  0  0  0  0
    8.4006   47.8885   29.8321 C   0  0  0  0  0  0  0  0  0  0  0  0
    7.0190   47.6562   29.8462 C   0  0  0  0  0  0  0  0  0  0  0  0
    6.1801   48.5894   29.2204 O   0  0  0  0  0  0  0  0  0  0  0  0
    4.7585   48.4935   29.1738 C   0  0  0  0  0  0  0  0  0  0  0  0
    4.1934   49.7000   28.4678 C   0  0  0  0  0  0  0  0  0  0  0  0
    3.4119   49.4946   27.3058 C   0  0  0  0  0  0  0  0  0  0  0  0
    4.4588   51.0399   28.9135 C   0  0  0  0  0  0  0  0  0  0  0  0
    2.9341   50.6055   26.6236 C   0  0  0  0  0  0  0  0  0  0  0  0
    3.9546   52.1307   28.1673 C   0  0  0  0  0  0  0  0  0  0  0  0
    5.2439   51.3147   30.0890 N   0  0  0  0  0  0  0  0  0  0  0  0
    2.1629   50.6437   25.4778 O   0  0  0  0  0  0  0  0  0  0  0  0
    3.1956   51.8673   27.0347 C   0  0  0  0  0  0  0  0  0  0  0  0
    5.9544   52.4897   30.1797 O   0  0  0  0  0  0  0  0  0  0  0  0
    5.1671   50.5835   31.0970 O   0  0  0  0  0  0  0  0  0  0  0  0
    1.9251   52.0196   25.1504 C   0  0  0  0  0  0  0  0  0  0  0  0
    2.6023   52.7669   26.1700 O   0  0  0  0  0  0  0  0  0  0  0  0
    8.8122   40.1851   34.2127 O   0  0  0  0  0  0  0  0  0  0  0  0
   11.2406   40.7945   33.3670 O   0  0  0  0  0  0  0  0  0  0  0  0
   10.9134   40.6866   31.9954 C   0  0  0  0  0  0  0  0  0  0  0  0
   11.5167   39.3787   31.4404 C   0  0  0  0  0  0  0  0  0  0  0  0
   12.7486   39.0849   32.0734 O   0  0  0  0  0  0  0  0  0  0  0  0
   10.6039   38.1884   31.6669 C   0  0  0  0  0  0  0  0  0  0  0  0
   12.9329   37.6776   32.0284 C   0  0  0  0  0  0  0  0  0  0  0  0
    9.6374   38.0938   30.6484 O   0  0  0  0  0  0  0  0  0  0  0  0
   11.5737   37.0141   31.7055 C   0  0  0  0  0  0  0  0  0  0  0  0
   13.4853   37.2120   33.3238 N   0  0  0  0  0  0  0  0  0  0  0  0
   11.6210   36.3379   30.4683 O   0  0  0  0  0  0  0  0  0  0  0  0
   14.4804   36.3319   33.5726 C   0  0  0  0  0  0  0  0  0  0  0  0
   13.1141   37.6275   34.5689 C   0  0  0  0  0  0  0  0  0  0  0  0
   15.2076   35.6152   32.6740 N   0  0  0  0  0  0  0  0  0  0  0  0
   14.6761   36.2306   34.9181 C   0  0  0  0  0  0  0  0  0  0  0  0
   13.8218   37.0451   35.5783 N   0  0  0  0  0  0  0  0  0  0  0  0
   16.1642   34.7600   33.1548 C   0  0  0  0  0  0  0  0  0  0  0  0
   15.6527   35.3507   35.4131 C   0  0  0  0  0  0  0  0  0  0  0  0
   16.3795   34.6315   34.5043 N   0  0  0  0  0  0  0  0  0  0  0  0
   15.9000   35.1933   36.8090 N   0  0  0  0  0  0  0  0  0  0  0  0
    9.0121   45.4317   33.6712 H   0  0  0  0  0  0  0  0  0  0  0  0
   11.8908   45.7659   32.9475 H   0  0  0  0  0  0  0  0  0  0  0  0
   10.7261   46.9688   33.1214 H   0  0  0  0  0  0  0  0  0  0  0  0
   10.7235   44.8825   31.1557 H   0  0  0  0  0  0  0  0  0  0  0  0
    9.3425   43.8331   31.4758 H   0  0  0  0  0  0  0  0  0  0  0  0
    7.0099   44.7155   31.5818 H   0  0  0  0  0  0  0  0  0  0  0  0
   10.3461   47.1865   30.4104 H   0  0  0  0  0  0  0  0  0  0  0  0
    5.4644   46.2883   30.5122 H   0  0  0  0  0  0  0  0  0  0  0  0
    8.7935   48.7709   29.3431 H   0  0  0  0  0  0  0  0  0  0  0  0
    4.3393   48.4352   30.2001 H   0  0  0  0  0  0  0  0  0  0  0  0
    4.4777   47.5568   28.6440 H   0  0  0  0  0  0  0  0  0  0  0  0
    3.1905   48.5009   26.9372 H   0  0  0  0  0  0  0  0  0  0  0  0
    4.1360   53.1541   28.4690 H   0  0  0  0  0  0  0  0  0  0  0  0
    0.8368   52.2376   25.1745 H   0  0  0  0  0  0  0  0  0  0  0  0
    2.3528   52.2566   24.1537 H   0  0  0  0  0  0  0  0  0  0  0  0
   11.3828   41.5438   31.4669 H   0  0  0  0  0  0  0  0  0  0  0  0
    9.8225   40.7225   31.7631 H   0  0  0  0  0  0  0  0  0  0  0  0
   11.6979   39.5037   30.3478 H   0  0  0  0  0  0  0  0  0  0  0  0
   10.1084   38.2787   32.6627 H   0  0  0  0  0  0  0  0  0  0  0  0
   13.6638   37.4472   31.2214 H   0  0  0  0  0  0  0  0  0  0  0  0
    8.9763   37.4191   30.9532 H   0  0  0  0  0  0  0  0  0  0  0  0
   11.2821   36.3054   32.5172 H   0  0  0  0  0  0  0  0  0  0  0  0
   10.8658   35.6935   30.4652 H   0  0  0  0  0  0  0  0  0  0  0  0
   12.3293   38.3523   34.7444 H   0  0  0  0  0  0  0  0  0  0  0  0
   16.7561   34.1778   32.4621 H   0  0  0  0  0  0  0  0  0  0  0  0
   16.6345   34.5300   37.1416 H   0  0  0  0  0  0  0  0  0  0  0  0
   15.3533   35.7361   37.5138 H   0  0  0  0  0  0  0  0  0  0  0  0
  1  2  2  0
  1  3  1  0
  3  4  1  0
  4  5  1  0
  6  1  1  0
  7  6  1  0
  6  8  1  0
  8  9  1  0
  9 10  2  0
 11  9  1  0
 10 12  1  0
 13 11  2  0
 12 14  2  0
 14 13  1  0
 14 15  1  0
 15 16  1  0
 16 17  1  0
 17 18  2  0
 19 17  1  0
 18 20  1  0
 21 19  2  0
 19 22  1  0
 20 23  1  0
 20 24  2  0
 24 21  1  0
 22 25  1  0
 22 26  2  0
 23 27  1  0
 24 28  1  0
 27 28  1  0
  4 29  2  0
  4 30  1  0
 31 30  1  0
 31 32  1  0
 32 33  1  0
 32 34  1  0
 33 35  1  0
 34 36  1  0
 34 37  1  0
 37 35  1  0
 35 38  1  0
 37 39  1  0
 40 38  1  0
 41 38  1  0
 42 40  2  0
 40 43  1  0
 44 41  2  0
 45 42  1  0
 43 46  2  0
 43 44  1  0
 47 45  2  0
 47 46  1  0
 46 48  1  0
  6 49  1  1
  7 50  1  0
  7 51  1  0
  8 52  1  0
  8 53  1  0
 10 54  1  0
 11 55  1  0
 12 56  1  0
 13 57  1  0
 16 58  1  0
 16 59  1  0
 18 60  1  0
 21 61  1  0
 27 62  1  0
 27 63  1  0
 31 64  1  0
 31 65  1  0
 32 66  1  0
 34 67  1  0
 35 68  1  0
 36 69  1  0
 37 70  1  0
 39 71  1  0
 41 72  1  0
 45 73  1  0
 48 74  1  0
 48 75  1  0
M  CHG  3   5  -1  22   1  25  -1
M  END
>  <EmbedRMS>  (231) 
0.0825470528967

$$$$

     RDKit          3D

 75 80  0  0  0  0  0  0  0  0999 V2000
   10.2811   43.7658   33.8248 C   0  0  0  0  0  0  0  0  0  0  0  0
   11.4114   43.5914   34.3675 O   0  0  0  0  0  0  0  0  0  0  0  0
    9.3618   42.7247   33.7350 O   0  0  0  0  0  0  0  0  0  0  0  0
    9.8892   41.2256   34.2926 P   0  0  0  0  0  0  0  0  0  0  0  0
   10.3729   41.4557   35.8820 O   0  0  0  0  0  0  0  0  0  0  0  0
    9.9465   45.0730   33.2104 C   0  0  1  0  0  0  0  0  0  0  0  0
   11.0276   46.0281   33.4692 N   0  0  0  0  0  0  0  0  0  0  0  0
    9.7532   44.8524   31.6947 C   0  0  0  0  0  0  0  0  0  0  0  0
    8.7957   45.8395   31.0823 C   0  0  0  0  0  0  0  0  0  0  0  0
    7.4093   45.5963   31.0919 C   0  0  0  0  0  0  0  0  0  0  0  0
    9.2834   46.9870   30.4386 C   0  0  0  0  0  0  0  0  0  0  0  0
    6.5285   46.4983   30.4789 C   0  0  0  0  0  0  0  0  0  0  0  0
    8.4023   47.8928   29.8365 C   0  0  0  0  0  0  0  0  0  0  0  0
    7.0144   47.6591   29.8613 C   0  0  0  0  0  0  0  0  0  0  0  0
    6.0893   48.5571   29.3081 O   0  0  0  0  0  0  0  0  0  0  0  0
    6.3634   49.9215   28.9767 C   0  0  0  0  0  0  0  0  0  0  0  0
    6.7203   50.7260   30.2122 C   0  0  0  0  0  0  0  0  0  0  0  0
    5.9790   50.4941   31.3967 C   0  0  0  0  0  0  0  0  0  0  0  0
    7.7007   51.7730   30.1954 C   0  0  0  0  0  0  0  0  0  0  0  0
    6.2512   51.2709   32.5161 C   0  0  0  0  0  0  0  0  0  0  0  0
    7.9193   52.5453   31.3599 C   0  0  0  0  0  0  0  0  0  0  0  0
    8.4456   52.0949   29.0112 N   0  0  0  0  0  0  0  0  0  0  0  0
    5.6744   51.2037   33.7707 O   0  0  0  0  0  0  0  0  0  0  0  0
    7.1796   52.2539   32.4984 C   0  0  0  0  0  0  0  0  0  0  0  0
    8.6249   53.4145   28.6624 O   0  0  0  0  0  0  0  0  0  0  0  0
    9.1538   51.2269   28.4615 O   0  0  0  0  0  0  0  0  0  0  0  0
    6.2846   52.2068   34.5948 C   0  0  0  0  0  0  0  0  0  0  0  0
    7.2348   52.8597   33.7403 O   0  0  0  0  0  0  0  0  0  0  0  0
    8.8113   40.1834   34.2126 O   0  0  0  0  0  0  0  0  0  0  0  0
   11.2395   40.7948   33.3656 O   0  0  0  0  0  0  0  0  0  0  0  0
   10.9133   40.6876   31.9934 C   0  0  0  0  0  0  0  0  0  0  0  0
   11.5164   39.3784   31.4397 C   0  0  0  0  0  0  0  0  0  0  0  0
   12.7491   39.0845   32.0717 O   0  0  0  0  0  0  0  0  0  0  0  0
   10.6026   38.1890   31.6674 C   0  0  0  0  0  0  0  0  0  0  0  0
   12.9328   37.6767   32.0280 C   0  0  0  0  0  0  0  0  0  0  0  0
    9.6343   38.0943   30.6506 O   0  0  0  0  0  0  0  0  0  0  0  0
   11.5723   37.0137   31.7055 C   0  0  0  0  0  0  0  0  0  0  0  0
   13.4859   37.2124   33.3238 N   0  0  0  0  0  0  0  0  0  0  0  0
   11.6205   36.3372   30.4682 O   0  0  0  0  0  0  0  0  0  0  0  0
   14.4801   36.3315   33.5733 C   0  0  0  0  0  0  0  0  0  0  0  0
   13.1154   37.6286   34.5688 C   0  0  0  0  0  0  0  0  0  0  0  0
   15.2066   35.6141   32.6750 N   0  0  0  0  0  0  0  0  0  0  0  0
   14.6765   36.2310   34.9188 C   0  0  0  0  0  0  0  0  0  0  0  0
   13.8232   37.0467   35.5786 N   0  0  0  0  0  0  0  0  0  0  0  0
   16.1639   34.7599   33.1559 C   0  0  0  0  0  0  0  0  0  0  0  0
   15.6538   35.3515   35.4137 C   0  0  0  0  0  0  0  0  0  0  0  0
   16.3806   34.6325   34.5051 N   0  0  0  0  0  0  0  0  0  0  0  0
   15.9018   35.1946   36.8094 N   0  0  0  0  0  0  0  0  0  0  0  0
    9.0012   45.4393   33.6709 H   0  0  0  0  0  0  0  0  0  0  0  0
   10.7790   46.9361   33.0138 H   0  0  0  0  0  0  0  0  0  0  0  0
   11.0504   46.2263   34.4966 H   0  0  0  0  0  0  0  0  0  0  0  0
   10.7412   44.9072   31.1865 H   0  0  0  0  0  0  0  0  0  0  0  0
    9.3646   43.8325   31.4727 H   0  0  0  0  0  0  0  0  0  0  0  0
    7.0148   44.7072   31.5668 H   0  0  0  0  0  0  0  0  0  0  0  0
   10.3478   47.1834   30.4024 H   0  0  0  0  0  0  0  0  0  0  0  0
    5.4632   46.3040   30.5042 H   0  0  0  0  0  0  0  0  0  0  0  0
    8.8095   48.7689   29.3552 H   0  0  0  0  0  0  0  0  0  0  0  0
    5.4387   50.3572   28.5454 H   0  0  0  0  0  0  0  0  0  0  0  0
    7.1342   49.9610   28.1820 H   0  0  0  0  0  0  0  0  0  0  0  0
    5.2095   49.7332   31.4435 H   0  0  0  0  0  0  0  0  0  0  0  0
    8.6522   53.3418   31.3770 H   0  0  0  0  0  0  0  0  0  0  0  0
    5.5184   52.9307   34.9458 H   0  0  0  0  0  0  0  0  0  0  0  0
    6.8082   51.7351   35.4546 H   0  0  0  0  0  0  0  0  0  0  0  0
   11.3857   41.5436   31.4647 H   0  0  0  0  0  0  0  0  0  0  0  0
    9.8218   40.7253   31.7601 H   0  0  0  0  0  0  0  0  0  0  0  0
   11.6993   39.5011   30.3476 H   0  0  0  0  0  0  0  0  0  0  0  0
   10.1070   38.2824   32.6634 H   0  0  0  0  0  0  0  0  0  0  0  0
   13.6636   37.4445   31.2205 H   0  0  0  0  0  0  0  0  0  0  0  0
    8.9761   37.4164   30.9553 H   0  0  0  0  0  0  0  0  0  0  0  0
   11.2770   36.3055   32.5160 H   0  0  0  0  0  0  0  0  0  0  0  0
   10.8666   35.6913   30.4636 H   0  0  0  0  0  0  0  0  0  0  0  0
   12.3299   38.3522   34.7439 H   0  0  0  0  0  0  0  0  0  0  0  0
   16.7574   34.1794   32.4634 H   0  0  0  0  0  0  0  0  0  0  0  0
   16.6358   34.5312   37.1430 H   0  0  0  0  0  0  0  0  0  0  0  0
   15.3543   35.7373   37.5134 H   0  0  0  0  0  0  0  0  0  0  0  0
  1  2  2  0
  1  3  1  0
  3  4  1  0
  4  5  1  0
  6  1  1  0
  7  6  1  0
  6  8  1  0
  8  9  1  0
  9 10  2  0
 11  9  1  0
 10 12  1  0
 13 11  2  0
 12 14  2  0
 14 13  1  0
 14 15  1  0
 15 16  1  0
 16 17  1  0
 17 18  2  0
 19 17  1  0
 18 20  1  0
 21 19  2  0
 19 22  1  0
 20 23  1  0
 20 24  2  0
 24 21  1  0
 22 25  1  0
 22 26  2  0
 23 27  1  0
 24 28  1  0
 27 28  1  0
  4 29  2  0
  4 30  1  0
 31 30  1  0
 31 32  1  0
 32 33  1  0
 32 34  1  0
 33 35  1  0
 34 36  1  0
 34 37  1  0
 37 35  1  0
 35 38  1  0
 37 39  1  0
 40 38  1  0
 41 38  1  0
 42 40  2  0
 40 43  1  0
 44 41  2  0
 45 42  1  0
 43 46  2  0
 43 44  1  0
 47 45  2  0
 47 46  1  0
 46 48  1  0
  6 49  1  1
  7 50  1  0
  7 51  1  0
  8 52  1  0
  8 53  1  0
 10 54  1  0
 11 55  1  0
 12 56  1  0
 13 57  1  0
 16 58  1  0
 16 59  1  0
 18 60  1  0
 21 61  1  0
 27 62  1  0
 27 63  1  0
 31 64  1  0
 31 65  1  0
 32 66  1  0
 34 67  1  0
 35 68  1  0
 36 69  1  0
 37 70  1  0
 39 71  1  0
 41 72  1  0
 45 73  1  0
 48 74  1  0
 48 75  1  0
M  CHG  3   5  -1  22   1  25  -1
M  END
>  <EmbedRMS>  (232) 
0.0823006907301

$$$$

     RDKit          3D

 75 80  0  0  0  0  0  0  0  0999 V2000
   10.2836   43.7661   33.8256 C   0  0  0  0  0  0  0  0  0  0  0  0
   11.4102   43.5930   34.3753 O   0  0  0  0  0  0  0  0  0  0  0  0
    9.3640   42.7252   33.7347 O   0  0  0  0  0  0  0  0  0  0  0  0
    9.8908   41.2264   34.2939 P   0  0  0  0  0  0  0  0  0  0  0  0
   10.3732   41.4559   35.8835 O   0  0  0  0  0  0  0  0  0  0  0  0
    9.9547   45.0694   33.2034 C   0  0  1  0  0  0  0  0  0  0  0  0
   11.0273   46.0321   33.4755 N   0  0  0  0  0  0  0  0  0  0  0  0
    9.7466   44.8479   31.6875 C   0  0  0  0  0  0  0  0  0  0  0  0
    8.7924   45.8406   31.0842 C   0  0  0  0  0  0  0  0  0  0  0  0
    7.4055   45.6018   31.0994 C   0  0  0  0  0  0  0  0  0  0  0  0
    9.2823   46.9879   30.4426 C   0  0  0  0  0  0  0  0  0  0  0  0
    6.5265   46.5036   30.4845 C   0  0  0  0  0  0  0  0  0  0  0  0
    8.4032   47.8904   29.8327 C   0  0  0  0  0  0  0  0  0  0  0  0
    7.0141   47.6520   29.8458 C   0  0  0  0  0  0  0  0  0  0  0  0
    6.0900   48.5200   29.2417 O   0  0  0  0  0  0  0  0  0  0  0  0
    6.4278   49.6758   28.4729 C   0  0  0  0  0  0  0  0  0  0  0  0
    7.0626   49.2803   27.1580 C   0  0  0  0  0  0  0  0  0  0  0  0
    6.4469   48.2554   26.4016 C   0  0  0  0  0  0  0  0  0  0  0  0
    8.2758   49.8761   26.6798 C   0  0  0  0  0  0  0  0  0  0  0  0
    7.0727   47.8234   25.2394 C   0  0  0  0  0  0  0  0  0  0  0  0
    8.8763   49.3833   25.4994 C   0  0  0  0  0  0  0  0  0  0  0  0
    8.8922   50.9825   27.3555 N   0  0  0  0  0  0  0  0  0  0  0  0
    6.6683   46.8357   24.3621 O   0  0  0  0  0  0  0  0  0  0  0  0
    8.2393   48.3588   24.8110 C   0  0  0  0  0  0  0  0  0  0  0  0
   10.2639   51.0821   27.3916 O   0  0  0  0  0  0  0  0  0  0  0  0
    8.2076   51.9701   27.6930 O   0  0  0  0  0  0  0  0  0  0  0  0
    7.6449   46.7469   23.3155 C   0  0  0  0  0  0  0  0  0  0  0  0
    8.6301   47.7372   23.6407 O   0  0  0  0  0  0  0  0  0  0  0  0
    8.8127   40.1847   34.2122 O   0  0  0  0  0  0  0  0  0  0  0  0
   11.2421   40.7941   33.3697 O   0  0  0  0  0  0  0  0  0  0  0  0
   10.9187   40.6911   31.9971 C   0  0  0  0  0  0  0  0  0  0  0  0
   11.5172   39.3815   31.4407 C   0  0  0  0  0  0  0  0  0  0  0  0
   12.7493   39.0856   32.0728 O   0  0  0  0  0  0  0  0  0  0  0  0
   10.6023   38.1908   31.6665 C   0  0  0  0  0  0  0  0  0  0  0  0
   12.9319   37.6781   32.0281 C   0  0  0  0  0  0  0  0  0  0  0  0
    9.6392   38.0798   30.6452 O   0  0  0  0  0  0  0  0  0  0  0  0
   11.5715   37.0166   31.7056 C   0  0  0  0  0  0  0  0  0  0  0  0
   13.4847   37.2121   33.3235 N   0  0  0  0  0  0  0  0  0  0  0  0
   11.6187   36.3384   30.4695 O   0  0  0  0  0  0  0  0  0  0  0  0
   14.4801   36.3321   33.5724 C   0  0  0  0  0  0  0  0  0  0  0  0
   13.1137   37.6275   34.5688 C   0  0  0  0  0  0  0  0  0  0  0  0
   15.2073   35.6153   32.6738 N   0  0  0  0  0  0  0  0  0  0  0  0
   14.6759   36.2308   34.9179 C   0  0  0  0  0  0  0  0  0  0  0  0
   13.8216   37.0452   35.5781 N   0  0  0  0  0  0  0  0  0  0  0  0
   16.1640   34.7601   33.1546 C   0  0  0  0  0  0  0  0  0  0  0  0
   15.6526   35.3508   35.4129 C   0  0  0  0  0  0  0  0  0  0  0  0
   16.3794   34.6317   34.5041 N   0  0  0  0  0  0  0  0  0  0  0  0
   15.8999   35.1934   36.8088 N   0  0  0  0  0  0  0  0  0  0  0  0
    9.0121   45.4316   33.6713 H   0  0  0  0  0  0  0  0  0  0  0  0
   11.8905   45.7658   32.9468 H   0  0  0  0  0  0  0  0  0  0  0  0
   10.7258   46.9687   33.1212 H   0  0  0  0  0  0  0  0  0  0  0  0
   10.7230   44.8813   31.1555 H   0  0  0  0  0  0  0  0  0  0  0  0
    9.3414   43.8328   31.4761 H   0  0  0  0  0  0  0  0  0  0  0  0
    7.0083   44.7171   31.5817 H   0  0  0  0  0  0  0  0  0  0  0  0
   10.3468   47.1857   30.4131 H   0  0  0  0  0  0  0  0  0  0  0  0
    5.4621   46.3068   30.5016 H   0  0  0  0  0  0  0  0  0  0  0  0
    8.8163   48.7673   29.3559 H   0  0  0  0  0  0  0  0  0  0  0  0
    5.4925   50.2310   28.2521 H   0  0  0  0  0  0  0  0  0  0  0  0
    7.0688   50.3388   29.0868 H   0  0  0  0  0  0  0  0  0  0  0  0
    5.5224   47.7926   26.7236 H   0  0  0  0  0  0  0  0  0  0  0  0
    9.7958   49.8061   25.1156 H   0  0  0  0  0  0  0  0  0  0  0  0
    8.1057   45.7370   23.3049 H   0  0  0  0  0  0  0  0  0  0  0  0
    7.1787   46.9779   22.3347 H   0  0  0  0  0  0  0  0  0  0  0  0
    9.8299   40.7410   31.7613 H   0  0  0  0  0  0  0  0  0  0  0  0
   11.3969   41.5460   31.4729 H   0  0  0  0  0  0  0  0  0  0  0  0
   11.6975   39.5067   30.3481 H   0  0  0  0  0  0  0  0  0  0  0  0
   10.1077   38.2648   32.6645 H   0  0  0  0  0  0  0  0  0  0  0  0
   13.6621   37.4467   31.2209 H   0  0  0  0  0  0  0  0  0  0  0  0
    8.8975   38.6945   30.8831 H   0  0  0  0  0  0  0  0  0  0  0  0
   11.2806   36.3073   32.5170 H   0  0  0  0  0  0  0  0  0  0  0  0
   10.8492   35.7110   30.4586 H   0  0  0  0  0  0  0  0  0  0  0  0
   12.3290   38.3524   34.7444 H   0  0  0  0  0  0  0  0  0  0  0  0
   16.7559   34.1780   32.4619 H   0  0  0  0  0  0  0  0  0  0  0  0
   16.6344   34.5301   37.1414 H   0  0  0  0  0  0  0  0  0  0  0  0
   15.3532   35.7362   37.5137 H   0  0  0  0  0  0  0  0  0  0  0  0
  1  2  2  0
  1  3  1  0
  3  4  1  0
  4  5  1  0
  6  1  1  0
  7  6  1  0
  6  8  1  0
  8  9  1  0
  9 10  2  0
 11  9  1  0
 10 12  1  0
 13 11  2  0
 12 14  2  0
 14 13  1  0
 14 15  1  0
 15 16  1  0
 16 17  1  0
 17 18  2  0
 19 17  1  0
 18 20  1  0
 21 19  2  0
 19 22  1  0
 20 23  1  0
 20 24  2  0
 24 21  1  0
 22 25  1  0
 22 26  2  0
 23 27  1  0
 24 28  1  0
 27 28  1  0
  4 29  2  0
  4 30  1  0
 31 30  1  0
 31 32  1  0
 32 33  1  0
 32 34  1  0
 33 35  1  0
 34 36  1  0
 34 37  1  0
 37 35  1  0
 35 38  1  0
 37 39  1  0
 40 38  1  0
 41 38  1  0
 42 40  2  0
 40 43  1  0
 44 41  2  0
 45 42  1  0
 43 46  2  0
 43 44  1  0
 47 45  2  0
 47 46  1  0
 46 48  1  0
  6 49  1  1
  7 50  1  0
  7 51  1  0
  8 52  1  0
  8 53  1  0
 10 54  1  0
 11 55  1  0
 12 56  1  0
 13 57  1  0
 16 58  1  0
 16 59  1  0
 18 60  1  0
 21 61  1  0
 27 62  1  0
 27 63  1  0
 31 64  1  0
 31 65  1  0
 32 66  1  0
 34 67  1  0
 35 68  1  0
 36 69  1  0
 37 70  1  0
 39 71  1  0
 41 72  1  0
 45 73  1  0
 48 74  1  0
 48 75  1  0
M  CHG  3   5  -1  22   1  25  -1
M  END
>  <EmbedRMS>  (233) 
0.0829523184118

$$$$

     RDKit          3D

 75 80  0  0  0  0  0  0  0  0999 V2000
   10.2803   43.7664   33.8250 C   0  0  0  0  0  0  0  0  0  0  0  0
   11.4110   43.5918   34.3667 O   0  0  0  0  0  0  0  0  0  0  0  0
    9.3618   42.7249   33.7345 O   0  0  0  0  0  0  0  0  0  0  0  0
    9.8902   41.2265   34.2931 P   0  0  0  0  0  0  0  0  0  0  0  0
   10.3743   41.4562   35.8824 O   0  0  0  0  0  0  0  0  0  0  0  0
    9.9459   45.0736   33.2112 C   0  0  1  0  0  0  0  0  0  0  0  0
   11.0267   46.0291   33.4706 N   0  0  0  0  0  0  0  0  0  0  0  0
    9.7535   44.8539   31.6950 C   0  0  0  0  0  0  0  0  0  0  0  0
    8.7955   45.8412   31.0848 C   0  0  0  0  0  0  0  0  0  0  0  0
    7.4085   45.6005   31.1008 C   0  0  0  0  0  0  0  0  0  0  0  0
    9.2831   46.9880   30.4398 C   0  0  0  0  0  0  0  0  0  0  0  0
    6.5278   46.5009   30.4853 C   0  0  0  0  0  0  0  0  0  0  0  0
    8.4024   47.8894   29.8301 C   0  0  0  0  0  0  0  0  0  0  0  0
    7.0139   47.6508   29.8481 C   0  0  0  0  0  0  0  0  0  0  0  0
    6.0914   48.5219   29.2510 O   0  0  0  0  0  0  0  0  0  0  0  0
    6.4388   49.7344   28.5866 C   0  0  0  0  0  0  0  0  0  0  0  0
    5.1862   50.4306   28.1176 C   0  0  0  0  0  0  0  0  0  0  0  0
    5.0397   50.6918   26.7343 C   0  0  0  0  0  0  0  0  0  0  0  0
    4.1301   50.7940   29.0214 C   0  0  0  0  0  0  0  0  0  0  0  0
    3.8646   51.2851   26.2928 C   0  0  0  0  0  0  0  0  0  0  0  0
    2.9514   51.3839   28.5079 C   0  0  0  0  0  0  0  0  0  0  0  0
    4.2199   50.5576   30.4390 N   0  0  0  0  0  0  0  0  0  0  0  0
    3.5067   51.6259   25.0026 O   0  0  0  0  0  0  0  0  0  0  0  0
    2.8642   51.6143   27.1414 C   0  0  0  0  0  0  0  0  0  0  0  0
    3.0742   50.3597   31.1751 O   0  0  0  0  0  0  0  0  0  0  0  0
    5.3036   50.6874   31.0436 O   0  0  0  0  0  0  0  0  0  0  0  0
    2.1965   52.2076   25.0461 C   0  0  0  0  0  0  0  0  0  0  0  0
    1.8235   52.1807   26.4306 O   0  0  0  0  0  0  0  0  0  0  0  0
    8.8123   40.1844   34.2130 O   0  0  0  0  0  0  0  0  0  0  0  0
   11.2402   40.7949   33.3666 O   0  0  0  0  0  0  0  0  0  0  0  0
   10.9124   40.6859   31.9952 C   0  0  0  0  0  0  0  0  0  0  0  0
   11.5175   39.3786   31.4405 C   0  0  0  0  0  0  0  0  0  0  0  0
   12.7490   39.0864   32.0753 O   0  0  0  0  0  0  0  0  0  0  0  0
   10.6060   38.1867   31.6656 C   0  0  0  0  0  0  0  0  0  0  0  0
   12.9355   37.6796   32.0292 C   0  0  0  0  0  0  0  0  0  0  0  0
    9.6399   38.0903   30.6471 O   0  0  0  0  0  0  0  0  0  0  0  0
   11.5765   37.0145   31.7044 C   0  0  0  0  0  0  0  0  0  0  0  0
   13.4858   37.2125   33.3244 N   0  0  0  0  0  0  0  0  0  0  0  0
   11.6101   36.3397   30.4673 O   0  0  0  0  0  0  0  0  0  0  0  0
   14.4805   36.3319   33.5729 C   0  0  0  0  0  0  0  0  0  0  0  0
   13.1143   37.6276   34.5694 C   0  0  0  0  0  0  0  0  0  0  0  0
   15.2076   35.6153   32.6741 N   0  0  0  0  0  0  0  0  0  0  0  0
   14.6760   36.2304   34.9184 C   0  0  0  0  0  0  0  0  0  0  0  0
   13.8219   37.0449   35.5786 N   0  0  0  0  0  0  0  0  0  0  0  0
   16.1641   34.7600   33.1548 C   0  0  0  0  0  0  0  0  0  0  0  0
   15.6528   35.3505   35.4132 C   0  0  0  0  0  0  0  0  0  0  0  0
   16.3795   34.6314   34.5043 N   0  0  0  0  0  0  0  0  0  0  0  0
   15.9002   35.1931   36.8091 N   0  0  0  0  0  0  0  0  0  0  0  0
    8.9996   45.4382   33.6724 H   0  0  0  0  0  0  0  0  0  0  0  0
   11.0505   46.2277   34.4980 H   0  0  0  0  0  0  0  0  0  0  0  0
   10.7764   46.9368   33.0157 H   0  0  0  0  0  0  0  0  0  0  0  0
   10.7406   44.9070   31.1835 H   0  0  0  0  0  0  0  0  0  0  0  0
    9.3635   43.8353   31.4715 H   0  0  0  0  0  0  0  0  0  0  0  0
    7.0130   44.7163   31.5852 H   0  0  0  0  0  0  0  0  0  0  0  0
   10.3473   47.1863   30.4063 H   0  0  0  0  0  0  0  0  0  0  0  0
    5.4633   46.3044   30.5051 H   0  0  0  0  0  0  0  0  0  0  0  0
    8.8121   48.7642   29.3443 H   0  0  0  0  0  0  0  0  0  0  0  0
    7.0009   50.4046   29.2703 H   0  0  0  0  0  0  0  0  0  0  0  0
    7.1050   49.4970   27.7284 H   0  0  0  0  0  0  0  0  0  0  0  0
    5.8120   50.4322   26.0212 H   0  0  0  0  0  0  0  0  0  0  0  0
    2.1328   51.6683   29.1563 H   0  0  0  0  0  0  0  0  0  0  0  0
    2.2287   53.2545   24.6781 H   0  0  0  0  0  0  0  0  0  0  0  0
    1.4866   51.6004   24.4461 H   0  0  0  0  0  0  0  0  0  0  0  0
   11.3802   41.5436   31.4661 H   0  0  0  0  0  0  0  0  0  0  0  0
    9.8214   40.7199   31.7634 H   0  0  0  0  0  0  0  0  0  0  0  0
   11.6999   39.5040   30.3482 H   0  0  0  0  0  0  0  0  0  0  0  0
   10.1085   38.2766   32.6603 H   0  0  0  0  0  0  0  0  0  0  0  0
   13.6679   37.4520   31.2229 H   0  0  0  0  0  0  0  0  0  0  0  0
    9.0016   37.3867   30.9349 H   0  0  0  0  0  0  0  0  0  0  0  0
   11.2666   36.3062   32.5084 H   0  0  0  0  0  0  0  0  0  0  0  0
   12.1389   35.5126   30.6150 H   0  0  0  0  0  0  0  0  0  0  0  0
   12.3300   38.3529   34.7449 H   0  0  0  0  0  0  0  0  0  0  0  0
   16.7560   34.1779   32.4620 H   0  0  0  0  0  0  0  0  0  0  0  0
   15.3534   35.7359   37.5140 H   0  0  0  0  0  0  0  0  0  0  0  0
   16.6347   34.5298   37.1416 H   0  0  0  0  0  0  0  0  0  0  0  0
  1  2  2  0
  1  3  1  0
  3  4  1  0
  4  5  1  0
  6  1  1  0
  7  6  1  0
  6  8  1  0
  8  9  1  0
  9 10  2  0
 11  9  1  0
 10 12  1  0
 13 11  2  0
 12 14  2  0
 14 13  1  0
 14 15  1  0
 15 16  1  0
 16 17  1  0
 17 18  2  0
 19 17  1  0
 18 20  1  0
 21 19  2  0
 19 22  1  0
 20 23  1  0
 20 24  2  0
 24 21  1  0
 22 25  1  0
 22 26  2  0
 23 27  1  0
 24 28  1  0
 27 28  1  0
  4 29  2  0
  4 30  1  0
 31 30  1  0
 31 32  1  0
 32 33  1  0
 32 34  1  0
 33 35  1  0
 34 36  1  0
 34 37  1  0
 37 35  1  0
 35 38  1  0
 37 39  1  0
 40 38  1  0
 41 38  1  0
 42 40  2  0
 40 43  1  0
 44 41  2  0
 45 42  1  0
 43 46  2  0
 43 44  1  0
 47 45  2  0
 47 46  1  0
 46 48  1  0
  6 49  1  1
  7 50  1  0
  7 51  1  0
  8 52  1  0
  8 53  1  0
 10 54  1  0
 11 55  1  0
 12 56  1  0
 13 57  1  0
 16 58  1  0
 16 59  1  0
 18 60  1  0
 21 61  1  0
 27 62  1  0
 27 63  1  0
 31 64  1  0
 31 65  1  0
 32 66  1  0
 34 67  1  0
 35 68  1  0
 36 69  1  0
 37 70  1  0
 39 71  1  0
 41 72  1  0
 45 73  1  0
 48 74  1  0
 48 75  1  0
M  CHG  3   5  -1  22   1  25  -1
M  END
>  <EmbedRMS>  (234) 
0.0822248236076

$$$$

     RDKit          3D

 75 80  0  0  0  0  0  0  0  0999 V2000
   10.2839   43.7626   33.8276 C   0  0  0  0  0  0  0  0  0  0  0  0
   11.4104   43.5863   34.3767 O   0  0  0  0  0  0  0  0  0  0  0  0
    9.3631   42.7236   33.7355 O   0  0  0  0  0  0  0  0  0  0  0  0
    9.8895   41.2250   34.2948 P   0  0  0  0  0  0  0  0  0  0  0  0
   10.3720   41.4547   35.8844 O   0  0  0  0  0  0  0  0  0  0  0  0
    9.9549   45.0700   33.2064 C   0  0  1  0  0  0  0  0  0  0  0  0
   11.0198   46.0481   33.4571 N   0  0  0  0  0  0  0  0  0  0  0  0
    9.7505   44.8511   31.6923 C   0  0  0  0  0  0  0  0  0  0  0  0
    8.7943   45.8418   31.0869 C   0  0  0  0  0  0  0  0  0  0  0  0
    7.4074   45.6004   31.1005 C   0  0  0  0  0  0  0  0  0  0  0  0
    9.2827   46.9893   30.4445 C   0  0  0  0  0  0  0  0  0  0  0  0
    6.5254   46.4999   30.4852 C   0  0  0  0  0  0  0  0  0  0  0  0
    8.4011   47.8885   29.8330 C   0  0  0  0  0  0  0  0  0  0  0  0
    7.0197   47.6550   29.8460 C   0  0  0  0  0  0  0  0  0  0  0  0
    6.1806   48.5857   29.2168 O   0  0  0  0  0  0  0  0  0  0  0  0
    4.7620   48.4693   29.1368 C   0  0  0  0  0  0  0  0  0  0  0  0
    4.2038   49.6264   28.3473 C   0  0  0  0  0  0  0  0  0  0  0  0
    3.2638   50.4779   28.9755 C   0  0  0  0  0  0  0  0  0  0  0  0
    4.6274   49.9099   27.0040 C   0  0  0  0  0  0  0  0  0  0  0  0
    2.7879   51.5747   28.2696 C   0  0  0  0  0  0  0  0  0  0  0  0
    4.1154   51.0506   26.3425 C   0  0  0  0  0  0  0  0  0  0  0  0
    5.5780   49.0806   26.3096 N   0  0  0  0  0  0  0  0  0  0  0  0
    1.8790   52.5313   28.6793 O   0  0  0  0  0  0  0  0  0  0  0  0
    3.1972   51.8501   27.0101 C   0  0  0  0  0  0  0  0  0  0  0  0
    6.3826   49.6274   25.3363 O   0  0  0  0  0  0  0  0  0  0  0  0
    5.5775   47.8418   26.4580 O   0  0  0  0  0  0  0  0  0  0  0  0
    1.7072   53.4666   27.6058 C   0  0  0  0  0  0  0  0  0  0  0  0
    2.5671   52.9943   26.5597 O   0  0  0  0  0  0  0  0  0  0  0  0
    8.8117   40.1832   34.2124 O   0  0  0  0  0  0  0  0  0  0  0  0
   11.2411   40.7939   33.3709 O   0  0  0  0  0  0  0  0  0  0  0  0
   10.9179   40.6919   31.9985 C   0  0  0  0  0  0  0  0  0  0  0  0
   11.5175   39.3837   31.4422 C   0  0  0  0  0  0  0  0  0  0  0  0
   12.7508   39.0887   32.0751 O   0  0  0  0  0  0  0  0  0  0  0  0
   10.6028   38.1915   31.6658 C   0  0  0  0  0  0  0  0  0  0  0  0
   12.9385   37.6818   32.0278 C   0  0  0  0  0  0  0  0  0  0  0  0
    9.6371   38.0805   30.6470 O   0  0  0  0  0  0  0  0  0  0  0  0
   11.5780   37.0215   31.6934 C   0  0  0  0  0  0  0  0  0  0  0  0
   13.4844   37.2119   33.3242 N   0  0  0  0  0  0  0  0  0  0  0  0
   11.6095   36.3201   30.4678 O   0  0  0  0  0  0  0  0  0  0  0  0
   14.4797   36.3318   33.5730 C   0  0  0  0  0  0  0  0  0  0  0  0
   13.1135   37.6278   34.5691 C   0  0  0  0  0  0  0  0  0  0  0  0
   15.2073   35.6155   32.6743 N   0  0  0  0  0  0  0  0  0  0  0  0
   14.6754   36.2305   34.9184 C   0  0  0  0  0  0  0  0  0  0  0  0
   13.8213   37.0452   35.5785 N   0  0  0  0  0  0  0  0  0  0  0  0
   16.1640   34.7604   33.1549 C   0  0  0  0  0  0  0  0  0  0  0  0
   15.6524   35.3507   35.4133 C   0  0  0  0  0  0  0  0  0  0  0  0
   16.3794   34.6318   34.5044 N   0  0  0  0  0  0  0  0  0  0  0  0
   15.8999   35.1934   36.8091 N   0  0  0  0  0  0  0  0  0  0  0  0
    9.0099   45.4348   33.6670 H   0  0  0  0  0  0  0  0  0  0  0  0
   11.9349   45.6933   33.0928 H   0  0  0  0  0  0  0  0  0  0  0  0
   11.1133   46.1992   34.4884 H   0  0  0  0  0  0  0  0  0  0  0  0
    9.3518   43.8345   31.4759 H   0  0  0  0  0  0  0  0  0  0  0  0
   10.7309   44.8931   31.1676 H   0  0  0  0  0  0  0  0  0  0  0  0
    7.0123   44.7149   31.5831 H   0  0  0  0  0  0  0  0  0  0  0  0
   10.3468   47.1894   30.4147 H   0  0  0  0  0  0  0  0  0  0  0  0
    5.4657   46.2870   30.5133 H   0  0  0  0  0  0  0  0  0  0  0  0
    8.7937   48.7704   29.3429 H   0  0  0  0  0  0  0  0  0  0  0  0
    4.4777   47.5149   28.6462 H   0  0  0  0  0  0  0  0  0  0  0  0
    4.3431   48.4538   30.1668 H   0  0  0  0  0  0  0  0  0  0  0  0
    2.9204   50.2989   29.9866 H   0  0  0  0  0  0  0  0  0  0  0  0
    4.4129   51.2992   25.3321 H   0  0  0  0  0  0  0  0  0  0  0  0
    0.6514   53.4677   27.2626 H   0  0  0  0  0  0  0  0  0  0  0  0
    2.0181   54.4825   27.9280 H   0  0  0  0  0  0  0  0  0  0  0  0
   11.3955   41.5477   31.4751 H   0  0  0  0  0  0  0  0  0  0  0  0
    9.8292   40.7409   31.7624 H   0  0  0  0  0  0  0  0  0  0  0  0
   11.6981   39.5116   30.3500 H   0  0  0  0  0  0  0  0  0  0  0  0
   10.1117   38.2603   32.6660 H   0  0  0  0  0  0  0  0  0  0  0  0
   13.6767   37.4555   31.2267 H   0  0  0  0  0  0  0  0  0  0  0  0
    8.8961   38.6951   30.8872 H   0  0  0  0  0  0  0  0  0  0  0  0
   11.2792   36.3072   32.4922 H   0  0  0  0  0  0  0  0  0  0  0  0
   11.8828   36.9598   29.7588 H   0  0  0  0  0  0  0  0  0  0  0  0
   12.3300   38.3538   34.7446 H   0  0  0  0  0  0  0  0  0  0  0  0
   16.7562   34.1785   32.4622 H   0  0  0  0  0  0  0  0  0  0  0  0
   15.3531   35.7360   37.5140 H   0  0  0  0  0  0  0  0  0  0  0  0
   16.6347   34.5303   37.1416 H   0  0  0  0  0  0  0  0  0  0  0  0
  1  2  2  0
  1  3  1  0
  3  4  1  0
  4  5  1  0
  6  1  1  0
  7  6  1  0
  6  8  1  0
  8  9  1  0
  9 10  2  0
 11  9  1  0
 10 12  1  0
 13 11  2  0
 12 14  2  0
 14 13  1  0
 14 15  1  0
 15 16  1  0
 16 17  1  0
 17 18  2  0
 19 17  1  0
 18 20  1  0
 21 19  2  0
 19 22  1  0
 20 23  1  0
 20 24  2  0
 24 21  1  0
 22 25  1  0
 22 26  2  0
 23 27  1  0
 24 28  1  0
 27 28  1  0
  4 29  2  0
  4 30  1  0
 31 30  1  0
 31 32  1  0
 32 33  1  0
 32 34  1  0
 33 35  1  0
 34 36  1  0
 34 37  1  0
 37 35  1  0
 35 38  1  0
 37 39  1  0
 40 38  1  0
 41 38  1  0
 42 40  2  0
 40 43  1  0
 44 41  2  0
 45 42  1  0
 43 46  2  0
 43 44  1  0
 47 45  2  0
 47 46  1  0
 46 48  1  0
  6 49  1  1
  7 50  1  0
  7 51  1  0
  8 52  1  0
  8 53  1  0
 10 54  1  0
 11 55  1  0
 12 56  1  0
 13 57  1  0
 16 58  1  0
 16 59  1  0
 18 60  1  0
 21 61  1  0
 27 62  1  0
 27 63  1  0
 31 64  1  0
 31 65  1  0
 32 66  1  0
 34 67  1  0
 35 68  1  0
 36 69  1  0
 37 70  1  0
 39 71  1  0
 41 72  1  0
 45 73  1  0
 48 74  1  0
 48 75  1  0
M  CHG  3   5  -1  22   1  25  -1
M  END
>  <EmbedRMS>  (235) 
0.0828614381596

$$$$

     RDKit          3D

 75 80  0  0  0  0  0  0  0  0999 V2000
   10.2836   43.7661   33.8257 C   0  0  0  0  0  0  0  0  0  0  0  0
   11.4103   43.5930   34.3753 O   0  0  0  0  0  0  0  0  0  0  0  0
    9.3640   42.7253   33.7348 O   0  0  0  0  0  0  0  0  0  0  0  0
    9.8907   41.2265   34.2939 P   0  0  0  0  0  0  0  0  0  0  0  0
   10.3733   41.4558   35.8835 O   0  0  0  0  0  0  0  0  0  0  0  0
    9.9547   45.0695   33.2038 C   0  0  1  0  0  0  0  0  0  0  0  0
   11.0273   46.0323   33.4758 N   0  0  0  0  0  0  0  0  0  0  0  0
    9.7464   44.8482   31.6880 C   0  0  0  0  0  0  0  0  0  0  0  0
    8.7921   45.8413   31.0855 C   0  0  0  0  0  0  0  0  0  0  0  0
    7.4056   45.6009   31.0980 C   0  0  0  0  0  0  0  0  0  0  0  0
    9.2820   46.9871   30.4414 C   0  0  0  0  0  0  0  0  0  0  0  0
    6.5272   46.5019   30.4814 C   0  0  0  0  0  0  0  0  0  0  0  0
    8.4029   47.8884   29.8295 C   0  0  0  0  0  0  0  0  0  0  0  0
    7.0140   47.6560   29.8520 C   0  0  0  0  0  0  0  0  0  0  0  0
    6.0871   48.5277   29.2594 O   0  0  0  0  0  0  0  0  0  0  0  0
    6.3397   49.8797   28.8737 C   0  0  0  0  0  0  0  0  0  0  0  0
    6.4978   50.7646   30.0884 C   0  0  0  0  0  0  0  0  0  0  0  0
    7.7860   51.2670   30.3913 C   0  0  0  0  0  0  0  0  0  0  0  0
    5.3805   51.1508   30.9048 C   0  0  0  0  0  0  0  0  0  0  0  0
    7.9324   52.1000   31.4918 C   0  0  0  0  0  0  0  0  0  0  0  0
    5.5936   52.0126   32.0076 C   0  0  0  0  0  0  0  0  0  0  0  0
    4.0352   50.7289   30.6099 N   0  0  0  0  0  0  0  0  0  0  0  0
    9.0841   52.6921   31.9735 O   0  0  0  0  0  0  0  0  0  0  0  0
    6.8833   52.4555   32.2668 C   0  0  0  0  0  0  0  0  0  0  0  0
    3.7708   49.4530   30.1722 O   0  0  0  0  0  0  0  0  0  0  0  0
    3.0731   51.4715   30.8959 O   0  0  0  0  0  0  0  0  0  0  0  0
    8.7332   53.4669   33.1281 C   0  0  0  0  0  0  0  0  0  0  0  0
    7.3183   53.2887   33.2795 O   0  0  0  0  0  0  0  0  0  0  0  0
    8.8126   40.1848   34.2122 O   0  0  0  0  0  0  0  0  0  0  0  0
   11.2418   40.7943   33.3694 O   0  0  0  0  0  0  0  0  0  0  0  0
   10.9179   40.6904   31.9970 C   0  0  0  0  0  0  0  0  0  0  0  0
   11.5181   39.3814   31.4408 C   0  0  0  0  0  0  0  0  0  0  0  0
   12.7497   39.0870   32.0746 O   0  0  0  0  0  0  0  0  0  0  0  0
   10.6045   38.1892   31.6655 C   0  0  0  0  0  0  0  0  0  0  0  0
   12.9344   37.6801   32.0290 C   0  0  0  0  0  0  0  0  0  0  0  0
    9.6419   38.0759   30.6441 O   0  0  0  0  0  0  0  0  0  0  0  0
   11.5741   37.0170   31.7045 C   0  0  0  0  0  0  0  0  0  0  0  0
   13.4851   37.2125   33.3241 N   0  0  0  0  0  0  0  0  0  0  0  0
   11.6078   36.3407   30.4680 O   0  0  0  0  0  0  0  0  0  0  0  0
   14.4801   36.3321   33.5727 C   0  0  0  0  0  0  0  0  0  0  0  0
   13.1140   37.6277   34.5693 C   0  0  0  0  0  0  0  0  0  0  0  0
   15.2073   35.6155   32.6739 N   0  0  0  0  0  0  0  0  0  0  0  0
   14.6758   36.2306   34.9182 C   0  0  0  0  0  0  0  0  0  0  0  0
   13.8217   37.0450   35.5785 N   0  0  0  0  0  0  0  0  0  0  0  0
   16.1639   34.7602   33.1546 C   0  0  0  0  0  0  0  0  0  0  0  0
   15.6526   35.3506   35.4130 C   0  0  0  0  0  0  0  0  0  0  0  0
   16.3794   34.6316   34.5041 N   0  0  0  0  0  0  0  0  0  0  0  0
   15.9001   35.1933   36.8089 N   0  0  0  0  0  0  0  0  0  0  0  0
    9.0122   45.4317   33.6719 H   0  0  0  0  0  0  0  0  0  0  0  0
   10.7258   46.9688   33.1213 H   0  0  0  0  0  0  0  0  0  0  0  0
   11.8905   45.7660   32.9470 H   0  0  0  0  0  0  0  0  0  0  0  0
   10.7227   44.8815   31.1559 H   0  0  0  0  0  0  0  0  0  0  0  0
    9.3411   43.8332   31.4766 H   0  0  0  0  0  0  0  0  0  0  0  0
    7.0083   44.7155   31.5789 H   0  0  0  0  0  0  0  0  0  0  0  0
   10.3471   47.1803   30.4041 H   0  0  0  0  0  0  0  0  0  0  0  0
    5.4626   46.3061   30.4996 H   0  0  0  0  0  0  0  0  0  0  0  0
    8.8192   48.7439   29.3218 H   0  0  0  0  0  0  0  0  0  0  0  0
    7.2264   49.9258   28.2063 H   0  0  0  0  0  0  0  0  0  0  0  0
    5.4853   50.2475   28.2679 H   0  0  0  0  0  0  0  0  0  0  0  0
    8.6485   51.0292   29.7834 H   0  0  0  0  0  0  0  0  0  0  0  0
    4.7774   52.3248   32.6463 H   0  0  0  0  0  0  0  0  0  0  0  0
    8.9684   54.5384   32.9575 H   0  0  0  0  0  0  0  0  0  0  0  0
    9.2657   53.0840   34.0239 H   0  0  0  0  0  0  0  0  0  0  0  0
   11.3946   41.5458   31.4722 H   0  0  0  0  0  0  0  0  0  0  0  0
    9.8290   40.7385   31.7617 H   0  0  0  0  0  0  0  0  0  0  0  0
   11.6995   39.5069   30.3484 H   0  0  0  0  0  0  0  0  0  0  0  0
   10.1091   38.2635   32.6632 H   0  0  0  0  0  0  0  0  0  0  0  0
   13.6662   37.4515   31.2224 H   0  0  0  0  0  0  0  0  0  0  0  0
    8.9009   38.6925   30.8793 H   0  0  0  0  0  0  0  0  0  0  0  0
   11.2650   36.3083   32.5087 H   0  0  0  0  0  0  0  0  0  0  0  0
   12.1372   35.5140   30.6163 H   0  0  0  0  0  0  0  0  0  0  0  0
   12.3296   38.3529   34.7450 H   0  0  0  0  0  0  0  0  0  0  0  0
   16.7558   34.1781   32.4619 H   0  0  0  0  0  0  0  0  0  0  0  0
   15.3533   35.7360   37.5138 H   0  0  0  0  0  0  0  0  0  0  0  0
   16.6346   34.5300   37.1414 H   0  0  0  0  0  0  0  0  0  0  0  0
  1  2  2  0
  1  3  1  0
  3  4  1  0
  4  5  1  0
  6  1  1  0
  7  6  1  0
  6  8  1  0
  8  9  1  0
  9 10  2  0
 11  9  1  0
 10 12  1  0
 13 11  2  0
 12 14  2  0
 14 13  1  0
 14 15  1  0
 15 16  1  0
 16 17  1  0
 17 18  2  0
 19 17  1  0
 18 20  1  0
 21 19  2  0
 19 22  1  0
 20 23  1  0
 20 24  2  0
 24 21  1  0
 22 25  1  0
 22 26  2  0
 23 27  1  0
 24 28  1  0
 27 28  1  0
  4 29  2  0
  4 30  1  0
 31 30  1  0
 31 32  1  0
 32 33  1  0
 32 34  1  0
 33 35  1  0
 34 36  1  0
 34 37  1  0
 37 35  1  0
 35 38  1  0
 37 39  1  0
 40 38  1  0
 41 38  1  0
 42 40  2  0
 40 43  1  0
 44 41  2  0
 45 42  1  0
 43 46  2  0
 43 44  1  0
 47 45  2  0
 47 46  1  0
 46 48  1  0
  6 49  1  1
  7 50  1  0
  7 51  1  0
  8 52  1  0
  8 53  1  0
 10 54  1  0
 11 55  1  0
 12 56  1  0
 13 57  1  0
 16 58  1  0
 16 59  1  0
 18 60  1  0
 21 61  1  0
 27 62  1  0
 27 63  1  0
 31 64  1  0
 31 65  1  0
 32 66  1  0
 34 67  1  0
 35 68  1  0
 36 69  1  0
 37 70  1  0
 39 71  1  0
 41 72  1  0
 45 73  1  0
 48 74  1  0
 48 75  1  0
M  CHG  3   5  -1  22   1  25  -1
M  END
>  <EmbedRMS>  (236) 
0.0828252897616

$$$$

     RDKit          3D

 75 80  0  0  0  0  0  0  0  0999 V2000
   10.2803   43.7665   33.8251 C   0  0  0  0  0  0  0  0  0  0  0  0
   11.4110   43.5919   34.3666 O   0  0  0  0  0  0  0  0  0  0  0  0
    9.3616   42.7251   33.7349 O   0  0  0  0  0  0  0  0  0  0  0  0
    9.8898   41.2268   34.2940 P   0  0  0  0  0  0  0  0  0  0  0  0
   10.3738   41.4565   35.8831 O   0  0  0  0  0  0  0  0  0  0  0  0
    9.9459   45.0736   33.2112 C   0  0  1  0  0  0  0  0  0  0  0  0
   11.0267   46.0291   33.4706 N   0  0  0  0  0  0  0  0  0  0  0  0
    9.7535   44.8539   31.6950 C   0  0  0  0  0  0  0  0  0  0  0  0
    8.7955   45.8412   31.0848 C   0  0  0  0  0  0  0  0  0  0  0  0
    7.4085   45.6005   31.1008 C   0  0  0  0  0  0  0  0  0  0  0  0
    9.2831   46.9880   30.4398 C   0  0  0  0  0  0  0  0  0  0  0  0
    6.5278   46.5010   30.4855 C   0  0  0  0  0  0  0  0  0  0  0  0
    8.4024   47.8894   29.8302 C   0  0  0  0  0  0  0  0  0  0  0  0
    7.0139   47.6507   29.8479 C   0  0  0  0  0  0  0  0  0  0  0  0
    6.0916   48.5203   29.2483 O   0  0  0  0  0  0  0  0  0  0  0  0
    6.4420   49.7129   28.5503 C   0  0  0  0  0  0  0  0  0  0  0  0
    5.1967   50.3605   27.9995 C   0  0  0  0  0  0  0  0  0  0  0  0
    4.8899   51.6813   28.4050 C   0  0  0  0  0  0  0  0  0  0  0  0
    4.3005   49.6656   27.1172 C   0  0  0  0  0  0  0  0  0  0  0  0
    3.7167   52.2613   27.9411 C   0  0  0  0  0  0  0  0  0  0  0  0
    3.1140   50.3064   26.6898 C   0  0  0  0  0  0  0  0  0  0  0  0
    4.5578   48.3224   26.6665 N   0  0  0  0  0  0  0  0  0  0  0  0
    3.2194   53.5230   28.2054 O   0  0  0  0  0  0  0  0  0  0  0  0
    2.8656   51.6024   27.1220 C   0  0  0  0  0  0  0  0  0  0  0  0
    3.5072   47.4954   26.3410 O   0  0  0  0  0  0  0  0  0  0  0  0
    5.7185   47.9428   26.4108 O   0  0  0  0  0  0  0  0  0  0  0  0
    1.9758   53.6638   27.5051 C   0  0  0  0  0  0  0  0  0  0  0  0
    1.7877   52.4146   26.8263 O   0  0  0  0  0  0  0  0  0  0  0  0
    8.8123   40.1845   34.2134 O   0  0  0  0  0  0  0  0  0  0  0  0
   11.2400   40.7954   33.3680 O   0  0  0  0  0  0  0  0  0  0  0  0
   10.9124   40.6877   31.9967 C   0  0  0  0  0  0  0  0  0  0  0  0
   11.5169   39.3811   31.4420 C   0  0  0  0  0  0  0  0  0  0  0  0
   12.7500   39.0881   32.0760 O   0  0  0  0  0  0  0  0  0  0  0  0
   10.6043   38.1893   31.6659 C   0  0  0  0  0  0  0  0  0  0  0  0
   12.9395   37.6814   32.0280 C   0  0  0  0  0  0  0  0  0  0  0  0
    9.6353   38.0951   30.6499 O   0  0  0  0  0  0  0  0  0  0  0  0
   11.5804   37.0191   31.6934 C   0  0  0  0  0  0  0  0  0  0  0  0
   13.4851   37.2119   33.3244 N   0  0  0  0  0  0  0  0  0  0  0  0
   11.6118   36.3189   30.4673 O   0  0  0  0  0  0  0  0  0  0  0  0
   14.4801   36.3316   33.5732 C   0  0  0  0  0  0  0  0  0  0  0  0
   13.1139   37.6277   34.5692 C   0  0  0  0  0  0  0  0  0  0  0  0
   15.2076   35.6154   32.6744 N   0  0  0  0  0  0  0  0  0  0  0  0
   14.6756   36.2303   34.9186 C   0  0  0  0  0  0  0  0  0  0  0  0
   13.8215   37.0450   35.5786 N   0  0  0  0  0  0  0  0  0  0  0  0
   16.1642   34.7602   33.1551 C   0  0  0  0  0  0  0  0  0  0  0  0
   15.6526   35.3505   35.4134 C   0  0  0  0  0  0  0  0  0  0  0  0
   16.3796   34.6316   34.5045 N   0  0  0  0  0  0  0  0  0  0  0  0
   15.9001   35.1933   36.8093 N   0  0  0  0  0  0  0  0  0  0  0  0
    8.9996   45.4383   33.6723 H   0  0  0  0  0  0  0  0  0  0  0  0
   10.7765   46.9368   33.0157 H   0  0  0  0  0  0  0  0  0  0  0  0
   11.0505   46.2277   34.4980 H   0  0  0  0  0  0  0  0  0  0  0  0
   10.7406   44.9070   31.1835 H   0  0  0  0  0  0  0  0  0  0  0  0
    9.3635   43.8353   31.4716 H   0  0  0  0  0  0  0  0  0  0  0  0
    7.0130   44.7161   31.5850 H   0  0  0  0  0  0  0  0  0  0  0  0
   10.3473   47.1865   30.4066 H   0  0  0  0  0  0  0  0  0  0  0  0
    5.4634   46.3038   30.5042 H   0  0  0  0  0  0  0  0  0  0  0  0
    8.8120   48.7650   29.3458 H   0  0  0  0  0  0  0  0  0  0  0  0
    6.9688   50.3984   29.2499 H   0  0  0  0  0  0  0  0  0  0  0  0
    7.1398   49.4848   27.7175 H   0  0  0  0  0  0  0  0  0  0  0  0
    5.5389   52.2379   29.0693 H   0  0  0  0  0  0  0  0  0  0  0  0
    2.4128   49.8146   26.0282 H   0  0  0  0  0  0  0  0  0  0  0  0
    1.1478   53.8378   28.2240 H   0  0  0  0  0  0  0  0  0  0  0  0
    2.0407   54.4933   26.7701 H   0  0  0  0  0  0  0  0  0  0  0  0
    9.8215   40.7221   31.7645 H   0  0  0  0  0  0  0  0  0  0  0  0
   11.3807   41.5456   31.4683 H   0  0  0  0  0  0  0  0  0  0  0  0
   11.6986   39.5088   30.3499 H   0  0  0  0  0  0  0  0  0  0  0  0
   10.1109   38.2737   32.6630 H   0  0  0  0  0  0  0  0  0  0  0  0
   13.6783   37.4562   31.2271 H   0  0  0  0  0  0  0  0  0  0  0  0
    9.0020   37.3860   30.9348 H   0  0  0  0  0  0  0  0  0  0  0  0
   11.2807   36.3052   32.4921 H   0  0  0  0  0  0  0  0  0  0  0  0
   11.8819   36.9600   29.7584 H   0  0  0  0  0  0  0  0  0  0  0  0
   12.3303   38.3538   34.7446 H   0  0  0  0  0  0  0  0  0  0  0  0
   16.7563   34.1783   32.4623 H   0  0  0  0  0  0  0  0  0  0  0  0
   16.6347   34.5301   37.1418 H   0  0  0  0  0  0  0  0  0  0  0  0
   15.3532   35.7359   37.5142 H   0  0  0  0  0  0  0  0  0  0  0  0
  1  2  2  0
  1  3  1  0
  3  4  1  0
  4  5  1  0
  6  1  1  0
  7  6  1  0
  6  8  1  0
  8  9  1  0
  9 10  2  0
 11  9  1  0
 10 12  1  0
 13 11  2  0
 12 14  2  0
 14 13  1  0
 14 15  1  0
 15 16  1  0
 16 17  1  0
 17 18  2  0
 19 17  1  0
 18 20  1  0
 21 19  2  0
 19 22  1  0
 20 23  1  0
 20 24  2  0
 24 21  1  0
 22 25  1  0
 22 26  2  0
 23 27  1  0
 24 28  1  0
 27 28  1  0
  4 29  2  0
  4 30  1  0
 31 30  1  0
 31 32  1  0
 32 33  1  0
 32 34  1  0
 33 35  1  0
 34 36  1  0
 34 37  1  0
 37 35  1  0
 35 38  1  0
 37 39  1  0
 40 38  1  0
 41 38  1  0
 42 40  2  0
 40 43  1  0
 44 41  2  0
 45 42  1  0
 43 46  2  0
 43 44  1  0
 47 45  2  0
 47 46  1  0
 46 48  1  0
  6 49  1  1
  7 50  1  0
  7 51  1  0
  8 52  1  0
  8 53  1  0
 10 54  1  0
 11 55  1  0
 12 56  1  0
 13 57  1  0
 16 58  1  0
 16 59  1  0
 18 60  1  0
 21 61  1  0
 27 62  1  0
 27 63  1  0
 31 64  1  0
 31 65  1  0
 32 66  1  0
 34 67  1  0
 35 68  1  0
 36 69  1  0
 37 70  1  0
 39 71  1  0
 41 72  1  0
 45 73  1  0
 48 74  1  0
 48 75  1  0
M  CHG  3   5  -1  22   1  25  -1
M  END
>  <EmbedRMS>  (237) 
0.0813918363229

$$$$

     RDKit          3D

 75 80  0  0  0  0  0  0  0  0999 V2000
   10.2804   43.7664   33.8249 C   0  0  0  0  0  0  0  0  0  0  0  0
   11.4111   43.5918   34.3666 O   0  0  0  0  0  0  0  0  0  0  0  0
    9.3619   42.7249   33.7344 O   0  0  0  0  0  0  0  0  0  0  0  0
    9.8900   41.2266   34.2940 P   0  0  0  0  0  0  0  0  0  0  0  0
   10.3734   41.4567   35.8833 O   0  0  0  0  0  0  0  0  0  0  0  0
    9.9460   45.0736   33.2112 C   0  0  1  0  0  0  0  0  0  0  0  0
   11.0267   46.0292   33.4708 N   0  0  0  0  0  0  0  0  0  0  0  0
    9.7540   44.8542   31.6948 C   0  0  0  0  0  0  0  0  0  0  0  0
    8.7956   45.8412   31.0848 C   0  0  0  0  0  0  0  0  0  0  0  0
    7.4086   45.5999   31.1011 C   0  0  0  0  0  0  0  0  0  0  0  0
    9.2825   46.9881   30.4395 C   0  0  0  0  0  0  0  0  0  0  0  0
    6.5256   46.4989   30.4864 C   0  0  0  0  0  0  0  0  0  0  0  0
    8.3998   47.8877   29.8308 C   0  0  0  0  0  0  0  0  0  0  0  0
    7.0186   47.6544   29.8467 C   0  0  0  0  0  0  0  0  0  0  0  0
    6.1782   48.5866   29.2215 O   0  0  0  0  0  0  0  0  0  0  0  0
    4.7565   48.4899   29.1775 C   0  0  0  0  0  0  0  0  0  0  0  0
    4.1886   49.6956   28.4729 C   0  0  0  0  0  0  0  0  0  0  0  0
    3.3842   49.4894   27.3269 C   0  0  0  0  0  0  0  0  0  0  0  0
    4.4742   51.0346   28.9043 C   0  0  0  0  0  0  0  0  0  0  0  0
    2.9035   50.6001   26.6462 C   0  0  0  0  0  0  0  0  0  0  0  0
    3.9656   52.1261   28.1606 C   0  0  0  0  0  0  0  0  0  0  0  0
    5.2831   51.3028   30.0648 N   0  0  0  0  0  0  0  0  0  0  0  0
    2.1116   50.6377   25.5146 O   0  0  0  0  0  0  0  0  0  0  0  0
    3.1835   51.8622   27.0440 C   0  0  0  0  0  0  0  0  0  0  0  0
    5.1695   50.5305   31.1970 O   0  0  0  0  0  0  0  0  0  0  0  0
    5.9807   52.3370   30.1142 O   0  0  0  0  0  0  0  0  0  0  0  0
    1.8798   52.0135   25.1824 C   0  0  0  0  0  0  0  0  0  0  0  0
    2.5822   52.7614   26.1844 O   0  0  0  0  0  0  0  0  0  0  0  0
    8.8123   40.1844   34.2133 O   0  0  0  0  0  0  0  0  0  0  0  0
   11.2405   40.7942   33.3692 O   0  0  0  0  0  0  0  0  0  0  0  0
   10.9150   40.6905   31.9972 C   0  0  0  0  0  0  0  0  0  0  0  0
   11.5252   39.3886   31.4375 C   0  0  0  0  0  0  0  0  0  0  0  0
   12.7499   39.0874   32.0799 O   0  0  0  0  0  0  0  0  0  0  0  0
   10.6092   38.1926   31.6470 C   0  0  0  0  0  0  0  0  0  0  0  0
   12.9332   37.6793   32.0294 C   0  0  0  0  0  0  0  0  0  0  0  0
    9.6122   38.0894   30.6542 O   0  0  0  0  0  0  0  0  0  0  0  0
   11.5743   37.0145   31.7024 C   0  0  0  0  0  0  0  0  0  0  0  0
   13.4844   37.2108   33.3241 N   0  0  0  0  0  0  0  0  0  0  0  0
   11.6297   36.3239   30.4740 O   0  0  0  0  0  0  0  0  0  0  0  0
   14.4802   36.3313   33.5727 C   0  0  0  0  0  0  0  0  0  0  0  0
   13.1139   37.6266   34.5692 C   0  0  0  0  0  0  0  0  0  0  0  0
   15.2075   35.6149   32.6739 N   0  0  0  0  0  0  0  0  0  0  0  0
   14.6761   36.2303   34.9182 C   0  0  0  0  0  0  0  0  0  0  0  0
   13.8220   37.0446   35.5785 N   0  0  0  0  0  0  0  0  0  0  0  0
   16.1643   34.7600   33.1547 C   0  0  0  0  0  0  0  0  0  0  0  0
   15.6529   35.3505   35.4130 C   0  0  0  0  0  0  0  0  0  0  0  0
   16.3798   34.6315   34.5042 N   0  0  0  0  0  0  0  0  0  0  0  0
   15.9003   35.1932   36.8090 N   0  0  0  0  0  0  0  0  0  0  0  0
    8.9996   45.4381   33.6722 H   0  0  0  0  0  0  0  0  0  0  0  0
   11.0502   46.2277   34.4982 H   0  0  0  0  0  0  0  0  0  0  0  0
   10.7765   46.9369   33.0159 H   0  0  0  0  0  0  0  0  0  0  0  0
    9.3645   43.8354   31.4711 H   0  0  0  0  0  0  0  0  0  0  0  0
   10.7411   44.9080   31.1835 H   0  0  0  0  0  0  0  0  0  0  0  0
    7.0146   44.7150   31.5857 H   0  0  0  0  0  0  0  0  0  0  0  0
   10.3463   47.1879   30.4054 H   0  0  0  0  0  0  0  0  0  0  0  0
    5.4660   46.2853   30.5150 H   0  0  0  0  0  0  0  0  0  0  0  0
    8.7915   48.7701   29.3407 H   0  0  0  0  0  0  0  0  0  0  0  0
    4.4751   47.5531   28.6484 H   0  0  0  0  0  0  0  0  0  0  0  0
    4.3392   48.4316   30.2043 H   0  0  0  0  0  0  0  0  0  0  0  0
    3.1471   48.4952   26.9695 H   0  0  0  0  0  0  0  0  0  0  0  0
    4.1624   53.1496   28.4529 H   0  0  0  0  0  0  0  0  0  0  0  0
    2.2910   52.2402   24.1765 H   0  0  0  0  0  0  0  0  0  0  0  0
    0.7940   52.2412   25.2251 H   0  0  0  0  0  0  0  0  0  0  0  0
   11.3801   41.5528   31.4730 H   0  0  0  0  0  0  0  0  0  0  0  0
    9.8242   40.7215   31.7641 H   0  0  0  0  0  0  0  0  0  0  0  0
   11.7266   39.5310   30.3513 H   0  0  0  0  0  0  0  0  0  0  0  0
   10.1110   38.2747   32.6387 H   0  0  0  0  0  0  0  0  0  0  0  0
   13.6652   37.4520   31.2226 H   0  0  0  0  0  0  0  0  0  0  0  0
   10.0511   38.1143   29.7645 H   0  0  0  0  0  0  0  0  0  0  0  0
   11.2762   36.3141   32.5189 H   0  0  0  0  0  0  0  0  0  0  0  0
   10.8593   35.6978   30.4640 H   0  0  0  0  0  0  0  0  0  0  0  0
   12.3295   38.3518   34.7449 H   0  0  0  0  0  0  0  0  0  0  0  0
   16.7564   34.1780   32.4620 H   0  0  0  0  0  0  0  0  0  0  0  0
   16.6349   34.5300   37.1415 H   0  0  0  0  0  0  0  0  0  0  0  0
   15.3534   35.7359   37.5138 H   0  0  0  0  0  0  0  0  0  0  0  0
  1  2  2  0
  1  3  1  0
  3  4  1  0
  4  5  1  0
  6  1  1  0
  7  6  1  0
  6  8  1  0
  8  9  1  0
  9 10  2  0
 11  9  1  0
 10 12  1  0
 13 11  2  0
 12 14  2  0
 14 13  1  0
 14 15  1  0
 15 16  1  0
 16 17  1  0
 17 18  2  0
 19 17  1  0
 18 20  1  0
 21 19  2  0
 19 22  1  0
 20 23  1  0
 20 24  2  0
 24 21  1  0
 22 25  1  0
 22 26  2  0
 23 27  1  0
 24 28  1  0
 27 28  1  0
  4 29  2  0
  4 30  1  0
 31 30  1  0
 31 32  1  0
 32 33  1  0
 32 34  1  0
 33 35  1  0
 34 36  1  0
 34 37  1  0
 37 35  1  0
 35 38  1  0
 37 39  1  0
 40 38  1  0
 41 38  1  0
 42 40  2  0
 40 43  1  0
 44 41  2  0
 45 42  1  0
 43 46  2  0
 43 44  1  0
 47 45  2  0
 47 46  1  0
 46 48  1  0
  6 49  1  1
  7 50  1  0
  7 51  1  0
  8 52  1  0
  8 53  1  0
 10 54  1  0
 11 55  1  0
 12 56  1  0
 13 57  1  0
 16 58  1  0
 16 59  1  0
 18 60  1  0
 21 61  1  0
 27 62  1  0
 27 63  1  0
 31 64  1  0
 31 65  1  0
 32 66  1  0
 34 67  1  0
 35 68  1  0
 36 69  1  0
 37 70  1  0
 39 71  1  0
 41 72  1  0
 45 73  1  0
 48 74  1  0
 48 75  1  0
M  CHG  3   5  -1  22   1  25  -1
M  END
>  <EmbedRMS>  (238) 
0.0816290376047

$$$$

     RDKit          3D

 75 80  0  0  0  0  0  0  0  0999 V2000
   10.2834   43.7663   33.8257 C   0  0  0  0  0  0  0  0  0  0  0  0
   11.4102   43.5930   34.3752 O   0  0  0  0  0  0  0  0  0  0  0  0
    9.3635   42.7257   33.7352 O   0  0  0  0  0  0  0  0  0  0  0  0
    9.8899   41.2270   34.2947 P   0  0  0  0  0  0  0  0  0  0  0  0
   10.3732   41.4563   35.8841 O   0  0  0  0  0  0  0  0  0  0  0  0
    9.9548   45.0696   33.2035 C   0  0  1  0  0  0  0  0  0  0  0  0
   11.0274   46.0322   33.4759 N   0  0  0  0  0  0  0  0  0  0  0  0
    9.7471   44.8484   31.6875 C   0  0  0  0  0  0  0  0  0  0  0  0
    8.7924   45.8409   31.0843 C   0  0  0  0  0  0  0  0  0  0  0  0
    7.4055   45.6009   31.0994 C   0  0  0  0  0  0  0  0  0  0  0  0
    9.2818   46.9881   30.4420 C   0  0  0  0  0  0  0  0  0  0  0  0
    6.5241   46.5011   30.4849 C   0  0  0  0  0  0  0  0  0  0  0  0
    8.4006   47.8885   29.8321 C   0  0  0  0  0  0  0  0  0  0  0  0
    7.0190   47.6562   29.8462 C   0  0  0  0  0  0  0  0  0  0  0  0
    6.1801   48.5892   29.2203 O   0  0  0  0  0  0  0  0  0  0  0  0
    4.7583   48.4938   29.1746 C   0  0  0  0  0  0  0  0  0  0  0  0
    4.1922   49.6998   28.4692 C   0  0  0  0  0  0  0  0  0  0  0  0
    3.3888   49.4940   27.3223 C   0  0  0  0  0  0  0  0  0  0  0  0
    4.4784   51.0387   28.9006 C   0  0  0  0  0  0  0  0  0  0  0  0
    2.9097   50.6049   26.6409 C   0  0  0  0  0  0  0  0  0  0  0  0
    3.9714   52.1304   28.1562 C   0  0  0  0  0  0  0  0  0  0  0  0
    5.2862   51.3064   30.0619 N   0  0  0  0  0  0  0  0  0  0  0  0
    2.1190   50.6429   25.5085 O   0  0  0  0  0  0  0  0  0  0  0  0
    3.1903   51.8669   27.0387 C   0  0  0  0  0  0  0  0  0  0  0  0
    5.1707   50.5345   31.1942 O   0  0  0  0  0  0  0  0  0  0  0  0
    5.9846   52.3402   30.1119 O   0  0  0  0  0  0  0  0  0  0  0  0
    1.8886   52.0188   25.1759 C   0  0  0  0  0  0  0  0  0  0  0  0
    2.5905   52.7664   26.1784 O   0  0  0  0  0  0  0  0  0  0  0  0
    8.8120   40.1850   34.2133 O   0  0  0  0  0  0  0  0  0  0  0  0
   11.2403   40.7947   33.3700 O   0  0  0  0  0  0  0  0  0  0  0  0
   10.9145   40.6914   31.9982 C   0  0  0  0  0  0  0  0  0  0  0  0
   11.5270   39.3912   31.4385 C   0  0  0  0  0  0  0  0  0  0  0  0
   12.7520   39.0911   32.0836 O   0  0  0  0  0  0  0  0  0  0  0  0
   10.6113   38.1932   31.6451 C   0  0  0  0  0  0  0  0  0  0  0  0
   12.9413   37.6838   32.0297 C   0  0  0  0  0  0  0  0  0  0  0  0
    9.6064   38.0878   30.6599 O   0  0  0  0  0  0  0  0  0  0  0  0
   11.5822   37.0198   31.6877 C   0  0  0  0  0  0  0  0  0  0  0  0
   13.4840   37.2104   33.3254 N   0  0  0  0  0  0  0  0  0  0  0  0
   11.6179   36.3072   30.4690 O   0  0  0  0  0  0  0  0  0  0  0  0
   14.4797   36.3309   33.5738 C   0  0  0  0  0  0  0  0  0  0  0  0
   13.1136   37.6269   34.5702 C   0  0  0  0  0  0  0  0  0  0  0  0
   15.2074   35.6152   32.6747 N   0  0  0  0  0  0  0  0  0  0  0  0
   14.6756   36.2298   34.9190 C   0  0  0  0  0  0  0  0  0  0  0  0
   13.8217   37.0445   35.5793 N   0  0  0  0  0  0  0  0  0  0  0  0
   16.1643   34.7603   33.1551 C   0  0  0  0  0  0  0  0  0  0  0  0
   15.6528   35.3503   35.4136 C   0  0  0  0  0  0  0  0  0  0  0  0
   16.3798   34.6316   34.5046 N   0  0  0  0  0  0  0  0  0  0  0  0
   15.9004   35.1930   36.8094 N   0  0  0  0  0  0  0  0  0  0  0  0
    9.0121   45.4319   33.6712 H   0  0  0  0  0  0  0  0  0  0  0  0
   10.7262   46.9688   33.1214 H   0  0  0  0  0  0  0  0  0  0  0  0
   11.8908   45.7658   32.9475 H   0  0  0  0  0  0  0  0  0  0  0  0
   10.7235   44.8825   31.1557 H   0  0  0  0  0  0  0  0  0  0  0  0
    9.3425   43.8331   31.4758 H   0  0  0  0  0  0  0  0  0  0  0  0
    7.0099   44.7155   31.5818 H   0  0  0  0  0  0  0  0  0  0  0  0
   10.3460   47.1865   30.4104 H   0  0  0  0  0  0  0  0  0  0  0  0
    5.4644   46.2883   30.5122 H   0  0  0  0  0  0  0  0  0  0  0  0
    8.7935   48.7709   29.3431 H   0  0  0  0  0  0  0  0  0  0  0  0
    4.4768   47.5571   28.6453 H   0  0  0  0  0  0  0  0  0  0  0  0
    4.3399   48.4360   30.2009 H   0  0  0  0  0  0  0  0  0  0  0  0
    3.1514   48.4999   26.9649 H   0  0  0  0  0  0  0  0  0  0  0  0
    4.1687   53.1538   28.4484 H   0  0  0  0  0  0  0  0  0  0  0  0
    0.8030   52.2474   25.2174 H   0  0  0  0  0  0  0  0  0  0  0  0
    2.3010   52.2451   24.1703 H   0  0  0  0  0  0  0  0  0  0  0  0
   11.3777   41.5549   31.4744 H   0  0  0  0  0  0  0  0  0  0  0  0
    9.8235   40.7202   31.7654 H   0  0  0  0  0  0  0  0  0  0  0  0
   11.7311   39.5363   30.3532 H   0  0  0  0  0  0  0  0  0  0  0  0
   10.1203   38.2696   32.6410 H   0  0  0  0  0  0  0  0  0  0  0  0
   13.6850   37.4638   31.2321 H   0  0  0  0  0  0  0  0  0  0  0  0
   10.0251   38.1793   29.7654 H   0  0  0  0  0  0  0  0  0  0  0  0
   11.2757   36.3135   32.4907 H   0  0  0  0  0  0  0  0  0  0  0  0
   11.9839   36.9111   29.7708 H   0  0  0  0  0  0  0  0  0  0  0  0
   12.3306   38.3536   34.7458 H   0  0  0  0  0  0  0  0  0  0  0  0
   16.7566   34.1787   32.4623 H   0  0  0  0  0  0  0  0  0  0  0  0
   15.3535   35.7355   37.5144 H   0  0  0  0  0  0  0  0  0  0  0  0
   16.6353   34.5301   37.1419 H   0  0  0  0  0  0  0  0  0  0  0  0
  1  2  2  0
  1  3  1  0
  3  4  1  0
  4  5  1  0
  6  1  1  0
  7  6  1  0
  6  8  1  0
  8  9  1  0
  9 10  2  0
 11  9  1  0
 10 12  1  0
 13 11  2  0
 12 14  2  0
 14 13  1  0
 14 15  1  0
 15 16  1  0
 16 17  1  0
 17 18  2  0
 19 17  1  0
 18 20  1  0
 21 19  2  0
 19 22  1  0
 20 23  1  0
 20 24  2  0
 24 21  1  0
 22 25  1  0
 22 26  2  0
 23 27  1  0
 24 28  1  0
 27 28  1  0
  4 29  2  0
  4 30  1  0
 31 30  1  0
 31 32  1  0
 32 33  1  0
 32 34  1  0
 33 35  1  0
 34 36  1  0
 34 37  1  0
 37 35  1  0
 35 38  1  0
 37 39  1  0
 40 38  1  0
 41 38  1  0
 42 40  2  0
 40 43  1  0
 44 41  2  0
 45 42  1  0
 43 46  2  0
 43 44  1  0
 47 45  2  0
 47 46  1  0
 46 48  1  0
  6 49  1  1
  7 50  1  0
  7 51  1  0
  8 52  1  0
  8 53  1  0
 10 54  1  0
 11 55  1  0
 12 56  1  0
 13 57  1  0
 16 58  1  0
 16 59  1  0
 18 60  1  0
 21 61  1  0
 27 62  1  0
 27 63  1  0
 31 64  1  0
 31 65  1  0
 32 66  1  0
 34 67  1  0
 35 68  1  0
 36 69  1  0
 37 70  1  0
 39 71  1  0
 41 72  1  0
 45 73  1  0
 48 74  1  0
 48 75  1  0
M  CHG  3   5  -1  22   1  25  -1
M  END
>  <EmbedRMS>  (239) 
0.080819883273

$$$$

     RDKit          3D

 75 80  0  0  0  0  0  0  0  0999 V2000
   10.2835   43.7661   33.8256 C   0  0  0  0  0  0  0  0  0  0  0  0
   11.4102   43.5930   34.3752 O   0  0  0  0  0  0  0  0  0  0  0  0
    9.3638   42.7255   33.7349 O   0  0  0  0  0  0  0  0  0  0  0  0
    9.8903   41.2267   34.2942 P   0  0  0  0  0  0  0  0  0  0  0  0
   10.3735   41.4561   35.8837 O   0  0  0  0  0  0  0  0  0  0  0  0
    9.9547   45.0694   33.2035 C   0  0  1  0  0  0  0  0  0  0  0  0
   11.0274   46.0321   33.4756 N   0  0  0  0  0  0  0  0  0  0  0  0
    9.7466   44.8481   31.6876 C   0  0  0  0  0  0  0  0  0  0  0  0
    8.7924   45.8408   31.0844 C   0  0  0  0  0  0  0  0  0  0  0  0
    7.4054   45.6015   31.0990 C   0  0  0  0  0  0  0  0  0  0  0  0
    9.2824   46.9879   30.4422 C   0  0  0  0  0  0  0  0  0  0  0  0
    6.5263   46.5031   30.4839 C   0  0  0  0  0  0  0  0  0  0  0  0
    8.4032   47.8902   29.8315 C   0  0  0  0  0  0  0  0  0  0  0  0
    7.0142   47.6528   29.8477 C   0  0  0  0  0  0  0  0  0  0  0  0
    6.0934   48.5249   29.2490 O   0  0  0  0  0  0  0  0  0  0  0  0
    6.4452   49.7273   28.5672 C   0  0  0  0  0  0  0  0  0  0  0  0
    5.2012   50.3794   28.0163 C   0  0  0  0  0  0  0  0  0  0  0  0
    4.3081   49.5804   27.2640 C   0  0  0  0  0  0  0  0  0  0  0  0
    4.8836   51.7563   28.2550 C   0  0  0  0  0  0  0  0  0  0  0  0
    3.1222   50.1513   26.8199 C   0  0  0  0  0  0  0  0  0  0  0  0
    3.6534   52.2786   27.7928 C   0  0  0  0  0  0  0  0  0  0  0  0
    5.8032   52.6355   28.9201 N   0  0  0  0  0  0  0  0  0  0  0  0
    2.1066   49.5645   26.0898 O   0  0  0  0  0  0  0  0  0  0  0  0
    2.8058   51.4414   27.0787 C   0  0  0  0  0  0  0  0  0  0  0  0
    7.1148   52.6949   28.5086 O   0  0  0  0  0  0  0  0  0  0  0  0
    5.3749   53.5142   29.6964 O   0  0  0  0  0  0  0  0  0  0  0  0
    1.0879   50.5514   25.8766 C   0  0  0  0  0  0  0  0  0  0  0  0
    1.5749   51.7349   26.5240 O   0  0  0  0  0  0  0  0  0  0  0  0
    8.8122   40.1850   34.2131 O   0  0  0  0  0  0  0  0  0  0  0  0
   11.2407   40.7939   33.3693 O   0  0  0  0  0  0  0  0  0  0  0  0
   10.9151   40.6905   31.9974 C   0  0  0  0  0  0  0  0  0  0  0  0
   11.5252   39.3886   31.4375 C   0  0  0  0  0  0  0  0  0  0  0  0
   12.7500   39.0874   32.0799 O   0  0  0  0  0  0  0  0  0  0  0  0
   10.6092   38.1926   31.6469 C   0  0  0  0  0  0  0  0  0  0  0  0
   12.9332   37.6793   32.0294 C   0  0  0  0  0  0  0  0  0  0  0  0
    9.6122   38.0895   30.6542 O   0  0  0  0  0  0  0  0  0  0  0  0
   11.5743   37.0145   31.7024 C   0  0  0  0  0  0  0  0  0  0  0  0
   13.4844   37.2108   33.3241 N   0  0  0  0  0  0  0  0  0  0  0  0
   11.6297   36.3239   30.4740 O   0  0  0  0  0  0  0  0  0  0  0  0
   14.4802   36.3313   33.5727 C   0  0  0  0  0  0  0  0  0  0  0  0
   13.1138   37.6267   34.5692 C   0  0  0  0  0  0  0  0  0  0  0  0
   15.2075   35.6149   32.6739 N   0  0  0  0  0  0  0  0  0  0  0  0
   14.6761   36.2303   34.9182 C   0  0  0  0  0  0  0  0  0  0  0  0
   13.8220   37.0447   35.5785 N   0  0  0  0  0  0  0  0  0  0  0  0
   16.1643   34.7600   33.1547 C   0  0  0  0  0  0  0  0  0  0  0  0
   15.6529   35.3505   35.4130 C   0  0  0  0  0  0  0  0  0  0  0  0
   16.3798   34.6315   34.5042 N   0  0  0  0  0  0  0  0  0  0  0  0
   15.9002   35.1932   36.8090 N   0  0  0  0  0  0  0  0  0  0  0  0
    9.0121   45.4317   33.6714 H   0  0  0  0  0  0  0  0  0  0  0  0
   11.8906   45.7658   32.9469 H   0  0  0  0  0  0  0  0  0  0  0  0
   10.7260   46.9687   33.1213 H   0  0  0  0  0  0  0  0  0  0  0  0
   10.7230   44.8814   31.1556 H   0  0  0  0  0  0  0  0  0  0  0  0
    9.3414   43.8329   31.4762 H   0  0  0  0  0  0  0  0  0  0  0  0
    7.0083   44.7166   31.5811 H   0  0  0  0  0  0  0  0  0  0  0  0
   10.3471   47.1849   30.4114 H   0  0  0  0  0  0  0  0  0  0  0  0
    5.4617   46.3071   30.5019 H   0  0  0  0  0  0  0  0  0  0  0  0
    8.8142   48.7655   29.3475 H   0  0  0  0  0  0  0  0  0  0  0  0
    7.1235   49.4890   27.7197 H   0  0  0  0  0  0  0  0  0  0  0  0
    6.9752   50.3881   29.2811 H   0  0  0  0  0  0  0  0  0  0  0  0
    4.5228   48.5407   27.0505 H   0  0  0  0  0  0  0  0  0  0  0  0
    3.3819   53.3131   27.9594 H   0  0  0  0  0  0  0  0  0  0  0  0
    0.9539   50.7365   24.7902 H   0  0  0  0  0  0  0  0  0  0  0  0
    0.1340   50.2253   26.3416 H   0  0  0  0  0  0  0  0  0  0  0  0
    9.8242   40.7215   31.7643 H   0  0  0  0  0  0  0  0  0  0  0  0
   11.3801   41.5529   31.4733 H   0  0  0  0  0  0  0  0  0  0  0  0
   11.7266   39.5311   30.3513 H   0  0  0  0  0  0  0  0  0  0  0  0
   10.1110   38.2747   32.6387 H   0  0  0  0  0  0  0  0  0  0  0  0
   13.6652   37.4519   31.2226 H   0  0  0  0  0  0  0  0  0  0  0  0
   10.0512   38.1144   29.7645 H   0  0  0  0  0  0  0  0  0  0  0  0
   11.2762   36.3141   32.5189 H   0  0  0  0  0  0  0  0  0  0  0  0
   10.8593   35.6978   30.4640 H   0  0  0  0  0  0  0  0  0  0  0  0
   12.3294   38.3518   34.7449 H   0  0  0  0  0  0  0  0  0  0  0  0
   16.7564   34.1780   32.4620 H   0  0  0  0  0  0  0  0  0  0  0  0
   16.6348   34.5300   37.1416 H   0  0  0  0  0  0  0  0  0  0  0  0
   15.3534   35.7359   37.5138 H   0  0  0  0  0  0  0  0  0  0  0  0
  1  2  2  0
  1  3  1  0
  3  4  1  0
  4  5  1  0
  6  1  1  0
  7  6  1  0
  6  8  1  0
  8  9  1  0
  9 10  2  0
 11  9  1  0
 10 12  1  0
 13 11  2  0
 12 14  2  0
 14 13  1  0
 14 15  1  0
 15 16  1  0
 16 17  1  0
 17 18  2  0
 19 17  1  0
 18 20  1  0
 21 19  2  0
 19 22  1  0
 20 23  1  0
 20 24  2  0
 24 21  1  0
 22 25  1  0
 22 26  2  0
 23 27  1  0
 24 28  1  0
 27 28  1  0
  4 29  2  0
  4 30  1  0
 31 30  1  0
 31 32  1  0
 32 33  1  0
 32 34  1  0
 33 35  1  0
 34 36  1  0
 34 37  1  0
 37 35  1  0
 35 38  1  0
 37 39  1  0
 40 38  1  0
 41 38  1  0
 42 40  2  0
 40 43  1  0
 44 41  2  0
 45 42  1  0
 43 46  2  0
 43 44  1  0
 47 45  2  0
 47 46  1  0
 46 48  1  0
  6 49  1  1
  7 50  1  0
  7 51  1  0
  8 52  1  0
  8 53  1  0
 10 54  1  0
 11 55  1  0
 12 56  1  0
 13 57  1  0
 16 58  1  0
 16 59  1  0
 18 60  1  0
 21 61  1  0
 27 62  1  0
 27 63  1  0
 31 64  1  0
 31 65  1  0
 32 66  1  0
 34 67  1  0
 35 68  1  0
 36 69  1  0
 37 70  1  0
 39 71  1  0
 41 72  1  0
 45 73  1  0
 48 74  1  0
 48 75  1  0
M  CHG  3   5  -1  22   1  25  -1
M  END
>  <EmbedRMS>  (240) 
0.0818197008604

$$$$

     RDKit          3D

 75 80  0  0  0  0  0  0  0  0999 V2000
   10.2805   43.7664   33.8249 C   0  0  0  0  0  0  0  0  0  0  0  0
   11.4111   43.5918   34.3666 O   0  0  0  0  0  0  0  0  0  0  0  0
    9.3619   42.7249   33.7344 O   0  0  0  0  0  0  0  0  0  0  0  0
    9.8900   41.2266   34.2940 P   0  0  0  0  0  0  0  0  0  0  0  0
   10.3734   41.4567   35.8833 O   0  0  0  0  0  0  0  0  0  0  0  0
    9.9460   45.0736   33.2112 C   0  0  1  0  0  0  0  0  0  0  0  0
   11.0267   46.0292   33.4708 N   0  0  0  0  0  0  0  0  0  0  0  0
    9.7540   44.8542   31.6948 C   0  0  0  0  0  0  0  0  0  0  0  0
    8.7956   45.8412   31.0848 C   0  0  0  0  0  0  0  0  0  0  0  0
    7.4086   45.5999   31.1011 C   0  0  0  0  0  0  0  0  0  0  0  0
    9.2825   46.9881   30.4396 C   0  0  0  0  0  0  0  0  0  0  0  0
    6.5256   46.4989   30.4863 C   0  0  0  0  0  0  0  0  0  0  0  0
    8.3998   47.8877   29.8309 C   0  0  0  0  0  0  0  0  0  0  0  0
    7.0186   47.6543   29.8465 C   0  0  0  0  0  0  0  0  0  0  0  0
    6.1780   48.5863   29.2209 O   0  0  0  0  0  0  0  0  0  0  0  0
    4.7575   48.4840   29.1691 C   0  0  0  0  0  0  0  0  0  0  0  0
    4.1964   49.6784   28.4433 C   0  0  0  0  0  0  0  0  0  0  0  0
    3.8187   49.5223   27.0888 C   0  0  0  0  0  0  0  0  0  0  0  0
    4.0128   50.9484   29.0881 C   0  0  0  0  0  0  0  0  0  0  0  0
    3.2608   50.6084   26.4278 C   0  0  0  0  0  0  0  0  0  0  0  0
    3.4262   52.0132   28.3647 C   0  0  0  0  0  0  0  0  0  0  0  0
    4.3898   51.1721   30.4597 N   0  0  0  0  0  0  0  0  0  0  0  0
    2.8198   50.6845   25.1207 O   0  0  0  0  0  0  0  0  0  0  0  0
    3.0704   51.7999   27.0393 C   0  0  0  0  0  0  0  0  0  0  0  0
    3.7314   52.1229   31.2055 O   0  0  0  0  0  0  0  0  0  0  0  0
    5.4100   50.6375   30.9395 O   0  0  0  0  0  0  0  0  0  0  0  0
    2.3208   52.0106   24.8988 C   0  0  0  0  0  0  0  0  0  0  0  0
    2.4996   52.6895   26.1494 O   0  0  0  0  0  0  0  0  0  0  0  0
    8.8123   40.1844   34.2133 O   0  0  0  0  0  0  0  0  0  0  0  0
   11.2405   40.7942   33.3692 O   0  0  0  0  0  0  0  0  0  0  0  0
   10.9150   40.6905   31.9972 C   0  0  0  0  0  0  0  0  0  0  0  0
   11.5252   39.3886   31.4375 C   0  0  0  0  0  0  0  0  0  0  0  0
   12.7499   39.0874   32.0799 O   0  0  0  0  0  0  0  0  0  0  0  0
   10.6092   38.1926   31.6470 C   0  0  0  0  0  0  0  0  0  0  0  0
   12.9332   37.6793   32.0294 C   0  0  0  0  0  0  0  0  0  0  0  0
    9.6122   38.0894   30.6543 O   0  0  0  0  0  0  0  0  0  0  0  0
   11.5743   37.0145   31.7024 C   0  0  0  0  0  0  0  0  0  0  0  0
   13.4844   37.2108   33.3241 N   0  0  0  0  0  0  0  0  0  0  0  0
   11.6297   36.3239   30.4740 O   0  0  0  0  0  0  0  0  0  0  0  0
   14.4802   36.3313   33.5727 C   0  0  0  0  0  0  0  0  0  0  0  0
   13.1138   37.6267   34.5693 C   0  0  0  0  0  0  0  0  0  0  0  0
   15.2075   35.6149   32.6739 N   0  0  0  0  0  0  0  0  0  0  0  0
   14.6761   36.2303   34.9182 C   0  0  0  0  0  0  0  0  0  0  0  0
   13.8220   37.0447   35.5785 N   0  0  0  0  0  0  0  0  0  0  0  0
   16.1643   34.7600   33.1547 C   0  0  0  0  0  0  0  0  0  0  0  0
   15.6529   35.3505   35.4130 C   0  0  0  0  0  0  0  0  0  0  0  0
   16.3798   34.6315   34.5042 N   0  0  0  0  0  0  0  0  0  0  0  0
   15.9003   35.1932   36.8090 N   0  0  0  0  0  0  0  0  0  0  0  0
    8.9996   45.4381   33.6722 H   0  0  0  0  0  0  0  0  0  0  0  0
   10.7765   46.9369   33.0159 H   0  0  0  0  0  0  0  0  0  0  0  0
   11.0502   46.2277   34.4982 H   0  0  0  0  0  0  0  0  0  0  0  0
   10.7411   44.9080   31.1835 H   0  0  0  0  0  0  0  0  0  0  0  0
    9.3646   43.8354   31.4710 H   0  0  0  0  0  0  0  0  0  0  0  0
    7.0146   44.7150   31.5857 H   0  0  0  0  0  0  0  0  0  0  0  0
   10.3463   47.1879   30.4055 H   0  0  0  0  0  0  0  0  0  0  0  0
    5.4660   46.2853   30.5153 H   0  0  0  0  0  0  0  0  0  0  0  0
    8.7916   48.7699   29.3405 H   0  0  0  0  0  0  0  0  0  0  0  0
    4.4806   47.5450   28.6411 H   0  0  0  0  0  0  0  0  0  0  0  0
    4.3308   48.4276   30.1935 H   0  0  0  0  0  0  0  0  0  0  0  0
    3.9491   48.5819   26.5681 H   0  0  0  0  0  0  0  0  0  0  0  0
    3.2674   52.9838   28.8164 H   0  0  0  0  0  0  0  0  0  0  0  0
    1.2436   51.9761   24.6321 H   0  0  0  0  0  0  0  0  0  0  0  0
    2.9082   52.5138   24.1023 H   0  0  0  0  0  0  0  0  0  0  0  0
   11.3801   41.5528   31.4730 H   0  0  0  0  0  0  0  0  0  0  0  0
    9.8242   40.7215   31.7641 H   0  0  0  0  0  0  0  0  0  0  0  0
   11.7266   39.5310   30.3513 H   0  0  0  0  0  0  0  0  0  0  0  0
   10.1110   38.2747   32.6387 H   0  0  0  0  0  0  0  0  0  0  0  0
   13.6652   37.4519   31.2226 H   0  0  0  0  0  0  0  0  0  0  0  0
   10.0511   38.1142   29.7645 H   0  0  0  0  0  0  0  0  0  0  0  0
   11.2762   36.3141   32.5190 H   0  0  0  0  0  0  0  0  0  0  0  0
   10.8593   35.6978   30.4640 H   0  0  0  0  0  0  0  0  0  0  0  0
   12.3295   38.3518   34.7449 H   0  0  0  0  0  0  0  0  0  0  0  0
   16.7564   34.1780   32.4620 H   0  0  0  0  0  0  0  0  0  0  0  0
   15.3534   35.7359   37.5138 H   0  0  0  0  0  0  0  0  0  0  0  0
   16.6349   34.5300   37.1415 H   0  0  0  0  0  0  0  0  0  0  0  0
  1  2  2  0
  1  3  1  0
  3  4  1  0
  4  5  1  0
  6  1  1  0
  7  6  1  0
  6  8  1  0
  8  9  1  0
  9 10  2  0
 11  9  1  0
 10 12  1  0
 13 11  2  0
 12 14  2  0
 14 13  1  0
 14 15  1  0
 15 16  1  0
 16 17  1  0
 17 18  2  0
 19 17  1  0
 18 20  1  0
 21 19  2  0
 19 22  1  0
 20 23  1  0
 20 24  2  0
 24 21  1  0
 22 25  1  0
 22 26  2  0
 23 27  1  0
 24 28  1  0
 27 28  1  0
  4 29  2  0
  4 30  1  0
 31 30  1  0
 31 32  1  0
 32 33  1  0
 32 34  1  0
 33 35  1  0
 34 36  1  0
 34 37  1  0
 37 35  1  0
 35 38  1  0
 37 39  1  0
 40 38  1  0
 41 38  1  0
 42 40  2  0
 40 43  1  0
 44 41  2  0
 45 42  1  0
 43 46  2  0
 43 44  1  0
 47 45  2  0
 47 46  1  0
 46 48  1  0
  6 49  1  1
  7 50  1  0
  7 51  1  0
  8 52  1  0
  8 53  1  0
 10 54  1  0
 11 55  1  0
 12 56  1  0
 13 57  1  0
 16 58  1  0
 16 59  1  0
 18 60  1  0
 21 61  1  0
 27 62  1  0
 27 63  1  0
 31 64  1  0
 31 65  1  0
 32 66  1  0
 34 67  1  0
 35 68  1  0
 36 69  1  0
 37 70  1  0
 39 71  1  0
 41 72  1  0
 45 73  1  0
 48 74  1  0
 48 75  1  0
M  CHG  3   5  -1  22   1  25  -1
M  END
>  <EmbedRMS>  (241) 
0.0816284873577

$$$$

     RDKit          3D

 75 80  0  0  0  0  0  0  0  0999 V2000
   10.2834   43.7662   33.8257 C   0  0  0  0  0  0  0  0  0  0  0  0
   11.4102   43.5930   34.3752 O   0  0  0  0  0  0  0  0  0  0  0  0
    9.3635   42.7257   33.7352 O   0  0  0  0  0  0  0  0  0  0  0  0
    9.8899   41.2270   34.2947 P   0  0  0  0  0  0  0  0  0  0  0  0
   10.3732   41.4563   35.8841 O   0  0  0  0  0  0  0  0  0  0  0  0
    9.9547   45.0696   33.2035 C   0  0  1  0  0  0  0  0  0  0  0  0
   11.0274   46.0322   33.4759 N   0  0  0  0  0  0  0  0  0  0  0  0
    9.7470   44.8484   31.6875 C   0  0  0  0  0  0  0  0  0  0  0  0
    8.7924   45.8409   31.0843 C   0  0  0  0  0  0  0  0  0  0  0  0
    7.4055   45.6009   31.0994 C   0  0  0  0  0  0  0  0  0  0  0  0
    9.2818   46.9880   30.4420 C   0  0  0  0  0  0  0  0  0  0  0  0
    6.5241   46.5011   30.4849 C   0  0  0  0  0  0  0  0  0  0  0  0
    8.4006   47.8885   29.8321 C   0  0  0  0  0  0  0  0  0  0  0  0
    7.0190   47.6562   29.8462 C   0  0  0  0  0  0  0  0  0  0  0  0
    6.1801   48.5893   29.2203 O   0  0  0  0  0  0  0  0  0  0  0  0
    4.7585   48.4933   29.1734 C   0  0  0  0  0  0  0  0  0  0  0  0
    4.1935   49.6996   28.4669 C   0  0  0  0  0  0  0  0  0  0  0  0
    3.4124   49.4938   27.3048 C   0  0  0  0  0  0  0  0  0  0  0  0
    4.4586   51.0396   28.9124 C   0  0  0  0  0  0  0  0  0  0  0  0
    2.9346   50.6045   26.6222 C   0  0  0  0  0  0  0  0  0  0  0  0
    3.9545   52.1302   28.1658 C   0  0  0  0  0  0  0  0  0  0  0  0
    5.2434   51.3148   30.0880 N   0  0  0  0  0  0  0  0  0  0  0  0
    2.1637   50.6423   25.4762 O   0  0  0  0  0  0  0  0  0  0  0  0
    3.1959   51.8664   27.0331 C   0  0  0  0  0  0  0  0  0  0  0  0
    5.9537   52.4898   30.1786 O   0  0  0  0  0  0  0  0  0  0  0  0
    5.1664   50.5838   31.0962 O   0  0  0  0  0  0  0  0  0  0  0  0
    1.9258   52.0181   25.1484 C   0  0  0  0  0  0  0  0  0  0  0  0
    2.6027   52.7657   26.1680 O   0  0  0  0  0  0  0  0  0  0  0  0
    8.8120   40.1850   34.2133 O   0  0  0  0  0  0  0  0  0  0  0  0
   11.2403   40.7947   33.3700 O   0  0  0  0  0  0  0  0  0  0  0  0
   10.9145   40.6914   31.9982 C   0  0  0  0  0  0  0  0  0  0  0  0
   11.5270   39.3912   31.4385 C   0  0  0  0  0  0  0  0  0  0  0  0
   12.7520   39.0911   32.0836 O   0  0  0  0  0  0  0  0  0  0  0  0
   10.6113   38.1932   31.6451 C   0  0  0  0  0  0  0  0  0  0  0  0
   12.9413   37.6838   32.0297 C   0  0  0  0  0  0  0  0  0  0  0  0
    9.6064   38.0878   30.6599 O   0  0  0  0  0  0  0  0  0  0  0  0
   11.5822   37.0198   31.6877 C   0  0  0  0  0  0  0  0  0  0  0  0
   13.4840   37.2104   33.3254 N   0  0  0  0  0  0  0  0  0  0  0  0
   11.6179   36.3072   30.4690 O   0  0  0  0  0  0  0  0  0  0  0  0
   14.4797   36.3309   33.5738 C   0  0  0  0  0  0  0  0  0  0  0  0
   13.1136   37.6269   34.5702 C   0  0  0  0  0  0  0  0  0  0  0  0
   15.2074   35.6152   32.6747 N   0  0  0  0  0  0  0  0  0  0  0  0
   14.6756   36.2298   34.9190 C   0  0  0  0  0  0  0  0  0  0  0  0
   13.8217   37.0445   35.5793 N   0  0  0  0  0  0  0  0  0  0  0  0
   16.1643   34.7603   33.1551 C   0  0  0  0  0  0  0  0  0  0  0  0
   15.6528   35.3503   35.4136 C   0  0  0  0  0  0  0  0  0  0  0  0
   16.3798   34.6316   34.5046 N   0  0  0  0  0  0  0  0  0  0  0  0
   15.9004   35.1930   36.8094 N   0  0  0  0  0  0  0  0  0  0  0  0
    9.0121   45.4318   33.6712 H   0  0  0  0  0  0  0  0  0  0  0  0
   10.7262   46.9688   33.1214 H   0  0  0  0  0  0  0  0  0  0  0  0
   11.8908   45.7658   32.9475 H   0  0  0  0  0  0  0  0  0  0  0  0
   10.7235   44.8824   31.1557 H   0  0  0  0  0  0  0  0  0  0  0  0
    9.3425   43.8331   31.4759 H   0  0  0  0  0  0  0  0  0  0  0  0
    7.0099   44.7155   31.5818 H   0  0  0  0  0  0  0  0  0  0  0  0
   10.3461   47.1864   30.4104 H   0  0  0  0  0  0  0  0  0  0  0  0
    5.4644   46.2884   30.5122 H   0  0  0  0  0  0  0  0  0  0  0  0
    8.7935   48.7709   29.3431 H   0  0  0  0  0  0  0  0  0  0  0  0
    4.4780   47.5565   28.6438 H   0  0  0  0  0  0  0  0  0  0  0  0
    4.3391   48.4352   30.1996 H   0  0  0  0  0  0  0  0  0  0  0  0
    3.1911   48.4999   26.9364 H   0  0  0  0  0  0  0  0  0  0  0  0
    4.1357   53.1537   28.4673 H   0  0  0  0  0  0  0  0  0  0  0  0
    2.3537   52.2549   24.1517 H   0  0  0  0  0  0  0  0  0  0  0  0
    0.8375   52.2360   25.1721 H   0  0  0  0  0  0  0  0  0  0  0  0
   11.3777   41.5549   31.4744 H   0  0  0  0  0  0  0  0  0  0  0  0
    9.8235   40.7201   31.7654 H   0  0  0  0  0  0  0  0  0  0  0  0
   11.7312   39.5363   30.3532 H   0  0  0  0  0  0  0  0  0  0  0  0
   10.1203   38.2696   32.6410 H   0  0  0  0  0  0  0  0  0  0  0  0
   13.6850   37.4639   31.2321 H   0  0  0  0  0  0  0  0  0  0  0  0
   10.0251   38.1792   29.7654 H   0  0  0  0  0  0  0  0  0  0  0  0
   11.2757   36.3135   32.4907 H   0  0  0  0  0  0  0  0  0  0  0  0
   11.9838   36.9111   29.7708 H   0  0  0  0  0  0  0  0  0  0  0  0
   12.3307   38.3536   34.7458 H   0  0  0  0  0  0  0  0  0  0  0  0
   16.7566   34.1787   32.4623 H   0  0  0  0  0  0  0  0  0  0  0  0
   16.6353   34.5301   37.1419 H   0  0  0  0  0  0  0  0  0  0  0  0
   15.3535   35.7355   37.5144 H   0  0  0  0  0  0  0  0  0  0  0  0
  1  2  2  0
  1  3  1  0
  3  4  1  0
  4  5  1  0
  6  1  1  0
  7  6  1  0
  6  8  1  0
  8  9  1  0
  9 10  2  0
 11  9  1  0
 10 12  1  0
 13 11  2  0
 12 14  2  0
 14 13  1  0
 14 15  1  0
 15 16  1  0
 16 17  1  0
 17 18  2  0
 19 17  1  0
 18 20  1  0
 21 19  2  0
 19 22  1  0
 20 23  1  0
 20 24  2  0
 24 21  1  0
 22 25  1  0
 22 26  2  0
 23 27  1  0
 24 28  1  0
 27 28  1  0
  4 29  2  0
  4 30  1  0
 31 30  1  0
 31 32  1  0
 32 33  1  0
 32 34  1  0
 33 35  1  0
 34 36  1  0
 34 37  1  0
 37 35  1  0
 35 38  1  0
 37 39  1  0
 40 38  1  0
 41 38  1  0
 42 40  2  0
 40 43  1  0
 44 41  2  0
 45 42  1  0
 43 46  2  0
 43 44  1  0
 47 45  2  0
 47 46  1  0
 46 48  1  0
  6 49  1  1
  7 50  1  0
  7 51  1  0
  8 52  1  0
  8 53  1  0
 10 54  1  0
 11 55  1  0
 12 56  1  0
 13 57  1  0
 16 58  1  0
 16 59  1  0
 18 60  1  0
 21 61  1  0
 27 62  1  0
 27 63  1  0
 31 64  1  0
 31 65  1  0
 32 66  1  0
 34 67  1  0
 35 68  1  0
 36 69  1  0
 37 70  1  0
 39 71  1  0
 41 72  1  0
 45 73  1  0
 48 74  1  0
 48 75  1  0
M  CHG  3   5  -1  22   1  25  -1
M  END
>  <EmbedRMS>  (242) 
0.080817924517

$$$$

     RDKit          3D

 75 80  0  0  0  0  0  0  0  0999 V2000
   10.2802   43.7665   33.8250 C   0  0  0  0  0  0  0  0  0  0  0  0
   11.4110   43.5919   34.3666 O   0  0  0  0  0  0  0  0  0  0  0  0
    9.3616   42.7252   33.7348 O   0  0  0  0  0  0  0  0  0  0  0  0
    9.8896   41.2269   34.2945 P   0  0  0  0  0  0  0  0  0  0  0  0
   10.3731   41.4569   35.8837 O   0  0  0  0  0  0  0  0  0  0  0  0
    9.9458   45.0737   33.2111 C   0  0  1  0  0  0  0  0  0  0  0  0
   11.0265   46.0293   33.4708 N   0  0  0  0  0  0  0  0  0  0  0  0
    9.7541   44.8541   31.6947 C   0  0  0  0  0  0  0  0  0  0  0  0
    8.7958   45.8408   31.0841 C   0  0  0  0  0  0  0  0  0  0  0  0
    7.4089   45.6000   31.1014 C   0  0  0  0  0  0  0  0  0  0  0  0
    9.2824   46.9879   30.4394 C   0  0  0  0  0  0  0  0  0  0  0  0
    6.5258   46.4989   30.4871 C   0  0  0  0  0  0  0  0  0  0  0  0
    8.3997   47.8879   29.8316 C   0  0  0  0  0  0  0  0  0  0  0  0
    7.0185   47.6544   29.8458 C   0  0  0  0  0  0  0  0  0  0  0  0
    6.1776   48.5947   29.2259 O   0  0  0  0  0  0  0  0  0  0  0  0
    4.7623   48.4602   29.0731 C   0  0  0  0  0  0  0  0  0  0  0  0
    3.9849   48.8324   30.3234 C   0  0  0  0  0  0  0  0  0  0  0  0
    4.6661   49.2428   31.4996 C   0  0  0  0  0  0  0  0  0  0  0  0
    2.5489   48.8426   30.3115 C   0  0  0  0  0  0  0  0  0  0  0  0
    3.9168   49.6221   32.6050 C   0  0  0  0  0  0  0  0  0  0  0  0
    1.8421   49.2527   31.4663 C   0  0  0  0  0  0  0  0  0  0  0  0
    1.7988   48.4780   29.1390 N   0  0  0  0  0  0  0  0  0  0  0  0
    4.3655   50.0465   33.8410 O   0  0  0  0  0  0  0  0  0  0  0  0
    2.5653   49.6266   32.5894 C   0  0  0  0  0  0  0  0  0  0  0  0
    2.1360   47.3637   28.4075 O   0  0  0  0  0  0  0  0  0  0  0  0
    0.7241   49.0593   28.8821 O   0  0  0  0  0  0  0  0  0  0  0  0
    3.2190   50.3326   34.6536 C   0  0  0  0  0  0  0  0  0  0  0  0
    2.0900   50.0516   33.8152 O   0  0  0  0  0  0  0  0  0  0  0  0
    8.8122   40.1844   34.2135 O   0  0  0  0  0  0  0  0  0  0  0  0
   11.2401   40.7950   33.3698 O   0  0  0  0  0  0  0  0  0  0  0  0
   10.9143   40.6914   31.9981 C   0  0  0  0  0  0  0  0  0  0  0  0
   11.5269   39.3911   31.4385 C   0  0  0  0  0  0  0  0  0  0  0  0
   12.7519   39.0911   32.0837 O   0  0  0  0  0  0  0  0  0  0  0  0
   10.6113   38.1932   31.6451 C   0  0  0  0  0  0  0  0  0  0  0  0
   12.9413   37.6838   32.0297 C   0  0  0  0  0  0  0  0  0  0  0  0
    9.6064   38.0877   30.6599 O   0  0  0  0  0  0  0  0  0  0  0  0
   11.5822   37.0197   31.6877 C   0  0  0  0  0  0  0  0  0  0  0  0
   13.4840   37.2104   33.3254 N   0  0  0  0  0  0  0  0  0  0  0  0
   11.6179   36.3072   30.4690 O   0  0  0  0  0  0  0  0  0  0  0  0
   14.4797   36.3309   33.5738 C   0  0  0  0  0  0  0  0  0  0  0  0
   13.1136   37.6269   34.5702 C   0  0  0  0  0  0  0  0  0  0  0  0
   15.2074   35.6152   32.6747 N   0  0  0  0  0  0  0  0  0  0  0  0
   14.6756   36.2298   34.9190 C   0  0  0  0  0  0  0  0  0  0  0  0
   13.8217   37.0445   35.5793 N   0  0  0  0  0  0  0  0  0  0  0  0
   16.1643   34.7603   33.1551 C   0  0  0  0  0  0  0  0  0  0  0  0
   15.6528   35.3503   35.4136 C   0  0  0  0  0  0  0  0  0  0  0  0
   16.3798   34.6316   34.5046 N   0  0  0  0  0  0  0  0  0  0  0  0
   15.9004   35.1930   36.8094 N   0  0  0  0  0  0  0  0  0  0  0  0
    8.9993   45.4383   33.6718 H   0  0  0  0  0  0  0  0  0  0  0  0
   11.0499   46.2279   34.4982 H   0  0  0  0  0  0  0  0  0  0  0  0
   10.7763   46.9370   33.0158 H   0  0  0  0  0  0  0  0  0  0  0  0
   10.7413   44.9079   31.1836 H   0  0  0  0  0  0  0  0  0  0  0  0
    9.3648   43.8353   31.4710 H   0  0  0  0  0  0  0  0  0  0  0  0
    7.0146   44.7172   31.5897 H   0  0  0  0  0  0  0  0  0  0  0  0
   10.3463   47.1881   30.4058 H   0  0  0  0  0  0  0  0  0  0  0  0
    5.4660   46.2913   30.5315 H   0  0  0  0  0  0  0  0  0  0  0  0
    8.7915   48.7712   29.3434 H   0  0  0  0  0  0  0  0  0  0  0  0
    4.4449   49.1408   28.2554 H   0  0  0  0  0  0  0  0  0  0  0  0
    4.5299   47.4242   28.7543 H   0  0  0  0  0  0  0  0  0  0  0  0
    5.7437   49.2865   31.5626 H   0  0  0  0  0  0  0  0  0  0  0  0
    0.7601   49.2712   31.4885 H   0  0  0  0  0  0  0  0  0  0  0  0
    3.2068   49.6730   35.5465 H   0  0  0  0  0  0  0  0  0  0  0  0
    3.2175   51.4017   34.9528 H   0  0  0  0  0  0  0  0  0  0  0  0
    9.8233   40.7200   31.7652 H   0  0  0  0  0  0  0  0  0  0  0  0
   11.3775   41.5548   31.4741 H   0  0  0  0  0  0  0  0  0  0  0  0
   11.7312   39.5361   30.3532 H   0  0  0  0  0  0  0  0  0  0  0  0
   10.1202   38.2696   32.6410 H   0  0  0  0  0  0  0  0  0  0  0  0
   13.6850   37.4639   31.2321 H   0  0  0  0  0  0  0  0  0  0  0  0
   10.0250   38.1792   29.7654 H   0  0  0  0  0  0  0  0  0  0  0  0
   11.2757   36.3135   32.4907 H   0  0  0  0  0  0  0  0  0  0  0  0
   11.9839   36.9111   29.7708 H   0  0  0  0  0  0  0  0  0  0  0  0
   12.3307   38.3536   34.7458 H   0  0  0  0  0  0  0  0  0  0  0  0
   16.7566   34.1787   32.4623 H   0  0  0  0  0  0  0  0  0  0  0  0
   16.6353   34.5301   37.1419 H   0  0  0  0  0  0  0  0  0  0  0  0
   15.3535   35.7355   37.5144 H   0  0  0  0  0  0  0  0  0  0  0  0
  1  2  2  0
  1  3  1  0
  3  4  1  0
  4  5  1  0
  6  1  1  0
  7  6  1  0
  6  8  1  0
  8  9  1  0
  9 10  2  0
 11  9  1  0
 10 12  1  0
 13 11  2  0
 12 14  2  0
 14 13  1  0
 14 15  1  0
 15 16  1  0
 16 17  1  0
 17 18  2  0
 19 17  1  0
 18 20  1  0
 21 19  2  0
 19 22  1  0
 20 23  1  0
 20 24  2  0
 24 21  1  0
 22 25  1  0
 22 26  2  0
 23 27  1  0
 24 28  1  0
 27 28  1  0
  4 29  2  0
  4 30  1  0
 31 30  1  0
 31 32  1  0
 32 33  1  0
 32 34  1  0
 33 35  1  0
 34 36  1  0
 34 37  1  0
 37 35  1  0
 35 38  1  0
 37 39  1  0
 40 38  1  0
 41 38  1  0
 42 40  2  0
 40 43  1  0
 44 41  2  0
 45 42  1  0
 43 46  2  0
 43 44  1  0
 47 45  2  0
 47 46  1  0
 46 48  1  0
  6 49  1  1
  7 50  1  0
  7 51  1  0
  8 52  1  0
  8 53  1  0
 10 54  1  0
 11 55  1  0
 12 56  1  0
 13 57  1  0
 16 58  1  0
 16 59  1  0
 18 60  1  0
 21 61  1  0
 27 62  1  0
 27 63  1  0
 31 64  1  0
 31 65  1  0
 32 66  1  0
 34 67  1  0
 35 68  1  0
 36 69  1  0
 37 70  1  0
 39 71  1  0
 41 72  1  0
 45 73  1  0
 48 74  1  0
 48 75  1  0
M  CHG  3   5  -1  22   1  25  -1
M  END
>  <EmbedRMS>  (243) 
0.0806517102531

$$$$

     RDKit          3D

 75 80  0  0  0  0  0  0  0  0999 V2000
   10.2838   43.7626   33.8277 C   0  0  0  0  0  0  0  0  0  0  0  0
   11.4104   43.5863   34.3767 O   0  0  0  0  0  0  0  0  0  0  0  0
    9.3631   42.7235   33.7356 O   0  0  0  0  0  0  0  0  0  0  0  0
    9.8895   41.2249   34.2948 P   0  0  0  0  0  0  0  0  0  0  0  0
   10.3719   41.4546   35.8844 O   0  0  0  0  0  0  0  0  0  0  0  0
    9.9547   45.0699   33.2066 C   0  0  1  0  0  0  0  0  0  0  0  0
   11.0197   46.0481   33.4568 N   0  0  0  0  0  0  0  0  0  0  0  0
    9.7497   44.8507   31.6927 C   0  0  0  0  0  0  0  0  0  0  0  0
    8.7940   45.8420   31.0878 C   0  0  0  0  0  0  0  0  0  0  0  0
    7.4073   45.6006   31.0991 C   0  0  0  0  0  0  0  0  0  0  0  0
    9.2832   46.9878   30.4433 C   0  0  0  0  0  0  0  0  0  0  0  0
    6.5284   46.5016   30.4826 C   0  0  0  0  0  0  0  0  0  0  0  0
    8.4038   47.8880   29.8299 C   0  0  0  0  0  0  0  0  0  0  0  0
    7.0148   47.6555   29.8526 C   0  0  0  0  0  0  0  0  0  0  0  0
    6.0876   48.5282   29.2618 O   0  0  0  0  0  0  0  0  0  0  0  0
    6.3511   49.8669   28.8385 C   0  0  0  0  0  0  0  0  0  0  0  0
    6.5640   50.7784   30.0261 C   0  0  0  0  0  0  0  0  0  0  0  0
    7.8602   51.3064   30.2398 C   0  0  0  0  0  0  0  0  0  0  0  0
    5.4915   51.1655   30.9035 C   0  0  0  0  0  0  0  0  0  0  0  0
    8.0612   52.1619   31.3138 C   0  0  0  0  0  0  0  0  0  0  0  0
    5.7606   52.0496   31.9753 C   0  0  0  0  0  0  0  0  0  0  0  0
    4.1325   50.7284   30.7043 N   0  0  0  0  0  0  0  0  0  0  0  0
    9.2309   52.7800   31.7121 O   0  0  0  0  0  0  0  0  0  0  0  0
    7.0568   52.5158   32.1461 C   0  0  0  0  0  0  0  0  0  0  0  0
    3.0903   51.5076   31.1523 O   0  0  0  0  0  0  0  0  0  0  0  0
    3.8762   49.5926   30.2574 O   0  0  0  0  0  0  0  0  0  0  0  0
    8.9400   53.5712   32.8723 C   0  0  0  0  0  0  0  0  0  0  0  0
    7.5403   53.3743   33.1148 O   0  0  0  0  0  0  0  0  0  0  0  0
    8.8118   40.1830   34.2124 O   0  0  0  0  0  0  0  0  0  0  0  0
   11.2411   40.7939   33.3709 O   0  0  0  0  0  0  0  0  0  0  0  0
   10.9178   40.6919   31.9985 C   0  0  0  0  0  0  0  0  0  0  0  0
   11.5176   39.3837   31.4422 C   0  0  0  0  0  0  0  0  0  0  0  0
   12.7508   39.0887   32.0752 O   0  0  0  0  0  0  0  0  0  0  0  0
   10.6028   38.1915   31.6658 C   0  0  0  0  0  0  0  0  0  0  0  0
   12.9385   37.6818   32.0278 C   0  0  0  0  0  0  0  0  0  0  0  0
    9.6373   38.0805   30.6469 O   0  0  0  0  0  0  0  0  0  0  0  0
   11.5780   37.0215   31.6934 C   0  0  0  0  0  0  0  0  0  0  0  0
   13.4844   37.2120   33.3242 N   0  0  0  0  0  0  0  0  0  0  0  0
   11.6096   36.3201   30.4678 O   0  0  0  0  0  0  0  0  0  0  0  0
   14.4797   36.3318   33.5730 C   0  0  0  0  0  0  0  0  0  0  0  0
   13.1135   37.6278   34.5691 C   0  0  0  0  0  0  0  0  0  0  0  0
   15.2073   35.6156   32.6743 N   0  0  0  0  0  0  0  0  0  0  0  0
   14.6754   36.2305   34.9184 C   0  0  0  0  0  0  0  0  0  0  0  0
   13.8213   37.0452   35.5785 N   0  0  0  0  0  0  0  0  0  0  0  0
   16.1641   34.7605   33.1549 C   0  0  0  0  0  0  0  0  0  0  0  0
   15.6525   35.3508   35.4133 C   0  0  0  0  0  0  0  0  0  0  0  0
   16.3795   34.6319   34.5044 N   0  0  0  0  0  0  0  0  0  0  0  0
   15.8999   35.1935   36.8092 N   0  0  0  0  0  0  0  0  0  0  0  0
    9.0098   45.4348   33.6675 H   0  0  0  0  0  0  0  0  0  0  0  0
   11.1135   46.1992   34.4881 H   0  0  0  0  0  0  0  0  0  0  0  0
   11.9347   45.6932   33.0924 H   0  0  0  0  0  0  0  0  0  0  0  0
    9.3501   43.8343   31.4767 H   0  0  0  0  0  0  0  0  0  0  0  0
   10.7300   44.8918   31.1677 H   0  0  0  0  0  0  0  0  0  0  0  0
    7.0105   44.7152   31.5803 H   0  0  0  0  0  0  0  0  0  0  0  0
   10.3481   47.1826   30.4080 H   0  0  0  0  0  0  0  0  0  0  0  0
    5.4638   46.3055   30.5013 H   0  0  0  0  0  0  0  0  0  0  0  0
    8.8195   48.7445   29.3237 H   0  0  0  0  0  0  0  0  0  0  0  0
    5.4843   50.2371   28.2522 H   0  0  0  0  0  0  0  0  0  0  0  0
    7.2168   49.8791   28.1421 H   0  0  0  0  0  0  0  0  0  0  0  0
    8.6877   51.0700   29.5842 H   0  0  0  0  0  0  0  0  0  0  0  0
    4.9823   52.3630   32.6589 H   0  0  0  0  0  0  0  0  0  0  0  0
    9.5333   53.2134   33.7398 H   0  0  0  0  0  0  0  0  0  0  0  0
    9.1465   54.6428   32.6681 H   0  0  0  0  0  0  0  0  0  0  0  0
   11.3955   41.5476   31.4751 H   0  0  0  0  0  0  0  0  0  0  0  0
    9.8291   40.7407   31.7624 H   0  0  0  0  0  0  0  0  0  0  0  0
   11.6982   39.5116   30.3500 H   0  0  0  0  0  0  0  0  0  0  0  0
   10.1117   38.2602   32.6659 H   0  0  0  0  0  0  0  0  0  0  0  0
   13.6767   37.4554   31.2268 H   0  0  0  0  0  0  0  0  0  0  0  0
    8.8962   38.6949   30.8871 H   0  0  0  0  0  0  0  0  0  0  0  0
   11.2792   36.3071   32.4921 H   0  0  0  0  0  0  0  0  0  0  0  0
   11.8830   36.9597   29.7588 H   0  0  0  0  0  0  0  0  0  0  0  0
   12.3299   38.3539   34.7445 H   0  0  0  0  0  0  0  0  0  0  0  0
   16.7562   34.1786   32.4621 H   0  0  0  0  0  0  0  0  0  0  0  0
   16.6346   34.5305   37.1418 H   0  0  0  0  0  0  0  0  0  0  0  0
   15.3530   35.7362   37.5140 H   0  0  0  0  0  0  0  0  0  0  0  0
  1  2  2  0
  1  3  1  0
  3  4  1  0
  4  5  1  0
  6  1  1  0
  7  6  1  0
  6  8  1  0
  8  9  1  0
  9 10  2  0
 11  9  1  0
 10 12  1  0
 13 11  2  0
 12 14  2  0
 14 13  1  0
 14 15  1  0
 15 16  1  0
 16 17  1  0
 17 18  2  0
 19 17  1  0
 18 20  1  0
 21 19  2  0
 19 22  1  0
 20 23  1  0
 20 24  2  0
 24 21  1  0
 22 25  1  0
 22 26  2  0
 23 27  1  0
 24 28  1  0
 27 28  1  0
  4 29  2  0
  4 30  1  0
 31 30  1  0
 31 32  1  0
 32 33  1  0
 32 34  1  0
 33 35  1  0
 34 36  1  0
 34 37  1  0
 37 35  1  0
 35 38  1  0
 37 39  1  0
 40 38  1  0
 41 38  1  0
 42 40  2  0
 40 43  1  0
 44 41  2  0
 45 42  1  0
 43 46  2  0
 43 44  1  0
 47 45  2  0
 47 46  1  0
 46 48  1  0
  6 49  1  1
  7 50  1  0
  7 51  1  0
  8 52  1  0
  8 53  1  0
 10 54  1  0
 11 55  1  0
 12 56  1  0
 13 57  1  0
 16 58  1  0
 16 59  1  0
 18 60  1  0
 21 61  1  0
 27 62  1  0
 27 63  1  0
 31 64  1  0
 31 65  1  0
 32 66  1  0
 34 67  1  0
 35 68  1  0
 36 69  1  0
 37 70  1  0
 39 71  1  0
 41 72  1  0
 45 73  1  0
 48 74  1  0
 48 75  1  0
M  CHG  3   5  -1  22   1  25  -1
M  END
>  <EmbedRMS>  (244) 
0.0828757828732

$$$$

     RDKit          3D

 75 80  0  0  0  0  0  0  0  0999 V2000
   10.2801   43.7672   33.8252 C   0  0  0  0  0  0  0  0  0  0  0  0
   11.4102   43.5927   34.3679 O   0  0  0  0  0  0  0  0  0  0  0  0
    9.3613   42.7259   33.7346 O   0  0  0  0  0  0  0  0  0  0  0  0
    9.8903   41.2276   34.2934 P   0  0  0  0  0  0  0  0  0  0  0  0
   10.3758   41.4569   35.8821 O   0  0  0  0  0  0  0  0  0  0  0  0
    9.9467   45.0742   33.2107 C   0  0  1  0  0  0  0  0  0  0  0  0
   11.0271   46.0303   33.4715 N   0  0  0  0  0  0  0  0  0  0  0  0
    9.7559   44.8544   31.6942 C   0  0  0  0  0  0  0  0  0  0  0  0
    8.7967   45.8404   31.0832 C   0  0  0  0  0  0  0  0  0  0  0  0
    7.4104   45.5947   31.0936 C   0  0  0  0  0  0  0  0  0  0  0  0
    9.2827   46.9890   30.4392 C   0  0  0  0  0  0  0  0  0  0  0  0
    6.5292   46.4935   30.4775 C   0  0  0  0  0  0  0  0  0  0  0  0
    8.3998   47.8929   29.8357 C   0  0  0  0  0  0  0  0  0  0  0  0
    7.0122   47.6541   29.8576 C   0  0  0  0  0  0  0  0  0  0  0  0
    6.0829   48.5428   29.2945 O   0  0  0  0  0  0  0  0  0  0  0  0
    6.3536   49.9021   28.9456 C   0  0  0  0  0  0  0  0  0  0  0  0
    6.7130   50.7177   30.1718 C   0  0  0  0  0  0  0  0  0  0  0  0
    5.9741   50.4877   31.3596 C   0  0  0  0  0  0  0  0  0  0  0  0
    7.6983   51.7622   30.1522 C   0  0  0  0  0  0  0  0  0  0  0  0
    6.2527   51.2614   32.4788 C   0  0  0  0  0  0  0  0  0  0  0  0
    7.9192   52.5336   31.3177 C   0  0  0  0  0  0  0  0  0  0  0  0
    8.4504   52.0852   28.9712 N   0  0  0  0  0  0  0  0  0  0  0  0
    5.6808   51.1936   33.7350 O   0  0  0  0  0  0  0  0  0  0  0  0
    7.1829   52.2431   32.4578 C   0  0  0  0  0  0  0  0  0  0  0  0
    8.7340   53.4043   28.6894 O   0  0  0  0  0  0  0  0  0  0  0  0
    9.0876   51.1997   28.3670 O   0  0  0  0  0  0  0  0  0  0  0  0
    6.2956   52.1979   34.5560 C   0  0  0  0  0  0  0  0  0  0  0  0
    7.2455   52.8477   33.6994 O   0  0  0  0  0  0  0  0  0  0  0  0
    8.8130   40.1849   34.2130 O   0  0  0  0  0  0  0  0  0  0  0  0
   11.2403   40.7967   33.3673 O   0  0  0  0  0  0  0  0  0  0  0  0
   10.9120   40.6876   31.9964 C   0  0  0  0  0  0  0  0  0  0  0  0
   11.5168   39.3808   31.4423 C   0  0  0  0  0  0  0  0  0  0  0  0
   12.7497   39.0879   32.0763 O   0  0  0  0  0  0  0  0  0  0  0  0
   10.6045   38.1892   31.6676 C   0  0  0  0  0  0  0  0  0  0  0  0
   12.9392   37.6812   32.0282 C   0  0  0  0  0  0  0  0  0  0  0  0
    9.6350   38.0940   30.6523 O   0  0  0  0  0  0  0  0  0  0  0  0
   11.5803   37.0189   31.6945 C   0  0  0  0  0  0  0  0  0  0  0  0
   13.4843   37.2121   33.3246 N   0  0  0  0  0  0  0  0  0  0  0  0
   11.6127   36.3194   30.4677 O   0  0  0  0  0  0  0  0  0  0  0  0
   14.4799   36.3325   33.5730 C   0  0  0  0  0  0  0  0  0  0  0  0
   13.1129   37.6278   34.5698 C   0  0  0  0  0  0  0  0  0  0  0  0
   15.2067   35.6155   32.6739 N   0  0  0  0  0  0  0  0  0  0  0  0
   14.6758   36.2312   34.9185 C   0  0  0  0  0  0  0  0  0  0  0  0
   13.8209   37.0452   35.5787 N   0  0  0  0  0  0  0  0  0  0  0  0
   16.1630   34.7597   33.1546 C   0  0  0  0  0  0  0  0  0  0  0  0
   15.6527   35.3506   35.4130 C   0  0  0  0  0  0  0  0  0  0  0  0
   16.3789   34.6317   34.5038 N   0  0  0  0  0  0  0  0  0  0  0  0
   15.9004   35.1911   36.8089 N   0  0  0  0  0  0  0  0  0  0  0  0
    8.9995   45.4372   33.6707 H   0  0  0  0  0  0  0  0  0  0  0  0
   10.7768   46.9381   33.0169 H   0  0  0  0  0  0  0  0  0  0  0  0
   11.0504   46.2293   34.4990 H   0  0  0  0  0  0  0  0  0  0  0  0
    9.3677   43.8351   31.4715 H   0  0  0  0  0  0  0  0  0  0  0  0
   10.7434   44.9080   31.1832 H   0  0  0  0  0  0  0  0  0  0  0  0
    7.0149   44.7072   31.5726 H   0  0  0  0  0  0  0  0  0  0  0  0
   10.3472   47.1857   30.3997 H   0  0  0  0  0  0  0  0  0  0  0  0
    5.4654   46.2930   30.4957 H   0  0  0  0  0  0  0  0  0  0  0  0
    8.8056   48.7670   29.3489 H   0  0  0  0  0  0  0  0  0  0  0  0
    7.1174   49.9288   28.1483 H   0  0  0  0  0  0  0  0  0  0  0  0
    5.4268   50.3332   28.5125 H   0  0  0  0  0  0  0  0  0  0  0  0
    5.2043   49.7272   31.4112 H   0  0  0  0  0  0  0  0  0  0  0  0
    8.6547   53.3274   31.3365 H   0  0  0  0  0  0  0  0  0  0  0  0
    6.8167   51.7265   35.4151 H   0  0  0  0  0  0  0  0  0  0  0  0
    5.5350   52.9249   34.9077 H   0  0  0  0  0  0  0  0  0  0  0  0
    9.8210   40.7217   31.7646 H   0  0  0  0  0  0  0  0  0  0  0  0
   11.3784   41.5456   31.4669 H   0  0  0  0  0  0  0  0  0  0  0  0
   11.6990   39.5083   30.3503 H   0  0  0  0  0  0  0  0  0  0  0  0
   10.1129   38.2767   32.6658 H   0  0  0  0  0  0  0  0  0  0  0  0
   13.6775   37.4556   31.2264 H   0  0  0  0  0  0  0  0  0  0  0  0
    9.0019   37.3847   30.9374 H   0  0  0  0  0  0  0  0  0  0  0  0
   11.2795   36.3054   32.4940 H   0  0  0  0  0  0  0  0  0  0  0  0
   11.8808   36.9612   29.7581 H   0  0  0  0  0  0  0  0  0  0  0  0
   12.3309   38.3559   34.7466 H   0  0  0  0  0  0  0  0  0  0  0  0
   16.7562   34.1777   32.4630 H   0  0  0  0  0  0  0  0  0  0  0  0
   15.3559   35.7346   37.5143 H   0  0  0  0  0  0  0  0  0  0  0  0
   16.6366   34.5298   37.1426 H   0  0  0  0  0  0  0  0  0  0  0  0
  1  2  2  0
  1  3  1  0
  3  4  1  0
  4  5  1  0
  6  1  1  0
  7  6  1  0
  6  8  1  0
  8  9  1  0
  9 10  2  0
 11  9  1  0
 10 12  1  0
 13 11  2  0
 12 14  2  0
 14 13  1  0
 14 15  1  0
 15 16  1  0
 16 17  1  0
 17 18  2  0
 19 17  1  0
 18 20  1  0
 21 19  2  0
 19 22  1  0
 20 23  1  0
 20 24  2  0
 24 21  1  0
 22 25  1  0
 22 26  2  0
 23 27  1  0
 24 28  1  0
 27 28  1  0
  4 29  2  0
  4 30  1  0
 31 30  1  0
 31 32  1  0
 32 33  1  0
 32 34  1  0
 33 35  1  0
 34 36  1  0
 34 37  1  0
 37 35  1  0
 35 38  1  0
 37 39  1  0
 40 38  1  0
 41 38  1  0
 42 40  2  0
 40 43  1  0
 44 41  2  0
 45 42  1  0
 43 46  2  0
 43 44  1  0
 47 45  2  0
 47 46  1  0
 46 48  1  0
  6 49  1  1
  7 50  1  0
  7 51  1  0
  8 52  1  0
  8 53  1  0
 10 54  1  0
 11 55  1  0
 12 56  1  0
 13 57  1  0
 16 58  1  0
 16 59  1  0
 18 60  1  0
 21 61  1  0
 27 62  1  0
 27 63  1  0
 31 64  1  0
 31 65  1  0
 32 66  1  0
 34 67  1  0
 35 68  1  0
 36 69  1  0
 37 70  1  0
 39 71  1  0
 41 72  1  0
 45 73  1  0
 48 74  1  0
 48 75  1  0
M  CHG  3   5  -1  22   1  25  -1
M  END
>  <EmbedRMS>  (245) 
0.0814203923589

$$$$

     RDKit          3D

 75 80  0  0  0  0  0  0  0  0999 V2000
   10.2836   43.7661   33.8255 C   0  0  0  0  0  0  0  0  0  0  0  0
   11.4103   43.5930   34.3753 O   0  0  0  0  0  0  0  0  0  0  0  0
    9.3640   42.7253   33.7346 O   0  0  0  0  0  0  0  0  0  0  0  0
    9.8908   41.2265   34.2938 P   0  0  0  0  0  0  0  0  0  0  0  0
   10.3732   41.4559   35.8835 O   0  0  0  0  0  0  0  0  0  0  0  0
    9.9548   45.0694   33.2035 C   0  0  1  0  0  0  0  0  0  0  0  0
   11.0274   46.0322   33.4759 N   0  0  0  0  0  0  0  0  0  0  0  0
    9.7471   44.8484   31.6875 C   0  0  0  0  0  0  0  0  0  0  0  0
    8.7924   45.8409   31.0844 C   0  0  0  0  0  0  0  0  0  0  0  0
    7.4055   45.6009   31.0995 C   0  0  0  0  0  0  0  0  0  0  0  0
    9.2818   46.9881   30.4420 C   0  0  0  0  0  0  0  0  0  0  0  0
    6.5241   46.5011   30.4849 C   0  0  0  0  0  0  0  0  0  0  0  0
    8.4006   47.8886   29.8322 C   0  0  0  0  0  0  0  0  0  0  0  0
    7.0190   47.6561   29.8460 C   0  0  0  0  0  0  0  0  0  0  0  0
    6.1798   48.5881   29.2186 O   0  0  0  0  0  0  0  0  0  0  0  0
    4.7579   48.4820   29.1581 C   0  0  0  0  0  0  0  0  0  0  0  0
    4.1403   49.6482   28.4174 C   0  0  0  0  0  0  0  0  0  0  0  0
    4.9158   50.8051   28.1474 C   0  0  0  0  0  0  0  0  0  0  0  0
    2.7771   49.5973   27.9670 C   0  0  0  0  0  0  0  0  0  0  0  0
    4.3351   51.8397   27.4261 C   0  0  0  0  0  0  0  0  0  0  0  0
    2.2482   50.6783   27.2241 C   0  0  0  0  0  0  0  0  0  0  0  0
    1.9265   48.4675   28.2381 N   0  0  0  0  0  0  0  0  0  0  0  0
    4.8985   53.0428   27.0463 O   0  0  0  0  0  0  0  0  0  0  0  0
    3.0600   51.7774   26.9807 C   0  0  0  0  0  0  0  0  0  0  0  0
    0.8973   48.1613   27.3775 O   0  0  0  0  0  0  0  0  0  0  0  0
    1.9977   47.8596   29.3256 O   0  0  0  0  0  0  0  0  0  0  0  0
    3.9112   53.7821   26.3145 C   0  0  0  0  0  0  0  0  0  0  0  0
    2.7524   52.9376   26.2964 O   0  0  0  0  0  0  0  0  0  0  0  0
    8.8127   40.1848   34.2122 O   0  0  0  0  0  0  0  0  0  0  0  0
   11.2420   40.7941   33.3697 O   0  0  0  0  0  0  0  0  0  0  0  0
   10.9187   40.6911   31.9971 C   0  0  0  0  0  0  0  0  0  0  0  0
   11.5172   39.3815   31.4407 C   0  0  0  0  0  0  0  0  0  0  0  0
   12.7493   39.0855   32.0728 O   0  0  0  0  0  0  0  0  0  0  0  0
   10.6023   38.1908   31.6665 C   0  0  0  0  0  0  0  0  0  0  0  0
   12.9319   37.6781   32.0281 C   0  0  0  0  0  0  0  0  0  0  0  0
    9.6392   38.0798   30.6452 O   0  0  0  0  0  0  0  0  0  0  0  0
   11.5715   37.0165   31.7056 C   0  0  0  0  0  0  0  0  0  0  0  0
   13.4846   37.2121   33.3235 N   0  0  0  0  0  0  0  0  0  0  0  0
   11.6187   36.3384   30.4695 O   0  0  0  0  0  0  0  0  0  0  0  0
   14.4801   36.3321   33.5724 C   0  0  0  0  0  0  0  0  0  0  0  0
   13.1137   37.6275   34.5688 C   0  0  0  0  0  0  0  0  0  0  0  0
   15.2073   35.6153   32.6738 N   0  0  0  0  0  0  0  0  0  0  0  0
   14.6759   36.2308   34.9179 C   0  0  0  0  0  0  0  0  0  0  0  0
   13.8216   37.0452   35.5781 N   0  0  0  0  0  0  0  0  0  0  0  0
   16.1640   34.7602   33.1546 C   0  0  0  0  0  0  0  0  0  0  0  0
   15.6526   35.3508   35.4129 C   0  0  0  0  0  0  0  0  0  0  0  0
   16.3794   34.6317   34.5041 N   0  0  0  0  0  0  0  0  0  0  0  0
   15.8999   35.1935   36.8088 N   0  0  0  0  0  0  0  0  0  0  0  0
    9.0121   45.4316   33.6713 H   0  0  0  0  0  0  0  0  0  0  0  0
   11.8908   45.7659   32.9475 H   0  0  0  0  0  0  0  0  0  0  0  0
   10.7260   46.9688   33.1215 H   0  0  0  0  0  0  0  0  0  0  0  0
   10.7235   44.8824   31.1557 H   0  0  0  0  0  0  0  0  0  0  0  0
    9.3425   43.8331   31.4757 H   0  0  0  0  0  0  0  0  0  0  0  0
    7.0099   44.7156   31.5821 H   0  0  0  0  0  0  0  0  0  0  0  0
   10.3461   47.1864   30.4104 H   0  0  0  0  0  0  0  0  0  0  0  0
    5.4642   46.2888   30.5128 H   0  0  0  0  0  0  0  0  0  0  0  0
    8.7936   48.7707   29.3426 H   0  0  0  0  0  0  0  0  0  0  0  0
    4.5015   47.5405   28.6255 H   0  0  0  0  0  0  0  0  0  0  0  0
    4.3472   48.4545   30.1901 H   0  0  0  0  0  0  0  0  0  0  0  0
    5.9404   50.9035   28.4806 H   0  0  0  0  0  0  0  0  0  0  0  0
    1.2276   50.6712   26.8639 H   0  0  0  0  0  0  0  0  0  0  0  0
    4.2632   53.9721   25.2789 H   0  0  0  0  0  0  0  0  0  0  0  0
    3.6822   54.7359   26.8344 H   0  0  0  0  0  0  0  0  0  0  0  0
    9.8300   40.7410   31.7613 H   0  0  0  0  0  0  0  0  0  0  0  0
   11.3968   41.5460   31.4729 H   0  0  0  0  0  0  0  0  0  0  0  0
   11.6975   39.5067   30.3481 H   0  0  0  0  0  0  0  0  0  0  0  0
   10.1076   38.2648   32.6645 H   0  0  0  0  0  0  0  0  0  0  0  0
   13.6621   37.4467   31.2209 H   0  0  0  0  0  0  0  0  0  0  0  0
    8.8975   38.6944   30.8831 H   0  0  0  0  0  0  0  0  0  0  0  0
   11.2806   36.3073   32.5170 H   0  0  0  0  0  0  0  0  0  0  0  0
   10.8492   35.7110   30.4586 H   0  0  0  0  0  0  0  0  0  0  0  0
   12.3290   38.3524   34.7444 H   0  0  0  0  0  0  0  0  0  0  0  0
   16.7559   34.1780   32.4619 H   0  0  0  0  0  0  0  0  0  0  0  0
   16.6344   34.5301   37.1414 H   0  0  0  0  0  0  0  0  0  0  0  0
   15.3531   35.7362   37.5137 H   0  0  0  0  0  0  0  0  0  0  0  0
  1  2  2  0
  1  3  1  0
  3  4  1  0
  4  5  1  0
  6  1  1  0
  7  6  1  0
  6  8  1  0
  8  9  1  0
  9 10  2  0
 11  9  1  0
 10 12  1  0
 13 11  2  0
 12 14  2  0
 14 13  1  0
 14 15  1  0
 15 16  1  0
 16 17  1  0
 17 18  2  0
 19 17  1  0
 18 20  1  0
 21 19  2  0
 19 22  1  0
 20 23  1  0
 20 24  2  0
 24 21  1  0
 22 25  1  0
 22 26  2  0
 23 27  1  0
 24 28  1  0
 27 28  1  0
  4 29  2  0
  4 30  1  0
 31 30  1  0
 31 32  1  0
 32 33  1  0
 32 34  1  0
 33 35  1  0
 34 36  1  0
 34 37  1  0
 37 35  1  0
 35 38  1  0
 37 39  1  0
 40 38  1  0
 41 38  1  0
 42 40  2  0
 40 43  1  0
 44 41  2  0
 45 42  1  0
 43 46  2  0
 43 44  1  0
 47 45  2  0
 47 46  1  0
 46 48  1  0
  6 49  1  1
  7 50  1  0
  7 51  1  0
  8 52  1  0
  8 53  1  0
 10 54  1  0
 11 55  1  0
 12 56  1  0
 13 57  1  0
 16 58  1  0
 16 59  1  0
 18 60  1  0
 21 61  1  0
 27 62  1  0
 27 63  1  0
 31 64  1  0
 31 65  1  0
 32 66  1  0
 34 67  1  0
 35 68  1  0
 36 69  1  0
 37 70  1  0
 39 71  1  0
 41 72  1  0
 45 73  1  0
 48 74  1  0
 48 75  1  0
M  CHG  3   5  -1  22   1  25  -1
M  END
>  <EmbedRMS>  (246) 
0.0829307685114

$$$$

     RDKit          3D

 75 80  0  0  0  0  0  0  0  0999 V2000
   10.2835   43.7662   33.8257 C   0  0  0  0  0  0  0  0  0  0  0  0
   11.4102   43.5931   34.3753 O   0  0  0  0  0  0  0  0  0  0  0  0
    9.3638   42.7255   33.7349 O   0  0  0  0  0  0  0  0  0  0  0  0
    9.8907   41.2266   34.2933 P   0  0  0  0  0  0  0  0  0  0  0  0
   10.3743   41.4557   35.8828 O   0  0  0  0  0  0  0  0  0  0  0  0
    9.9546   45.0696   33.2037 C   0  0  1  0  0  0  0  0  0  0  0  0
   11.0273   46.0323   33.4757 N   0  0  0  0  0  0  0  0  0  0  0  0
    9.7465   44.8481   31.6878 C   0  0  0  0  0  0  0  0  0  0  0  0
    8.7923   45.8410   31.0848 C   0  0  0  0  0  0  0  0  0  0  0  0
    7.4055   45.6012   31.0983 C   0  0  0  0  0  0  0  0  0  0  0  0
    9.2823   46.9874   30.4418 C   0  0  0  0  0  0  0  0  0  0  0  0
    6.5268   46.5026   30.4827 C   0  0  0  0  0  0  0  0  0  0  0  0
    8.4033   47.8891   29.8306 C   0  0  0  0  0  0  0  0  0  0  0  0
    7.0140   47.6545   29.8500 C   0  0  0  0  0  0  0  0  0  0  0  0
    6.0883   48.5290   29.2588 O   0  0  0  0  0  0  0  0  0  0  0  0
    6.3949   49.8156   28.7196 C   0  0  0  0  0  0  0  0  0  0  0  0
    6.7886   50.7812   29.8136 C   0  0  0  0  0  0  0  0  0  0  0  0
    8.0150   51.4755   29.6884 C   0  0  0  0  0  0  0  0  0  0  0  0
    5.9815   50.9781   30.9834 C   0  0  0  0  0  0  0  0  0  0  0  0
    8.4120   52.3107   30.7240 C   0  0  0  0  0  0  0  0  0  0  0  0
    6.4458   51.8329   32.0111 C   0  0  0  0  0  0  0  0  0  0  0  0
    4.7141   50.3173   31.1491 N   0  0  0  0  0  0  0  0  0  0  0  0
    9.5614   53.0711   30.8217 O   0  0  0  0  0  0  0  0  0  0  0  0
    7.6625   52.4792   31.8375 C   0  0  0  0  0  0  0  0  0  0  0  0
    3.8516   50.1767   30.0871 O   0  0  0  0  0  0  0  0  0  0  0  0
    4.3131   50.0114   32.2912 O   0  0  0  0  0  0  0  0  0  0  0  0
    9.5296   53.7614   32.0784 C   0  0  0  0  0  0  0  0  0  0  0  0
    8.3000   53.3552   32.6949 O   0  0  0  0  0  0  0  0  0  0  0  0
    8.8123   40.1851   34.2127 O   0  0  0  0  0  0  0  0  0  0  0  0
   11.2407   40.7945   33.3670 O   0  0  0  0  0  0  0  0  0  0  0  0
   10.9134   40.6866   31.9954 C   0  0  0  0  0  0  0  0  0  0  0  0
   11.5167   39.3787   31.4404 C   0  0  0  0  0  0  0  0  0  0  0  0
   12.7486   39.0849   32.0735 O   0  0  0  0  0  0  0  0  0  0  0  0
   10.6039   38.1884   31.6669 C   0  0  0  0  0  0  0  0  0  0  0  0
   12.9329   37.6776   32.0284 C   0  0  0  0  0  0  0  0  0  0  0  0
    9.6374   38.0938   30.6484 O   0  0  0  0  0  0  0  0  0  0  0  0
   11.5737   37.0141   31.7055 C   0  0  0  0  0  0  0  0  0  0  0  0
   13.4853   37.2120   33.3238 N   0  0  0  0  0  0  0  0  0  0  0  0
   11.6210   36.3379   30.4683 O   0  0  0  0  0  0  0  0  0  0  0  0
   14.4804   36.3319   33.5726 C   0  0  0  0  0  0  0  0  0  0  0  0
   13.1141   37.6275   34.5689 C   0  0  0  0  0  0  0  0  0  0  0  0
   15.2075   35.6152   32.6740 N   0  0  0  0  0  0  0  0  0  0  0  0
   14.6761   36.2306   34.9181 C   0  0  0  0  0  0  0  0  0  0  0  0
   13.8218   37.0451   35.5783 N   0  0  0  0  0  0  0  0  0  0  0  0
   16.1642   34.7600   33.1548 C   0  0  0  0  0  0  0  0  0  0  0  0
   15.6527   35.3506   35.4131 C   0  0  0  0  0  0  0  0  0  0  0  0
   16.3795   34.6315   34.5043 N   0  0  0  0  0  0  0  0  0  0  0  0
   15.9001   35.1933   36.8090 N   0  0  0  0  0  0  0  0  0  0  0  0
    9.0120   45.4318   33.6716 H   0  0  0  0  0  0  0  0  0  0  0  0
   11.8905   45.7661   32.9469 H   0  0  0  0  0  0  0  0  0  0  0  0
   10.7257   46.9689   33.1214 H   0  0  0  0  0  0  0  0  0  0  0  0
    9.3413   43.8330   31.4765 H   0  0  0  0  0  0  0  0  0  0  0  0
   10.7228   44.8814   31.1558 H   0  0  0  0  0  0  0  0  0  0  0  0
    7.0083   44.7163   31.5802 H   0  0  0  0  0  0  0  0  0  0  0  0
   10.3471   47.1830   30.4086 H   0  0  0  0  0  0  0  0  0  0  0  0
    5.4621   46.3075   30.5022 H   0  0  0  0  0  0  0  0  0  0  0  0
    8.8175   48.7564   29.3382 H   0  0  0  0  0  0  0  0  0  0  0  0
    5.4989   50.2093   28.1982 H   0  0  0  0  0  0  0  0  0  0  0  0
    7.1850   49.7171   27.9439 H   0  0  0  0  0  0  0  0  0  0  0  0
    8.6488   51.3564   28.8187 H   0  0  0  0  0  0  0  0  0  0  0  0
    5.8675   52.0010   32.9105 H   0  0  0  0  0  0  0  0  0  0  0  0
   10.3924   53.4556   32.7065 H   0  0  0  0  0  0  0  0  0  0  0  0
    9.5312   54.8593   31.9136 H   0  0  0  0  0  0  0  0  0  0  0  0
    9.8225   40.7225   31.7631 H   0  0  0  0  0  0  0  0  0  0  0  0
   11.3827   41.5438   31.4669 H   0  0  0  0  0  0  0  0  0  0  0  0
   11.6979   39.5037   30.3478 H   0  0  0  0  0  0  0  0  0  0  0  0
   10.1084   38.2787   32.6627 H   0  0  0  0  0  0  0  0  0  0  0  0
   13.6638   37.4472   31.2214 H   0  0  0  0  0  0  0  0  0  0  0  0
    8.9763   37.4191   30.9532 H   0  0  0  0  0  0  0  0  0  0  0  0
   11.2821   36.3054   32.5172 H   0  0  0  0  0  0  0  0  0  0  0  0
   10.8658   35.6935   30.4652 H   0  0  0  0  0  0  0  0  0  0  0  0
   12.3293   38.3523   34.7444 H   0  0  0  0  0  0  0  0  0  0  0  0
   16.7561   34.1778   32.4621 H   0  0  0  0  0  0  0  0  0  0  0  0
   15.3533   35.7361   37.5138 H   0  0  0  0  0  0  0  0  0  0  0  0
   16.6345   34.5300   37.1416 H   0  0  0  0  0  0  0  0  0  0  0  0
  1  2  2  0
  1  3  1  0
  3  4  1  0
  4  5  1  0
  6  1  1  0
  7  6  1  0
  6  8  1  0
  8  9  1  0
  9 10  2  0
 11  9  1  0
 10 12  1  0
 13 11  2  0
 12 14  2  0
 14 13  1  0
 14 15  1  0
 15 16  1  0
 16 17  1  0
 17 18  2  0
 19 17  1  0
 18 20  1  0
 21 19  2  0
 19 22  1  0
 20 23  1  0
 20 24  2  0
 24 21  1  0
 22 25  1  0
 22 26  2  0
 23 27  1  0
 24 28  1  0
 27 28  1  0
  4 29  2  0
  4 30  1  0
 31 30  1  0
 31 32  1  0
 32 33  1  0
 32 34  1  0
 33 35  1  0
 34 36  1  0
 34 37  1  0
 37 35  1  0
 35 38  1  0
 37 39  1  0
 40 38  1  0
 41 38  1  0
 42 40  2  0
 40 43  1  0
 44 41  2  0
 45 42  1  0
 43 46  2  0
 43 44  1  0
 47 45  2  0
 47 46  1  0
 46 48  1  0
  6 49  1  1
  7 50  1  0
  7 51  1  0
  8 52  1  0
  8 53  1  0
 10 54  1  0
 11 55  1  0
 12 56  1  0
 13 57  1  0
 16 58  1  0
 16 59  1  0
 18 60  1  0
 21 61  1  0
 27 62  1  0
 27 63  1  0
 31 64  1  0
 31 65  1  0
 32 66  1  0
 34 67  1  0
 35 68  1  0
 36 69  1  0
 37 70  1  0
 39 71  1  0
 41 72  1  0
 45 73  1  0
 48 74  1  0
 48 75  1  0
M  CHG  3   5  -1  22   1  25  -1
M  END
>  <EmbedRMS>  (247) 
0.0825610827776

$$$$

     RDKit          3D

 75 80  0  0  0  0  0  0  0  0999 V2000
   10.2834   43.7661   33.8257 C   0  0  0  0  0  0  0  0  0  0  0  0
   11.4102   43.5930   34.3752 O   0  0  0  0  0  0  0  0  0  0  0  0
    9.3637   42.7255   33.7350 O   0  0  0  0  0  0  0  0  0  0  0  0
    9.8902   41.2267   34.2942 P   0  0  0  0  0  0  0  0  0  0  0  0
   10.3736   41.4560   35.8836 O   0  0  0  0  0  0  0  0  0  0  0  0
    9.9547   45.0695   33.2036 C   0  0  1  0  0  0  0  0  0  0  0  0
   11.0274   46.0321   33.4756 N   0  0  0  0  0  0  0  0  0  0  0  0
    9.7466   44.8481   31.6877 C   0  0  0  0  0  0  0  0  0  0  0  0
    8.7923   45.8409   31.0844 C   0  0  0  0  0  0  0  0  0  0  0  0
    7.4054   45.6015   31.0990 C   0  0  0  0  0  0  0  0  0  0  0  0
    9.2824   46.9880   30.4422 C   0  0  0  0  0  0  0  0  0  0  0  0
    6.5263   46.5031   30.4839 C   0  0  0  0  0  0  0  0  0  0  0  0
    8.4032   47.8902   29.8315 C   0  0  0  0  0  0  0  0  0  0  0  0
    7.0143   47.6527   29.8477 C   0  0  0  0  0  0  0  0  0  0  0  0
    6.0936   48.5247   29.2489 O   0  0  0  0  0  0  0  0  0  0  0  0
    6.4460   49.7313   28.5730 C   0  0  0  0  0  0  0  0  0  0  0  0
    5.2245   50.4514   28.0462 C   0  0  0  0  0  0  0  0  0  0  0  0
    3.9383   50.1154   28.5409 C   0  0  0  0  0  0  0  0  0  0  0  0
    5.3453   51.4669   27.0395 C   0  0  0  0  0  0  0  0  0  0  0  0
    2.8320   50.7613   28.0051 C   0  0  0  0  0  0  0  0  0  0  0  0
    4.1785   52.0790   26.5231 C   0  0  0  0  0  0  0  0  0  0  0  0
    6.6280   51.8797   26.5327 N   0  0  0  0  0  0  0  0  0  0  0  0
    1.4990   50.5897   28.3258 O   0  0  0  0  0  0  0  0  0  0  0  0
    2.9465   51.6979   27.0364 C   0  0  0  0  0  0  0  0  0  0  0  0
    7.7100   51.9988   27.3738 O   0  0  0  0  0  0  0  0  0  0  0  0
    6.7330   52.2949   25.3600 O   0  0  0  0  0  0  0  0  0  0  0  0
    0.7283   51.4765   27.5035 C   0  0  0  0  0  0  0  0  0  0  0  0
    1.6920   52.1656   26.6952 O   0  0  0  0  0  0  0  0  0  0  0  0
    8.8121   40.1850   34.2131 O   0  0  0  0  0  0  0  0  0  0  0  0
   11.2404   40.7941   33.3690 O   0  0  0  0  0  0  0  0  0  0  0  0
   10.9143   40.6898   31.9972 C   0  0  0  0  0  0  0  0  0  0  0  0
   11.5261   39.3885   31.4376 C   0  0  0  0  0  0  0  0  0  0  0  0
   12.7504   39.0888   32.0816 O   0  0  0  0  0  0  0  0  0  0  0  0
   10.6115   38.1910   31.6460 C   0  0  0  0  0  0  0  0  0  0  0  0
   12.9357   37.6812   32.0303 C   0  0  0  0  0  0  0  0  0  0  0  0
    9.6146   38.0859   30.6534 O   0  0  0  0  0  0  0  0  0  0  0  0
   11.5769   37.0148   31.7012 C   0  0  0  0  0  0  0  0  0  0  0  0
   13.4849   37.2112   33.3247 N   0  0  0  0  0  0  0  0  0  0  0  0
   11.6193   36.3261   30.4724 O   0  0  0  0  0  0  0  0  0  0  0  0
   14.4802   36.3313   33.5730 C   0  0  0  0  0  0  0  0  0  0  0  0
   13.1141   37.6268   34.5698 C   0  0  0  0  0  0  0  0  0  0  0  0
   15.2075   35.6151   32.6741 N   0  0  0  0  0  0  0  0  0  0  0  0
   14.6761   36.2300   34.9184 C   0  0  0  0  0  0  0  0  0  0  0  0
   13.8220   37.0445   35.5789 N   0  0  0  0  0  0  0  0  0  0  0  0
   16.1642   34.7600   33.1547 C   0  0  0  0  0  0  0  0  0  0  0  0
   15.6529   35.3503   35.4132 C   0  0  0  0  0  0  0  0  0  0  0  0
   16.3797   34.6314   34.5042 N   0  0  0  0  0  0  0  0  0  0  0  0
   15.9004   35.1930   36.8090 N   0  0  0  0  0  0  0  0  0  0  0  0
    9.0121   45.4318   33.6714 H   0  0  0  0  0  0  0  0  0  0  0  0
   11.8906   45.7658   32.9469 H   0  0  0  0  0  0  0  0  0  0  0  0
   10.7260   46.9687   33.1213 H   0  0  0  0  0  0  0  0  0  0  0  0
    9.3414   43.8330   31.4763 H   0  0  0  0  0  0  0  0  0  0  0  0
   10.7230   44.8814   31.1557 H   0  0  0  0  0  0  0  0  0  0  0  0
    7.0083   44.7167   31.5812 H   0  0  0  0  0  0  0  0  0  0  0  0
   10.3471   47.1849   30.4113 H   0  0  0  0  0  0  0  0  0  0  0  0
    5.4617   46.3073   30.5019 H   0  0  0  0  0  0  0  0  0  0  0  0
    8.8140   48.7655   29.3472 H   0  0  0  0  0  0  0  0  0  0  0  0
    7.1086   49.4700   27.7196 H   0  0  0  0  0  0  0  0  0  0  0  0
    6.9834   50.4040   29.2749 H   0  0  0  0  0  0  0  0  0  0  0  0
    3.7946   49.3729   29.3148 H   0  0  0  0  0  0  0  0  0  0  0  0
    4.2324   52.8440   25.7593 H   0  0  0  0  0  0  0  0  0  0  0  0
    0.0330   50.8972   26.8605 H   0  0  0  0  0  0  0  0  0  0  0  0
    0.1712   52.1995   28.1355 H   0  0  0  0  0  0  0  0  0  0  0  0
   11.3779   41.5526   31.4726 H   0  0  0  0  0  0  0  0  0  0  0  0
    9.8233   40.7191   31.7647 H   0  0  0  0  0  0  0  0  0  0  0  0
   11.7283   39.5312   30.3515 H   0  0  0  0  0  0  0  0  0  0  0  0
   10.1127   38.2734   32.6376 H   0  0  0  0  0  0  0  0  0  0  0  0
   13.6692   37.4566   31.2242 H   0  0  0  0  0  0  0  0  0  0  0  0
   10.0533   38.1118   29.7636 H   0  0  0  0  0  0  0  0  0  0  0  0
   11.2607   36.3148   32.5102 H   0  0  0  0  0  0  0  0  0  0  0  0
   12.1496   35.5023   30.6324 H   0  0  0  0  0  0  0  0  0  0  0  0
   12.3301   38.3524   34.7455 H   0  0  0  0  0  0  0  0  0  0  0  0
   16.7562   34.1780   32.4619 H   0  0  0  0  0  0  0  0  0  0  0  0
   15.3536   35.7357   37.5140 H   0  0  0  0  0  0  0  0  0  0  0  0
   16.6351   34.5298   37.1416 H   0  0  0  0  0  0  0  0  0  0  0  0
  1  2  2  0
  1  3  1  0
  3  4  1  0
  4  5  1  0
  6  1  1  0
  7  6  1  0
  6  8  1  0
  8  9  1  0
  9 10  2  0
 11  9  1  0
 10 12  1  0
 13 11  2  0
 12 14  2  0
 14 13  1  0
 14 15  1  0
 15 16  1  0
 16 17  1  0
 17 18  2  0
 19 17  1  0
 18 20  1  0
 21 19  2  0
 19 22  1  0
 20 23  1  0
 20 24  2  0
 24 21  1  0
 22 25  1  0
 22 26  2  0
 23 27  1  0
 24 28  1  0
 27 28  1  0
  4 29  2  0
  4 30  1  0
 31 30  1  0
 31 32  1  0
 32 33  1  0
 32 34  1  0
 33 35  1  0
 34 36  1  0
 34 37  1  0
 37 35  1  0
 35 38  1  0
 37 39  1  0
 40 38  1  0
 41 38  1  0
 42 40  2  0
 40 43  1  0
 44 41  2  0
 45 42  1  0
 43 46  2  0
 43 44  1  0
 47 45  2  0
 47 46  1  0
 46 48  1  0
  6 49  1  1
  7 50  1  0
  7 51  1  0
  8 52  1  0
  8 53  1  0
 10 54  1  0
 11 55  1  0
 12 56  1  0
 13 57  1  0
 16 58  1  0
 16 59  1  0
 18 60  1  0
 21 61  1  0
 27 62  1  0
 27 63  1  0
 31 64  1  0
 31 65  1  0
 32 66  1  0
 34 67  1  0
 35 68  1  0
 36 69  1  0
 37 70  1  0
 39 71  1  0
 41 72  1  0
 45 73  1  0
 48 74  1  0
 48 75  1  0
M  CHG  3   5  -1  22   1  25  -1
M  END
>  <EmbedRMS>  (248) 
0.0816237954695

$$$$

     RDKit          3D

 75 80  0  0  0  0  0  0  0  0999 V2000
   10.2862   43.7670   33.8234 C   0  0  0  0  0  0  0  0  0  0  0  0
   11.4115   43.5935   34.3754 O   0  0  0  0  0  0  0  0  0  0  0  0
    9.3642   42.7276   33.7351 O   0  0  0  0  0  0  0  0  0  0  0  0
    9.8888   41.2280   34.2957 P   0  0  0  0  0  0  0  0  0  0  0  0
   10.3736   41.4543   35.8852 O   0  0  0  0  0  0  0  0  0  0  0  0
    9.9587   45.0714   33.2025 C   0  0  1  0  0  0  0  0  0  0  0  0
   11.0336   46.0324   33.4716 N   0  0  0  0  0  0  0  0  0  0  0  0
    9.7478   44.8511   31.6860 C   0  0  0  0  0  0  0  0  0  0  0  0
    8.7917   45.8407   31.0833 C   0  0  0  0  0  0  0  0  0  0  0  0
    7.4045   45.5947   31.0915 C   0  0  0  0  0  0  0  0  0  0  0  0
    9.2813   46.9914   30.4452 C   0  0  0  0  0  0  0  0  0  0  0  0
    6.5251   46.4956   30.4739 C   0  0  0  0  0  0  0  0  0  0  0  0
    8.4002   47.8940   29.8401 C   0  0  0  0  0  0  0  0  0  0  0  0
    7.0169   47.6543   29.8590 C   0  0  0  0  0  0  0  0  0  0  0  0
    6.1166   48.5612   29.2913 O   0  0  0  0  0  0  0  0  0  0  0  0
    6.0901   49.9432   29.6591 C   0  0  0  0  0  0  0  0  0  0  0  0
    5.5731   50.0824   31.0754 C   0  0  0  0  0  0  0  0  0  0  0  0
    6.5115   50.1746   32.1317 C   0  0  0  0  0  0  0  0  0  0  0  0
    4.1694   50.0909   31.3783 C   0  0  0  0  0  0  0  0  0  0  0  0
    6.0369   50.2699   33.4381 C   0  0  0  0  0  0  0  0  0  0  0  0
    3.7471   50.2089   32.7274 C   0  0  0  0  0  0  0  0  0  0  0  0
    3.1707   49.9956   30.3446 N   0  0  0  0  0  0  0  0  0  0  0  0
    6.7605   50.3506   34.6147 O   0  0  0  0  0  0  0  0  0  0  0  0
    4.7130   50.2838   33.7223 C   0  0  0  0  0  0  0  0  0  0  0  0
    3.3179   49.1044   29.3035 O   0  0  0  0  0  0  0  0  0  0  0  0
    2.0781   50.5846   30.4834 O   0  0  0  0  0  0  0  0  0  0  0  0
    5.8300   50.4060   35.7060 C   0  0  0  0  0  0  0  0  0  0  0  0
    4.5327   50.3711   35.0918 O   0  0  0  0  0  0  0  0  0  0  0  0
    8.8105   40.1860   34.2156 O   0  0  0  0  0  0  0  0  0  0  0  0
   11.2387   40.7974   33.3685 O   0  0  0  0  0  0  0  0  0  0  0  0
   10.9097   40.6878   31.9975 C   0  0  0  0  0  0  0  0  0  0  0  0
   11.5142   39.3803   31.4438 C   0  0  0  0  0  0  0  0  0  0  0  0
   12.7478   39.0879   32.0759 O   0  0  0  0  0  0  0  0  0  0  0  0
   10.6035   38.1875   31.6658 C   0  0  0  0  0  0  0  0  0  0  0  0
   12.9391   37.6816   32.0266 C   0  0  0  0  0  0  0  0  0  0  0  0
    9.6362   38.0935   30.6488 O   0  0  0  0  0  0  0  0  0  0  0  0
   11.5807   37.0181   31.6909 C   0  0  0  0  0  0  0  0  0  0  0  0
   13.4841   37.2116   33.3234 N   0  0  0  0  0  0  0  0  0  0  0  0
   11.6119   36.3155   30.4658 O   0  0  0  0  0  0  0  0  0  0  0  0
   14.4799   36.3318   33.5729 C   0  0  0  0  0  0  0  0  0  0  0  0
   13.1130   37.6275   34.5688 C   0  0  0  0  0  0  0  0  0  0  0  0
   15.2080   35.6147   32.6748 N   0  0  0  0  0  0  0  0  0  0  0  0
   14.6758   36.2312   34.9186 C   0  0  0  0  0  0  0  0  0  0  0  0
   13.8206   37.0450   35.5781 N   0  0  0  0  0  0  0  0  0  0  0  0
   16.1665   34.7620   33.1571 C   0  0  0  0  0  0  0  0  0  0  0  0
   15.6525   35.3509   35.4142 C   0  0  0  0  0  0  0  0  0  0  0  0
   16.3808   34.6337   34.5062 N   0  0  0  0  0  0  0  0  0  0  0  0
   15.8995   35.1916   36.8097 N   0  0  0  0  0  0  0  0  0  0  0  0
    9.0193   45.4321   33.6792 H   0  0  0  0  0  0  0  0  0  0  0  0
   10.7310   46.9703   33.1211 H   0  0  0  0  0  0  0  0  0  0  0  0
   11.8950   45.7668   32.9386 H   0  0  0  0  0  0  0  0  0  0  0  0
   10.7206   44.8847   31.1462 H   0  0  0  0  0  0  0  0  0  0  0  0
    9.3438   43.8365   31.4788 H   0  0  0  0  0  0  0  0  0  0  0  0
    7.0096   44.7054   31.5690 H   0  0  0  0  0  0  0  0  0  0  0  0
   10.3451   47.1953   30.4194 H   0  0  0  0  0  0  0  0  0  0  0  0
    5.4592   46.3048   30.4916 H   0  0  0  0  0  0  0  0  0  0  0  0
    8.7965   48.7751   29.3546 H   0  0  0  0  0  0  0  0  0  0  0  0
    7.1072   50.3912   29.5577 H   0  0  0  0  0  0  0  0  0  0  0  0
    5.4376   50.5005   28.9559 H   0  0  0  0  0  0  0  0  0  0  0  0
    7.5776   50.1602   31.9423 H   0  0  0  0  0  0  0  0  0  0  0  0
    2.6956   50.2210   32.9923 H   0  0  0  0  0  0  0  0  0  0  0  0
    5.9611   49.5227   36.3630 H   0  0  0  0  0  0  0  0  0  0  0  0
    5.9613   51.3513   36.2757 H   0  0  0  0  0  0  0  0  0  0  0  0
    9.8178   40.7181   31.7689 H   0  0  0  0  0  0  0  0  0  0  0  0
   11.3752   41.5468   31.4659 H   0  0  0  0  0  0  0  0  0  0  0  0
   11.6944   39.5075   30.3526 H   0  0  0  0  0  0  0  0  0  0  0  0
   10.1101   38.2727   32.6635 H   0  0  0  0  0  0  0  0  0  0  0  0
   13.6798   37.4620   31.2263 H   0  0  0  0  0  0  0  0  0  0  0  0
    9.0019   37.3865   30.9353 H   0  0  0  0  0  0  0  0  0  0  0  0
   11.2812   36.3065   32.4900 H   0  0  0  0  0  0  0  0  0  0  0  0
   11.8795   36.9560   29.7556 H   0  0  0  0  0  0  0  0  0  0  0  0
   12.3287   38.3522   34.7465 H   0  0  0  0  0  0  0  0  0  0  0  0
   16.7609   34.1795   32.4679 H   0  0  0  0  0  0  0  0  0  0  0  0
   16.6367   34.5295   37.1413 H   0  0  0  0  0  0  0  0  0  0  0  0
   15.3535   35.7376   37.5124 H   0  0  0  0  0  0  0  0  0  0  0  0
  1  2  2  0
  1  3  1  0
  3  4  1  0
  4  5  1  0
  6  1  1  0
  7  6  1  0
  6  8  1  0
  8  9  1  0
  9 10  2  0
 11  9  1  0
 10 12  1  0
 13 11  2  0
 12 14  2  0
 14 13  1  0
 14 15  1  0
 15 16  1  0
 16 17  1  0
 17 18  2  0
 19 17  1  0
 18 20  1  0
 21 19  2  0
 19 22  1  0
 20 23  1  0
 20 24  2  0
 24 21  1  0
 22 25  1  0
 22 26  2  0
 23 27  1  0
 24 28  1  0
 27 28  1  0
  4 29  2  0
  4 30  1  0
 31 30  1  0
 31 32  1  0
 32 33  1  0
 32 34  1  0
 33 35  1  0
 34 36  1  0
 34 37  1  0
 37 35  1  0
 35 38  1  0
 37 39  1  0
 40 38  1  0
 41 38  1  0
 42 40  2  0
 40 43  1  0
 44 41  2  0
 45 42  1  0
 43 46  2  0
 43 44  1  0
 47 45  2  0
 47 46  1  0
 46 48  1  0
  6 49  1  1
  7 50  1  0
  7 51  1  0
  8 52  1  0
  8 53  1  0
 10 54  1  0
 11 55  1  0
 12 56  1  0
 13 57  1  0
 16 58  1  0
 16 59  1  0
 18 60  1  0
 21 61  1  0
 27 62  1  0
 27 63  1  0
 31 64  1  0
 31 65  1  0
 32 66  1  0
 34 67  1  0
 35 68  1  0
 36 69  1  0
 37 70  1  0
 39 71  1  0
 41 72  1  0
 45 73  1  0
 48 74  1  0
 48 75  1  0
M  CHG  3   5  -1  22   1  25  -1
M  END
>  <EmbedRMS>  (249) 
0.0815666814738

$$$$

     RDKit          3D

 75 80  0  0  0  0  0  0  0  0999 V2000
   10.2838   43.7627   33.8277 C   0  0  0  0  0  0  0  0  0  0  0  0
   11.4103   43.5863   34.3767 O   0  0  0  0  0  0  0  0  0  0  0  0
    9.3630   42.7236   33.7354 O   0  0  0  0  0  0  0  0  0  0  0  0
    9.8897   41.2248   34.2935 P   0  0  0  0  0  0  0  0  0  0  0  0
   10.3735   41.4542   35.8829 O   0  0  0  0  0  0  0  0  0  0  0  0
    9.9547   45.0700   33.2065 C   0  0  1  0  0  0  0  0  0  0  0  0
   11.0198   46.0481   33.4569 N   0  0  0  0  0  0  0  0  0  0  0  0
    9.7500   44.8509   31.6925 C   0  0  0  0  0  0  0  0  0  0  0  0
    8.7942   45.8419   31.0872 C   0  0  0  0  0  0  0  0  0  0  0  0
    7.4074   45.6007   31.0994 C   0  0  0  0  0  0  0  0  0  0  0  0
    9.2833   46.9888   30.4445 C   0  0  0  0  0  0  0  0  0  0  0  0
    6.5279   46.5015   30.4833 C   0  0  0  0  0  0  0  0  0  0  0  0
    8.4039   47.8892   29.8317 C   0  0  0  0  0  0  0  0  0  0  0  0
    7.0145   47.6530   29.8494 C   0  0  0  0  0  0  0  0  0  0  0  0
    6.0890   48.5272   29.2562 O   0  0  0  0  0  0  0  0  0  0  0  0
    6.4103   49.7871   28.6644 C   0  0  0  0  0  0  0  0  0  0  0  0
    6.8327   50.7848   29.7200 C   0  0  0  0  0  0  0  0  0  0  0  0
    6.0449   50.8915   30.8904 C   0  0  0  0  0  0  0  0  0  0  0  0
    8.0147   51.5860   29.5919 C   0  0  0  0  0  0  0  0  0  0  0  0
    6.4765   51.7368   31.9042 C   0  0  0  0  0  0  0  0  0  0  0  0
    8.4142   52.4156   30.6638 C   0  0  0  0  0  0  0  0  0  0  0  0
    8.7990   51.5894   28.3896 N   0  0  0  0  0  0  0  0  0  0  0  0
    5.8847   51.9827   33.1282 O   0  0  0  0  0  0  0  0  0  0  0  0
    7.6145   52.4615   31.7985 C   0  0  0  0  0  0  0  0  0  0  0  0
   10.1670   51.7138   28.4669 O   0  0  0  0  0  0  0  0  0  0  0  0
    8.2436   51.7269   27.2802 O   0  0  0  0  0  0  0  0  0  0  0  0
    6.7050   52.9230   33.8352 C   0  0  0  0  0  0  0  0  0  0  0  0
    7.7983   53.2026   32.9500 O   0  0  0  0  0  0  0  0  0  0  0  0
    8.8114   40.1834   34.2126 O   0  0  0  0  0  0  0  0  0  0  0  0
   11.2398   40.7937   33.3671 O   0  0  0  0  0  0  0  0  0  0  0  0
   10.9125   40.6857   31.9955 C   0  0  0  0  0  0  0  0  0  0  0  0
   11.5175   39.3786   31.4405 C   0  0  0  0  0  0  0  0  0  0  0  0
   12.7490   39.0863   32.0751 O   0  0  0  0  0  0  0  0  0  0  0  0
   10.6061   38.1867   31.6656 C   0  0  0  0  0  0  0  0  0  0  0  0
   12.9356   37.6796   32.0292 C   0  0  0  0  0  0  0  0  0  0  0  0
    9.6399   38.0902   30.6471 O   0  0  0  0  0  0  0  0  0  0  0  0
   11.5765   37.0145   31.7043 C   0  0  0  0  0  0  0  0  0  0  0  0
   13.4858   37.2125   33.3244 N   0  0  0  0  0  0  0  0  0  0  0  0
   11.6101   36.3396   30.4673 O   0  0  0  0  0  0  0  0  0  0  0  0
   14.4805   36.3319   33.5729 C   0  0  0  0  0  0  0  0  0  0  0  0
   13.1143   37.6276   34.5694 C   0  0  0  0  0  0  0  0  0  0  0  0
   15.2076   35.6153   32.6741 N   0  0  0  0  0  0  0  0  0  0  0  0
   14.6760   36.2304   34.9184 C   0  0  0  0  0  0  0  0  0  0  0  0
   13.8219   37.0449   35.5786 N   0  0  0  0  0  0  0  0  0  0  0  0
   16.1641   34.7600   33.1548 C   0  0  0  0  0  0  0  0  0  0  0  0
   15.6528   35.3505   35.4132 C   0  0  0  0  0  0  0  0  0  0  0  0
   16.3795   34.6314   34.5043 N   0  0  0  0  0  0  0  0  0  0  0  0
   15.9002   35.1931   36.8091 N   0  0  0  0  0  0  0  0  0  0  0  0
    9.0098   45.4350   33.6672 H   0  0  0  0  0  0  0  0  0  0  0  0
   11.1134   46.1994   34.4882 H   0  0  0  0  0  0  0  0  0  0  0  0
   11.9348   45.6933   33.0925 H   0  0  0  0  0  0  0  0  0  0  0  0
   10.7303   44.8922   31.1677 H   0  0  0  0  0  0  0  0  0  0  0  0
    9.3507   43.8344   31.4764 H   0  0  0  0  0  0  0  0  0  0  0  0
    7.0108   44.7155   31.5813 H   0  0  0  0  0  0  0  0  0  0  0  0
   10.3478   47.1869   30.4144 H   0  0  0  0  0  0  0  0  0  0  0  0
    5.4634   46.3051   30.5020 H   0  0  0  0  0  0  0  0  0  0  0  0
    8.8175   48.7595   29.3433 H   0  0  0  0  0  0  0  0  0  0  0  0
    7.1765   49.6287   27.8801 H   0  0  0  0  0  0  0  0  0  0  0  0
    5.4998   50.1776   28.1640 H   0  0  0  0  0  0  0  0  0  0  0  0
    5.1379   50.3134   31.0160 H   0  0  0  0  0  0  0  0  0  0  0  0
    9.3051   53.0271   30.6019 H   0  0  0  0  0  0  0  0  0  0  0  0
    6.1330   53.8516   34.0428 H   0  0  0  0  0  0  0  0  0  0  0  0
    7.0807   52.4724   34.7776 H   0  0  0  0  0  0  0  0  0  0  0  0
    9.8216   40.7200   31.7634 H   0  0  0  0  0  0  0  0  0  0  0  0
   11.3807   41.5436   31.4670 H   0  0  0  0  0  0  0  0  0  0  0  0
   11.6998   39.5042   30.3481 H   0  0  0  0  0  0  0  0  0  0  0  0
   10.1086   38.2766   32.6603 H   0  0  0  0  0  0  0  0  0  0  0  0
   13.6680   37.4519   31.2229 H   0  0  0  0  0  0  0  0  0  0  0  0
    9.0016   37.3867   30.9349 H   0  0  0  0  0  0  0  0  0  0  0  0
   11.2667   36.3061   32.5083 H   0  0  0  0  0  0  0  0  0  0  0  0
   12.1389   35.5126   30.6150 H   0  0  0  0  0  0  0  0  0  0  0  0
   12.3300   38.3529   34.7449 H   0  0  0  0  0  0  0  0  0  0  0  0
   16.7560   34.1779   32.4621 H   0  0  0  0  0  0  0  0  0  0  0  0
   16.6347   34.5298   37.1416 H   0  0  0  0  0  0  0  0  0  0  0  0
   15.3534   35.7359   37.5140 H   0  0  0  0  0  0  0  0  0  0  0  0
  1  2  2  0
  1  3  1  0
  3  4  1  0
  4  5  1  0
  6  1  1  0
  7  6  1  0
  6  8  1  0
  8  9  1  0
  9 10  2  0
 11  9  1  0
 10 12  1  0
 13 11  2  0
 12 14  2  0
 14 13  1  0
 14 15  1  0
 15 16  1  0
 16 17  1  0
 17 18  2  0
 19 17  1  0
 18 20  1  0
 21 19  2  0
 19 22  1  0
 20 23  1  0
 20 24  2  0
 24 21  1  0
 22 25  1  0
 22 26  2  0
 23 27  1  0
 24 28  1  0
 27 28  1  0
  4 29  2  0
  4 30  1  0
 31 30  1  0
 31 32  1  0
 32 33  1  0
 32 34  1  0
 33 35  1  0
 34 36  1  0
 34 37  1  0
 37 35  1  0
 35 38  1  0
 37 39  1  0
 40 38  1  0
 41 38  1  0
 42 40  2  0
 40 43  1  0
 44 41  2  0
 45 42  1  0
 43 46  2  0
 43 44  1  0
 47 45  2  0
 47 46  1  0
 46 48  1  0
  6 49  1  1
  7 50  1  0
  7 51  1  0
  8 52  1  0
  8 53  1  0
 10 54  1  0
 11 55  1  0
 12 56  1  0
 13 57  1  0
 16 58  1  0
 16 59  1  0
 18 60  1  0
 21 61  1  0
 27 62  1  0
 27 63  1  0
 31 64  1  0
 31 65  1  0
 32 66  1  0
 34 67  1  0
 35 68  1  0
 36 69  1  0
 37 70  1  0
 39 71  1  0
 41 72  1  0
 45 73  1  0
 48 74  1  0
 48 75  1  0
M  CHG  3   5  -1  22   1  25  -1
M  END
>  <EmbedRMS>  (250) 
0.0832877272653

$$$$

     RDKit          3D

 75 80  0  0  0  0  0  0  0  0999 V2000
   10.2839   43.7626   33.8276 C   0  0  0  0  0  0  0  0  0  0  0  0
   11.4103   43.5864   34.3767 O   0  0  0  0  0  0  0  0  0  0  0  0
    9.3634   42.7234   33.7352 O   0  0  0  0  0  0  0  0  0  0  0  0
    9.8899   41.2246   34.2940 P   0  0  0  0  0  0  0  0  0  0  0  0
   10.3724   41.4544   35.8837 O   0  0  0  0  0  0  0  0  0  0  0  0
    9.9547   45.0699   33.2063 C   0  0  1  0  0  0  0  0  0  0  0  0
   11.0196   46.0481   33.4568 N   0  0  0  0  0  0  0  0  0  0  0  0
    9.7501   44.8506   31.6923 C   0  0  0  0  0  0  0  0  0  0  0  0
    8.7943   45.8414   31.0864 C   0  0  0  0  0  0  0  0  0  0  0  0
    7.4074   45.6009   31.0999 C   0  0  0  0  0  0  0  0  0  0  0  0
    9.2834   46.9891   30.4451 C   0  0  0  0  0  0  0  0  0  0  0  0
    6.5278   46.5022   30.4848 C   0  0  0  0  0  0  0  0  0  0  0  0
    8.4040   47.8901   29.8330 C   0  0  0  0  0  0  0  0  0  0  0  0
    7.0146   47.6515   29.8470 C   0  0  0  0  0  0  0  0  0  0  0  0
    6.0884   48.5276   29.2553 O   0  0  0  0  0  0  0  0  0  0  0  0
    6.4241   49.6893   28.4920 C   0  0  0  0  0  0  0  0  0  0  0  0
    6.7740   50.8928   29.3503 C   0  0  0  0  0  0  0  0  0  0  0  0
    6.7564   50.7932   30.7667 C   0  0  0  0  0  0  0  0  0  0  0  0
    7.0603   52.1655   28.7454 C   0  0  0  0  0  0  0  0  0  0  0  0
    7.0361   51.9264   31.5178 C   0  0  0  0  0  0  0  0  0  0  0  0
    7.3241   53.2858   29.5670 C   0  0  0  0  0  0  0  0  0  0  0  0
    7.0510   52.3537   27.3181 N   0  0  0  0  0  0  0  0  0  0  0  0
    7.0797   52.0550   32.8928 O   0  0  0  0  0  0  0  0  0  0  0  0
    7.3083   53.1192   30.9440 C   0  0  0  0  0  0  0  0  0  0  0  0
    6.6875   53.5720   26.7916 O   0  0  0  0  0  0  0  0  0  0  0  0
    7.5357   51.4941   26.5549 O   0  0  0  0  0  0  0  0  0  0  0  0
    7.4036   53.4178   33.1997 C   0  0  0  0  0  0  0  0  0  0  0  0
    7.5403   54.0628   31.9262 O   0  0  0  0  0  0  0  0  0  0  0  0
    8.8119   40.1831   34.2121 O   0  0  0  0  0  0  0  0  0  0  0  0
   11.2416   40.7932   33.3699 O   0  0  0  0  0  0  0  0  0  0  0  0
   10.9186   40.6909   31.9972 C   0  0  0  0  0  0  0  0  0  0  0  0
   11.5172   39.3814   31.4407 C   0  0  0  0  0  0  0  0  0  0  0  0
   12.7493   39.0855   32.0727 O   0  0  0  0  0  0  0  0  0  0  0  0
   10.6023   38.1907   31.6665 C   0  0  0  0  0  0  0  0  0  0  0  0
   12.9319   37.6781   32.0281 C   0  0  0  0  0  0  0  0  0  0  0  0
    9.6392   38.0797   30.6452 O   0  0  0  0  0  0  0  0  0  0  0  0
   11.5715   37.0165   31.7056 C   0  0  0  0  0  0  0  0  0  0  0  0
   13.4847   37.2121   33.3235 N   0  0  0  0  0  0  0  0  0  0  0  0
   11.6187   36.3383   30.4694 O   0  0  0  0  0  0  0  0  0  0  0  0
   14.4801   36.3321   33.5724 C   0  0  0  0  0  0  0  0  0  0  0  0
   13.1137   37.6276   34.5687 C   0  0  0  0  0  0  0  0  0  0  0  0
   15.2073   35.6153   32.6738 N   0  0  0  0  0  0  0  0  0  0  0  0
   14.6759   36.2308   34.9179 C   0  0  0  0  0  0  0  0  0  0  0  0
   13.8216   37.0452   35.5781 N   0  0  0  0  0  0  0  0  0  0  0  0
   16.1639   34.7601   33.1546 C   0  0  0  0  0  0  0  0  0  0  0  0
   15.6526   35.3508   35.4129 C   0  0  0  0  0  0  0  0  0  0  0  0
   16.3794   34.6317   34.5041 N   0  0  0  0  0  0  0  0  0  0  0  0
   15.8999   35.1935   36.8088 N   0  0  0  0  0  0  0  0  0  0  0  0
    9.0097   45.4348   33.6669 H   0  0  0  0  0  0  0  0  0  0  0  0
   11.9347   45.6933   33.0924 H   0  0  0  0  0  0  0  0  0  0  0  0
   11.1132   46.1994   34.4880 H   0  0  0  0  0  0  0  0  0  0  0  0
   10.7304   44.8920   31.1675 H   0  0  0  0  0  0  0  0  0  0  0  0
    9.3509   43.8341   31.4763 H   0  0  0  0  0  0  0  0  0  0  0  0
    7.0108   44.7162   31.5826 H   0  0  0  0  0  0  0  0  0  0  0  0
   10.3474   47.1898   30.4199 H   0  0  0  0  0  0  0  0  0  0  0  0
    5.4632   46.3065   30.5046 H   0  0  0  0  0  0  0  0  0  0  0  0
    8.8157   48.7722   29.3631 H   0  0  0  0  0  0  0  0  0  0  0  0
    5.5412   49.9534   27.8730 H   0  0  0  0  0  0  0  0  0  0  0  0
    7.2546   49.4392   27.8009 H   0  0  0  0  0  0  0  0  0  0  0  0
    6.5186   49.8743   31.2825 H   0  0  0  0  0  0  0  0  0  0  0  0
    7.5434   54.2574   29.1436 H   0  0  0  0  0  0  0  0  0  0  0  0
    8.3608   53.4685   33.7596 H   0  0  0  0  0  0  0  0  0  0  0  0
    6.5816   53.8866   33.7803 H   0  0  0  0  0  0  0  0  0  0  0  0
    9.8300   40.7410   31.7611 H   0  0  0  0  0  0  0  0  0  0  0  0
   11.3972   41.5459   31.4735 H   0  0  0  0  0  0  0  0  0  0  0  0
   11.6974   39.5067   30.3480 H   0  0  0  0  0  0  0  0  0  0  0  0
   10.1077   38.2647   32.6645 H   0  0  0  0  0  0  0  0  0  0  0  0
   13.6621   37.4467   31.2208 H   0  0  0  0  0  0  0  0  0  0  0  0
    8.8974   38.6943   30.8831 H   0  0  0  0  0  0  0  0  0  0  0  0
   11.2806   36.3073   32.5170 H   0  0  0  0  0  0  0  0  0  0  0  0
   10.8492   35.7110   30.4586 H   0  0  0  0  0  0  0  0  0  0  0  0
   12.3290   38.3524   34.7444 H   0  0  0  0  0  0  0  0  0  0  0  0
   16.7559   34.1780   32.4619 H   0  0  0  0  0  0  0  0  0  0  0  0
   15.3531   35.7363   37.5137 H   0  0  0  0  0  0  0  0  0  0  0  0
   16.6344   34.5301   37.1414 H   0  0  0  0  0  0  0  0  0  0  0  0
  1  2  2  0
  1  3  1  0
  3  4  1  0
  4  5  1  0
  6  1  1  0
  7  6  1  0
  6  8  1  0
  8  9  1  0
  9 10  2  0
 11  9  1  0
 10 12  1  0
 13 11  2  0
 12 14  2  0
 14 13  1  0
 14 15  1  0
 15 16  1  0
 16 17  1  0
 17 18  2  0
 19 17  1  0
 18 20  1  0
 21 19  2  0
 19 22  1  0
 20 23  1  0
 20 24  2  0
 24 21  1  0
 22 25  1  0
 22 26  2  0
 23 27  1  0
 24 28  1  0
 27 28  1  0
  4 29  2  0
  4 30  1  0
 31 30  1  0
 31 32  1  0
 32 33  1  0
 32 34  1  0
 33 35  1  0
 34 36  1  0
 34 37  1  0
 37 35  1  0
 35 38  1  0
 37 39  1  0
 40 38  1  0
 41 38  1  0
 42 40  2  0
 40 43  1  0
 44 41  2  0
 45 42  1  0
 43 46  2  0
 43 44  1  0
 47 45  2  0
 47 46  1  0
 46 48  1  0
  6 49  1  1
  7 50  1  0
  7 51  1  0
  8 52  1  0
  8 53  1  0
 10 54  1  0
 11 55  1  0
 12 56  1  0
 13 57  1  0
 16 58  1  0
 16 59  1  0
 18 60  1  0
 21 61  1  0
 27 62  1  0
 27 63  1  0
 31 64  1  0
 31 65  1  0
 32 66  1  0
 34 67  1  0
 35 68  1  0
 36 69  1  0
 37 70  1  0
 39 71  1  0
 41 72  1  0
 45 73  1  0
 48 74  1  0
 48 75  1  0
M  CHG  3   5  -1  22   1  25  -1
M  END
>  <EmbedRMS>  (251) 
0.0838444216119

$$$$

     RDKit          3D

 75 80  0  0  0  0  0  0  0  0999 V2000
   10.2837   43.7627   33.8277 C   0  0  0  0  0  0  0  0  0  0  0  0
   11.4103   43.5863   34.3766 O   0  0  0  0  0  0  0  0  0  0  0  0
    9.3628   42.7238   33.7357 O   0  0  0  0  0  0  0  0  0  0  0  0
    9.8890   41.2252   34.2949 P   0  0  0  0  0  0  0  0  0  0  0  0
   10.3724   41.4548   35.8843 O   0  0  0  0  0  0  0  0  0  0  0  0
    9.9548   45.0701   33.2064 C   0  0  1  0  0  0  0  0  0  0  0  0
   11.0198   46.0482   33.4571 N   0  0  0  0  0  0  0  0  0  0  0  0
    9.7506   44.8511   31.6923 C   0  0  0  0  0  0  0  0  0  0  0  0
    8.7945   45.8418   31.0869 C   0  0  0  0  0  0  0  0  0  0  0  0
    7.4077   45.6004   31.1002 C   0  0  0  0  0  0  0  0  0  0  0  0
    9.2827   46.9890   30.4441 C   0  0  0  0  0  0  0  0  0  0  0  0
    6.5262   46.4998   30.4846 C   0  0  0  0  0  0  0  0  0  0  0  0
    8.4007   47.8879   29.8328 C   0  0  0  0  0  0  0  0  0  0  0  0
    7.0190   47.6557   29.8471 C   0  0  0  0  0  0  0  0  0  0  0  0
    6.1811   48.5936   29.2227 O   0  0  0  0  0  0  0  0  0  0  0  0
    4.7532   48.5382   29.1883 C   0  0  0  0  0  0  0  0  0  0  0  0
    4.1559   48.7735   30.5592 C   0  0  0  0  0  0  0  0  0  0  0  0
    4.7227   49.7848   31.3722 C   0  0  0  0  0  0  0  0  0  0  0  0
    2.9793   48.0886   31.0109 C   0  0  0  0  0  0  0  0  0  0  0  0
    4.1320   50.0594   32.5986 C   0  0  0  0  0  0  0  0  0  0  0  0
    2.4129   48.4223   32.2613 C   0  0  0  0  0  0  0  0  0  0  0  0
    2.3278   47.0913   30.2116 N   0  0  0  0  0  0  0  0  0  0  0  0
    4.5161   50.9858   33.5490 O   0  0  0  0  0  0  0  0  0  0  0  0
    3.0261   49.4069   33.0246 C   0  0  0  0  0  0  0  0  0  0  0  0
    0.9562   47.0998   30.1068 O   0  0  0  0  0  0  0  0  0  0  0  0
    2.9507   46.0714   29.8531 O   0  0  0  0  0  0  0  0  0  0  0  0
    3.5921   50.9062   34.6430 C   0  0  0  0  0  0  0  0  0  0  0  0
    2.6566   49.8864   34.2665 O   0  0  0  0  0  0  0  0  0  0  0  0
    8.8112   40.1834   34.2131 O   0  0  0  0  0  0  0  0  0  0  0  0
   11.2398   40.7938   33.3702 O   0  0  0  0  0  0  0  0  0  0  0  0
   10.9144   40.6912   31.9983 C   0  0  0  0  0  0  0  0  0  0  0  0
   11.5270   39.3911   31.4385 C   0  0  0  0  0  0  0  0  0  0  0  0
   12.7520   39.0911   32.0835 O   0  0  0  0  0  0  0  0  0  0  0  0
   10.6114   38.1931   31.6451 C   0  0  0  0  0  0  0  0  0  0  0  0
   12.9413   37.6837   32.0297 C   0  0  0  0  0  0  0  0  0  0  0  0
    9.6064   38.0877   30.6599 O   0  0  0  0  0  0  0  0  0  0  0  0
   11.5822   37.0197   31.6876 C   0  0  0  0  0  0  0  0  0  0  0  0
   13.4840   37.2104   33.3254 N   0  0  0  0  0  0  0  0  0  0  0  0
   11.6179   36.3071   30.4690 O   0  0  0  0  0  0  0  0  0  0  0  0
   14.4797   36.3309   33.5738 C   0  0  0  0  0  0  0  0  0  0  0  0
   13.1136   37.6269   34.5702 C   0  0  0  0  0  0  0  0  0  0  0  0
   15.2074   35.6152   32.6747 N   0  0  0  0  0  0  0  0  0  0  0  0
   14.6756   36.2298   34.9190 C   0  0  0  0  0  0  0  0  0  0  0  0
   13.8217   37.0445   35.5793 N   0  0  0  0  0  0  0  0  0  0  0  0
   16.1643   34.7603   33.1551 C   0  0  0  0  0  0  0  0  0  0  0  0
   15.6528   35.3503   35.4136 C   0  0  0  0  0  0  0  0  0  0  0  0
   16.3798   34.6316   34.5046 N   0  0  0  0  0  0  0  0  0  0  0  0
   15.9004   35.1930   36.8094 N   0  0  0  0  0  0  0  0  0  0  0  0
    9.0098   45.4350   33.6669 H   0  0  0  0  0  0  0  0  0  0  0  0
   11.1131   46.1994   34.4885 H   0  0  0  0  0  0  0  0  0  0  0  0
   11.9349   45.6934   33.0930 H   0  0  0  0  0  0  0  0  0  0  0  0
   10.7310   44.8931   31.1677 H   0  0  0  0  0  0  0  0  0  0  0  0
    9.3518   43.8345   31.4759 H   0  0  0  0  0  0  0  0  0  0  0  0
    7.0124   44.7149   31.5825 H   0  0  0  0  0  0  0  0  0  0  0  0
   10.3467   47.1893   30.4145 H   0  0  0  0  0  0  0  0  0  0  0  0
    5.4695   46.2852   30.5124 H   0  0  0  0  0  0  0  0  0  0  0  0
    8.7934   48.7708   29.3445 H   0  0  0  0  0  0  0  0  0  0  0  0
    4.4350   47.5859   28.7244 H   0  0  0  0  0  0  0  0  0  0  0  0
    4.3971   49.3512   28.5220 H   0  0  0  0  0  0  0  0  0  0  0  0
    5.5924   50.3464   31.0553 H   0  0  0  0  0  0  0  0  0  0  0  0
    1.5249   47.9232   32.6274 H   0  0  0  0  0  0  0  0  0  0  0  0
    3.0688   51.8764   34.7749 H   0  0  0  0  0  0  0  0  0  0  0  0
    4.1228   50.6147   35.5735 H   0  0  0  0  0  0  0  0  0  0  0  0
    9.8235   40.7202   31.7651 H   0  0  0  0  0  0  0  0  0  0  0  0
   11.3780   41.5548   31.4750 H   0  0  0  0  0  0  0  0  0  0  0  0
   11.7311   39.5363   30.3531 H   0  0  0  0  0  0  0  0  0  0  0  0
   10.1203   38.2695   32.6410 H   0  0  0  0  0  0  0  0  0  0  0  0
   13.6850   37.4638   31.2321 H   0  0  0  0  0  0  0  0  0  0  0  0
   10.0250   38.1792   29.7654 H   0  0  0  0  0  0  0  0  0  0  0  0
   11.2757   36.3135   32.4907 H   0  0  0  0  0  0  0  0  0  0  0  0
   11.9838   36.9111   29.7708 H   0  0  0  0  0  0  0  0  0  0  0  0
   12.3307   38.3536   34.7457 H   0  0  0  0  0  0  0  0  0  0  0  0
   16.7566   34.1787   32.4623 H   0  0  0  0  0  0  0  0  0  0  0  0
   15.3535   35.7355   37.5144 H   0  0  0  0  0  0  0  0  0  0  0  0
   16.6353   34.5301   37.1419 H   0  0  0  0  0  0  0  0  0  0  0  0
  1  2  2  0
  1  3  1  0
  3  4  1  0
  4  5  1  0
  6  1  1  0
  7  6  1  0
  6  8  1  0
  8  9  1  0
  9 10  2  0
 11  9  1  0
 10 12  1  0
 13 11  2  0
 12 14  2  0
 14 13  1  0
 14 15  1  0
 15 16  1  0
 16 17  1  0
 17 18  2  0
 19 17  1  0
 18 20  1  0
 21 19  2  0
 19 22  1  0
 20 23  1  0
 20 24  2  0
 24 21  1  0
 22 25  1  0
 22 26  2  0
 23 27  1  0
 24 28  1  0
 27 28  1  0
  4 29  2  0
  4 30  1  0
 31 30  1  0
 31 32  1  0
 32 33  1  0
 32 34  1  0
 33 35  1  0
 34 36  1  0
 34 37  1  0
 37 35  1  0
 35 38  1  0
 37 39  1  0
 40 38  1  0
 41 38  1  0
 42 40  2  0
 40 43  1  0
 44 41  2  0
 45 42  1  0
 43 46  2  0
 43 44  1  0
 47 45  2  0
 47 46  1  0
 46 48  1  0
  6 49  1  1
  7 50  1  0
  7 51  1  0
  8 52  1  0
  8 53  1  0
 10 54  1  0
 11 55  1  0
 12 56  1  0
 13 57  1  0
 16 58  1  0
 16 59  1  0
 18 60  1  0
 21 61  1  0
 27 62  1  0
 27 63  1  0
 31 64  1  0
 31 65  1  0
 32 66  1  0
 34 67  1  0
 35 68  1  0
 36 69  1  0
 37 70  1  0
 39 71  1  0
 41 72  1  0
 45 73  1  0
 48 74  1  0
 48 75  1  0
M  CHG  3   5  -1  22   1  25  -1
M  END
>  <EmbedRMS>  (252) 
0.0817321169632

$$$$
